data_PCOD9351918
_publ_section_title
;
Structure prediction by ZEFSAII (Michael W. Deem and Ramdas Pophale) SiO2 
 PCOD9351918
Probable space group: C M C 21
;
_chemical_formula_sum "Si O2"
_cell_formula_units_Z 64
_cell_length_a 7.592304
_cell_length_b 14.994244
_cell_length_c 22.679413
_cell_angle_alpha 90.000000
_cell_angle_beta 90.000000
_cell_angle_gamma 90.000000
_cell_volume 2581.843851
_symmetry_space_group_name_H-M "C M C 21"
_symmetry_group_IT_number 36
_symmetry_cell_setting 'orthorhombic'
loop_
_space_group_symop_operation_xyz
x,y,z
-x,-y,1/2+z
x,-y,1/2+z
-x,y,z
1/2+x,1/2+y,z
1/2-x,1/2-y,1/2+z
1/2+x,1/2-y,1/2+z
1/2-x,1/2+y,z
loop_
_atom_site_type_symbol
_atom_site_label
_atom_site_fract_x
_atom_site_fract_y
_atom_site_fract_z
Si Si1 0.710538 0.380343 0.932620
Si Si2 0.286525 0.425643 0.394519
Si Si3 0.288718 0.289452 0.490135
Si Si4 0.797909 0.091499 0.643072
Si Si5 0.200529 0.184833 0.311182
Si Si6 0.793966 0.226102 0.191051
Si Si7 0.217030 0.088910 0.098290
Si Si8 0.206952 0.509657 0.768448
O O1 0.500000 0.385782 0.925777
O O2 0.770611 0.482612 0.927801
O O3 0.743130 0.314837 0.987072
O O4 0.786409 0.328985 0.874903
O O5 0.500000 0.424270 0.393714
O O6 0.224100 0.341618 0.431977
O O7 0.226017 0.430228 0.327117
O O8 0.500000 0.293990 0.491370
O O9 0.226144 0.349565 0.544393
O O10 0.714973 0.188223 0.649352
O O11 0.000000 0.105938 0.626822
O O12 0.724409 0.013536 0.601301
O O13 0.785880 0.051199 0.709386
O O14 0.283022 0.238856 0.256604
O O15 0.202427 0.083411 0.285976
O O16 0.000000 0.216139 0.320987
O O17 0.721944 0.141201 0.156578
O O18 0.000000 0.208974 0.201220
O O19 0.000000 0.086806 0.098557
O O20 0.000000 0.494990 0.758437
#
# Coordination Sequence:
#
# PCOD9351918 Si02
#       8
#     8   8   8   8   8   8   8   8
#     4   9  19  35  55  82 115 151 186 230 289 339
#     4   9  20  38  57  81 116 155 190 229 286 346
#     4  10  21  38  61  85 109 150 200 236 274 339
#     4  11  22  38  59  85 115 153 194 235 289 347
#     4   9  18  36  59  81 117 158 186 225 292 351
#     4  10  20  37  59  85 115 152 189 234 290 342
#     4   9  20  40  61  80 114 155 190 233 289 343
#     4  11  21  34  57  87 119 150 191 240 287 339
#
# _framework density 24.788485999999999
#
# number of rings (size 3 to 8) (size 9 to 14) (size 15 to 20)
#    0.000    2.250    1.250    2.250    1.750    4.000 
#    0.000    3.125    0.000    0.000    0.000    0.000 
#    0.000    0.000    0.000    0.000    0.000    0.000 
#
# Total GULP energy -178776.272350 kJ/mol
# GULP energy per Si atom -5586.758511 kJ/mol
# Density = 2.473207 g / cm^3
# Si number density = 24.788486 Si / 1000 Ang^3
#
#
#
# Elastic Constant Matrix: (Units=GPa)
#
#
# Indices 1 2 3 4 5 6 
#
# 1 70.6640 -2.9911 -4.9877 0.0000 0.0000 0.0000
# 2 -2.9911 95.9380 3.2418 0.0000 0.0000 0.0000
# 3 -4.9877 3.2418 12.5727 0.0000 0.0000 0.0000
# 4 0.0000 0.0000 0.0000 33.1735 0.0000 0.0000
# 5 0.0000 0.0000 0.0000 0.0000 10.7646 0.0000
# 6 0.0000 0.0000 0.0000 0.0000 0.0000 9.0499
#
#
#
# Elastic Compliance Matrix: (Units=1/GPa)
#
#
# Indices 1 2 3 4 5 6 
#
# 1 0.014566 0.000261 0.005711 0.000000 0.000000 0.000000
# 2 0.000261 0.010520 -0.002609 0.000000 0.000000 0.000000
# 3 0.005711 -0.002609 0.082476 0.000000 0.000000 0.000000
# 4 0.000000 0.000000 0.000000 0.030145 0.000000 0.000000
# 5 0.000000 0.000000 0.000000 0.000000 0.092897 0.000000
# 6 0.000000 0.000000 0.000000 0.000000 0.000000 0.110499
#
#
# Mechanical properties :
#
#
# Convention : Reuss Voigt Hill
#
# Bulk Modulus (GPa) = 8.74985 18.85564 13.80274
# Shear Modulus (GPa) = 13.42385 22.85836 18.14111
#
# Velocity S-wave (km/s) = 2.32962 3.03996 2.70818
# Velocity P-wave (km/s) = 3.28232 4.46598 3.91909
#
# Compressibility (1/GPa) = 0.11428770
#
# Stress axis : x y z
#
# Youngs Moduli (GPa) = 68.65478 95.05976 12.12475
#
# Poissons Ratio (x) = -0.02482 -0.06924
# Poissons Ratio (y) = -0.01793 0.03163
# Poissons Ratio (z) = -0.39209 0.24800
#
# Static dielectric constant tensor:
#      x y z
#    x 1.934610 0.000000 0.000000 
#    y 0.000000 1.962960 0.000000 
#    z 0.000000 0.000000 2.031570 
# 
# From -- ./inp_files/16671.got.cif
#   From: 2010.05.17/outbox.cif.g08.bks.cpg/sg36_9_cif.got.tgz:16671.got - 2010.06.03 17:41:39.
