data_PCOD9351255
_publ_section_title
;
Structure prediction by ZEFSAII (Michael W. Deem and Ramdas Pophale) SiO2 
 PCOD9351255
Probable space group: C M C 21
;
_chemical_formula_sum "Si O2"
_cell_formula_units_Z 48
_cell_length_a 7.365451
_cell_length_b 14.690046
_cell_length_c 17.010505
_cell_angle_alpha 90.000000
_cell_angle_beta 90.000000
_cell_angle_gamma 90.000000
_cell_volume 1840.516467
_symmetry_space_group_name_H-M "C M C 21"
_symmetry_group_IT_number 36
_symmetry_cell_setting 'orthorhombic'
loop_
_space_group_symop_operation_xyz
x,y,z
-x,-y,1/2+z
x,-y,1/2+z
-x,y,z
1/2+x,1/2+y,z
1/2-x,1/2-y,1/2+z
1/2+x,1/2-y,1/2+z
1/2-x,1/2+y,z
loop_
_atom_site_type_symbol
_atom_site_label
_atom_site_fract_x
_atom_site_fract_y
_atom_site_fract_z
Si Si1 0.707200 0.951834 0.712300
Si Si2 0.784101 0.929473 0.476982
Si Si3 0.704749 0.795682 0.605087
Si Si4 0.216206 0.381657 0.298269
Si Si5 0.721609 0.370823 0.020282
Si Si6 0.779515 0.816806 0.845622
O O1 0.500000 0.965114 0.684436
O O2 0.794610 0.874866 0.656967
O O3 0.706686 0.900180 0.795451
O O4 0.790091 0.050222 0.731504
O O5 0.696762 0.844018 0.520123
O O6 0.747051 0.924922 0.384493
O O7 0.000000 0.923130 0.486843
O O8 0.722994 0.023928 0.517173
O O9 0.500000 0.782635 0.635716
O O10 0.786746 0.696678 0.588954
O O11 0.281242 0.278092 0.306483
O O12 0.000000 0.377531 0.286138
O O13 0.500000 0.369610 0.023378
O O14 0.775604 0.329211 0.935835
O O15 0.000000 0.819648 0.843646
#
# Coordination Sequence:
#
# PCOD9351255 Si02
#       6
#     8   8   8   8   8   8
#     4  10  22  37  57  85 114 144 184 232 277 327
#     4  11  21  34  56  85 108 140 191 234 268 323
#     4  10  21  40  58  78 115 153 180 222 286 338
#     4  10  20  36  57  82 111 147 184 224 279 335
#     4   9  18  34  56  79 106 147 184 218 277 336
#     4  10  19  35  58  79 108 149 183 220 277 335
#
# _framework density 26.079635
#
# number of rings (size 3 to 8) (size 9 to 14) (size 15 to 20)
#    0.000    2.000    3.333    0.500    0.000    2.667 
#    0.000    1.667    0.000    0.000    0.000    0.000 
#    0.000    0.000    0.000    0.000    0.000    0.000 
#
# Total GULP energy -134220.947094 kJ/mol
# GULP energy per Si atom -5592.539462 kJ/mol
# Density = 2.602028 g / cm^3
# Si number density = 26.079635 Si / 1000 Ang^3
#
#
#
# Elastic Constant Matrix: (Units=GPa)
#
#
# Indices 1 2 3 4 5 6 
#
# 1 104.0813 12.0940 -3.1692 0.0000 0.0000 0.0000
# 2 12.0940 145.4727 17.9379 0.0000 0.0000 0.0000
# 3 -3.1692 17.9379 55.7905 0.0000 0.0000 0.0000
# 4 0.0000 0.0000 0.0000 59.6013 0.0000 0.0000
# 5 0.0000 0.0000 0.0000 0.0000 11.7670 0.0000
# 6 0.0000 0.0000 0.0000 0.0000 0.0000 -7.0440
#
#
#
# Elastic Compliance Matrix: (Units=1/GPa)
#
#
# Indices 1 2 3 4 5 6 
#
# 1 0.009740 -0.000914 0.000847 0.000000 0.000000 0.000000
# 2 -0.000914 0.007244 -0.002381 0.000000 0.000000 0.000000
# 3 0.000847 -0.002381 0.018738 0.000000 0.000000 0.000000
# 4 0.000000 0.000000 0.000000 0.016778 0.000000 0.000000
# 5 0.000000 0.000000 0.000000 0.000000 0.084983 0.000000
# 6 0.000000 0.000000 0.000000 0.000000 0.000000 -0.141964
#
#
# Mechanical properties :
#
#
# Convention : Reuss Voigt Hill
#
# Bulk Modulus (GPa) = 32.44055 39.89665 36.16860
# Shear Modulus (GPa) = 467.74553 31.43031 249.58792
#
# Velocity S-wave (km/s) = 13.40679 3.47532 9.79336
# Velocity P-wave (km/s) = 15.87836 5.60669 11.90708
#
# Compressibility (1/GPa) = 0.03082561
#
# Stress axis : x y z
#
# Youngs Moduli (GPa) = 102.67048 138.05027 53.36787
#
# Poissons Ratio (x) = 0.12621 -0.04521
# Poissons Ratio (y) = 0.09386 0.12707
# Poissons Ratio (z) = -0.08698 0.32869
#
# Static dielectric constant tensor:
#      x y z
#    x 1.975710 0.000000 0.000000 
#    y 0.000000 2.026850 0.000000 
#    z 0.000000 0.000000 2.055660 
# 
# From -- ./inp_files/13469.got.cif
#   From: 2010.05.17/outbox.cif.g08.bks.cpg/sg36_7_cif.got.tgz:13469.got - 2010.06.03 17:41:39.
