data_PCOD9351891
_publ_section_title
;
Structure prediction by ZEFSAII (Michael W. Deem and Ramdas Pophale) SiO2 
 PCOD9351891
Probable space group: C M C 21
;
_chemical_formula_sum "Si O2"
_cell_formula_units_Z 64
_cell_length_a 8.232530
_cell_length_b 31.438131
_cell_length_c 12.227443
_cell_angle_alpha 90.000000
_cell_angle_beta 90.000000
_cell_angle_gamma 90.000000
_cell_volume 3164.650020
_symmetry_space_group_name_H-M "C M C 21"
_symmetry_group_IT_number 36
_symmetry_cell_setting 'orthorhombic'
loop_
_space_group_symop_operation_xyz
x,y,z
-x,-y,1/2+z
x,-y,1/2+z
-x,y,z
1/2+x,1/2+y,z
1/2-x,1/2-y,1/2+z
1/2+x,1/2-y,1/2+z
1/2-x,1/2+y,z
loop_
_atom_site_type_symbol
_atom_site_label
_atom_site_fract_x
_atom_site_fract_y
_atom_site_fract_z
Si Si1 0.810377 0.787687 0.529840
Si Si2 0.810018 0.323035 0.318825
Si Si3 0.304856 0.872226 0.905759
Si Si4 0.196192 0.457457 0.525791
Si Si5 0.693854 0.373459 0.654595
Si Si6 0.698808 0.053063 0.567155
Si Si7 0.311799 0.695754 0.581591
Si Si8 0.302303 0.081657 0.805036
O O1 0.790035 0.793623 0.399889
O O2 0.749986 0.830927 0.589461
O O3 0.714293 0.745632 0.561846
O O4 0.000000 0.781705 0.557811
O O5 0.786644 0.315447 0.190809
O O6 0.754469 0.371175 0.339541
O O7 0.000000 0.318701 0.346458
O O8 0.500000 0.871814 0.904221
O O9 0.244127 0.870961 0.781497
O O10 0.251422 0.915294 0.969638
O O11 0.246563 0.832509 0.979203
O O12 0.245886 0.417308 0.599654
O O13 0.252969 0.504244 0.559758
O O14 0.250133 0.449483 0.401015
O O15 0.000000 0.458160 0.527238
O O16 0.500000 0.373577 0.647241
O O17 0.500000 0.053062 0.566504
O O18 0.754294 0.071344 0.683622
O O19 0.500000 0.686336 0.601372
O O20 0.500000 0.081114 0.801163
#
# Coordination Sequence:
#
# PCOD9351891 Si02
#       8
#     8   8   8   8   8   8   8   8
#     4  11  25  44  65  90 123 165 212 259 314 374
#     4  11  21  40  67  93 125 161 207 262 316 367
#     4  11  23  42  66  91 124 166 214 262 312 370
#     4  10  20  36  64  94 121 161 211 257 308 367
#     4  11  25  43  61  88 129 167 205 257 318 377
#     4   9  19  35  61  95 123 156 207 261 307 362
#     4  12  26  43  65  94 128 165 208 255 316 380
#     4   9  17  33  59  91 123 155 200 259 307 353
#
# _framework density 20.223403999999999
#
# number of rings (size 3 to 8) (size 9 to 14) (size 15 to 20)
#    0.000    1.500    2.500    2.625    3.500    1.500 
#    0.000    1.250    0.000    0.000    0.000    0.000 
#    0.000    0.000    0.000    0.000    0.000    0.000 
#
# Total GULP energy -178750.425126 kJ/mol
# GULP energy per Si atom -5585.950785 kJ/mol
# Density = 2.017737 g / cm^3
# Si number density = 20.223404 Si / 1000 Ang^3
#
#
#
# Elastic Constant Matrix: (Units=GPa)
#
#
# Indices 1 2 3 4 5 6 
#
# 1 28.5393 8.0248 -5.0719 0.0000 0.0000 0.0000
# 2 8.0248 110.9150 27.8380 0.0000 0.0000 0.0000
# 3 -5.0719 27.8380 100.6411 0.0000 0.0000 0.0000
# 4 0.0000 0.0000 0.0000 23.1660 0.0000 0.0000
# 5 0.0000 0.0000 0.0000 0.0000 26.8960 0.0000
# 6 0.0000 0.0000 0.0000 0.0000 0.0000 19.3525
#
#
#
# Elastic Compliance Matrix: (Units=1/GPa)
#
#
# Indices 1 2 3 4 5 6 
#
# 1 0.036466 -0.003331 0.002759 0.000000 0.000000 0.000000
# 2 -0.003331 0.009993 -0.002932 0.000000 0.000000 0.000000
# 3 0.002759 -0.002932 0.010886 0.000000 0.000000 0.000000
# 4 0.000000 0.000000 0.000000 0.043167 0.000000 0.000000
# 5 0.000000 0.000000 0.000000 0.000000 0.037180 0.000000
# 6 0.000000 0.000000 0.000000 0.000000 0.000000 0.051673
#
#
# Mechanical properties :
#
#
# Convention : Reuss Voigt Hill
#
# Bulk Modulus (GPa) = 19.86568 33.51970 26.69269
# Shear Modulus (GPa) = 23.45740 27.83651 25.64695
#
# Velocity S-wave (km/s) = 3.40945 3.71408 3.56502
# Velocity P-wave (km/s) = 5.03424 5.91635 5.49303
#
# Compressibility (1/GPa) = 0.05033807
#
# Stress axis : x y z
#
# Youngs Moduli (GPa) = 27.42251 100.07232 91.85829
#
# Poissons Ratio (x) = 0.33333 -0.25345
# Poissons Ratio (y) = 0.09134 0.26932
# Poissons Ratio (z) = -0.07566 0.29340
#
# Static dielectric constant tensor:
#      x y z
#    x 1.707470 0.000000 0.000000 
#    y 0.000000 1.719020 0.000000 
#    z 0.000000 0.000000 1.693360 
# 
# From -- ./inp_files/7081.got.cif
#   From: 2010.05.17/outbox.cif.g08.bks.cpg/sg36_4_cif.got.tgz:7081.got - 2010.06.03 17:41:39.
