data_PCOD9351123
_publ_section_title
;
Structure prediction by ZEFSAII (Michael W. Deem and Ramdas Pophale) SiO2 
 PCOD9351123
Probable space group: C M C 21
;
_chemical_formula_sum "Si O2"
_cell_formula_units_Z 36
_cell_length_a 10.968078
_cell_length_b 14.033286
_cell_length_c 9.738818
_cell_angle_alpha 90.000000
_cell_angle_beta 90.000000
_cell_angle_gamma 90.000000
_cell_volume 1498.981098
_symmetry_space_group_name_H-M "C M C 21"
_symmetry_group_IT_number 36
_symmetry_cell_setting 'orthorhombic'
loop_
_space_group_symop_operation_xyz
x,y,z
-x,-y,1/2+z
x,-y,1/2+z
-x,y,z
1/2+x,1/2+y,z
1/2-x,1/2-y,1/2+z
1/2+x,1/2-y,1/2+z
1/2-x,1/2+y,z
loop_
_atom_site_type_symbol
_atom_site_label
_atom_site_fract_x
_atom_site_fract_y
_atom_site_fract_z
Si Si1 0.751313 0.425161 0.016860
Si Si2 0.258318 0.721423 0.289526
Si Si3 0.500000 0.223983 0.170239
Si Si4 0.140825 0.973466 0.749819
Si Si5 0.500000 0.980109 0.565393
Si Si6 0.500000 0.181867 0.861989
O O1 0.657301 0.446982 0.136584
O O2 0.881032 0.456702 0.072357
O O3 0.753512 0.322816 0.943778
O O4 0.710651 0.493948 0.891027
O O5 0.125731 0.753863 0.241506
O O6 0.298471 0.627007 0.203114
O O7 0.373961 0.791008 0.288079
O O8 0.500000 0.106917 0.173313
O O9 0.500000 0.242268 0.006538
O O10 0.000000 0.955319 0.780398
O O11 0.500000 0.925276 0.418391
#
# Coordination Sequence:
#
# PCOD9351123 Si02
#       6
#     8   8   4   8   4   4
#     4  10  20  35  63  91 122 165 217 267 321 381
#     4  10  20  40  63  90 126 177 206 275 323 391
#     4  10  21  41  66  82 137 164 217 265 336 366
#     4  10  19  33  59  91 129 158 215 264 325 376
#     4  10  19  39  61  90 121 162 213 264 317 385
#     4  10  22  42  63  88 130 176 214 253 341 393
#
# _framework density 24.016314000000001
#
# number of rings (size 3 to 8) (size 9 to 14) (size 15 to 20)
#    2.000    0.000    3.333    1.333    1.556    0.889 
#    4.000    1.111    2.444    0.000    0.000    0.000 
#    0.000    0.000    0.000    0.000    0.000    0.000 
#
# Total GULP energy -100508.735127 kJ/mol
# GULP energy per Si atom -5583.818618 kJ/mol
# Density = 2.396165 g / cm^3
# Si number density = 24.016314 Si / 1000 Ang^3
#
#
#
# Elastic Constant Matrix: (Units=GPa)
#
#
# Indices 1 2 3 4 5 6 
#
# 1 178.2023 26.7272 25.4437 0.0000 0.0000 0.0000
# 2 26.7272 83.8286 28.0050 0.0000 0.0000 0.0000
# 3 25.4437 28.0050 83.7240 0.0000 0.0000 0.0000
# 4 0.0000 0.0000 0.0000 37.9812 0.0000 0.0000
# 5 0.0000 0.0000 0.0000 0.0000 33.2301 0.0000
# 6 0.0000 0.0000 0.0000 0.0000 0.0000 9.6301
#
#
#
# Elastic Compliance Matrix: (Units=1/GPa)
#
#
# Indices 1 2 3 4 5 6 
#
# 1 0.006024 -0.001474 -0.001338 0.000000 0.000000 0.000000
# 2 -0.001474 0.013790 -0.004165 0.000000 0.000000 0.000000
# 3 -0.001338 -0.004165 0.013744 0.000000 0.000000 0.000000
# 4 0.000000 0.000000 0.000000 0.026329 0.000000 0.000000
# 5 0.000000 0.000000 0.000000 0.000000 0.030093 0.000000
# 6 0.000000 0.000000 0.000000 0.000000 0.000000 0.103841
#
#
# Mechanical properties :
#
#
# Convention : Reuss Voigt Hill
#
# Bulk Modulus (GPa) = 51.00694 56.23408 53.62051
# Shear Modulus (GPa) = 23.33090 33.87355 28.60223
#
# Velocity S-wave (km/s) = 3.12021 3.75966 3.45476
# Velocity P-wave (km/s) = 5.85367 6.50480 6.18781
#
# Compressibility (1/GPa) = 0.01960517
#
# Stress axis : x y z
#
# Youngs Moduli (GPa) = 166.01345 72.51452 72.76087
#
# Poissons Ratio (x) = 0.10686 0.09733
# Poissons Ratio (y) = 0.24464 0.30304
# Poissons Ratio (z) = 0.22207 0.30202
#
# Static dielectric constant tensor:
#      x y z
#    x 1.950500 0.000000 0.000000 
#    y 0.000000 1.932110 0.000000 
#    z 0.000000 0.000000 1.941620 
# 
# From -- ./inp_files/7592.got.cif
#   From: 2010.05.17/outbox.cif.g08.bks.cpg/sg36_4_cif.got.tgz:7592.got - 2010.06.03 17:41:39.
