data_PCOD9351310
_publ_section_title
;
Structure prediction by ZEFSAII (Michael W. Deem and Ramdas Pophale) SiO2 
 PCOD9351310
Probable space group: C M C 21
;
_chemical_formula_sum "Si O2"
_cell_formula_units_Z 56
_cell_length_a 28.171234
_cell_length_b 5.392387
_cell_length_c 14.629733
_cell_angle_alpha 90.000000
_cell_angle_beta 90.000000
_cell_angle_gamma 90.000000
_cell_volume 2222.405607
_symmetry_space_group_name_H-M "C M C 21"
_symmetry_group_IT_number 36
_symmetry_cell_setting 'orthorhombic'
loop_
_space_group_symop_operation_xyz
x,y,z
-x,-y,1/2+z
x,-y,1/2+z
-x,y,z
1/2+x,1/2+y,z
1/2-x,1/2-y,1/2+z
1/2+x,1/2-y,1/2+z
1/2-x,1/2+y,z
loop_
_atom_site_type_symbol
_atom_site_label
_atom_site_fract_x
_atom_site_fract_y
_atom_site_fract_z
Si Si1 0.444333 0.866080 0.191270
Si Si2 0.553513 0.969608 0.893957
Si Si3 0.634724 0.504800 0.252080
Si Si4 0.366299 0.168098 0.094743
Si Si5 0.729724 0.694591 0.222522
Si Si6 0.603548 0.482198 0.944557
Si Si7 0.267362 0.906331 0.516057
O O1 0.500000 0.825948 0.168069
O O2 0.443292 0.036655 0.283220
O O3 0.412828 0.003019 0.114219
O O4 0.416699 0.615680 0.222870
O O5 0.500000 0.033522 0.918350
O O6 0.566727 0.706439 0.937457
O O7 0.584439 0.204903 0.923304
O O8 0.648836 0.264978 0.194246
O O9 0.673355 0.712079 0.228980
O O10 0.637008 0.456247 0.359577
O O11 0.323135 0.051601 0.037446
O O12 0.375717 0.431465 0.043511
O O13 0.746605 0.435471 0.263700
O O14 0.743768 0.653048 0.115792
O O15 0.257582 0.640743 0.470464
#
# Coordination Sequence:
#
# PCOD9351310 Si02
#       7
#     8   8   8   8   8   8   8
#     4  10  23  41  67  97 128 178 228 271 333 399
#     4  10  22  45  66  88 131 174 221 279 329 384
#     4  11  23  43  68  93 138 175 222 277 331 399
#     4  12  24  41  69  96 136 175 222 279 329 396
#     4  10  19  35  65  93 121 171 216 261 335 386
#     4  11  26  41  64 100 129 177 218 272 338 385
#     4  10  20  36  63  93 125 170 213 263 335 381
#
# _framework density 25.197921999999998
#
# number of rings (size 3 to 8) (size 9 to 14) (size 15 to 20)
#    0.000    1.429    4.286    2.143    2.000    2.286 
#    0.000    1.429    0.000    0.000    0.000    0.000 
#    0.000    0.000    0.000    0.000    0.000    0.000 
#
# Total GULP energy -156523.490572 kJ/mol
# GULP energy per Si atom -5590.124663 kJ/mol
# Density = 2.514057 g / cm^3
# Si number density = 25.197922 Si / 1000 Ang^3
#
#
#
# Elastic Constant Matrix: (Units=GPa)
#
#
# Indices 1 2 3 4 5 6 
#
# 1 126.5882 27.0030 6.5494 0.0000 0.0000 0.0000
# 2 27.0030 134.2846 13.0235 0.0000 0.0000 0.0000
# 3 6.5494 13.0235 63.5560 0.0000 0.0000 0.0000
# 4 0.0000 0.0000 0.0000 36.8411 0.0000 0.0000
# 5 0.0000 0.0000 0.0000 0.0000 11.1725 0.0000
# 6 0.0000 0.0000 0.0000 0.0000 0.0000 20.8550
#
#
#
# Elastic Compliance Matrix: (Units=1/GPa)
#
#
# Indices 1 2 3 4 5 6 
#
# 1 0.008271 -0.001613 -0.000522 0.000000 0.000000 0.000000
# 2 -0.001613 0.007912 -0.001455 0.000000 0.000000 0.000000
# 3 -0.000522 -0.001455 0.016086 0.000000 0.000000 0.000000
# 4 0.000000 0.000000 0.000000 0.027144 0.000000 0.000000
# 5 0.000000 0.000000 0.000000 0.000000 0.089506 0.000000
# 6 0.000000 0.000000 0.000000 0.000000 0.000000 0.047950
#
#
# Mechanical properties :
#
#
# Convention : Reuss Voigt Hill
#
# Bulk Modulus (GPa) = 39.85663 46.39783 43.12723
# Shear Modulus (GPa) = 23.53929 32.29723 27.91826
#
# Velocity S-wave (km/s) = 3.05974 3.58403 3.33221
# Velocity P-wave (km/s) = 5.32301 5.96492 5.65309
#
# Compressibility (1/GPa) = 0.02508993
#
# Stress axis : x y z
#
# Youngs Moduli (GPa) = 120.91018 126.38621 62.16540
#
# Poissons Ratio (x) = 0.20380 0.03244
# Poissons Ratio (y) = 0.19497 0.09046
# Poissons Ratio (z) = 0.06310 0.18391
#
# Static dielectric constant tensor:
#      x y z
#    x 1.996430 0.000000 0.000000 
#    y 0.000000 2.053260 0.000000 
#    z 0.000000 0.000000 2.070340 
# 
# From -- ./inp_files/13159.got.cif
#   From: 2010.05.17/outbox.cif.g08.bks.cpg/sg36_7_cif.got.tgz:13159.got - 2010.06.03 17:41:39.
