data_PCOD9351910
_publ_section_title
;
Structure prediction by ZEFSAII (Michael W. Deem and Ramdas Pophale) SiO2 
 PCOD9351910
Probable space group: C M C 21
;
_chemical_formula_sum "Si O2"
_cell_formula_units_Z 48
_cell_length_a 8.041568
_cell_length_b 29.235576
_cell_length_c 8.159727
_cell_angle_alpha 90.000000
_cell_angle_beta 90.000000
_cell_angle_gamma 90.000000
_cell_volume 1918.350777
_symmetry_space_group_name_H-M "C M C 21"
_symmetry_group_IT_number 36
_symmetry_cell_setting 'orthorhombic'
loop_
_space_group_symop_operation_xyz
x,y,z
-x,-y,1/2+z
x,-y,1/2+z
-x,y,z
1/2+x,1/2+y,z
1/2-x,1/2-y,1/2+z
1/2+x,1/2-y,1/2+z
1/2-x,1/2+y,z
loop_
_atom_site_type_symbol
_atom_site_label
_atom_site_fract_x
_atom_site_fract_y
_atom_site_fract_z
Si Si1 0.297651 0.649761 0.377340
Si Si2 0.201688 0.765644 0.069433
Si Si3 0.803109 0.320692 0.390693
Si Si4 0.196021 0.095199 0.055763
Si Si5 0.190787 0.065821 0.574013
Si Si6 0.686711 0.983055 0.760372
O O1 0.500000 0.648252 0.378330
O O2 0.247167 0.700913 0.419288
O O3 0.244925 0.627480 0.207347
O O4 0.239996 0.614964 0.520249
O O5 0.266029 0.792409 0.226820
O O6 0.000000 0.764447 0.076407
O O7 0.262527 0.714676 0.030536
O O8 0.726714 0.371180 0.403856
O O9 0.000000 0.325947 0.408926
O O10 0.286275 0.047860 0.096770
O O11 0.000000 0.085996 0.067006
O O12 0.196957 0.037511 0.401469
O O13 0.000000 0.070331 0.625230
O O14 0.280504 0.034806 0.707367
O O15 0.500000 0.976888 0.820376
#
# Coordination Sequence:
#
# PCOD9351910 Si02
#       6
#     8   8   8   8   8   8
#     4   8  17  35  59  82 105 141 190 233 269 327
#     4  10  21  38  58  81 112 149 187 229 279 334
#     4  11  23  37  56  85 116 146 187 235 280 332
#     4  10  20  38  61  82 110 150 191 232 286 347
#     4  10  20  37  59  83 113 154 198 235 283 347
#     4  11  22  37  57  85 118 150 191 244 293 335
#
# _framework density 25.021491000000001
#
# number of rings (size 3 to 8) (size 9 to 14) (size 15 to 20)
#    0.000    2.000    0.000    5.000    0.000    4.000 
#    0.000   10.000    0.000    0.000    0.000    0.000 
#    0.000    0.000    0.000    0.000    0.000    0.000 
#
# Total GULP energy -134258.765556 kJ/mol
# GULP energy per Si atom -5594.115232 kJ/mol
# Density = 2.496454 g / cm^3
# Si number density = 25.021491 Si / 1000 Ang^3
#
#
#
# Elastic Constant Matrix: (Units=GPa)
#
#
# Indices 1 2 3 4 5 6 
#
# 1 63.2941 6.7652 -14.8745 0.0000 0.0000 0.0000
# 2 6.7652 130.6636 -4.2783 0.0000 0.0000 0.0000
# 3 -14.8745 -4.2783 69.0214 0.0000 0.0000 0.0000
# 4 0.0000 0.0000 0.0000 44.8908 0.0000 0.0000
# 5 0.0000 0.0000 0.0000 0.0000 20.9363 0.0000
# 6 0.0000 0.0000 0.0000 0.0000 0.0000 19.5377
#
#
#
# Elastic Compliance Matrix: (Units=1/GPa)
#
#
# Indices 1 2 3 4 5 6 
#
# 1 0.016715 -0.000749 0.003556 0.000000 0.000000 0.000000
# 2 -0.000749 0.007702 0.000316 0.000000 0.000000 0.000000
# 3 0.003556 0.000316 0.015274 0.000000 0.000000 0.000000
# 4 0.000000 0.000000 0.000000 0.022276 0.000000 0.000000
# 5 0.000000 0.000000 0.000000 0.000000 0.047764 0.000000
# 6 0.000000 0.000000 0.000000 0.000000 0.000000 0.051183
#
#
# Mechanical properties :
#
#
# Convention : Reuss Voigt Hill
#
# Bulk Modulus (GPa) = 21.76896 26.46709 24.11802
# Shear Modulus (GPa) = 29.41497 35.43075 32.42286
#
# Velocity S-wave (km/s) = 3.43240 3.76708 3.60363
# Velocity P-wave (km/s) = 4.94242 5.43340 5.19372
#
# Compressibility (1/GPa) = 0.04593697
#
# Stress axis : x y z
#
# Youngs Moduli (GPa) = 59.82670 129.83016 65.47013
#
# Poissons Ratio (x) = 0.09724 -0.23279
# Poissons Ratio (y) = 0.04481 -0.02069
# Poissons Ratio (z) = -0.21273 -0.04103
#
# Static dielectric constant tensor:
#      x y z
#    x 1.865670 0.000000 0.000000 
#    y 0.000000 1.964880 0.000000 
#    z 0.000000 0.000000 2.093030 
# 
# From -- ./inp_files/2699.got.cif
#   From: 2010.05.17/outbox.cif.g08.bks.cpg/sg36_2_cif.got.tgz:2699.got - 2010.06.03 17:41:39.
