data_PCOD9351764
_publ_section_title
;
Structure prediction by ZEFSAII (Michael W. Deem and Ramdas Pophale) SiO2 
 PCOD9351764
Probable space group: C M C 21
;
_chemical_formula_sum "Si O2"
_cell_formula_units_Z 64
_cell_length_a 23.605976
_cell_length_b 17.786979
_cell_length_c 9.512116
_cell_angle_alpha 90.000000
_cell_angle_beta 90.000000
_cell_angle_gamma 90.000000
_cell_volume 3993.937748
_symmetry_space_group_name_H-M "C M C 21"
_symmetry_group_IT_number 36
_symmetry_cell_setting 'orthorhombic'
loop_
_space_group_symop_operation_xyz
x,y,z
-x,-y,1/2+z
x,-y,1/2+z
-x,y,z
1/2+x,1/2+y,z
1/2-x,1/2-y,1/2+z
1/2+x,1/2-y,1/2+z
1/2-x,1/2+y,z
loop_
_atom_site_type_symbol
_atom_site_label
_atom_site_fract_x
_atom_site_fract_y
_atom_site_fract_z
Si Si1 0.816313 0.772592 0.861990
Si Si2 0.148711 0.875716 0.370096
Si Si3 0.782408 0.755902 0.541873
Si Si4 0.754777 0.402114 0.948576
Si Si5 0.275975 0.495417 0.217412
Si Si6 0.436924 0.316983 0.836268
Si Si7 0.602196 0.553335 0.127299
Si Si8 0.062088 0.884351 0.147583
O O1 0.786704 0.762741 0.709601
O O2 0.804799 0.858233 0.916821
O O3 0.882832 0.761625 0.840584
O O4 0.780114 0.726582 0.977188
O O5 0.173702 0.810936 0.467313
O O6 0.199051 0.929292 0.316144
O O7 0.105340 0.923908 0.464543
O O8 0.113340 0.848853 0.235854
O O9 0.792452 0.669894 0.490069
O O10 0.764122 0.450708 0.808840
O O11 0.749977 0.456841 0.080626
O O12 0.331996 0.540589 0.169205
O O13 0.500000 0.285070 0.812905
O O14 0.424145 0.380404 0.719464
O O15 0.436817 0.356617 0.988063
O O16 0.572026 0.473966 0.148558
O O17 0.000000 0.866608 0.206887
#
# Coordination Sequence:
#
# PCOD9351764 Si02
#       8
#     8   8   8   8   8   8   8   8
#     4  10  20  36  50  75  94 137 179 217 267 316
#     4  11  20  31  52  68 100 136 181 227 260 303
#     4  10  21  35  51  74  97 134 186 223 270 323
#     4  10  21  31  52  70 101 131 177 223 268 324
#     4  11  18  32  46  73  93 135 176 222 268 309
#     4  11  21  33  46  66 100 135 171 219 261 306
#     4  11  18  30  46  66  97 137 183 220 253 289
#     4  10  22  32  45  70  99 141 189 221 247 290
#
# _framework density 16.024284999999999
#
# number of rings (size 3 to 8) (size 9 to 14) (size 15 to 20)
#    0.750    0.750    3.750    4.125    1.750    2.000 
#    0.000    0.000    0.000    0.000    0.000    0.000 
#    0.000    0.000    0.000   11.250    2.000    2.500 
#
# Total GULP energy -178207.005817 kJ/mol
# GULP energy per Si atom -5568.968932 kJ/mol
# Density = 1.598781 g / cm^3
# Si number density = 16.024285 Si / 1000 Ang^3
#
#
#
# Elastic Constant Matrix: (Units=GPa)
#
#
# Indices 1 2 3 4 5 6 
#
# 1 64.1381 12.7308 17.6882 0.0000 0.0000 0.0000
# 2 12.7308 34.0887 17.2513 0.0000 0.0000 0.0000
# 3 17.6882 17.2513 78.3670 0.0000 0.0000 0.0000
# 4 0.0000 0.0000 0.0000 25.0722 0.0000 0.0000
# 5 0.0000 0.0000 0.0000 0.0000 18.5877 0.0000
# 6 0.0000 0.0000 0.0000 0.0000 0.0000 14.3513
#
#
#
# Elastic Compliance Matrix: (Units=1/GPa)
#
#
# Indices 1 2 3 4 5 6 
#
# 1 0.017371 -0.005068 -0.002805 0.000000 0.000000 0.000000
# 2 -0.005068 0.034491 -0.006449 0.000000 0.000000 0.000000
# 3 -0.002805 -0.006449 0.014813 0.000000 0.000000 0.000000
# 4 0.000000 0.000000 0.000000 0.039885 0.000000 0.000000
# 5 0.000000 0.000000 0.000000 0.000000 0.053799 0.000000
# 6 0.000000 0.000000 0.000000 0.000000 0.000000 0.069680
#
#
# Mechanical properties :
#
#
# Convention : Reuss Voigt Hill
#
# Bulk Modulus (GPa) = 26.29373 30.21495 28.25434
# Shear Modulus (GPa) = 18.42568 20.19715 19.31141
#
# Velocity S-wave (km/s) = 3.39464 3.55408 3.47527
# Velocity P-wave (km/s) = 5.63995 5.97818 5.81152
#
# Compressibility (1/GPa) = 0.03803188
#
# Stress axis : x y z
#
# Youngs Moduli (GPa) = 57.56766 28.99268 67.50707
#
# Poissons Ratio (x) = 0.14693 0.18937
# Poissons Ratio (y) = 0.29174 0.43535
# Poissons Ratio (z) = 0.16149 0.18697
#
# Static dielectric constant tensor:
#      x y z
#    x 1.561240 0.000000 0.000000 
#    y 0.000000 1.545790 0.000000 
#    z 0.000000 0.000000 1.576430 
# 
# From -- ./inp_files/5716.got.cif
#   From: 2010.05.17/outbox.cif.g08.bks.cpg/sg36_3_cif.got.tgz:5716.got - 2010.06.03 17:41:39.
