data_PCOD9351830
_publ_section_title
;
Structure prediction by ZEFSAII (Michael W. Deem and Ramdas Pophale) SiO2 
 PCOD9351830
Probable space group: C M C 21
;
_chemical_formula_sum "Si O2"
_cell_formula_units_Z 64
_cell_length_a 22.529823
_cell_length_b 12.858253
_cell_length_c 10.963048
_cell_angle_alpha 90.000000
_cell_angle_beta 90.000000
_cell_angle_gamma 90.000000
_cell_volume 3175.931027
_symmetry_space_group_name_H-M "C M C 21"
_symmetry_group_IT_number 36
_symmetry_cell_setting 'orthorhombic'
loop_
_space_group_symop_operation_xyz
x,y,z
-x,-y,1/2+z
x,-y,1/2+z
-x,y,z
1/2+x,1/2+y,z
1/2-x,1/2-y,1/2+z
1/2+x,1/2-y,1/2+z
1/2-x,1/2+y,z
loop_
_atom_site_type_symbol
_atom_site_label
_atom_site_fract_x
_atom_site_fract_y
_atom_site_fract_z
Si Si1 0.268043 0.394612 0.800060
Si Si2 0.778597 0.093876 0.899247
Si Si3 0.337160 0.257175 0.242959
Si Si4 0.344169 0.144156 0.989390
Si Si5 0.432368 0.191236 0.433937
Si Si6 0.837039 0.773593 0.613561
Si Si7 0.820442 0.457045 0.158791
Si Si8 0.067821 0.542664 0.842960
O O1 0.282001 0.468871 0.913540
O O2 0.214319 0.312996 0.807161
O O3 0.323918 0.337204 0.738106
O O4 0.234500 0.482924 0.719172
O O5 0.818148 0.128716 0.783710
O O6 0.711836 0.142255 0.898245
O O7 0.807027 0.151941 0.014532
O O8 0.338929 0.224245 0.101451
O O9 0.397171 0.229445 0.313974
O O10 0.335551 0.029322 0.045285
O O11 0.407548 0.138383 0.924245
O O12 0.500000 0.225572 0.433513
O O13 0.399277 0.237102 0.553482
O O14 0.432017 0.065761 0.418623
O O15 0.806161 0.661245 0.626884
O O16 0.880395 0.464539 0.241266
O O17 0.000000 0.557527 0.799089
#
# Coordination Sequence:
#
# PCOD9351830 Si02
#       8
#     8   8   8   8   8   8   8   8
#     4  11  21  36  54  87 118 154 201 250 300 359
#     4  11  22  35  57  84 119 156 198 251 303 364
#     4  10  21  37  56  87 120 158 194 241 309 355
#     4  11  20  36  56  84 123 159 193 240 295 365
#     4  10  20  36  59  86 118 155 202 242 294 372
#     4  11  23  37  60  85 120 164 196 248 316 361
#     4  11  21  37  53  85 123 157 196 240 297 365
#     4  11  22  36  57  86 123 163 196 238 298 369
#
# _framework density 20.151572000000002
#
# number of rings (size 3 to 8) (size 9 to 14) (size 15 to 20)
#    0.000    1.250    7.500    0.750    1.750    1.500 
#    0.000    0.000    0.000    3.000    0.000    3.500 
#    0.000    0.000    0.000    0.000    0.000    0.000 
#
# Total GULP energy -178268.953709 kJ/mol
# GULP energy per Si atom -5570.904803 kJ/mol
# Density = 2.010571 g / cm^3
# Si number density = 20.151572 Si / 1000 Ang^3
#
#
#
# Elastic Constant Matrix: (Units=GPa)
#
#
# Indices 1 2 3 4 5 6 
#
# 1 105.4387 25.9368 30.2642 0.0000 0.0000 0.0000
# 2 25.9368 55.7735 19.9300 0.0000 0.0000 0.0000
# 3 30.2642 19.9300 53.2180 0.0000 0.0000 0.0000
# 4 0.0000 0.0000 0.0000 42.6053 0.0000 0.0000
# 5 0.0000 0.0000 0.0000 0.0000 25.5188 0.0000
# 6 0.0000 0.0000 0.0000 0.0000 0.0000 20.3846
#
#
#
# Elastic Compliance Matrix: (Units=1/GPa)
#
#
# Indices 1 2 3 4 5 6 
#
# 1 0.011931 -0.003607 -0.005434 0.000000 0.000000 0.000000
# 2 -0.003607 0.021790 -0.006109 0.000000 0.000000 0.000000
# 3 -0.005434 -0.006109 0.024169 0.000000 0.000000 0.000000
# 4 0.000000 0.000000 0.000000 0.023471 0.000000 0.000000
# 5 0.000000 0.000000 0.000000 0.000000 0.039187 0.000000
# 6 0.000000 0.000000 0.000000 0.000000 0.000000 0.049057
#
#
# Mechanical properties :
#
#
# Convention : Reuss Voigt Hill
#
# Bulk Modulus (GPa) = 36.24554 40.74360 38.49457
# Shear Modulus (GPa) = 23.91178 26.92169 25.41673
#
# Velocity S-wave (km/s) = 3.44844 3.65904 3.55530
# Velocity P-wave (km/s) = 5.82075 6.17365 5.99979
#
# Compressibility (1/GPa) = 0.02758960
#
# Stress axis : x y z
#
# Youngs Moduli (GPa) = 83.81380 45.89275 41.37524
#
# Poissons Ratio (x) = 0.16551 0.22485
# Poissons Ratio (y) = 0.30228 0.25277
# Poissons Ratio (z) = 0.45548 0.28037
#
# Static dielectric constant tensor:
#      x y z
#    x 1.748410 0.000000 0.000000 
#    y 0.000000 1.812930 0.000000 
#    z 0.000000 0.000000 1.874600 
# 
# From -- ./inp_files/9507.got.cif
#   From: 2010.05.17/outbox.cif.g08.bks.cpg/sg36_5_cif.got.tgz:9507.got - 2010.06.03 17:41:39.
