data_PCOD9351684
_publ_section_title
;
Structure prediction by ZEFSAII (Michael W. Deem and Ramdas Pophale) SiO2 
 PCOD9351684
Probable space group: C M C 21
;
_chemical_formula_sum "Si O2"
_cell_formula_units_Z 64
_cell_length_a 8.451897
_cell_length_b 29.895154
_cell_length_c 12.686476
_cell_angle_alpha 90.000000
_cell_angle_beta 90.000000
_cell_angle_gamma 90.000000
_cell_volume 3205.501563
_symmetry_space_group_name_H-M "C M C 21"
_symmetry_group_IT_number 36
_symmetry_cell_setting 'orthorhombic'
loop_
_space_group_symop_operation_xyz
x,y,z
-x,-y,1/2+z
x,-y,1/2+z
-x,y,z
1/2+x,1/2+y,z
1/2-x,1/2-y,1/2+z
1/2+x,1/2-y,1/2+z
1/2-x,1/2+y,z
loop_
_atom_site_type_symbol
_atom_site_label
_atom_site_fract_x
_atom_site_fract_y
_atom_site_fract_z
Si Si1 0.820695 0.928278 0.383840
Si Si2 0.812495 0.272924 0.307954
Si Si3 0.818543 0.168581 0.991591
Si Si4 0.684645 0.067561 0.660981
Si Si5 0.187865 0.320735 0.872294
Si Si6 0.811009 0.882243 0.697688
Si Si7 0.809527 0.470745 0.592686
Si Si8 0.306523 0.166117 0.610515
O O1 0.821580 0.877637 0.426255
O O2 0.705094 0.932108 0.286178
O O3 0.762887 0.957807 0.480597
O O4 0.000000 0.939838 0.352155
O O5 0.776462 0.297375 0.418938
O O6 0.731951 0.224825 0.312998
O O7 0.755410 0.303396 0.209475
O O8 0.000000 0.266807 0.296246
O O9 0.000000 0.185216 0.003339
O O10 0.756875 0.152912 0.106040
O O11 0.500000 0.067898 0.631580
O O12 0.751919 0.114960 0.622265
O O13 0.749678 0.020157 0.622358
O O14 0.265139 0.361849 0.809646
O O15 0.000000 0.327234 0.871584
O O16 0.239255 0.317147 0.994507
O O17 0.740906 0.930957 0.671997
O O18 0.000000 0.885370 0.686112
O O19 0.000000 0.470702 0.587949
O O20 0.500000 0.165581 0.615615
#
# Coordination Sequence:
#
# PCOD9351684 Si02
#       8
#     8   8   8   8   8   8   8   8
#     4  10  20  35  56  85 119 154 195 251 311 360
#     4  11  22  38  62  89 117 155 201 250 306 363
#     4   9  19  36  58  83 113 150 192 247 302 355
#     4  10  20  38  62  87 116 157 207 253 301 363
#     4  11  24  41  61  88 125 165 205 249 308 369
#     4  10  22  41  61  86 124 161 202 252 307 363
#     4  10  21  36  60  90 120 159 208 255 304 367
#     4   9  21  41  62  86 120 159 198 251 307 358
#
# _framework density 19.965674
#
# number of rings (size 3 to 8) (size 9 to 14) (size 15 to 20)
#    0.000    2.000    1.250    2.625    1.750    4.500 
#    0.000    5.625    0.000    0.000    0.000    0.000 
#    0.000    0.000    0.000    0.000    0.000    0.000 
#
# Total GULP energy -178601.787564 kJ/mol
# GULP energy per Si atom -5581.305861 kJ/mol
# Density = 1.992023 g / cm^3
# Si number density = 19.965674 Si / 1000 Ang^3
#
#
#
# Elastic Constant Matrix: (Units=GPa)
#
#
# Indices 1 2 3 4 5 6 
#
# 1 17.6694 9.8157 -5.4427 0.0000 0.0000 0.0000
# 2 9.8157 106.8987 43.3263 0.0000 0.0000 0.0000
# 3 -5.4427 43.3263 58.0412 0.0000 0.0000 0.0000
# 4 0.0000 0.0000 0.0000 16.9255 0.0000 0.0000
# 5 0.0000 0.0000 0.0000 0.0000 14.6244 0.0000
# 6 0.0000 0.0000 0.0000 0.0000 0.0000 24.4098
#
#
#
# Elastic Compliance Matrix: (Units=1/GPa)
#
#
# Indices 1 2 3 4 5 6 
#
# 1 0.068608 -0.012771 0.015967 0.000000 0.000000 0.000000
# 2 -0.012771 0.015790 -0.012984 0.000000 0.000000 0.000000
# 3 0.015967 -0.012984 0.028419 0.000000 0.000000 0.000000
# 4 0.000000 0.000000 0.000000 0.059082 0.000000 0.000000
# 5 0.000000 0.000000 0.000000 0.000000 0.068379 0.000000
# 6 0.000000 0.000000 0.000000 0.000000 0.000000 0.040967
#
#
# Mechanical properties :
#
#
# Convention : Reuss Voigt Hill
#
# Bulk Modulus (GPa) = 10.72505 30.88979 20.80742
# Shear Modulus (GPa) = 15.06465 20.18592 17.62529
#
# Velocity S-wave (km/s) = 2.74985 3.18312 2.97438
# Velocity P-wave (km/s) = 3.93263 5.38653 4.71595
#
# Compressibility (1/GPa) = 0.09323963
#
# Stress axis : x y z
#
# Youngs Moduli (GPa) = 14.57555 63.33139 35.18779
#
# Poissons Ratio (x) = 0.80882 -0.56184
# Poissons Ratio (y) = 0.18615 0.45689
# Poissons Ratio (z) = -0.23273 0.82232
#
# Static dielectric constant tensor:
#      x y z
#    x 1.699960 0.000000 0.000000 
#    y 0.000000 1.713130 0.000000 
#    z 0.000000 0.000000 1.698200 
# 
# From -- ./inp_files/7242.got.cif
#   From: 2010.05.17/outbox.cif.g08.bks.cpg/sg36_4_cif.got.tgz:7242.got - 2010.06.03 17:41:39.
