data_PCOD9351609
_publ_section_title
;
Structure prediction by ZEFSAII (Michael W. Deem and Ramdas Pophale) SiO2 
 PCOD9351609
Probable space group: C M C 21
;
_chemical_formula_sum "Si O2"
_cell_formula_units_Z 64
_cell_length_a 8.695201
_cell_length_b 20.476727
_cell_length_c 20.051372
_cell_angle_alpha 90.000000
_cell_angle_beta 90.000000
_cell_angle_gamma 90.000000
_cell_volume 3570.131888
_symmetry_space_group_name_H-M "C M C 21"
_symmetry_group_IT_number 36
_symmetry_cell_setting 'orthorhombic'
loop_
_space_group_symop_operation_xyz
x,y,z
-x,-y,1/2+z
x,-y,1/2+z
-x,y,z
1/2+x,1/2+y,z
1/2-x,1/2-y,1/2+z
1/2+x,1/2-y,1/2+z
1/2-x,1/2+y,z
loop_
_atom_site_type_symbol
_atom_site_label
_atom_site_fract_x
_atom_site_fract_y
_atom_site_fract_z
Si Si1 0.816249 0.813884 0.324500
Si Si2 0.816792 0.204889 0.145048
Si Si3 0.816258 0.525737 0.321137
Si Si4 0.181993 0.013439 0.677855
Si Si5 0.816944 0.650419 0.681428
Si Si6 0.316581 0.574739 0.926449
Si Si7 0.818371 0.412880 0.571605
Si Si8 0.316332 0.170695 0.288631
O O1 0.729616 0.839090 0.258759
O O2 0.776174 0.858196 0.387448
O O3 0.784703 0.736652 0.329948
O O4 0.000000 0.821775 0.312701
O O5 0.775251 0.281586 0.145249
O O6 0.733018 0.160201 0.091310
O O7 0.769346 0.178146 0.218131
O O8 0.000000 0.199199 0.137117
O O9 0.765117 0.501526 0.248002
O O10 0.733147 0.483314 0.377168
O O11 0.776838 0.602708 0.323507
O O12 0.000000 0.518226 0.327777
O O13 0.231131 0.086211 0.656497
O O14 0.000000 0.009814 0.688011
O O15 0.235067 0.961170 0.623388
O O16 0.000000 0.641309 0.676564
O O17 0.500000 0.573521 0.936738
O O18 0.232582 0.571366 0.996821
O O19 0.000000 0.419934 0.579884
O O20 0.500000 0.169048 0.274557
#
# Coordination Sequence:
#
# PCOD9351609 Si02
#       8
#     8   8   8   8   8   8   8   8
#     4   9  18  34  56  83 114 150 191 234 286 343
#     4  10  20  35  57  86 117 150 190 240 291 349
#     4  11  21  35  58  88 120 155 196 244 294 349
#     4  12  23  37  59  87 119 155 198 249 300 352
#     4  10  20  34  57  88 119 149 190 241 291 344
#     4  11  23  39  59  84 117 158 199 246 298 356
#     4  12  25  41  60  83 116 159 202 249 300 360
#     4   9  18  33  56  85 116 150 190 237 286 339
#
# _framework density 17.926508999999999
#
# number of rings (size 3 to 8) (size 9 to 14) (size 15 to 20)
#    0.000    1.500    2.500    3.750    0.000    2.500 
#    0.000    1.250    0.000    6.000    0.000    0.000 
#    0.000    0.000    0.000    0.000    0.000    0.000 
#
# Total GULP energy -178754.750747 kJ/mol
# GULP energy per Si atom -5586.085961 kJ/mol
# Density = 1.788571 g / cm^3
# Si number density = 17.926509 Si / 1000 Ang^3
#
#
#
# Elastic Constant Matrix: (Units=GPa)
#
#
# Indices 1 2 3 4 5 6 
#
# 1 29.6899 20.1778 -0.4462 0.0000 0.0000 0.0000
# 2 20.1778 101.7469 15.9359 0.0000 0.0000 0.0000
# 3 -0.4462 15.9359 41.8963 0.0000 0.0000 0.0000
# 4 0.0000 0.0000 0.0000 23.3880 0.0000 0.0000
# 5 0.0000 0.0000 0.0000 0.0000 29.2209 0.0000
# 6 0.0000 0.0000 0.0000 0.0000 0.0000 28.5724
#
#
#
# Elastic Compliance Matrix: (Units=1/GPa)
#
#
# Indices 1 2 3 4 5 6 
#
# 1 0.039435 -0.008386 0.003610 0.000000 0.000000 0.000000
# 2 -0.008386 0.012234 -0.004743 0.000000 0.000000 0.000000
# 3 0.003610 -0.004743 0.025711 0.000000 0.000000 0.000000
# 4 0.000000 0.000000 0.000000 0.042757 0.000000 0.000000
# 5 0.000000 0.000000 0.000000 0.000000 0.034222 0.000000
# 6 0.000000 0.000000 0.000000 0.000000 0.000000 0.034999
#
#
# Mechanical properties :
#
#
# Convention : Reuss Voigt Hill
#
# Bulk Modulus (GPa) = 17.14031 27.18535 22.16283
# Shear Modulus (GPa) = 21.94495 25.41397 23.67946
#
# Velocity S-wave (km/s) = 3.50260 3.76929 3.63839
# Velocity P-wave (km/s) = 5.09311 5.84305 5.48092
#
# Compressibility (1/GPa) = 0.05834202
#
# Stress axis : x y z
#
# Youngs Moduli (GPa) = 25.35829 81.73843 38.89405
#
# Poissons Ratio (x) = 0.68544 -0.14039
# Poissons Ratio (y) = 0.21265 0.18446
# Poissons Ratio (z) = -0.09153 0.38767
#
# Static dielectric constant tensor:
#      x y z
#    x 1.598450 0.000000 0.000000 
#    y 0.000000 1.641850 0.000000 
#    z 0.000000 0.000000 1.567840 
# 
# From -- ./inp_files/13759.got.cif
#   From: 2010.05.17/outbox.cif.g08.bks.cpg/sg36_7_cif.got.tgz:13759.got - 2010.06.03 17:41:39.
