data_PCOD9351524
_publ_section_title
;
Structure prediction by ZEFSAII (Michael W. Deem and Ramdas Pophale) SiO2 
 PCOD9351524
Probable space group: C M C 21
;
_chemical_formula_sum "Si O2"
_cell_formula_units_Z 64
_cell_length_a 21.356298
_cell_length_b 18.097811
_cell_length_c 8.671126
_cell_angle_alpha 90.000000
_cell_angle_beta 90.000000
_cell_angle_gamma 90.000000
_cell_volume 3351.409664
_symmetry_space_group_name_H-M "C M C 21"
_symmetry_group_IT_number 36
_symmetry_cell_setting 'orthorhombic'
loop_
_space_group_symop_operation_xyz
x,y,z
-x,-y,1/2+z
x,-y,1/2+z
-x,y,z
1/2+x,1/2+y,z
1/2-x,1/2-y,1/2+z
1/2+x,1/2-y,1/2+z
1/2-x,1/2+y,z
loop_
_atom_site_type_symbol
_atom_site_label
_atom_site_fract_x
_atom_site_fract_y
_atom_site_fract_z
Si Si1 0.719045 0.058440 0.194530
Si Si2 0.331608 0.612575 0.406110
Si Si3 0.670484 0.200724 0.289775
Si Si4 0.616658 0.652658 0.838635
Si Si5 0.430642 0.466183 0.108288
Si Si6 0.739386 0.095150 0.840703
Si Si7 0.570768 0.638458 0.180279
Si Si8 0.763032 0.291489 0.107498
O O1 0.783198 0.079517 0.283825
O O2 0.665711 0.112919 0.266187
O O3 0.717180 0.971910 0.231971
O O4 0.721526 0.072949 0.013013
O O5 0.373388 0.552040 0.494569
O O6 0.380228 0.662168 0.310290
O O7 0.290441 0.656607 0.529884
O O8 0.620915 0.265998 0.260235
O O9 0.728255 0.220335 0.174505
O O10 0.690509 0.218160 0.465938
O O11 0.575848 0.594854 0.741841
O O12 0.686392 0.616012 0.845812
O O13 0.590097 0.661860 0.009463
O O14 0.500000 0.459541 0.035046
O O15 0.425541 0.548772 0.172170
O O16 0.710601 0.167292 0.758096
O O17 0.500000 0.660362 0.215084
#
# Coordination Sequence:
#
# PCOD9351524 Si02
#       8
#     8   8   8   8   8   8   8   8
#     4  11  21  32  53  74  99 133 175 212 254 307
#     4  11  20  31  47  69  95 130 171 213 255 295
#     4  10  20  34  49  72  97 131 176 213 254 314
#     4  11  21  35  50  70  99 141 179 215 260 305
#     4  11  21  34  49  68  98 135 182 225 254 286
#     4  11  20  34  51  73  99 133 172 212 249 306
#     4  11  22  33  48  71  98 135 182 225 251 281
#     4  10  21  33  51  71  96 132 174 209 259 306
#
# _framework density 19.096440999999999
#
# number of rings (size 3 to 8) (size 9 to 14) (size 15 to 20)
#    0.000    1.250    3.750    6.000    1.750    2.000 
#    0.000    0.000    0.000    0.000    0.000    0.000 
#    0.000    0.000    0.000   18.000    5.000    0.500 
#
# Total GULP energy -178566.943883 kJ/mol
# GULP energy per Si atom -5580.216996 kJ/mol
# Density = 1.905298 g / cm^3
# Si number density = 19.096441 Si / 1000 Ang^3
#
#
#
# Elastic Constant Matrix: (Units=GPa)
#
#
# Indices 1 2 3 4 5 6 
#
# 1 33.5792 13.7481 -0.3534 0.0000 0.0000 0.0000
# 2 13.7481 70.8594 -7.7427 0.0000 0.0000 0.0000
# 3 -0.3534 -7.7427 86.4838 0.0000 0.0000 0.0000
# 4 0.0000 0.0000 0.0000 27.1761 0.0000 0.0000
# 5 0.0000 0.0000 0.0000 0.0000 11.8830 0.0000
# 6 0.0000 0.0000 0.0000 0.0000 0.0000 15.6879
#
#
#
# Elastic Compliance Matrix: (Units=1/GPa)
#
#
# Indices 1 2 3 4 5 6 
#
# 1 0.032366 -0.006327 -0.000434 0.000000 0.000000 0.000000
# 2 -0.006327 0.015489 0.001361 0.000000 0.000000 0.000000
# 3 -0.000434 0.001361 0.011683 0.000000 0.000000 0.000000
# 4 0.000000 0.000000 0.000000 0.036797 0.000000 0.000000
# 5 0.000000 0.000000 0.000000 0.000000 0.084154 0.000000
# 6 0.000000 0.000000 0.000000 0.000000 0.000000 0.063744
#
#
# Mechanical properties :
#
#
# Convention : Reuss Voigt Hill
#
# Bulk Modulus (GPa) = 20.51835 22.46961 21.49398
# Shear Modulus (GPa) = 18.43122 23.30076 20.86599
#
# Velocity S-wave (km/s) = 3.11008 3.49687 3.30913
# Velocity P-wave (km/s) = 4.86464 5.30057 5.08728
#
# Compressibility (1/GPa) = 0.04873686
#
# Stress axis : x y z
#
# Youngs Moduli (GPa) = 30.89644 64.56311 85.59507
#
# Poissons Ratio (x) = 0.40850 0.03717
# Poissons Ratio (y) = 0.19548 -0.11648
# Poissons Ratio (z) = 0.01342 -0.08786
#
# Static dielectric constant tensor:
#      x y z
#    x 1.672410 0.000000 0.000000 
#    y 0.000000 1.724920 0.000000 
#    z 0.000000 0.000000 1.729550 
# 
# From -- ./inp_files/5390.got.cif
#   From: 2010.05.17/outbox.cif.g08.bks.cpg/sg36_3_cif.got.tgz:5390.got - 2010.06.03 17:41:39.
