data_PCOD9351954
_publ_section_title
;
Structure prediction by ZEFSAII (Michael W. Deem and Ramdas Pophale) SiO2 
 PCOD9351954
Probable space group: C M C 21
;
_chemical_formula_sum "Si O2"
_cell_formula_units_Z 64
_cell_length_a 16.022708
_cell_length_b 9.723219
_cell_length_c 21.254614
_cell_angle_alpha 90.000000
_cell_angle_beta 90.000000
_cell_angle_gamma 90.000000
_cell_volume 3311.305176
_symmetry_space_group_name_H-M "C M C 21"
_symmetry_group_IT_number 36
_symmetry_cell_setting 'orthorhombic'
loop_
_space_group_symop_operation_xyz
x,y,z
-x,-y,1/2+z
x,-y,1/2+z
-x,y,z
1/2+x,1/2+y,z
1/2-x,1/2-y,1/2+z
1/2+x,1/2-y,1/2+z
1/2-x,1/2+y,z
loop_
_atom_site_type_symbol
_atom_site_label
_atom_site_fract_x
_atom_site_fract_y
_atom_site_fract_z
Si Si1 0.598394 0.554817 0.672050
Si Si2 0.867715 0.963081 0.531827
Si Si3 0.904190 0.264230 0.210071
Si Si4 0.594568 0.696406 0.431753
Si Si5 0.239799 0.924574 0.851036
Si Si6 0.774835 0.183999 0.766883
Si Si7 0.188256 0.537411 0.978088
Si Si8 0.910065 0.338133 0.065381
O O1 0.500000 0.595392 0.673187
O O2 0.627937 0.536136 0.599913
O O3 0.603076 0.401638 0.702678
O O4 0.661271 0.653139 0.710145
O O5 0.902391 0.069248 0.480631
O O6 0.776607 0.920272 0.507289
O O7 0.912159 0.817698 0.540456
O O8 0.822825 0.317090 0.246546
O O9 0.895667 0.325145 0.139677
O O10 0.000000 0.293713 0.232006
O O11 0.500000 0.716520 0.409749
O O12 0.659325 0.658008 0.376686
O O13 0.629776 0.832031 0.465989
O O14 0.287292 0.829605 0.801022
O O15 0.294439 0.963317 0.911622
O O16 0.212186 0.064370 0.817781
O O17 0.153932 0.428133 0.027316
O O18 0.000000 0.404188 0.055250
#
# Coordination Sequence:
#
# PCOD9351954 Si02
#       8
#     8   8   8   8   8   8   8   8
#     4  10  21  39  64  92 123 161 205 250 307 373
#     4  10  20  38  63  91 121 154 197 244 301 369
#     4   9  20  39  64  90 119 159 199 243 309 376
#     4  11  23  40  62  89 123 160 202 252 309 369
#     4  11  25  41  60  86 118 158 210 249 302 357
#     4  12  22  43  63  87 120 160 210 257 298 362
#     4  11  22  39  60  88 121 159 193 249 308 362
#     4  10  20  37  61  91 119 147 193 244 296 358
#
# _framework density 19.327725999999998
#
# number of rings (size 3 to 8) (size 9 to 14) (size 15 to 20)
#    0.000    1.500    2.500    4.500    1.750    2.000 
#    2.250    1.875    0.000    0.000    0.000    0.000 
#    0.000    0.000    0.000    0.000    0.000    0.000 
#
# Total GULP energy -178614.442903 kJ/mol
# GULP energy per Si atom -5581.701341 kJ/mol
# Density = 1.928374 g / cm^3
# Si number density = 19.327726 Si / 1000 Ang^3
#
#
#
# Elastic Constant Matrix: (Units=GPa)
#
#
# Indices 1 2 3 4 5 6 
#
# 1 55.2453 12.2334 21.6290 0.0000 0.0000 0.0000
# 2 12.2334 39.0756 1.3378 0.0000 0.0000 0.0000
# 3 21.6290 1.3378 36.3577 0.0000 0.0000 0.0000
# 4 0.0000 0.0000 0.0000 33.4450 0.0000 0.0000
# 5 0.0000 0.0000 0.0000 0.0000 -9.1616 0.0000
# 6 0.0000 0.0000 0.0000 0.0000 0.0000 9.5927
#
#
#
# Elastic Compliance Matrix: (Units=1/GPa)
#
#
# Indices 1 2 3 4 5 6 
#
# 1 0.025624 -0.007510 -0.014967 0.000000 0.000000 0.000000
# 2 -0.007510 0.027825 0.003444 0.000000 0.000000 0.000000
# 3 -0.014967 0.003444 0.036282 0.000000 0.000000 0.000000
# 4 0.000000 0.000000 0.000000 0.029900 0.000000 0.000000
# 5 0.000000 0.000000 0.000000 0.000000 -0.109151 0.000000
# 6 0.000000 0.000000 0.000000 0.000000 0.000000 0.104246
#
#
# Mechanical properties :
#
#
# Convention : Reuss Voigt Hill
#
# Bulk Modulus (GPa) = 19.35593 22.34209 20.84901
# Shear Modulus (GPa) = 29.40974 13.14046 21.27510
#
# Velocity S-wave (km/s) = 3.90505 2.61027 3.32136
# Velocity P-wave (km/s) = 5.51079 4.54636 5.05164
#
# Compressibility (1/GPa) = 0.05166376
#
# Stress axis : x y z
#
# Youngs Moduli (GPa) = 39.02629 35.93948 27.56216
#
# Poissons Ratio (x) = 0.26989 0.41253
# Poissons Ratio (y) = 0.29307 -0.09491
# Poissons Ratio (z) = 0.58411 -0.12376
#
# Static dielectric constant tensor:
#      x y z
#    x 1.616330 0.000000 0.000000 
#    y 0.000000 1.638600 0.000000 
#    z 0.000000 0.000000 1.670620 
# 
# From -- ./inp_files/16968.got.cif
#   From: 2010.05.17/outbox.cif.g08.bks.cpg/sg36_9_cif.got.tgz:16968.got - 2010.06.03 17:41:39.
