data_PCOD9351758
_publ_section_title
;
Structure prediction by ZEFSAII (Michael W. Deem and Ramdas Pophale) SiO2 
 PCOD9351758
Probable space group: C M C 21
;
_chemical_formula_sum "Si O2"
_cell_formula_units_Z 64
_cell_length_a 7.695218
_cell_length_b 31.549069
_cell_length_c 12.243462
_cell_angle_alpha 90.000000
_cell_angle_beta 90.000000
_cell_angle_gamma 90.000000
_cell_volume 2972.430529
_symmetry_space_group_name_H-M "C M C 21"
_symmetry_group_IT_number 36
_symmetry_cell_setting 'orthorhombic'
loop_
_space_group_symop_operation_xyz
x,y,z
-x,-y,1/2+z
x,-y,1/2+z
-x,y,z
1/2+x,1/2+y,z
1/2-x,1/2-y,1/2+z
1/2+x,1/2-y,1/2+z
1/2-x,1/2+y,z
loop_
_atom_site_type_symbol
_atom_site_label
_atom_site_fract_x
_atom_site_fract_y
_atom_site_fract_z
Si Si1 0.710262 0.054040 0.897810
Si Si2 0.211175 0.326633 0.159036
Si Si3 0.711529 0.212180 0.438816
Si Si4 0.202044 0.308016 0.399298
Si Si5 0.787157 0.458872 0.938867
Si Si6 0.197526 0.875498 0.575644
Si Si7 0.799783 0.626576 0.321294
Si Si8 0.210841 0.420648 0.159187
O O1 0.500000 0.053934 0.896493
O O2 0.772845 0.071953 0.781657
O O3 0.770674 0.005493 0.904318
O O4 0.759834 0.084642 0.997552
O O5 0.277180 0.320502 0.281296
O O6 0.257775 0.373665 0.121524
O O7 0.000000 0.324104 0.164242
O O8 0.265278 0.294952 0.064642
O O9 0.500000 0.214377 0.432670
O O10 0.781768 0.257591 0.404454
O O11 0.771395 0.171145 0.368856
O O12 0.281395 0.333748 0.500202
O O13 0.000000 0.320897 0.400611
O O14 0.727602 0.417916 0.868962
O O15 0.000000 0.459397 0.933235
O O16 0.734440 0.452302 0.064747
O O17 0.298173 0.873646 0.689896
O O18 0.000000 0.879054 0.610875
O O19 0.000000 0.626813 0.359855
O O20 0.000000 0.422502 0.163494
#
# Coordination Sequence:
#
# PCOD9351758 Si02
#       8
#     8   8   8   8   8   8   8   8
#     4  10  20  35  61  92 119 151 196 246 294 350
#     4   9  17  34  59  83 113 150 187 235 292 347
#     4  10  21  38  61  91 123 153 188 239 300 357
#     4  11  23  40  62  88 117 154 200 244 293 355
#     4   9  18  32  59  95 121 149 193 243 291 347
#     4  12  26  42  58  81 120 164 203 247 300 350
#     4  10  21  39  62  89 122 158 199 243 291 352
#     4   9  15  30  56  87 117 145 186 241 291 336
#
# _framework density 21.531199999999998
#
# number of rings (size 3 to 8) (size 9 to 14) (size 15 to 20)
#    0.000    2.000    2.500    1.500    3.500    0.500 
#    0.000    1.250    0.000    0.750    0.000    0.000 
#    0.000    0.000    0.000    0.000    0.000    0.000 
#
# Total GULP energy -178604.452645 kJ/mol
# GULP energy per Si atom -5581.389145 kJ/mol
# Density = 2.148219 g / cm^3
# Si number density = 21.531200 Si / 1000 Ang^3
#
#
#
# Elastic Constant Matrix: (Units=GPa)
#
#
# Indices 1 2 3 4 5 6 
#
# 1 38.5900 -7.5512 -12.9214 0.0000 0.0000 0.0000
# 2 -7.5512 119.1512 30.5178 0.0000 0.0000 0.0000
# 3 -12.9214 30.5178 96.4061 0.0000 0.0000 0.0000
# 4 0.0000 0.0000 0.0000 31.6744 0.0000 0.0000
# 5 0.0000 0.0000 0.0000 0.0000 -13.3001 0.0000
# 6 0.0000 0.0000 0.0000 0.0000 0.0000 11.7624
#
#
#
# Elastic Compliance Matrix: (Units=1/GPa)
#
#
# Indices 1 2 3 4 5 6 
#
# 1 0.027212 0.000860 0.003375 0.000000 0.000000 0.000000
# 2 0.000860 0.009160 -0.002784 0.000000 0.000000 0.000000
# 3 0.003375 -0.002784 0.011707 0.000000 0.000000 0.000000
# 4 0.000000 0.000000 0.000000 0.031571 0.000000 0.000000
# 5 0.000000 0.000000 0.000000 0.000000 -0.075187 0.000000
# 6 0.000000 0.000000 0.000000 0.000000 0.000000 0.085016
#
#
# Mechanical properties :
#
#
# Convention : Reuss Voigt Hill
#
# Bulk Modulus (GPa) = 19.61554 30.47085 25.04319
# Shear Modulus (GPa) = 48.27586 22.30081 35.28833
#
# Velocity S-wave (km/s) = 4.74026 3.22179 4.05277
# Velocity P-wave (km/s) = 6.25221 5.29364 5.79278
#
# Compressibility (1/GPa) = 0.05098000
#
# Stress axis : x y z
#
# Youngs Moduli (GPa) = 36.74871 109.16570 85.42211
#
# Poissons Ratio (x) = -0.09390 -0.28829
# Poissons Ratio (y) = -0.03161 0.23786
# Poissons Ratio (z) = -0.12402 0.30397
#
# Static dielectric constant tensor:
#      x y z
#    x 1.826780 0.000000 0.000000 
#    y 0.000000 1.760310 0.000000 
#    z 0.000000 0.000000 1.751320 
# 
# From -- ./inp_files/7104.got.cif
#   From: 2010.05.17/outbox.cif.g08.bks.cpg/sg36_4_cif.got.tgz:7104.got - 2010.06.03 17:41:39.
