data_PCOD9351993
_publ_section_title
;
Structure prediction by ZEFSAII (Michael W. Deem and Ramdas Pophale) SiO2 
 PCOD9351993
Probable space group: C M C 21
;
_chemical_formula_sum "Si O2"
_cell_formula_units_Z 56
_cell_length_a 22.184468
_cell_length_b 14.337059
_cell_length_c 8.202257
_cell_angle_alpha 90.000000
_cell_angle_beta 90.000000
_cell_angle_gamma 90.000000
_cell_volume 2608.810080
_symmetry_space_group_name_H-M "C M C 21"
_symmetry_group_IT_number 36
_symmetry_cell_setting 'orthorhombic'
loop_
_space_group_symop_operation_xyz
x,y,z
-x,-y,1/2+z
x,-y,1/2+z
-x,y,z
1/2+x,1/2+y,z
1/2-x,1/2-y,1/2+z
1/2+x,1/2-y,1/2+z
1/2-x,1/2+y,z
loop_
_atom_site_type_symbol
_atom_site_label
_atom_site_fract_x
_atom_site_fract_y
_atom_site_fract_z
Si Si1 0.242204 0.270765 0.754110
Si Si2 0.734053 0.060225 0.061918
Si Si3 0.855611 0.479237 0.302696
Si Si4 0.431119 0.187674 0.678229
Si Si5 0.195597 0.121609 0.537734
Si Si6 0.396371 0.819318 0.823328
Si Si7 0.431673 0.701011 0.515869
O O1 0.258275 0.337682 0.599904
O O2 0.234397 0.166086 0.688045
O O3 0.174477 0.295343 0.810767
O O4 0.287002 0.308538 0.890378
O O5 0.705689 0.019275 0.226942
O O6 0.782554 0.983523 0.009161
O O7 0.671430 0.067196 0.963558
O O8 0.886341 0.398937 0.199974
O O9 0.898888 0.567791 0.329124
O O10 0.500000 0.154924 0.690009
O O11 0.420766 0.222566 0.493303
O O12 0.422655 0.255820 0.833891
O O13 0.123887 0.132033 0.556032
O O14 0.426102 0.778902 0.659206
O O15 0.500000 0.662900 0.521402
#
# Coordination Sequence:
#
# PCOD9351993 Si02
#       7
#     8   8   8   8   8   8   8
#     4  10  23  35  58  95 119 158 196 247 312 367
#     4  11  21  38  57  85 124 155 191 250 310 351
#     4  11  19  35  53  80 125 152 192 241 290 365
#     4  11  22  34  56  82 116 167 203 235 287 361
#     4  11  22  37  64  88 119 161 197 252 311 365
#     4  10  20  38  54  81 121 158 193 246 295 356
#     4  10  24  41  56  83 119 157 204 253 301 357
#
# _framework density 21.465724999999999
#
# number of rings (size 3 to 8) (size 9 to 14) (size 15 to 20)
#    0.000    1.429    4.286    3.000    6.000    1.143 
#    0.000    0.000    0.000    0.857    0.000    0.000 
#    0.000    0.000    0.000    0.000    0.000    0.000 
#
# Total GULP energy -156113.028665 kJ/mol
# GULP energy per Si atom -5575.465309 kJ/mol
# Density = 2.141687 g / cm^3
# Si number density = 21.465725 Si / 1000 Ang^3
#
#
#
# Elastic Constant Matrix: (Units=GPa)
#
#
# Indices 1 2 3 4 5 6 
#
# 1 97.5579 22.7950 3.5044 0.0000 0.0000 0.0000
# 2 22.7950 56.8871 3.8888 0.0000 0.0000 0.0000
# 3 3.5044 3.8888 85.7952 0.0000 0.0000 0.0000
# 4 0.0000 0.0000 0.0000 14.6843 0.0000 0.0000
# 5 0.0000 0.0000 0.0000 0.0000 27.9859 0.0000
# 6 0.0000 0.0000 0.0000 0.0000 0.0000 14.2991
#
#
#
# Elastic Compliance Matrix: (Units=1/GPa)
#
#
# Indices 1 2 3 4 5 6 
#
# 1 0.011315 -0.004516 -0.000257 0.000000 0.000000 0.000000
# 2 -0.004516 0.019436 -0.000696 0.000000 0.000000 0.000000
# 3 -0.000257 -0.000696 0.011698 0.000000 0.000000 0.000000
# 4 0.000000 0.000000 0.000000 0.068100 0.000000 0.000000
# 5 0.000000 0.000000 0.000000 0.000000 0.035732 0.000000
# 6 0.000000 0.000000 0.000000 0.000000 0.000000 0.069934
#
#
# Mechanical properties :
#
#
# Convention : Reuss Voigt Hill
#
# Bulk Modulus (GPa) = 31.73794 33.40186 32.56990
# Shear Modulus (GPa) = 21.03858 25.39732 23.21795
#
# Velocity S-wave (km/s) = 3.13405 3.44344 3.29238
# Velocity P-wave (km/s) = 5.28336 5.60393 5.44600
#
# Compressibility (1/GPa) = 0.03150803
#
# Stress axis : x y z
#
# Youngs Moduli (GPa) = 88.37950 51.45091 85.48656
#
# Poissons Ratio (x) = 0.23237 0.02201
# Poissons Ratio (y) = 0.39915 0.05954
# Poissons Ratio (z) = 0.02275 0.03584
#
# Static dielectric constant tensor:
#      x y z
#    x 1.736130 0.000000 0.000000 
#    y 0.000000 1.812240 0.000000 
#    z 0.000000 0.000000 1.934970 
# 
# From -- ./inp_files/5216.got.cif
#   From: 2010.05.17/outbox.cif.g08.bks.cpg/sg36_3_cif.got.tgz:5216.got - 2010.06.03 17:41:39.
