data_PCOD9351533
_publ_section_title
;
Structure prediction by ZEFSAII (Michael W. Deem and Ramdas Pophale) SiO2 
 PCOD9351533
Probable space group: C M C 21
;
_chemical_formula_sum "Si O2"
_cell_formula_units_Z 64
_cell_length_a 8.655254
_cell_length_b 23.784739
_cell_length_c 17.936365
_cell_angle_alpha 90.000000
_cell_angle_beta 90.000000
_cell_angle_gamma 90.000000
_cell_volume 3692.433143
_symmetry_space_group_name_H-M "C M C 21"
_symmetry_group_IT_number 36
_symmetry_cell_setting 'orthorhombic'
loop_
_space_group_symop_operation_xyz
x,y,z
-x,-y,1/2+z
x,-y,1/2+z
-x,y,z
1/2+x,1/2+y,z
1/2-x,1/2-y,1/2+z
1/2+x,1/2-y,1/2+z
1/2-x,1/2+y,z
loop_
_atom_site_type_symbol
_atom_site_label
_atom_site_fract_x
_atom_site_fract_y
_atom_site_fract_z
Si Si1 0.681743 0.639183 0.422560
Si Si2 0.818346 0.184362 0.729385
Si Si3 0.180630 0.030116 0.630417
Si Si4 0.179926 0.638618 0.576723
Si Si5 0.314689 0.577279 0.206711
Si Si6 0.315954 0.923746 0.283632
Si Si7 0.819715 0.468345 0.859266
Si Si8 0.315714 0.695058 0.263456
O O1 0.500000 0.645708 0.434169
O O2 0.770030 0.659514 0.495687
O O3 0.720127 0.573362 0.409203
O O4 0.724021 0.671209 0.345928
O O5 0.769591 0.167440 0.645153
O O6 0.729260 0.141410 0.784754
O O7 0.771769 0.248186 0.744989
O O8 0.000000 0.175987 0.738133
O O9 0.279959 0.071978 0.580507
O O10 0.217070 0.052737 0.713941
O O11 0.000000 0.037638 0.613148
O O12 0.216050 0.963663 0.636845
O O13 0.000000 0.646850 0.589689
O O14 0.500000 0.570675 0.224146
O O15 0.214469 0.554028 0.275492
O O16 0.285079 0.643750 0.205815
O O17 0.500000 0.929180 0.267786
O O18 0.283172 0.965249 0.352886
O O19 0.000000 0.461214 0.877557
O O20 0.500000 0.705632 0.262468
#
# Coordination Sequence:
#
# PCOD9351533 Si02
#       8
#     8   8   8   8   8   8   8   8
#     4  10  20  34  52  73  99 130 163 203 253 305
#     4  11  21  32  49  73 100 132 173 213 249 294
#     4   9  15  26  45  69  95 121 153 191 235 286
#     4  11  21  33  50  72 100 131 164 205 254 303
#     4   8  15  27  45  68  94 124 154 190 235 282
#     4   9  16  27  44  67  95 124 154 192 237 281
#     4   9  16  26  44  70  96 121 151 189 235 285
#     4   9  18  33  51  72  99 131 168 209 252 296
#
# _framework density 17.332744999999999
#
# number of rings (size 3 to 8) (size 9 to 14) (size 15 to 20)
#    0.000    2.500    0.000    6.000    0.000    4.500 
#    0.000    0.000    0.000    1.500    0.000    7.000 
#    0.000    0.000    0.000    0.000    0.000    0.000 
#
# Total GULP energy -178154.426139 kJ/mol
# GULP energy per Si atom -5567.325817 kJ/mol
# Density = 1.729329 g / cm^3
# Si number density = 17.332745 Si / 1000 Ang^3
#
#
#
# Elastic Constant Matrix: (Units=GPa)
#
#
# Indices 1 2 3 4 5 6 
#
# 1 40.6014 23.6791 8.0742 0.0000 0.0000 0.0000
# 2 23.6791 106.2517 17.6316 0.0000 0.0000 0.0000
# 3 8.0742 17.6316 36.2182 0.0000 0.0000 0.0000
# 4 0.0000 0.0000 0.0000 11.6196 0.0000 0.0000
# 5 0.0000 0.0000 0.0000 0.0000 19.9203 0.0000
# 6 0.0000 0.0000 0.0000 0.0000 0.0000 28.3567
#
#
#
# Elastic Compliance Matrix: (Units=1/GPa)
#
#
# Indices 1 2 3 4 5 6 
#
# 1 0.028729 -0.005809 -0.003577 0.000000 0.000000 0.000000
# 2 -0.005809 0.011413 -0.004261 0.000000 0.000000 0.000000
# 3 -0.003577 -0.004261 0.030482 0.000000 0.000000 0.000000
# 4 0.000000 0.000000 0.000000 0.086061 0.000000 0.000000
# 5 0.000000 0.000000 0.000000 0.000000 0.050200 0.000000
# 6 0.000000 0.000000 0.000000 0.000000 0.000000 0.035265
#
#
# Mechanical properties :
#
#
# Convention : Reuss Voigt Hill
#
# Bulk Modulus (GPa) = 23.07833 31.31567 27.19700
# Shear Modulus (GPa) = 17.61258 20.89175 19.25217
#
# Velocity S-wave (km/s) = 3.19116 3.47556 3.33639
# Velocity P-wave (km/s) = 5.18862 5.84915 5.52876
#
# Compressibility (1/GPa) = 0.04333069
#
# Stress axis : x y z
#
# Youngs Moduli (GPa) = 34.80830 87.61712 32.80605
#
# Poissons Ratio (x) = 0.50896 0.11734
# Poissons Ratio (y) = 0.20220 0.13979
# Poissons Ratio (z) = 0.12450 0.37335
#
# Static dielectric constant tensor:
#      x y z
#    x 1.578400 0.000000 0.000000 
#    y 0.000000 1.641280 0.000000 
#    z 0.000000 0.000000 1.600540 
# 
# From -- ./inp_files/15847.got.cif
#   From: 2010.05.17/outbox.cif.g08.bks.cpg/sg36_8_cif.got.tgz:15847.got - 2010.06.03 17:41:39.
