data_PCOD9351606
_publ_section_title
;
Structure prediction by ZEFSAII (Michael W. Deem and Ramdas Pophale) SiO2 
 PCOD9351606
Probable space group: C M C 21
;
_chemical_formula_sum "Si O2"
_cell_formula_units_Z 56
_cell_length_a 19.106267
_cell_length_b 13.379754
_cell_length_c 11.094311
_cell_angle_alpha 90.000000
_cell_angle_beta 90.000000
_cell_angle_gamma 90.000000
_cell_volume 2836.118071
_symmetry_space_group_name_H-M "C M C 21"
_symmetry_group_IT_number 36
_symmetry_cell_setting 'orthorhombic'
loop_
_space_group_symop_operation_xyz
x,y,z
-x,-y,1/2+z
x,-y,1/2+z
-x,y,z
1/2+x,1/2+y,z
1/2-x,1/2-y,1/2+z
1/2+x,1/2-y,1/2+z
1/2-x,1/2+y,z
loop_
_atom_site_type_symbol
_atom_site_label
_atom_site_fract_x
_atom_site_fract_y
_atom_site_fract_z
Si Si1 0.653624 0.454514 0.770350
Si Si2 0.921958 0.198242 0.134885
Si Si3 0.191279 0.117725 0.947220
Si Si4 0.224075 0.675698 0.373403
Si Si5 0.107783 0.572924 0.682472
Si Si6 0.422819 0.933695 0.904001
Si Si7 0.245050 0.047511 0.591882
O O1 0.590462 0.382264 0.740338
O O2 0.649005 0.530049 0.880428
O O3 0.721787 0.381891 0.787171
O O4 0.673138 0.526907 0.659596
O O5 0.911379 0.310577 0.180733
O O6 0.000000 0.188549 0.084725
O O7 0.860895 0.172485 0.039673
O O8 0.221523 0.205302 0.863672
O O9 0.252396 0.053182 0.010882
O O10 0.144612 0.634247 0.371872
O O11 0.252459 0.642478 0.505137
O O12 0.085906 0.536223 0.546152
O O13 0.078780 0.518362 0.800481
O O14 0.191200 0.558006 0.682771
O O15 0.500000 0.884942 0.896509
#
# Coordination Sequence:
#
# PCOD9351606 Si02
#       7
#     8   8   8   8   8   8   8
#     4  10  22  36  58  88 118 155 203 257 308 359
#     4  11  23  40  62  87 120 167 208 248 313 381
#     4  10  21  36  59  87 117 158 204 255 309 364
#     4  10  20  34  57  86 121 160 200 258 303 371
#     4  11  22  39  62  91 125 164 207 253 311 373
#     4  11  21  36  59  91 127 166 208 254 313 375
#     4   9  19  35  53  86 120 148 200 253 307 361
#
# _framework density 19.745298999999999
#
# number of rings (size 3 to 8) (size 9 to 14) (size 15 to 20)
#    0.000    1.714    4.286    1.286    2.000    0.571 
#    0.000    0.000    3.143    0.000    0.000    0.000 
#    0.000    0.000    0.000    0.000    0.000    0.000 
#
# Total GULP energy -155981.886801 kJ/mol
# GULP energy per Si atom -5570.781671 kJ/mol
# Density = 1.970036 g / cm^3
# Si number density = 19.745299 Si / 1000 Ang^3
#
#
#
# Elastic Constant Matrix: (Units=GPa)
#
#
# Indices 1 2 3 4 5 6 
#
# 1 65.1805 26.5535 9.6413 0.0000 0.0000 0.0000
# 2 26.5535 105.8337 45.4662 0.0000 0.0000 0.0000
# 3 9.6413 45.4662 76.4207 0.0000 0.0000 0.0000
# 4 0.0000 0.0000 0.0000 26.8983 0.0000 0.0000
# 5 0.0000 0.0000 0.0000 0.0000 10.8621 0.0000
# 6 0.0000 0.0000 0.0000 0.0000 0.0000 9.2620
#
#
#
# Elastic Compliance Matrix: (Units=1/GPa)
#
#
# Indices 1 2 3 4 5 6 
#
# 1 0.017105 -0.004520 0.000531 0.000000 0.000000 0.000000
# 2 -0.004520 0.013887 -0.007692 0.000000 0.000000 0.000000
# 3 0.000531 -0.007692 0.017595 0.000000 0.000000 0.000000
# 4 0.000000 0.000000 0.000000 0.037177 0.000000 0.000000
# 5 0.000000 0.000000 0.000000 0.000000 0.092063 0.000000
# 6 0.000000 0.000000 0.000000 0.000000 0.000000 0.107968
#
#
# Mechanical properties :
#
#
# Convention : Reuss Voigt Hill
#
# Bulk Modulus (GPa) = 39.64242 45.63966 42.64104
# Shear Modulus (GPa) = 15.74483 20.45609 18.10046
#
# Velocity S-wave (km/s) = 2.82688 3.22218 3.03099
# Velocity P-wave (km/s) = 5.54757 6.08339 5.82165
#
# Compressibility (1/GPa) = 0.02522551
#
# Stress axis : x y z
#
# Youngs Moduli (GPa) = 58.46340 72.00860 56.83511
#
# Poissons Ratio (x) = 0.32546 -0.03018
# Poissons Ratio (y) = 0.26424 0.43717
# Poissons Ratio (z) = -0.03105 0.55389
#
# Static dielectric constant tensor:
#      x y z
#    x 1.695620 0.000000 0.000000 
#    y 0.000000 1.693570 0.000000 
#    z 0.000000 0.000000 1.790720 
# 
# From -- ./inp_files/9220.got.cif
#   From: 2010.05.17/outbox.cif.g08.bks.cpg/sg36_5_cif.got.tgz:9220.got - 2010.06.03 17:41:39.
