data_PCOD9351259
_publ_section_title
;
Structure prediction by ZEFSAII (Michael W. Deem and Ramdas Pophale) SiO2 
 PCOD9351259
Probable space group: C M C 21
;
_chemical_formula_sum "Si O2"
_cell_formula_units_Z 64
_cell_length_a 7.481448
_cell_length_b 14.828711
_cell_length_c 22.639514
_cell_angle_alpha 90.000000
_cell_angle_beta 90.000000
_cell_angle_gamma 90.000000
_cell_volume 2511.632896
_symmetry_space_group_name_H-M "C M C 21"
_symmetry_group_IT_number 36
_symmetry_cell_setting 'orthorhombic'
loop_
_space_group_symop_operation_xyz
x,y,z
-x,-y,1/2+z
x,-y,1/2+z
-x,y,z
1/2+x,1/2+y,z
1/2-x,1/2-y,1/2+z
1/2+x,1/2-y,1/2+z
1/2-x,1/2+y,z
loop_
_atom_site_type_symbol
_atom_site_label
_atom_site_fract_x
_atom_site_fract_y
_atom_site_fract_z
Si Si1 0.204907 0.615846 0.603960
Si Si2 0.202853 0.077746 0.261729
Si Si3 0.720194 0.715430 0.165964
Si Si4 0.780876 0.098004 0.813260
Si Si5 0.289557 0.214074 0.350664
Si Si6 0.717948 0.468679 0.441477
Si Si7 0.206798 0.916023 0.565037
Si Si8 0.287228 0.670758 0.476669
O O1 0.280659 0.682132 0.654320
O O2 0.288715 0.518631 0.590167
O O3 0.211288 0.674133 0.542759
O O4 0.000000 0.595841 0.617818
O O5 0.283072 0.155371 0.220940
O O6 0.199287 0.123614 0.326462
O O7 0.000000 0.064831 0.240321
O O8 0.282779 0.978217 0.267764
O O9 0.500000 0.719907 0.167477
O O10 0.782239 0.654070 0.111133
O O11 0.722962 0.201349 0.811816
O O12 0.723761 0.065486 0.878320
O O13 0.000000 0.097446 0.811649
O O14 0.500000 0.203404 0.341882
O O15 0.262972 0.231811 0.420525
O O16 0.500000 0.465716 0.441823
O O17 0.784671 0.415877 0.499325
O O18 0.769818 0.571626 0.453844
O O19 0.000000 0.891431 0.558740
O O20 0.500000 0.673140 0.483005
#
# Coordination Sequence:
#
# PCOD9351259 Si02
#       8
#     8   8   8   8   8   8   8   8
#     4  10  20  35  55  85 117 144 181 236 290 328
#     4  10  20  40  60  76 108 153 197 229 268 339
#     4   9  20  36  59  82 105 151 199 229 268 337
#     4   9  18  32  54  80 106 143 182 221 271 333
#     4  11  22  34  55  88 115 140 180 237 293 327
#     4   8  14  28  53  78 102 136 177 218 260 316
#     4   9  18  34  56  81 109 145 190 226 267 334
#     4  10  19  35  58  82 112 152 188 222 273 342
#
# _framework density 25.48143
#
# number of rings (size 3 to 8) (size 9 to 14) (size 15 to 20)
#    0.000    2.500    1.250    1.875    1.750    1.000 
#    0.000    5.625    0.000    0.000    0.000    0.000 
#    0.000    0.000    0.000    0.000    0.000    0.000 
#
# Total GULP energy -178768.921398 kJ/mol
# GULP energy per Si atom -5586.528794 kJ/mol
# Density = 2.542343 g / cm^3
# Si number density = 25.481430 Si / 1000 Ang^3
#
#
#
# Elastic Constant Matrix: (Units=GPa)
#
#
# Indices 1 2 3 4 5 6 
#
# 1 85.1532 -6.3539 -11.3115 0.0000 0.0000 0.0000
# 2 -6.3539 100.7343 18.6376 0.0000 0.0000 0.0000
# 3 -11.3115 18.6376 38.4928 0.0000 0.0000 0.0000
# 4 0.0000 0.0000 0.0000 43.4120 0.0000 0.0000
# 5 0.0000 0.0000 0.0000 0.0000 7.9155 0.0000
# 6 0.0000 0.0000 0.0000 0.0000 0.0000 6.2074
#
#
#
# Elastic Compliance Matrix: (Units=1/GPa)
#
#
# Indices 1 2 3 4 5 6 
#
# 1 0.012222 0.000117 0.003535 0.000000 0.000000 0.000000
# 2 0.000117 0.010905 -0.005246 0.000000 0.000000 0.000000
# 3 0.003535 -0.005246 0.029558 0.000000 0.000000 0.000000
# 4 0.000000 0.000000 0.000000 0.023035 0.000000 0.000000
# 5 0.000000 0.000000 0.000000 0.000000 0.126335 0.000000
# 6 0.000000 0.000000 0.000000 0.000000 0.000000 0.161099
#
#
# Mechanical properties :
#
#
# Convention : Reuss Voigt Hill
#
# Bulk Modulus (GPa) = 20.20341 25.14720 22.67531
# Shear Modulus (GPa) = 13.06029 26.40083 19.73056
#
# Velocity S-wave (km/s) = 2.26639 3.22231 2.78566
# Velocity P-wave (km/s) = 3.84638 4.87182 4.38915
#
# Compressibility (1/GPa) = 0.04949659
#
# Stress axis : x y z
#
# Youngs Moduli (GPa) = 81.82085 91.70087 33.83231
#
# Poissons Ratio (x) = -0.01072 -0.11959
# Poissons Ratio (y) = -0.00956 0.17747
# Poissons Ratio (z) = -0.28923 0.48103
#
# Static dielectric constant tensor:
#      x y z
#    x 1.951120 0.000000 0.000000 
#    y 0.000000 2.015010 0.000000 
#    z 0.000000 0.000000 2.062300 
# 
# From -- ./inp_files/16667.got.cif
#   From: 2010.05.17/outbox.cif.g08.bks.cpg/sg36_9_cif.got.tgz:16667.got - 2010.06.03 17:41:39.
