data_PCOD9351603
_publ_section_title
;
Structure prediction by ZEFSAII (Michael W. Deem and Ramdas Pophale) SiO2 
 PCOD9351603
Probable space group: C M C 21
;
_chemical_formula_sum "Si O2"
_cell_formula_units_Z 64
_cell_length_a 9.613451
_cell_length_b 23.000097
_cell_length_c 16.358511
_cell_angle_alpha 90.000000
_cell_angle_beta 90.000000
_cell_angle_gamma 90.000000
_cell_volume 3617.035365
_symmetry_space_group_name_H-M "C M C 21"
_symmetry_group_IT_number 36
_symmetry_cell_setting 'orthorhombic'
loop_
_space_group_symop_operation_xyz
x,y,z
-x,-y,1/2+z
x,-y,1/2+z
-x,y,z
1/2+x,1/2+y,z
1/2-x,1/2-y,1/2+z
1/2+x,1/2-y,1/2+z
1/2-x,1/2+y,z
loop_
_atom_site_type_symbol
_atom_site_label
_atom_site_fract_x
_atom_site_fract_y
_atom_site_fract_z
Si Si1 0.666626 0.902685 0.858590
Si Si2 0.160386 0.857388 0.007745
Si Si3 0.334287 0.711012 0.670140
Si Si4 0.834295 0.347551 0.682818
Si Si5 0.840473 0.077885 0.062294
Si Si6 0.662072 0.034928 0.910447
Si Si7 0.152540 0.955502 0.140639
Si Si8 0.660599 0.114750 0.754952
O O1 0.500000 0.895973 0.867533
O O2 0.703380 0.879288 0.768239
O O3 0.698029 0.971413 0.872659
O O4 0.744508 0.865835 0.928753
O O5 0.203954 0.811025 0.078066
O O6 0.161674 0.918641 0.056954
O O7 0.000000 0.845052 0.984639
O O8 0.500000 0.700615 0.676939
O O9 0.308802 0.778542 0.686034
O O10 0.252506 0.670839 0.734094
O O11 0.747361 0.373177 0.607866
O O12 0.000000 0.356668 0.669806
O O13 0.000000 0.094822 0.044912
O O14 0.843204 0.022966 0.123177
O O15 0.762453 0.053480 0.983083
O O16 0.500000 0.031015 0.937617
O O17 0.671285 0.085904 0.843459
O O18 0.278314 0.934415 0.195284
O O19 0.000000 0.940804 0.177146
O O20 0.500000 0.127183 0.737332
#
# Coordination Sequence:
#
# PCOD9351603 Si02
#       8
#     8   8   8   8   8   8   8   8
#     4  10  20  35  58  86 112 145 189 233 281 341
#     4   9  17  33  56  81 109 145 185 228 278 333
#     4   9  20  40  60  78 111 154 192 231 285 341
#     4  10  22  41  60  80 114 156 192 233 290 342
#     4  11  22  36  56  83 114 148 188 232 279 337
#     4  10  21  36  54  83 119 148 182 229 288 346
#     4   9  18  33  53  80 113 145 180 222 282 342
#     4  10  20  34  57  85 110 143 188 234 275 328
#
# _framework density 17.694049
#
# number of rings (size 3 to 8) (size 9 to 14) (size 15 to 20)
#    0.000    2.250    1.250    2.250    0.000    6.000 
#    2.250    0.000    0.000    0.000    0.000    0.000 
#    0.000    0.000    0.000    0.000    0.000    0.000 
#
# Total GULP energy -178386.342949 kJ/mol
# GULP energy per Si atom -5574.573217 kJ/mol
# Density = 1.765378 g / cm^3
# Si number density = 17.694049 Si / 1000 Ang^3
#
#
#
# Elastic Constant Matrix: (Units=GPa)
#
#
# Indices 1 2 3 4 5 6 
#
# 1 74.5211 58.4955 55.6966 0.0000 0.0000 0.0000
# 2 58.4955 96.4758 48.0587 0.0000 0.0000 0.0000
# 3 55.6966 48.0587 69.1468 0.0000 0.0000 0.0000
# 4 0.0000 0.0000 0.0000 21.0896 0.0000 0.0000
# 5 0.0000 0.0000 0.0000 0.0000 -256.2035 0.0000
# 6 0.0000 0.0000 0.0000 0.0000 0.0000 23.5096
#
#
#
# Elastic Compliance Matrix: (Units=1/GPa)
#
#
# Indices 1 2 3 4 5 6 
#
# 1 0.042640 -0.013375 -0.025050 0.000000 0.000000 0.000000
# 2 -0.013375 0.020050 -0.003162 0.000000 0.000000 0.000000
# 3 -0.025050 -0.003162 0.036836 0.000000 0.000000 0.000000
# 4 0.000000 0.000000 0.000000 0.047417 0.000000 0.000000
# 5 0.000000 0.000000 0.000000 0.000000 -0.003903 0.000000
# 6 0.000000 0.000000 0.000000 0.000000 0.000000 0.042536
#
#
# Mechanical properties :
#
#
# Convention : Reuss Voigt Hill
#
# Bulk Modulus (GPa) = 61.14984 62.73837 61.94411
# Shear Modulus (GPa) = 18.23488 -37.12800 -9.44656
#
# Velocity S-wave (km/s) = 3.21373 -4.58573 -2.31310
# Velocity P-wave (km/s) = 6.95739 2.73785 5.28683
#
# Compressibility (1/GPa) = 0.01635327
#
# Stress axis : x y z
#
# Youngs Moduli (GPa) = 23.45223 49.87529 27.14708
#
# Poissons Ratio (x) = 0.66710 0.68002
# Poissons Ratio (y) = 0.31368 0.08583
# Poissons Ratio (z) = 0.58747 0.15769
#
# Static dielectric constant tensor:
#      x y z
#    x 1.634130 0.000000 0.000000 
#    y 0.000000 1.598550 0.000000 
#    z 0.000000 0.000000 1.601870 
# 
# From -- ./inp_files/10875.got.cif
#   From: 2010.05.17/outbox.cif.g08.bks.cpg/sg36_6_cif.got.tgz:10875.got - 2010.06.03 17:41:39.
