data_PCOD9351711
_publ_section_title
;
Structure prediction by ZEFSAII (Michael W. Deem and Ramdas Pophale) SiO2 
 PCOD9351711
Probable space group: C M C 21
;
_chemical_formula_sum "Si O2"
_cell_formula_units_Z 40
_cell_length_a 8.101943
_cell_length_b 26.157163
_cell_length_c 7.766602
_cell_angle_alpha 90.000000
_cell_angle_beta 90.000000
_cell_angle_gamma 90.000000
_cell_volume 1645.928148
_symmetry_space_group_name_H-M "C M C 21"
_symmetry_group_IT_number 36
_symmetry_cell_setting 'orthorhombic'
loop_
_space_group_symop_operation_xyz
x,y,z
-x,-y,1/2+z
x,-y,1/2+z
-x,y,z
1/2+x,1/2+y,z
1/2-x,1/2-y,1/2+z
1/2+x,1/2-y,1/2+z
1/2-x,1/2+y,z
loop_
_atom_site_type_symbol
_atom_site_label
_atom_site_fract_x
_atom_site_fract_y
_atom_site_fract_z
Si Si1 0.000000 0.083190 0.648270
Si Si2 0.182794 0.633421 0.504422
Si Si3 0.189301 0.229747 0.321415
Si Si4 0.818032 0.574454 0.138513
Si Si5 0.500000 0.519927 0.001269
Si Si6 0.190578 0.829073 0.459212
O O1 0.165918 0.115913 0.623018
O O2 0.000000 0.048736 0.818947
O O3 0.000000 0.040993 0.495574
O O4 0.205327 0.691360 0.438639
O O5 0.193350 0.599512 0.328395
O O6 0.000000 0.626305 0.579278
O O7 0.195964 0.204803 0.133849
O O8 0.248586 0.287916 0.322381
O O9 0.000000 0.228308 0.382582
O O10 0.796709 0.621419 0.004262
O O11 0.000000 0.550903 0.119821
O O12 0.666217 0.537515 0.099081
O O13 0.000000 0.844053 0.433797
#
# Coordination Sequence:
#
# PCOD9351711 Si02
#       6
#     4   8   8   8   4   8
#     4  12  26  44  68  94 126 164 208 264 317 380
#     4  10  21  41  67  92 125 166 209 260 316 374
#     4  10  20  35  57  86 124 166 208 253 303 364
#     4  10  21  41  67  92 125 166 209 260 316 374
#     4  12  26  44  68  94 126 164 208 264 317 380
#     4  10  20  35  57  86 124 166 208 253 303 364
#
# _framework density 24.302398
#
# number of rings (size 3 to 8) (size 9 to 14) (size 15 to 20)
#    0.000    1.600    2.000    3.000    0.000    5.600 
#    0.000    0.000    0.000    0.000    0.000    0.000 
#    0.000    0.000    0.000    0.000    0.000    0.000 
#
# Total GULP energy -112051.479333 kJ/mol
# GULP energy per Si atom -5602.573967 kJ/mol
# Density = 2.424708 g / cm^3
# Si number density = 24.302398 Si / 1000 Ang^3
#
#
#
# Elastic Constant Matrix: (Units=GPa)
#
#
# Indices 1 2 3 4 5 6 
#
# 1 186.2548 43.4151 36.1733 0.0000 0.0000 0.0000
# 2 43.4151 90.3118 -4.0029 0.0000 0.0000 0.0000
# 3 36.1733 -4.0029 80.2253 0.0000 0.0000 0.0000
# 4 0.0000 0.0000 0.0000 35.2509 0.0000 0.0000
# 5 0.0000 0.0000 0.0000 0.0000 31.6569 0.0000
# 6 0.0000 0.0000 0.0000 0.0000 0.0000 31.3139
#
#
#
# Elastic Compliance Matrix: (Units=1/GPa)
#
#
# Indices 1 2 3 4 5 6 
#
# 1 0.006791 -0.003408 -0.003232 0.000000 0.000000 0.000000
# 2 -0.003408 0.012807 0.002176 0.000000 0.000000 0.000000
# 3 -0.003232 0.002176 0.014031 0.000000 0.000000 0.000000
# 4 0.000000 0.000000 0.000000 0.028368 0.000000 0.000000
# 5 0.000000 0.000000 0.000000 0.000000 0.031589 0.000000
# 6 0.000000 0.000000 0.000000 0.000000 0.000000 0.031935
#
#
# Mechanical properties :
#
#
# Convention : Reuss Voigt Hill
#
# Bulk Modulus (GPa) = 40.48484 56.44031 48.46258
# Shear Modulus (GPa) = 35.04271 38.39144 36.71708
#
# Velocity S-wave (km/s) = 3.80141 3.97890 3.89117
# Velocity P-wave (km/s) = 5.99688 6.66209 6.33822
#
# Compressibility (1/GPa) = 0.02470060
#
# Stress axis : x y z
#
# Youngs Moduli (GPa) = 147.25218 78.07966 71.27174
#
# Poissons Ratio (x) = 0.26609 0.23036
# Poissons Ratio (y) = 0.50182 -0.15506
# Poissons Ratio (z) = 0.47594 -0.16987
#
# Static dielectric constant tensor:
#      x y z
#    x 1.886340 0.000000 0.000000 
#    y 0.000000 1.899030 0.000000 
#    z 0.000000 0.000000 2.013840 
# 
# From -- ./inp_files/2538.got.cif
#   From: 2010.05.17/outbox.cif.g08.bks.cpg/sg36_2_cif.got.tgz:2538.got - 2010.06.03 17:41:39.
