data_PCOD9351729
_publ_section_title
;
Structure prediction by ZEFSAII (Michael W. Deem and Ramdas Pophale) SiO2 
 PCOD9351729
Probable space group: C M C 21
;
_chemical_formula_sum "Si O2"
_cell_formula_units_Z 64
_cell_length_a 19.824095
_cell_length_b 12.431203
_cell_length_c 12.906358
_cell_angle_alpha 90.000000
_cell_angle_beta 90.000000
_cell_angle_gamma 90.000000
_cell_volume 3180.608654
_symmetry_space_group_name_H-M "C M C 21"
_symmetry_group_IT_number 36
_symmetry_cell_setting 'orthorhombic'
loop_
_space_group_symop_operation_xyz
x,y,z
-x,-y,1/2+z
x,-y,1/2+z
-x,y,z
1/2+x,1/2+y,z
1/2-x,1/2-y,1/2+z
1/2+x,1/2-y,1/2+z
1/2-x,1/2+y,z
loop_
_atom_site_type_symbol
_atom_site_label
_atom_site_fract_x
_atom_site_fract_y
_atom_site_fract_z
Si Si1 0.923294 0.001373 0.138650
Si Si2 0.923476 0.753257 0.107805
Si Si3 0.713548 0.170476 0.030230
Si Si4 0.221339 0.969047 0.716420
Si Si5 0.922259 0.652304 0.331845
Si Si6 0.693343 0.989159 0.894645
Si Si7 0.698929 0.139255 0.597346
Si Si8 0.422629 0.268755 0.549031
O O1 0.858642 0.016104 0.212035
O O2 0.000000 0.006863 0.182968
O O3 0.916507 0.881642 0.092604
O O4 0.917056 0.102513 0.060469
O O5 0.865178 0.688873 0.051283
O O6 0.913929 0.723515 0.229049
O O7 0.000000 0.722514 0.079212
O O8 0.751920 0.108832 0.124886
O O9 0.749766 0.284424 0.036073
O O10 0.717848 0.108901 0.921626
O O11 0.247638 0.934327 0.828239
O O12 0.261270 0.079937 0.688554
O O13 0.873249 0.549150 0.333650
O O14 0.908916 0.726584 0.432704
O O15 0.000000 0.617711 0.336910
O O16 0.679594 0.948520 0.011251
O O17 0.632176 0.208428 0.620633
O O18 0.500000 0.240198 0.575068
#
# Coordination Sequence:
#
# PCOD9351729 Si02
#       8
#     8   8   8   8   8   8   8   8
#     4  10  20  35  58  86 115 155 196 231 288 351
#     4  10  20  36  60  86 118 158 192 234 294 351
#     4  11  21  37  58  85 114 150 193 237 294 348
#     4  11  21  38  58  84 116 152 190 243 289 344
#     4   9  18  36  59  85 115 153 197 238 291 351
#     4  10  23  36  58  89 111 147 200 242 290 337
#     4  10  21  37  58  85 116 151 193 235 291 350
#     4   9  18  35  59  84 117 152 193 244 287 342
#
# _framework density 20.121935000000001
#
# number of rings (size 3 to 8) (size 9 to 14) (size 15 to 20)
#    0.000    2.000    3.750    0.000    0.000    3.500 
#    0.000    2.500    0.000    0.750    0.000    0.000 
#    0.000    0.000    0.000    0.000    0.000    0.000 
#
# Total GULP energy -178168.248925 kJ/mol
# GULP energy per Si atom -5567.757779 kJ/mol
# Density = 2.007614 g / cm^3
# Si number density = 20.121935 Si / 1000 Ang^3
#
#
#
# Elastic Constant Matrix: (Units=GPa)
#
#
# Indices 1 2 3 4 5 6 
#
# 1 110.8164 11.4073 18.9204 0.0000 0.0000 0.0000
# 2 11.4073 43.6381 0.3847 0.0000 0.0000 0.0000
# 3 18.9204 0.3847 26.9444 0.0000 0.0000 0.0000
# 4 0.0000 0.0000 0.0000 13.8428 0.0000 0.0000
# 5 0.0000 0.0000 0.0000 0.0000 14.1083 0.0000
# 6 0.0000 0.0000 0.0000 0.0000 0.0000 37.4811
#
#
#
# Elastic Compliance Matrix: (Units=1/GPa)
#
#
# Indices 1 2 3 4 5 6 
#
# 1 0.010561 -0.002696 -0.007377 0.000000 0.000000 0.000000
# 2 -0.002696 0.023607 0.001556 0.000000 0.000000 0.000000
# 3 -0.007377 0.001556 0.042272 0.000000 0.000000 0.000000
# 4 0.000000 0.000000 0.000000 0.072240 0.000000 0.000000
# 5 0.000000 0.000000 0.000000 0.000000 0.070880 0.000000
# 6 0.000000 0.000000 0.000000 0.000000 0.000000 0.026680
#
#
# Mechanical properties :
#
#
# Convention : Reuss Voigt Hill
#
# Bulk Modulus (GPa) = 16.83362 26.98041 21.90701
# Shear Modulus (GPa) = 17.66312 23.13221 20.39767
#
# Velocity S-wave (km/s) = 2.96599 3.39426 3.18732
# Velocity P-wave (km/s) = 4.48480 5.36646 4.94532
#
# Compressibility (1/GPa) = 0.05940493
#
# Stress axis : x y z
#
# Youngs Moduli (GPa) = 94.68774 42.36081 23.65648
#
# Poissons Ratio (x) = 0.11419 0.17453
# Poissons Ratio (y) = 0.25525 -0.03681
# Poissons Ratio (z) = 0.69856 -0.06591
#
# Static dielectric constant tensor:
#      x y z
#    x 1.728400 0.000000 0.000000 
#    y 0.000000 1.784780 0.000000 
#    z 0.000000 0.000000 1.723820 
# 
# From -- ./inp_files/12640.got.cif
#   From: 2010.05.17/outbox.cif.g08.bks.cpg/sg36_7_cif.got.tgz:12640.got - 2010.06.03 17:41:39.
