data_PCOD9351387
_publ_section_title
;
Structure prediction by ZEFSAII (Michael W. Deem and Ramdas Pophale) SiO2 
 PCOD9351387
Probable space group: C M C 21
;
_chemical_formula_sum "Si O2"
_cell_formula_units_Z 56
_cell_length_a 22.219372
_cell_length_b 18.846514
_cell_length_c 5.846401
_cell_angle_alpha 90.000000
_cell_angle_beta 90.000000
_cell_angle_gamma 90.000000
_cell_volume 2448.225468
_symmetry_space_group_name_H-M "C M C 21"
_symmetry_group_IT_number 36
_symmetry_cell_setting 'orthorhombic'
loop_
_space_group_symop_operation_xyz
x,y,z
-x,-y,1/2+z
x,-y,1/2+z
-x,y,z
1/2+x,1/2+y,z
1/2-x,1/2-y,1/2+z
1/2+x,1/2-y,1/2+z
1/2-x,1/2+y,z
loop_
_atom_site_type_symbol
_atom_site_label
_atom_site_fract_x
_atom_site_fract_y
_atom_site_fract_z
Si Si1 0.824133 0.614361 0.143430
Si Si2 0.378341 0.688605 0.646970
Si Si3 0.758478 0.325541 0.250114
Si Si4 0.572342 0.537217 0.501931
Si Si5 0.240115 0.985836 0.167490
Si Si6 0.433624 0.829186 0.420631
Si Si7 0.873455 0.720657 0.523255
O O1 0.797195 0.537921 0.190157
O O2 0.849735 0.663076 0.342358
O O3 0.769863 0.655980 0.015576
O O4 0.881850 0.614187 0.976701
O O5 0.306314 0.698857 0.665248
O O6 0.395189 0.612901 0.546624
O O7 0.412654 0.752492 0.520572
O O8 0.393223 0.705134 0.913286
O O9 0.760971 0.405008 0.146720
O O10 0.813816 0.275583 0.180080
O O11 0.585117 0.506880 0.242207
O O12 0.500000 0.548318 0.505400
O O13 0.209768 0.993915 0.422143
O O14 0.500000 0.847529 0.498806
O O15 0.428411 0.814582 0.152993
#
# Coordination Sequence:
#
# PCOD9351387 Si02
#       7
#     8   8   8   8   8   8   8
#     4   9  20  39  62  94 128 174 220 276 337 399
#     4  11  25  39  67  97 135 176 225 276 340 411
#     4  10  22  37  61  96 137 175 217 274 336 413
#     4  10  24  47  70  95 133 176 227 285 338 398
#     4  10  19  37  63  93 131 181 218 268 337 409
#     4  10  23  42  66  98 132 175 232 283 337 403
#     4  10  22  39  62  95 132 175 217 280 337 397
#
# _framework density 22.873712000000001
#
# number of rings (size 3 to 8) (size 9 to 14) (size 15 to 20)
#    0.000    2.000    1.429    0.429    8.000    5.143 
#    0.000    0.000    0.000    7.714    0.000    0.000 
#    0.000    0.000    0.000    0.000    0.000    0.000 
#
# Total GULP energy -155910.532126 kJ/mol
# GULP energy per Si atom -5568.233290 kJ/mol
# Density = 2.282165 g / cm^3
# Si number density = 22.873712 Si / 1000 Ang^3
#
#
#
# Elastic Constant Matrix: (Units=GPa)
#
#
# Indices 1 2 3 4 5 6 
#
# 1 81.0898 3.3754 13.8459 0.0000 0.0000 0.0000
# 2 3.3754 63.0679 3.3980 0.0000 0.0000 0.0000
# 3 13.8459 3.3980 98.2172 0.0000 0.0000 0.0000
# 4 0.0000 0.0000 0.0000 34.9555 0.0000 0.0000
# 5 0.0000 0.0000 0.0000 0.0000 13.7228 0.0000
# 6 0.0000 0.0000 0.0000 0.0000 0.0000 22.0655
#
#
#
# Elastic Compliance Matrix: (Units=1/GPa)
#
#
# Indices 1 2 3 4 5 6 
#
# 1 0.012657 -0.000582 -0.001764 0.000000 0.000000 0.000000
# 2 -0.000582 0.015912 -0.000468 0.000000 0.000000 0.000000
# 3 -0.001764 -0.000468 0.010446 0.000000 0.000000 0.000000
# 4 0.000000 0.000000 0.000000 0.028608 0.000000 0.000000
# 5 0.000000 0.000000 0.000000 0.000000 0.072871 0.000000
# 6 0.000000 0.000000 0.000000 0.000000 0.000000 0.045320
#
#
# Mechanical properties :
#
#
# Convention : Reuss Voigt Hill
#
# Bulk Modulus (GPa) = 29.95246 31.51262 30.73254
# Shear Modulus (GPa) = 24.68235 28.93246 26.80741
#
# Velocity S-wave (km/s) = 3.28848 3.56037 3.42713
# Velocity P-wave (km/s) = 5.24805 5.54151 5.39677
#
# Compressibility (1/GPa) = 0.03338624
#
# Stress axis : x y z
#
# Youngs Moduli (GPa) = 79.00462 62.84429 95.72648
#
# Poissons Ratio (x) = 0.03660 0.16888
# Poissons Ratio (y) = 0.04601 0.04484
# Poissons Ratio (z) = 0.13938 0.02944
#
# Static dielectric constant tensor:
#      x y z
#    x 1.851430 0.000000 0.000000 
#    y 0.000000 1.813160 0.000000 
#    z 0.000000 0.000000 2.138870 
# 
# From -- ./inp_files/1609.got.cif
#   From: 2010.05.17/outbox.cif.g08.bks.cpg/sg36_1_cif.got.tgz:1609.got - 2010.06.03 17:41:39.
