data_PCOD9351164
_publ_section_title
;
Structure prediction by ZEFSAII (Michael W. Deem and Ramdas Pophale) SiO2 
 PCOD9351164
Probable space group: C M C 21
;
_chemical_formula_sum "Si O2"
_cell_formula_units_Z 64
_cell_length_a 7.973000
_cell_length_b 24.265829
_cell_length_c 15.944404
_cell_angle_alpha 90.000000
_cell_angle_beta 90.000000
_cell_angle_gamma 90.000000
_cell_volume 3084.787035
_symmetry_space_group_name_H-M "C M C 21"
_symmetry_group_IT_number 36
_symmetry_cell_setting 'orthorhombic'
loop_
_space_group_symop_operation_xyz
x,y,z
-x,-y,1/2+z
x,-y,1/2+z
-x,y,z
1/2+x,1/2+y,z
1/2-x,1/2-y,1/2+z
1/2+x,1/2-y,1/2+z
1/2-x,1/2+y,z
loop_
_atom_site_type_symbol
_atom_site_label
_atom_site_fract_x
_atom_site_fract_y
_atom_site_fract_z
Si Si1 0.696479 0.135237 0.214250
Si Si2 0.705742 0.127924 0.030127
Si Si3 0.794101 0.574672 0.380759
Si Si4 0.296828 0.749837 0.473770
Si Si5 0.297754 0.051911 0.877537
Si Si6 0.695097 0.745550 0.281502
Si Si7 0.806725 0.865354 0.233230
Si Si8 0.198167 0.636244 0.548841
O O1 0.500000 0.121062 0.212837
O O2 0.766352 0.116992 0.124490
O O3 0.766201 0.107331 0.298368
O O4 0.712835 0.201077 0.224124
O O5 0.500000 0.127332 0.030676
O O6 0.755639 0.189587 0.003241
O O7 0.761502 0.084686 0.960055
O O8 0.741146 0.511186 0.376302
O O9 0.738875 0.603716 0.466804
O O10 0.000000 0.576708 0.381502
O O11 0.500000 0.748135 0.475367
O O12 0.242076 0.741149 0.377380
O O13 0.229684 0.700690 0.530672
O O14 0.500000 0.051076 0.880655
O O15 0.248512 0.086648 0.795911
O O16 0.500000 0.730264 0.280576
O O17 0.711074 0.808478 0.252691
O O18 0.780079 0.880356 0.136354
O O19 0.000000 0.852999 0.248832
O O20 0.000000 0.626570 0.556787
#
# Coordination Sequence:
#
# PCOD9351164 Si02
#       8
#     8   8   8   8   8   8   8   8
#     4  10  19  35  58  89 120 151 190 241 296 353
#     4   9  18  33  57  82 111 148 189 234 289 346
#     4   9  20  36  60  90 118 151 198 244 290 344
#     4  10  19  34  56  86 117 154 194 236 295 356
#     4  10  20  40  62  84 115 156 201 246 293 351
#     4  11  21  36  60  88 117 156 196 240 296 355
#     4  12  25  40  59  87 119 158 201 249 301 351
#     4  11  22  38  60  90 121 156 197 242 296 358
#
# _framework density 20.746974999999999
#
# number of rings (size 3 to 8) (size 9 to 14) (size 15 to 20)
#    0.000    1.750    2.500    2.625    0.000    2.500 
#    0.000    6.250    0.000    0.000    0.000    0.000 
#    0.000    0.000    0.000    0.000    0.000    0.000 
#
# Total GULP energy -178825.838346 kJ/mol
# GULP energy per Si atom -5588.307448 kJ/mol
# Density = 2.069975 g / cm^3
# Si number density = 20.746975 Si / 1000 Ang^3
#
#
#
# Elastic Constant Matrix: (Units=GPa)
#
#
# Indices 1 2 3 4 5 6 
#
# 1 18.8873 -5.2692 -0.5042 0.0000 0.0000 0.0000
# 2 -5.2692 109.2892 41.0679 0.0000 0.0000 0.0000
# 3 -0.5042 41.0679 117.2522 0.0000 0.0000 0.0000
# 4 0.0000 0.0000 0.0000 4.7950 0.0000 0.0000
# 5 0.0000 0.0000 0.0000 0.0000 14.7280 0.0000
# 6 0.0000 0.0000 0.0000 0.0000 0.0000 19.4436
#
#
#
# Elastic Compliance Matrix: (Units=1/GPa)
#
#
# Indices 1 2 3 4 5 6 
#
# 1 0.053729 0.002883 -0.000779 0.000000 0.000000 0.000000
# 2 0.002883 0.010692 -0.003732 0.000000 0.000000 0.000000
# 3 -0.000779 -0.003732 0.009833 0.000000 0.000000 0.000000
# 4 0.000000 0.000000 0.000000 0.208551 0.000000 0.000000
# 5 0.000000 0.000000 0.000000 0.000000 0.067898 0.000000
# 6 0.000000 0.000000 0.000000 0.000000 0.000000 0.051431
#
#
# Mechanical properties :
#
#
# Convention : Reuss Voigt Hill
#
# Bulk Modulus (GPa) = 14.08504 35.11307 24.59905
# Shear Modulus (GPa) = 11.65352 21.80226 16.72789
#
# Velocity S-wave (km/s) = 2.37259 3.24522 2.84259
# Velocity P-wave (km/s) = 3.78276 5.56804 4.75985
#
# Compressibility (1/GPa) = 0.07099732
#
# Stress axis : x y z
#
# Youngs Moduli (GPa) = 18.61184 93.53183 101.70317
#
# Poissons Ratio (x) = -0.26966 0.07920
# Poissons Ratio (y) = -0.05366 0.37959
# Poissons Ratio (z) = 0.01449 0.34909
#
# Static dielectric constant tensor:
#      x y z
#    x 1.749170 0.000000 0.000000 
#    y 0.000000 1.706040 0.000000 
#    z 0.000000 0.000000 1.745220 
# 
# From -- ./inp_files/10917.got.cif
#   From: 2010.05.17/outbox.cif.g08.bks.cpg/sg36_6_cif.got.tgz:10917.got - 2010.06.03 17:41:39.
