data_PCOD9351089
_publ_section_title
;
Structure prediction by ZEFSAII (Michael W. Deem and Ramdas Pophale) SiO2 
 PCOD9351089
Probable space group: C M C 21
;
_chemical_formula_sum "Si O2"
_cell_formula_units_Z 48
_cell_length_a 9.163467
_cell_length_b 21.705147
_cell_length_c 9.532464
_cell_angle_alpha 90.000000
_cell_angle_beta 90.000000
_cell_angle_gamma 90.000000
_cell_volume 1895.953691
_symmetry_space_group_name_H-M "C M C 21"
_symmetry_group_IT_number 36
_symmetry_cell_setting 'orthorhombic'
loop_
_space_group_symop_operation_xyz
x,y,z
-x,-y,1/2+z
x,-y,1/2+z
-x,y,z
1/2+x,1/2+y,z
1/2-x,1/2-y,1/2+z
1/2+x,1/2-y,1/2+z
1/2-x,1/2+y,z
loop_
_atom_site_type_symbol
_atom_site_label
_atom_site_fract_x
_atom_site_fract_y
_atom_site_fract_z
Si Si1 0.324320 0.315842 0.799650
Si Si2 0.335831 0.237526 0.053594
Si Si3 0.000000 0.548662 0.044513
Si Si4 0.326669 0.574573 0.001639
Si Si5 0.197816 0.134893 0.711449
Si Si6 0.500000 0.921832 0.218013
Si Si7 0.160108 0.937091 0.941079
O O1 0.500000 0.315120 0.806238
O O2 0.271676 0.304091 0.643435
O O3 0.264064 0.379365 0.865844
O O4 0.279987 0.260106 0.902957
O O5 0.500000 0.211366 0.040874
O O6 0.347529 0.301244 0.142282
O O7 0.164246 0.577485 0.079490
O O8 0.000000 0.479765 0.111570
O O9 0.000000 0.551552 0.875190
O O10 0.500000 0.572283 0.058746
O O11 0.337096 0.622048 0.872570
O O12 0.297323 0.507296 0.931406
O O13 0.367983 0.124485 0.700383
O O14 0.148047 0.081132 0.604481
O O15 0.000000 0.936254 0.877510
#
# Coordination Sequence:
#
# PCOD9351089 Si02
#       7
#     8   8   4   8   8   4   8
#     4   9  20  38  60  83 117 154 195 248 300 355
#     4  10  21  39  61  88 117 150 202 252 296 358
#     4  10  20  36  52  88 120 148 204 234 275 359
#     4  10  19  33  56  82 116 152 189 241 294 341
#     4  10  19  34  57  84 113 154 196 240 289 354
#     4  10  20  34  58  84 122 154 194 240 289 341
#     4   9  17  33  55  80 111 149 194 237 285 353
#
# _framework density 25.317074000000002
#
# number of rings (size 3 to 8) (size 9 to 14) (size 15 to 20)
#    0.000    2.333    1.667    2.500    1.167    0.667 
#    6.000    1.667    0.000    4.000    0.000    0.000 
#    0.000    0.000    0.000    0.000    0.000    0.000 
#
# Total GULP energy -133758.784797 kJ/mol
# GULP energy per Si atom -5573.282700 kJ/mol
# Density = 2.525945 g / cm^3
# Si number density = 25.317074 Si / 1000 Ang^3
#
#
#
# Elastic Constant Matrix: (Units=GPa)
#
#
# Indices 1 2 3 4 5 6 
#
# 1 165.1412 12.9689 16.0033 0.0000 0.0000 0.0000
# 2 12.9689 70.0803 12.4217 0.0000 0.0000 0.0000
# 3 16.0033 12.4217 110.7681 0.0000 0.0000 0.0000
# 4 0.0000 0.0000 0.0000 40.2750 0.0000 0.0000
# 5 0.0000 0.0000 0.0000 0.0000 34.1978 0.0000
# 6 0.0000 0.0000 0.0000 0.0000 0.0000 9.5500
#
#
#
# Elastic Compliance Matrix: (Units=1/GPa)
#
#
# Indices 1 2 3 4 5 6 
#
# 1 0.006211 -0.001010 -0.000784 0.000000 0.000000 0.000000
# 2 -0.001010 0.014723 -0.001505 0.000000 0.000000 0.000000
# 3 -0.000784 -0.001505 0.009310 0.000000 0.000000 0.000000
# 4 0.000000 0.000000 0.000000 0.024829 0.000000 0.000000
# 5 0.000000 0.000000 0.000000 0.000000 0.029242 0.000000
# 6 0.000000 0.000000 0.000000 0.000000 0.000000 0.104712
#
#
# Mechanical properties :
#
#
# Convention : Reuss Voigt Hill
#
# Bulk Modulus (GPa) = 42.29257 47.64195 44.96726
# Shear Modulus (GPa) = 24.56917 37.11094 30.84005
#
# Velocity S-wave (km/s) = 3.11860 3.83279 3.49399
# Velocity P-wave (km/s) = 5.45059 6.20048 5.83759
#
# Compressibility (1/GPa) = 0.02364482
#
# Stress axis : x y z
#
# Youngs Moduli (GPa) = 161.01127 67.92042 107.41231
#
# Poissons Ratio (x) = 0.06863 0.08421
# Poissons Ratio (y) = 0.16268 0.16167
# Poissons Ratio (z) = 0.12623 0.10223
#
# Static dielectric constant tensor:
#      x y z
#    x 1.955680 0.000000 0.000000 
#    y 0.000000 2.055480 0.000000 
#    z 0.000000 0.000000 1.963990 
# 
# From -- ./inp_files/6770.got.cif
#   From: 2010.05.17/outbox.cif.g08.bks.cpg/sg36_4_cif.got.tgz:6770.got - 2010.06.03 17:41:39.
