data_PCOD9351582
_publ_section_title
;
Structure prediction by ZEFSAII (Michael W. Deem and Ramdas Pophale) SiO2 
 PCOD9351582
Probable space group: C M C 21
;
_chemical_formula_sum "Si O2"
_cell_formula_units_Z 64
_cell_length_a 9.537565
_cell_length_b 27.128561
_cell_length_c 13.107630
_cell_angle_alpha 90.000000
_cell_angle_beta 90.000000
_cell_angle_gamma 90.000000
_cell_volume 3391.473611
_symmetry_space_group_name_H-M "C M C 21"
_symmetry_group_IT_number 36
_symmetry_cell_setting 'orthorhombic'
loop_
_space_group_symop_operation_xyz
x,y,z
-x,-y,1/2+z
x,-y,1/2+z
-x,y,z
1/2+x,1/2+y,z
1/2-x,1/2-y,1/2+z
1/2+x,1/2-y,1/2+z
1/2-x,1/2+y,z
loop_
_atom_site_type_symbol
_atom_site_label
_atom_site_fract_x
_atom_site_fract_y
_atom_site_fract_z
Si Si1 0.342780 0.053235 0.722810
Si Si2 0.169574 0.300697 0.081203
Si Si3 0.157301 0.492336 0.926671
Si Si4 0.665542 0.480267 0.601772
Si Si5 0.668296 0.123272 0.406217
Si Si6 0.832475 0.875808 0.700818
Si Si7 0.668693 0.308004 0.504465
Si Si8 0.168396 0.337098 0.300124
O O1 0.500000 0.057982 0.677961
O O2 0.307374 0.106032 0.769275
O O3 0.346968 0.014026 0.813951
O O4 0.233861 0.030002 0.645278
O O5 0.214791 0.307422 0.198537
O O6 0.000000 0.303301 0.085025
O O7 0.213474 0.344046 0.003466
O O8 0.207019 0.247799 0.035328
O O9 0.194711 0.434738 0.924482
O O10 0.000000 0.497918 0.969755
O O11 0.265043 0.524351 0.991472
O O12 0.500000 0.484191 0.595364
O O13 0.699005 0.432417 0.669714
O O14 0.500000 0.129088 0.393110
O O15 0.747718 0.137917 0.302364
O O16 0.799019 0.842673 0.601825
O O17 0.000000 0.871653 0.719463
O O18 0.500000 0.310591 0.488058
O O19 0.749527 0.323413 0.402318
O O20 0.000000 0.330651 0.315211
#
# Coordination Sequence:
#
# PCOD9351582 Si02
#       8
#     8   8   8   8   8   8   8   8
#     4  10  20  36  57  82 112 149 189 232 281 331
#     4   9  20  38  60  85 114 151 190 240 298 341
#     4  10  20  34  55  82 113 151 192 235 282 332
#     4  11  22  34  53  82 117 154 190 230 278 338
#     4  10  20  37  61  87 115 150 195 244 286 338
#     4  10  22  38  56  84 121 157 190 233 288 348
#     4  10  22  40  60  83 117 156 191 234 295 350
#     4  10  21  39  62  87 115 148 195 244 286 342
#
# _framework density 18.870853
#
# number of rings (size 3 to 8) (size 9 to 14) (size 15 to 20)
#    0.000    2.000    1.250    1.875    1.750    4.500 
#    0.000    1.250    0.000    0.000    0.000    0.000 
#    0.000    0.000    0.000    0.000    0.000    0.000 
#
# Total GULP energy -178586.233759 kJ/mol
# GULP energy per Si atom -5580.819805 kJ/mol
# Density = 1.882790 g / cm^3
# Si number density = 18.870853 Si / 1000 Ang^3
#
#
#
# Elastic Constant Matrix: (Units=GPa)
#
#
# Indices 1 2 3 4 5 6 
#
# 1 27.1966 21.2623 35.8736 0.0000 0.0000 0.0000
# 2 21.2623 69.5002 21.5350 0.0000 0.0000 0.0000
# 3 35.8736 21.5350 108.9960 0.0000 0.0000 0.0000
# 4 0.0000 0.0000 0.0000 30.8129 0.0000 0.0000
# 5 0.0000 0.0000 0.0000 0.0000 32.0232 0.0000
# 6 0.0000 0.0000 0.0000 0.0000 0.0000 13.3458
#
#
#
# Elastic Compliance Matrix: (Units=1/GPa)
#
#
# Indices 1 2 3 4 5 6 
#
# 1 0.081234 -0.017648 -0.023249 0.000000 0.000000 0.000000
# 2 -0.017648 0.019161 0.002023 0.000000 0.000000 0.000000
# 3 -0.023249 0.002023 0.016427 0.000000 0.000000 0.000000
# 4 0.000000 0.000000 0.000000 0.032454 0.000000 0.000000
# 5 0.000000 0.000000 0.000000 0.000000 0.031227 0.000000
# 6 0.000000 0.000000 0.000000 0.000000 0.000000 0.074930
#
#
# Mechanical properties :
#
#
# Convention : Reuss Voigt Hill
#
# Bulk Modulus (GPa) = 25.59378 40.33719 32.96549
# Shear Modulus (GPa) = 14.44227 23.70449 19.07338
#
# Velocity S-wave (km/s) = 2.76945 3.54806 3.18265
# Velocity P-wave (km/s) = 4.88042 6.18116 5.56890
#
# Compressibility (1/GPa) = 0.03907200
#
# Stress axis : x y z
#
# Youngs Moduli (GPa) = 12.31019 52.18994 60.87522
#
# Poissons Ratio (x) = 0.92105 1.41531
# Poissons Ratio (y) = 0.21725 -0.12314
# Poissons Ratio (z) = 0.28620 -0.10557
#
# Static dielectric constant tensor:
#      x y z
#    x 1.640470 0.000000 0.000000 
#    y 0.000000 1.655080 0.000000 
#    z 0.000000 0.000000 1.662560 
# 
# From -- ./inp_files/7116.got.cif
#   From: 2010.05.17/outbox.cif.g08.bks.cpg/sg36_4_cif.got.tgz:7116.got - 2010.06.03 17:41:39.
