data_PCOD9351510
_publ_section_title
;
Structure prediction by ZEFSAII (Michael W. Deem and Ramdas Pophale) SiO2 
 PCOD9351510
Probable space group: C M C 21
;
_chemical_formula_sum "Si O2"
_cell_formula_units_Z 64
_cell_length_a 8.559298
_cell_length_b 23.293786
_cell_length_c 16.460360
_cell_angle_alpha 90.000000
_cell_angle_beta 90.000000
_cell_angle_gamma 90.000000
_cell_volume 3281.841161
_symmetry_space_group_name_H-M "C M C 21"
_symmetry_group_IT_number 36
_symmetry_cell_setting 'orthorhombic'
loop_
_space_group_symop_operation_xyz
x,y,z
-x,-y,1/2+z
x,-y,1/2+z
-x,y,z
1/2+x,1/2+y,z
1/2-x,1/2-y,1/2+z
1/2+x,1/2-y,1/2+z
1/2-x,1/2+y,z
loop_
_atom_site_type_symbol
_atom_site_label
_atom_site_fract_x
_atom_site_fract_y
_atom_site_fract_z
Si Si1 0.316880 0.010556 0.746130
Si Si2 0.812255 0.825757 0.560502
Si Si3 0.185951 0.968979 0.919703
Si Si4 0.177660 0.788054 0.089816
Si Si5 0.181170 0.864697 0.248688
Si Si6 0.689493 0.276599 0.382349
Si Si7 0.683050 0.842398 0.934209
Si Si8 0.188829 0.958012 0.578558
O O1 0.500000 0.999295 0.743274
O O2 0.252990 0.988557 0.832849
O O3 0.242023 0.983342 0.664900
O O4 0.278965 0.077919 0.743560
O O5 0.731316 0.776082 0.613299
O O6 0.773901 0.805198 0.468950
O O7 0.762050 0.891262 0.572873
O O8 0.000000 0.823045 0.570652
O O9 0.227852 0.902105 0.930161
O O10 0.000000 0.976144 0.916685
O O11 0.242384 0.005517 0.998951
O O12 0.178100 0.830799 0.164791
O O13 0.000000 0.785675 0.057069
O O14 0.292654 0.814491 0.022898
O O15 0.245072 0.819871 0.314184
O O16 0.000000 0.879954 0.270033
O O17 0.500000 0.274069 0.376823
O O18 0.741836 0.210368 0.377914
O O19 0.500000 0.852955 0.918786
O O20 0.000000 0.959372 0.576838
#
# Coordination Sequence:
#
# PCOD9351510 Si02
#       8
#     8   8   8   8   8   8   8   8
#     4  12  26  40  58  88 122 154 194 245 297 351
#     4   9  18  35  58  81 107 143 188 237 288 340
#     4  11  23  41  64  87 117 158 201 244 293 352
#     4  10  20  33  54  84 114 147 186 232 289 350
#     4  10  20  37  58  78 106 145 189 232 280 342
#     4   8  16  33  57  81 106 141 182 229 285 341
#     4  10  20  36  57  82 114 149 189 236 288 344
#     4  10  22  41  64  87 116 159 203 243 292 350
#
# _framework density 19.501249000000001
#
# number of rings (size 3 to 8) (size 9 to 14) (size 15 to 20)
#    0.000    2.000    0.000    4.500    0.000    8.500 
#    0.000    6.875    0.000    0.000    0.000    0.000 
#    0.000    0.000    0.000    0.000    0.000    0.000 
#
# Total GULP energy -178532.622649 kJ/mol
# GULP energy per Si atom -5579.144458 kJ/mol
# Density = 1.945686 g / cm^3
# Si number density = 19.501249 Si / 1000 Ang^3
#
#
#
# Elastic Constant Matrix: (Units=GPa)
#
#
# Indices 1 2 3 4 5 6 
#
# 1 31.3494 18.5311 15.7459 0.0000 0.0000 0.0000
# 2 18.5311 158.8046 58.2551 0.0000 0.0000 0.0000
# 3 15.7459 58.2551 86.4626 0.0000 0.0000 0.0000
# 4 0.0000 0.0000 0.0000 31.5835 0.0000 0.0000
# 5 0.0000 0.0000 0.0000 0.0000 18.3347 0.0000
# 6 0.0000 0.0000 0.0000 0.0000 0.0000 18.9240
#
#
#
# Elastic Compliance Matrix: (Units=1/GPa)
#
#
# Indices 1 2 3 4 5 6 
#
# 1 0.035769 -0.002370 -0.004917 0.000000 0.000000 0.000000
# 2 -0.002370 0.008521 -0.005310 0.000000 0.000000 0.000000
# 3 -0.004917 -0.005310 0.016039 0.000000 0.000000 0.000000
# 4 0.000000 0.000000 0.000000 0.031662 0.000000 0.000000
# 5 0.000000 0.000000 0.000000 0.000000 0.054541 0.000000
# 6 0.000000 0.000000 0.000000 0.000000 0.000000 0.052843
#
#
# Mechanical properties :
#
#
# Convention : Reuss Voigt Hill
#
# Bulk Modulus (GPa) = 28.46136 51.29785 39.87961
# Shear Modulus (GPa) = 21.16119 26.04076 23.60098
#
# Velocity S-wave (km/s) = 3.29769 3.65819 3.48261
# Velocity P-wave (km/s) = 5.39685 6.64870 6.05521
#
# Compressibility (1/GPa) = 0.03513535
#
# Stress axis : x y z
#
# Youngs Moduli (GPa) = 27.95688 117.35113 62.34935
#
# Poissons Ratio (x) = 0.27815 0.30658
# Poissons Ratio (y) = 0.06626 0.33106
# Poissons Ratio (z) = 0.13747 0.62311
#
# Static dielectric constant tensor:
#      x y z
#    x 1.684350 0.000000 0.000000 
#    y 0.000000 1.683920 0.000000 
#    z 0.000000 0.000000 1.689490 
# 
# From -- ./inp_files/13789.got.cif
#   From: 2010.05.17/outbox.cif.g08.bks.cpg/sg36_7_cif.got.tgz:13789.got - 2010.06.03 17:41:39.
