data_PCOD9351347
_publ_section_title
;
Structure prediction by ZEFSAII (Michael W. Deem and Ramdas Pophale) SiO2 
 PCOD9351347
Probable space group: C M C 21
;
_chemical_formula_sum "Si O2"
_cell_formula_units_Z 36
_cell_length_a 7.655826
_cell_length_b 25.234201
_cell_length_c 6.933466
_cell_angle_alpha 90.000000
_cell_angle_beta 90.000000
_cell_angle_gamma 90.000000
_cell_volume 1339.466951
_symmetry_space_group_name_H-M "C M C 21"
_symmetry_group_IT_number 36
_symmetry_cell_setting 'orthorhombic'
loop_
_space_group_symop_operation_xyz
x,y,z
-x,-y,1/2+z
x,-y,1/2+z
-x,y,z
1/2+x,1/2+y,z
1/2-x,1/2-y,1/2+z
1/2+x,1/2-y,1/2+z
1/2-x,1/2+y,z
loop_
_atom_site_type_symbol
_atom_site_label
_atom_site_fract_x
_atom_site_fract_y
_atom_site_fract_z
Si Si1 0.000000 0.019441 0.740451
Si Si2 0.288132 0.792492 0.019711
Si Si3 0.302390 0.324524 0.603179
Si Si4 0.309029 0.065655 0.222522
Si Si5 0.300952 0.900394 0.177498
O O1 0.153413 0.063655 0.767321
O O2 0.151573 0.974559 0.692160
O O3 0.500000 0.791748 0.992100
O O4 0.226016 0.732326 0.042150
O O5 0.260033 0.837149 0.183403
O O6 0.193915 0.814541 0.833379
O O7 0.500000 0.329753 0.532760
O O8 0.206096 0.380655 0.596533
O O9 0.500000 0.041352 0.189377
O O10 0.297543 0.082907 0.448422
O O11 0.500000 0.909164 0.238836
#
# Coordination Sequence:
#
# PCOD9351347 Si02
#       5
#     4   8   8   8   8
#     4  12  20  34  60  88 108 154 212 242 288 364
#     4   9  20  37  58  88 123 158 201 253 306 364
#     4  10  19  36  61  88 121 161 204 249 304 369
#     4  10  21  38  58  84 120 157 197 251 309 360
#     4   9  20  38  57  81 119 158 196 248 308 361
#
# _framework density 26.876365
#
# number of rings (size 3 to 8) (size 9 to 14) (size 15 to 20)
#    0.000    2.222    1.111    3.333    4.667    1.778 
#    0.000    4.444    0.000    8.000    0.000    0.000 
#    0.000    0.000    0.000    0.000    0.000    0.000 
#
# Total GULP energy -100260.931382 kJ/mol
# GULP energy per Si atom -5570.051743 kJ/mol
# Density = 2.681519 g / cm^3
# Si number density = 26.876365 Si / 1000 Ang^3
#
#
#
# Elastic Constant Matrix: (Units=GPa)
#
#
# Indices 1 2 3 4 5 6 
#
# 1 225.0469 120.7803 33.4436 0.0000 0.0000 0.0000
# 2 120.7803 228.8007 36.8989 0.0000 0.0000 0.0000
# 3 33.4436 36.8989 51.1226 0.0000 0.0000 0.0000
# 4 0.0000 0.0000 0.0000 -160.4093 0.0000 0.0000
# 5 0.0000 0.0000 0.0000 0.0000 24.1355 0.0000
# 6 0.0000 0.0000 0.0000 0.0000 0.0000 40.1810
#
#
#
# Elastic Compliance Matrix: (Units=1/GPa)
#
#
# Indices 1 2 3 4 5 6 
#
# 1 0.006371 -0.003045 -0.001970 0.000000 0.000000 0.000000
# 2 -0.003045 0.006402 -0.002629 0.000000 0.000000 0.000000
# 3 -0.001970 -0.002629 0.022747 0.000000 0.000000 0.000000
# 4 0.000000 0.000000 0.000000 -0.006234 0.000000 0.000000
# 5 0.000000 0.000000 0.000000 0.000000 0.041433 0.000000
# 6 0.000000 0.000000 0.000000 0.000000 0.000000 0.024887
#
#
# Mechanical properties :
#
#
# Convention : Reuss Voigt Hill
#
# Bulk Modulus (GPa) = 49.42604 98.57955 74.00280
# Shear Modulus (GPa) = 42.50384 1.70458 22.10421
#
# Velocity S-wave (km/s) = 3.98107 0.79725 2.87093
# Velocity P-wave (km/s) = 6.28983 6.13237 6.21160
#
# Compressibility (1/GPa) = 0.02023225
#
# Stress axis : x y z
#
# Youngs Moduli (GPa) = 156.97137 156.19827 43.96268
#
# Poissons Ratio (x) = 0.47567 0.08659
# Poissons Ratio (y) = 0.47803 0.11556
# Poissons Ratio (z) = 0.30916 0.41060
#
# Static dielectric constant tensor:
#      x y z
#    x 1.941050 0.000000 0.000000 
#    y 0.000000 2.095280 0.000000 
#    z 0.000000 0.000000 2.295690 
# 
# From -- ./inp_files/6563.got.cif
#   From: 2010.05.17/outbox.cif.g08.bks.cpg/sg36_4_cif.got.tgz:6563.got - 2010.06.03 17:41:39.
