data_PCOD9351136
_publ_section_title
;
Structure prediction by ZEFSAII (Michael W. Deem and Ramdas Pophale) SiO2 
 PCOD9351136
Probable space group: C M C 21
;
_chemical_formula_sum "Si O2"
_cell_formula_units_Z 36
_cell_length_a 24.835856
_cell_length_b 10.894906
_cell_length_c 5.016904
_cell_angle_alpha 90.000000
_cell_angle_beta 90.000000
_cell_angle_gamma 90.000000
_cell_volume 1357.495540
_symmetry_space_group_name_H-M "C M C 21"
_symmetry_group_IT_number 36
_symmetry_cell_setting 'orthorhombic'
loop_
_space_group_symop_operation_xyz
x,y,z
-x,-y,1/2+z
x,-y,1/2+z
-x,y,z
1/2+x,1/2+y,z
1/2-x,1/2-y,1/2+z
1/2+x,1/2-y,1/2+z
1/2-x,1/2+y,z
loop_
_atom_site_type_symbol
_atom_site_label
_atom_site_fract_x
_atom_site_fract_y
_atom_site_fract_z
Si Si1 0.161413 0.431863 0.420570
Si Si2 0.000000 0.911971 0.394261
Si Si3 0.767638 0.810756 0.377328
Si Si4 0.383899 0.413163 0.499069
Si Si5 0.556412 0.908766 0.582459
O O1 0.152551 0.548856 0.610464
O O2 0.223005 0.405591 0.478555
O O3 0.113579 0.343568 0.526036
O O4 0.942142 0.848386 0.451268
O O5 0.000000 0.027337 0.602360
O O6 0.745340 0.700611 0.564398
O O7 0.828816 0.839598 0.446773
O O8 0.382761 0.473026 0.791047
O O9 0.500000 0.837609 0.556994
O O10 0.555498 0.984263 0.856265
#
# Coordination Sequence:
#
# PCOD9351136 Si02
#       5
#     8   4   8   8   8
#     4  10  19  34  55  75  97 133 180 216 252 306
#     4   8  16  30  56  86 104 130 180 238 280 316
#     4  12  24  36  52  77 116 146 174 218 278 327
#     4  10  19  36  60  84 108 142 189 232 274 330
#     4   8  14  25  45  71  93 116 155 208 246 275
#
# _framework density 26.519423
#
# number of rings (size 3 to 8) (size 9 to 14) (size 15 to 20)
#    0.000    2.222    0.000    4.000    0.000    0.000 
#    0.000    0.000    4.889    0.000    0.000    0.000 
#    0.000    0.000    0.000    0.000    0.000    0.000 
#
# Total GULP energy -100379.206528 kJ/mol
# GULP energy per Si atom -5576.622585 kJ/mol
# Density = 2.645906 g / cm^3
# Si number density = 26.519423 Si / 1000 Ang^3
#
#
#
# Elastic Constant Matrix: (Units=GPa)
#
#
# Indices 1 2 3 4 5 6 
#
# 1 268.2763 32.5422 9.1513 0.0000 0.0000 0.0000
# 2 32.5422 24.0481 8.0357 0.0000 0.0000 0.0000
# 3 9.1513 8.0357 121.1019 0.0000 0.0000 0.0000
# 4 0.0000 0.0000 0.0000 22.5256 0.0000 0.0000
# 5 0.0000 0.0000 0.0000 0.0000 6.3344 0.0000
# 6 0.0000 0.0000 0.0000 0.0000 0.0000 27.2938
#
#
#
# Elastic Compliance Matrix: (Units=1/GPa)
#
#
# Indices 1 2 3 4 5 6 
#
# 1 0.004460 -0.006057 0.000065 0.000000 0.000000 0.000000
# 2 -0.006057 0.050752 -0.002910 0.000000 0.000000 0.000000
# 3 0.000065 -0.002910 0.008446 0.000000 0.000000 0.000000
# 4 0.000000 0.000000 0.000000 0.044394 0.000000 0.000000
# 5 0.000000 0.000000 0.000000 0.000000 0.157868 0.000000
# 6 0.000000 0.000000 0.000000 0.000000 0.000000 0.036638
#
#
# Mechanical properties :
#
#
# Convention : Reuss Voigt Hill
#
# Bulk Modulus (GPa) = 21.80846 56.98718 39.39782
# Shear Modulus (GPa) = 14.89660 35.47724 25.18692
#
# Velocity S-wave (km/s) = 2.37264 3.66154 3.08515
# Velocity P-wave (km/s) = 3.96829 6.27784 5.25160
#
# Compressibility (1/GPa) = 0.04585376
#
# Stress axis : x y z
#
# Youngs Moduli (GPa) = 224.21467 19.70356 118.40355
#
# Poissons Ratio (x) = 0.11935 -0.00768
# Poissons Ratio (y) = 1.35808 0.34455
# Poissons Ratio (z) = -0.01455 0.05734
#
# Static dielectric constant tensor:
#      x y z
#    x 2.315430 0.000000 0.000000 
#    y 0.000000 2.360940 0.000000 
#    z 0.000000 0.000000 2.016960 
# 
# From -- ./inp_files/1525.got.cif
#   From: 2010.05.17/outbox.cif.g08.bks.cpg/sg36_1_cif.got.tgz:1525.got - 2010.06.03 17:41:39.
