data_PCOD9351009
_publ_section_title
;
Structure prediction by ZEFSAII (Michael W. Deem and Ramdas Pophale) SiO2 
 PCOD9351009
Probable space group: C M C 21
;
_chemical_formula_sum "Si O2"
_cell_formula_units_Z 64
_cell_length_a 8.804552
_cell_length_b 21.007794
_cell_length_c 19.717676
_cell_angle_alpha 90.000000
_cell_angle_beta 90.000000
_cell_angle_gamma 90.000000
_cell_volume 3647.064457
_symmetry_space_group_name_H-M "C M C 21"
_symmetry_group_IT_number 36
_symmetry_cell_setting 'orthorhombic'
loop_
_space_group_symop_operation_xyz
x,y,z
-x,-y,1/2+z
x,-y,1/2+z
-x,y,z
1/2+x,1/2+y,z
1/2-x,1/2-y,1/2+z
1/2+x,1/2-y,1/2+z
1/2-x,1/2+y,z
loop_
_atom_site_type_symbol
_atom_site_label
_atom_site_fract_x
_atom_site_fract_y
_atom_site_fract_z
Si Si1 0.680778 0.362493 0.468050
Si Si2 0.682790 0.631061 0.814230
Si Si3 0.180609 0.509645 0.311494
Si Si4 0.818802 0.434476 0.104264
Si Si5 0.180659 0.056883 0.179577
Si Si6 0.819268 0.501999 0.465736
Si Si7 0.682871 0.689328 0.673430
Si Si8 0.182021 0.321182 0.604107
O O1 0.500000 0.356970 0.475938
O O2 0.721825 0.345950 0.390139
O O3 0.729862 0.436280 0.477128
O O4 0.762382 0.322712 0.526441
O O5 0.500000 0.620551 0.813033
O O6 0.762973 0.563156 0.802585
O O7 0.722472 0.677646 0.752463
O O8 0.264997 0.553195 0.257289
O O9 0.213176 0.525959 0.389931
O O10 0.000000 0.512708 0.300173
O O11 0.745871 0.493039 0.145077
O O12 0.753295 0.368602 0.131259
O O13 0.000000 0.435865 0.114064
O O14 0.785956 0.448523 0.025250
O O15 0.247912 0.117623 0.141214
O O16 0.000000 0.056913 0.174967
O O17 0.000000 0.486926 0.468788
O O18 0.500000 0.685369 0.668536
O O19 0.729548 0.756999 0.642881
O O20 0.000000 0.326166 0.605880
#
# Coordination Sequence:
#
# PCOD9351009 Si02
#       8
#     8   8   8   8   8   8   8   8
#     4  10  19  32  55  83 110 144 185 234 285 336
#     4   9  18  34  55  81 111 144 186 231 282 340
#     4  10  19  33  55  84 113 147 185 231 285 333
#     4  11  21  35  58  86 113 144 183 230 278 334
#     4  12  23  36  56  83 113 146 186 235 283 331
#     4   9  19  34  54  82 116 147 184 230 280 336
#     4  10  22  39  58  81 113 151 188 232 283 337
#     4  11  23  39  57  80 113 153 193 233 282 337
#
# _framework density 17.548359999999999
#
# number of rings (size 3 to 8) (size 9 to 14) (size 15 to 20)
#    0.000    1.750    2.500    2.625    0.000    2.500 
#    0.000    1.250    0.000    6.000    0.000    0.000 
#    0.000    0.000    0.000    0.000    0.000    0.000 
#
# Total GULP energy -178659.418272 kJ/mol
# GULP energy per Si atom -5583.106821 kJ/mol
# Density = 1.750842 g / cm^3
# Si number density = 17.548360 Si / 1000 Ang^3
#
#
#
# Elastic Constant Matrix: (Units=GPa)
#
#
# Indices 1 2 3 4 5 6 
#
# 1 44.2602 38.8650 47.9041 0.0000 0.0000 0.0000
# 2 38.8650 93.6712 65.3467 0.0000 0.0000 0.0000
# 3 47.9041 65.3467 147.2094 0.0000 0.0000 0.0000
# 4 0.0000 0.0000 0.0000 27.2309 0.0000 0.0000
# 5 0.0000 0.0000 0.0000 0.0000 29.1296 0.0000
# 6 0.0000 0.0000 0.0000 0.0000 0.0000 23.2365
#
#
#
# Elastic Compliance Matrix: (Units=1/GPa)
#
#
# Indices 1 2 3 4 5 6 
#
# 1 0.041874 -0.011397 -0.008567 0.000000 0.000000 0.000000
# 2 -0.011397 0.018567 -0.004533 0.000000 0.000000 0.000000
# 3 -0.008567 -0.004533 0.011593 0.000000 0.000000 0.000000
# 4 0.000000 0.000000 0.000000 0.036723 0.000000 0.000000
# 5 0.000000 0.000000 0.000000 0.000000 0.034329 0.000000
# 6 0.000000 0.000000 0.000000 0.000000 0.000000 0.043036
#
#
# Mechanical properties :
#
#
# Convention : Reuss Voigt Hill
#
# Bulk Modulus (GPa) = 43.40450 65.48581 54.44515
# Shear Modulus (GPa) = 20.59336 24.78775 22.69056
#
# Velocity S-wave (km/s) = 3.42939 3.76245 3.59977
# Velocity P-wave (km/s) = 6.36151 7.50154 6.95492
#
# Compressibility (1/GPa) = 0.02303909
#
# Stress axis : x y z
#
# Youngs Moduli (GPa) = 23.88109 53.85956 86.25805
#
# Poissons Ratio (x) = 0.61386 0.73898
# Poissons Ratio (y) = 0.27218 0.39101
# Poissons Ratio (z) = 0.20459 0.24414
#
# Static dielectric constant tensor:
#      x y z
#    x 1.588410 0.000000 0.000000 
#    y 0.000000 1.550190 0.000000 
#    z 0.000000 0.000000 1.634560 
# 
# From -- ./inp_files/13918.got.cif
#   From: 2010.05.17/outbox.cif.g08.bks.cpg/sg36_7_cif.got.tgz:13918.got - 2010.06.03 17:41:39.
