data_PCOD9351385
_publ_section_title
;
Structure prediction by ZEFSAII (Michael W. Deem and Ramdas Pophale) SiO2 
 PCOD9351385
Probable space group: C M C 21
;
_chemical_formula_sum "Si O2"
_cell_formula_units_Z 60
_cell_length_a 26.680750
_cell_length_b 5.491493
_cell_length_c 17.291252
_cell_angle_alpha 90.000000
_cell_angle_beta 90.000000
_cell_angle_gamma 90.000000
_cell_volume 2533.464995
_symmetry_space_group_name_H-M "C M C 21"
_symmetry_group_IT_number 36
_symmetry_cell_setting 'orthorhombic'
loop_
_space_group_symop_operation_xyz
x,y,z
-x,-y,1/2+z
x,-y,1/2+z
-x,y,z
1/2+x,1/2+y,z
1/2-x,1/2-y,1/2+z
1/2+x,1/2-y,1/2+z
1/2-x,1/2+y,z
loop_
_atom_site_type_symbol
_atom_site_label
_atom_site_fract_x
_atom_site_fract_y
_atom_site_fract_z
Si Si1 0.765609 0.501440 0.551400
Si Si2 0.126656 0.506717 0.613067
Si Si3 0.442603 0.338697 0.709316
Si Si4 0.500000 0.751819 0.958353
Si Si5 0.273177 0.559550 0.228780
Si Si6 0.633065 0.298255 0.259328
Si Si7 0.082286 0.528310 0.859680
Si Si8 0.443343 0.701400 0.504299
O O1 0.740450 0.736691 0.513444
O O2 0.824450 0.558679 0.562769
O O3 0.737133 0.457090 0.635405
O O4 0.094503 0.731404 0.644603
O O5 0.088550 0.322041 0.571163
O O6 0.148935 0.371457 0.688162
O O7 0.500000 0.354684 0.683957
O O8 0.421715 0.595708 0.739431
O O9 0.438167 0.155346 0.782088
O O10 0.543516 0.846991 0.898969
O O11 0.542618 0.579306 0.004536
O O12 0.247114 0.314103 0.258243
O O13 0.330240 0.526067 0.255071
O O14 0.629716 0.131391 0.334318
O O15 0.085058 0.735641 0.924935
O O16 0.500000 0.837680 0.502722
#
# Coordination Sequence:
#
# PCOD9351385 Si02
#       8
#     8   8   8   4   8   8   8   8
#     4  10  19  37  64  90 128 171 212 271 341 417
#     4  11  23  39  59  98 129 165 221 271 338 401
#     4  11  23  37  60  92 134 164 210 277 331 385
#     4  10  20  42  60  80 110 180 212 256 316 390
#     4  10  19  37  62  93 129 170 209 273 346 417
#     4  11  24  35  65  97 125 165 224 277 336 398
#     4  11  22  40  62  85 121 175 226 261 316 398
#     4  10  23  40  61  84 127 174 224 262 317 401
#
# _framework density 23.682977999999999
#
# number of rings (size 3 to 8) (size 9 to 14) (size 15 to 20)
#    0.400    1.067    4.000    2.800    4.667    2.133 
#    2.400    0.000    0.000    1.600    0.000    0.000 
#    0.000    0.000    0.000    0.000    0.000    0.000 
#
# Total GULP energy -167034.129606 kJ/mol
# GULP energy per Si atom -5567.804320 kJ/mol
# Density = 2.362907 g / cm^3
# Si number density = 23.682978 Si / 1000 Ang^3
#
#
#
# Elastic Constant Matrix: (Units=GPa)
#
#
# Indices 1 2 3 4 5 6 
#
# 1 73.4475 13.0602 8.0084 0.0000 0.0000 0.0000
# 2 13.0602 75.2646 16.1351 0.0000 0.0000 0.0000
# 3 8.0084 16.1351 55.4355 0.0000 0.0000 0.0000
# 4 0.0000 0.0000 0.0000 36.9259 0.0000 0.0000
# 5 0.0000 0.0000 0.0000 0.0000 12.1808 0.0000
# 6 0.0000 0.0000 0.0000 0.0000 0.0000 30.9383
#
#
#
# Elastic Compliance Matrix: (Units=1/GPa)
#
#
# Indices 1 2 3 4 5 6 
#
# 1 0.014152 -0.002152 -0.001418 0.000000 0.000000 0.000000
# 2 -0.002152 0.014498 -0.003909 0.000000 0.000000 0.000000
# 3 -0.001418 -0.003909 0.019382 0.000000 0.000000 0.000000
# 4 0.000000 0.000000 0.000000 0.027081 0.000000 0.000000
# 5 0.000000 0.000000 0.000000 0.000000 0.082096 0.000000
# 6 0.000000 0.000000 0.000000 0.000000 0.000000 0.032322
#
#
# Mechanical properties :
#
#
# Convention : Reuss Voigt Hill
#
# Bulk Modulus (GPa) = 30.23514 30.95057 30.59286
# Shear Modulus (GPa) = 23.20034 27.13861 25.16948
#
# Velocity S-wave (km/s) = 3.13328 3.38880 3.26355
# Velocity P-wave (km/s) = 5.08766 5.33002 5.21025
#
# Compressibility (1/GPa) = 0.03307409
#
# Stress axis : x y z
#
# Youngs Moduli (GPa) = 70.65931 68.97588 51.59530
#
# Poissons Ratio (x) = 0.14842 0.07317
# Poissons Ratio (y) = 0.15204 0.20168
# Poissons Ratio (z) = 0.10021 0.26962
#
# Static dielectric constant tensor:
#      x y z
#    x 1.958960 0.000000 0.000000 
#    y 0.000000 2.076130 0.000000 
#    z 0.000000 0.000000 1.893710 
# 
# From -- ./inp_files/15188.got.cif
#   From: 2010.05.17/outbox.cif.g08.bks.cpg/sg36_8_cif.got.tgz:15188.got - 2010.06.03 17:41:39.
