data_PCOD9351005
_publ_section_title
;
Structure prediction by ZEFSAII (Michael W. Deem and Ramdas Pophale) SiO2 
 PCOD9351005
Probable space group: C M C 21
;
_chemical_formula_sum "Si O2"
_cell_formula_units_Z 64
_cell_length_a 7.739913
_cell_length_b 21.657736
_cell_length_c 14.586284
_cell_angle_alpha 90.000000
_cell_angle_beta 90.000000
_cell_angle_gamma 90.000000
_cell_volume 2445.084090
_symmetry_space_group_name_H-M "C M C 21"
_symmetry_group_IT_number 36
_symmetry_cell_setting 'orthorhombic'
loop_
_space_group_symop_operation_xyz
x,y,z
-x,-y,1/2+z
x,-y,1/2+z
-x,y,z
1/2+x,1/2+y,z
1/2-x,1/2-y,1/2+z
1/2+x,1/2-y,1/2+z
1/2-x,1/2+y,z
loop_
_atom_site_type_symbol
_atom_site_label
_atom_site_fract_x
_atom_site_fract_y
_atom_site_fract_z
Si Si1 0.201334 0.540285 0.504390
Si Si2 0.702767 0.217167 0.875085
Si Si3 0.293176 0.593973 0.986128
Si Si4 0.796075 0.827641 0.655587
Si Si5 0.296887 0.356143 0.208519
Si Si6 0.708834 0.098804 0.325511
Si Si7 0.201141 0.485402 0.204633
Si Si8 0.700467 0.710186 0.539788
O O1 0.213134 0.471540 0.461087
O O2 0.273461 0.588538 0.429586
O O3 0.282920 0.527995 0.604389
O O4 0.000000 0.554985 0.517391
O O5 0.500000 0.229338 0.865779
O O6 0.773696 0.201730 0.775667
O O7 0.729473 0.152687 0.929162
O O8 0.780385 0.268983 0.943145
O O9 0.500000 0.589992 0.975338
O O10 0.253238 0.612693 0.092009
O O11 0.757405 0.843856 0.760869
O O12 0.704248 0.771414 0.604286
O O13 0.000000 0.815757 0.646532
O O14 0.500000 0.367085 0.201213
O O15 0.213040 0.417566 0.248728
O O16 0.221249 0.340317 0.108086
O O17 0.500000 0.096943 0.330182
O O18 0.774610 0.039087 0.267853
O O19 0.000000 0.501306 0.190733
O O20 0.500000 0.694925 0.524879
#
# Coordination Sequence:
#
# PCOD9351005 Si02
#       8
#     8   8   8   8   8   8   8   8
#     4  10  20  34  54  82 114 154 198 231 278 348
#     4  10  20  37  62  87 113 152 198 239 288 350
#     4  10  19  32  54  84 115 146 188 241 289 332
#     4  10  20  34  56  84 111 141 185 237 287 336
#     4  11  23  40  61  87 118 152 194 245 295 344
#     4  10  20  35  56  81 114 152 191 232 281 343
#     4  10  21  37  57  84 118 158 197 235 285 347
#     4   9  21  41  62  83 113 153 193 236 291 348
#
# _framework density 26.174968
#
# number of rings (size 3 to 8) (size 9 to 14) (size 15 to 20)
#    0.000    2.000    1.250    2.250    0.000    5.000 
#    2.250    0.000    0.000    0.000    0.000    0.000 
#    0.000    0.000    0.000    0.000    0.000    0.000 
#
# Total GULP energy -178988.172262 kJ/mol
# GULP energy per Si atom -5593.380383 kJ/mol
# Density = 2.611539 g / cm^3
# Si number density = 26.174968 Si / 1000 Ang^3
#
#
#
# Elastic Constant Matrix: (Units=GPa)
#
#
# Indices 1 2 3 4 5 6 
#
# 1 80.4288 3.4625 12.3244 0.0000 0.0000 0.0000
# 2 3.4625 89.7392 8.2951 0.0000 0.0000 0.0000
# 3 12.3244 8.2951 150.1976 0.0000 0.0000 0.0000
# 4 0.0000 0.0000 0.0000 48.1672 0.0000 0.0000
# 5 0.0000 0.0000 0.0000 0.0000 20.8447 0.0000
# 6 0.0000 0.0000 0.0000 0.0000 0.0000 12.7590
#
#
#
# Elastic Compliance Matrix: (Units=1/GPa)
#
#
# Indices 1 2 3 4 5 6 
#
# 1 0.012605 -0.000393 -0.001013 0.000000 0.000000 0.000000
# 2 -0.000393 0.011213 -0.000587 0.000000 0.000000 0.000000
# 3 -0.001013 -0.000587 0.006773 0.000000 0.000000 0.000000
# 4 0.000000 0.000000 0.000000 0.020761 0.000000 0.000000
# 5 0.000000 0.000000 0.000000 0.000000 0.047974 0.000000
# 6 0.000000 0.000000 0.000000 0.000000 0.000000 0.078376
#
#
# Mechanical properties :
#
#
# Convention : Reuss Voigt Hill
#
# Bulk Modulus (GPa) = 37.58439 40.94774 39.26606
# Shear Modulus (GPa) = 26.23893 36.10642 31.17267
#
# Velocity S-wave (km/s) = 3.16957 3.71809 3.45474
# Velocity P-wave (km/s) = 5.27115 5.84038 5.56305
#
# Compressibility (1/GPa) = 0.02660679
#
# Stress axis : x y z
#
# Youngs Moduli (GPa) = 79.33083 89.18361 147.63617
#
# Poissons Ratio (x) = 0.03503 0.14950
# Poissons Ratio (y) = 0.03116 0.08667
# Poissons Ratio (z) = 0.08033 0.05235
#
# Static dielectric constant tensor:
#      x y z
#    x 1.919410 0.000000 0.000000 
#    y 0.000000 2.105180 0.000000 
#    z 0.000000 0.000000 2.138850 
# 
# From -- ./inp_files/10941.got.cif
#   From: 2010.05.17/outbox.cif.g08.bks.cpg/sg36_6_cif.got.tgz:10941.got - 2010.06.03 17:41:39.
