data_PCOD9351049
_publ_section_title
;
Structure prediction by ZEFSAII (Michael W. Deem and Ramdas Pophale) SiO2 
 PCOD9351049
Probable space group: C M C 21
;
_chemical_formula_sum "Si O2"
_cell_formula_units_Z 48
_cell_length_a 8.963415
_cell_length_b 32.508850
_cell_length_c 9.487807
_cell_angle_alpha 90.000000
_cell_angle_beta 90.000000
_cell_angle_gamma 90.000000
_cell_volume 2764.655058
_symmetry_space_group_name_H-M "C M C 21"
_symmetry_group_IT_number 36
_symmetry_cell_setting 'orthorhombic'
loop_
_space_group_symop_operation_xyz
x,y,z
-x,-y,1/2+z
x,-y,1/2+z
-x,y,z
1/2+x,1/2+y,z
1/2-x,1/2-y,1/2+z
1/2+x,1/2-y,1/2+z
1/2-x,1/2+y,z
loop_
_atom_site_type_symbol
_atom_site_label
_atom_site_fract_x
_atom_site_fract_y
_atom_site_fract_z
Si Si1 0.677246 0.288751 0.886500
Si Si2 0.322635 0.375273 0.578945
Si Si3 0.677440 0.714555 0.053276
Si Si4 0.177787 0.966380 0.565850
Si Si5 0.323487 0.127517 0.384844
Si Si6 0.679266 0.963542 0.876458
O O1 0.500000 0.290705 0.896438
O O2 0.715451 0.284543 0.720019
O O3 0.743773 0.331856 0.942357
O O4 0.738532 0.249768 0.969803
O O5 0.500000 0.373666 0.617343
O O6 0.290034 0.332235 0.502202
O O7 0.297241 0.419606 0.509497
O O8 0.226982 0.374779 0.721512
O O9 0.500000 0.721338 0.040008
O O10 0.240835 0.967099 0.724903
O O11 0.000000 0.973833 0.566585
O O12 0.261420 0.000270 0.474579
O O13 0.500000 0.133164 0.395506
O O14 0.285135 0.081847 0.440031
O O15 0.500000 0.965604 0.858473
#
# Coordination Sequence:
#
# PCOD9351049 Si02
#       6
#     8   8   8   8   8   8
#     4  10  20  33  51  75 100 128 164 204 245 291
#     4   8  16  31  50  72  98 128 164 203 241 290
#     4   9  18  33  51  72  99 128 161 202 244 289
#     4  10  19  33  54  77 101 133 171 208 249 298
#     4   9  17  30  50  72  96 130 167 201 242 293
#     4  10  20  34  52  76 104 133 167 208 253 299
#
# _framework density 17.362020999999999
#
# number of rings (size 3 to 8) (size 9 to 14) (size 15 to 20)
#    0.000    2.667    0.000    3.000    0.000    6.000 
#    0.000    1.667    0.000    4.000    0.000    0.000 
#    0.000    0.000    0.000    0.000    0.000    0.000 
#
# Total GULP energy -133667.044065 kJ/mol
# GULP energy per Si atom -5569.460169 kJ/mol
# Density = 1.732250 g / cm^3
# Si number density = 17.362021 Si / 1000 Ang^3
#
#
#
# Elastic Constant Matrix: (Units=GPa)
#
#
# Indices 1 2 3 4 5 6 
#
# 1 49.1313 64.0701 22.5117 0.0000 0.0000 0.0000
# 2 64.0701 191.0364 52.0334 0.0000 0.0000 0.0000
# 3 22.5117 52.0334 30.5827 0.0000 0.0000 0.0000
# 4 0.0000 0.0000 0.0000 31.2141 0.0000 0.0000
# 5 0.0000 0.0000 0.0000 0.0000 25.4225 0.0000
# 6 0.0000 0.0000 0.0000 0.0000 0.0000 31.4922
#
#
#
# Elastic Compliance Matrix: (Units=1/GPa)
#
#
# Indices 1 2 3 4 5 6 
#
# 1 0.038340 -0.009638 -0.011823 0.000000 0.000000 0.000000
# 2 -0.009638 0.012178 -0.013626 0.000000 0.000000 0.000000
# 3 -0.011823 -0.013626 0.064584 0.000000 0.000000 0.000000
# 4 0.000000 0.000000 0.000000 0.032037 0.000000 0.000000
# 5 0.000000 0.000000 0.000000 0.000000 0.039335 0.000000
# 6 0.000000 0.000000 0.000000 0.000000 0.000000 0.031754
#
#
# Mechanical properties :
#
#
# Convention : Reuss Voigt Hill
#
# Bulk Modulus (GPa) = 22.25792 60.88676 41.57234
# Shear Modulus (GPa) = 16.48109 26.43478 21.45794
#
# Velocity S-wave (km/s) = 3.08435 3.90624 3.51937
# Velocity P-wave (km/s) = 5.05292 7.44916 6.36483
#
# Compressibility (1/GPa) = 0.04492783
#
# Stress axis : x y z
#
# Youngs Moduli (GPa) = 26.08274 82.11321 15.48367
#
# Poissons Ratio (x) = 0.79141 0.18307
# Poissons Ratio (y) = 0.25139 0.21098
# Poissons Ratio (z) = 0.30839 1.11885
#
# Static dielectric constant tensor:
#      x y z
#    x 1.577250 0.000000 0.000000 
#    y 0.000000 1.638110 0.000000 
#    z 0.000000 0.000000 1.561400 
# 
# From -- ./inp_files/2668.got.cif
#   From: 2010.05.17/outbox.cif.g08.bks.cpg/sg36_2_cif.got.tgz:2668.got - 2010.06.03 17:41:39.
