data_PCOD9351926
_publ_section_title
;
Structure prediction by ZEFSAII (Michael W. Deem and Ramdas Pophale) SiO2 
 PCOD9351926
Probable space group: C M C 21
;
_chemical_formula_sum "Si O2"
_cell_formula_units_Z 64
_cell_length_a 7.588812
_cell_length_b 20.214805
_cell_length_c 18.074609
_cell_angle_alpha 90.000000
_cell_angle_beta 90.000000
_cell_angle_gamma 90.000000
_cell_volume 2772.759880
_symmetry_space_group_name_H-M "C M C 21"
_symmetry_group_IT_number 36
_symmetry_cell_setting 'orthorhombic'
loop_
_space_group_symop_operation_xyz
x,y,z
-x,-y,1/2+z
x,-y,1/2+z
-x,y,z
1/2+x,1/2+y,z
1/2-x,1/2-y,1/2+z
1/2+x,1/2-y,1/2+z
1/2-x,1/2+y,z
loop_
_atom_site_type_symbol
_atom_site_label
_atom_site_fract_x
_atom_site_fract_y
_atom_site_fract_z
Si Si1 0.215119 0.200330 0.471660
Si Si2 0.216447 0.030633 0.649203
Si Si3 0.205724 0.582156 0.902681
Si Si4 0.287202 0.452014 0.982599
Si Si5 0.207169 0.106053 0.202267
Si Si6 0.213711 0.331630 0.544654
Si Si7 0.201405 0.854476 0.249550
Si Si8 0.705163 0.283889 0.808330
O O1 0.271317 0.124165 0.477296
O O2 0.270739 0.255892 0.530237
O O3 0.275149 0.225213 0.390863
O O4 0.000000 0.199994 0.476083
O O5 0.268026 0.023506 0.563992
O O6 0.277312 0.098496 0.686206
O O7 0.000000 0.031317 0.650679
O O8 0.280431 0.967587 0.695189
O O9 0.293308 0.604845 0.826568
O O10 0.000000 0.598835 0.893723
O O11 0.225030 0.504824 0.922179
O O12 0.270489 0.623466 0.974431
O O13 0.500000 0.452112 0.978949
O O14 0.221248 0.139437 0.121726
O O15 0.285229 0.155452 0.262808
O O16 0.000000 0.098307 0.218941
O O17 0.000000 0.333895 0.546519
O O18 0.285660 0.783800 0.263486
O O19 0.000000 0.840414 0.229426
O O20 0.500000 0.299615 0.819290
#
# Coordination Sequence:
#
# PCOD9351926 Si02
#       8
#     8   8   8   8   8   8   8   8
#     4   9  19  36  60  83 109 153 196 233 283 344
#     4   9  20  37  57  86 115 145 192 240 283 340
#     4  11  22  39  60  84 116 153 191 238 294 346
#     4  10  20  37  63  87 112 148 195 244 285 339
#     4  10  21  37  59  84 114 150 188 236 288 344
#     4  10  20  37  60  81 109 151 194 234 282 343
#     4  11  23  38  61  87 115 153 198 243 286 343
#     4  10  21  39  58  82 118 155 190 232 293 353
#
# _framework density 23.081693999999999
#
# number of rings (size 3 to 8) (size 9 to 14) (size 15 to 20)
#    0.000    2.000    2.500    0.750    3.500    1.000 
#    0.000    3.750    0.000    0.000    0.000    0.000 
#    0.000    0.000    0.000    0.000    0.000    0.000 
#
# Total GULP energy -178840.008163 kJ/mol
# GULP energy per Si atom -5588.750255 kJ/mol
# Density = 2.302916 g / cm^3
# Si number density = 23.081694 Si / 1000 Ang^3
#
#
#
# Elastic Constant Matrix: (Units=GPa)
#
#
# Indices 1 2 3 4 5 6 
#
# 1 49.8800 -7.8289 -8.2382 0.0000 0.0000 0.0000
# 2 -7.8289 96.4781 -20.6528 0.0000 0.0000 0.0000
# 3 -8.2382 -20.6528 6.4029 0.0000 0.0000 0.0000
# 4 0.0000 0.0000 0.0000 45.0141 0.0000 0.0000
# 5 0.0000 0.0000 0.0000 0.0000 12.9372 0.0000
# 6 0.0000 0.0000 0.0000 0.0000 0.0000 15.4415
#
#
#
# Elastic Compliance Matrix: (Units=1/GPa)
#
#
# Indices 1 2 3 4 5 6 
#
# 1 -2.841526 -3.273586-14.215164 0.000000 0.000000 0.000000
# 2 -3.273586 -3.737854-16.268595 0.000000 0.000000 0.000000
# 3 -14.215164-16.268595-70.608920 0.000000 0.000000 0.000000
# 4 0.000000 0.000000 0.000000 0.022215 0.000000 0.000000
# 5 0.000000 0.000000 0.000000 0.000000 0.077296 0.000000
# 6 0.000000 0.000000 0.000000 0.000000 0.000000 0.064761
#
#
# Mechanical properties :
#
#
# Convention : Reuss Voigt Hill
#
# Bulk Modulus (GPa) = -0.00691 8.81346 4.40328
# Shear Modulus (GPa) = -0.08659 27.31063 13.61202
#
# Velocity S-wave (km/s) = -0.19390 3.44352 2.43108
# Velocity P-wave (km/s) = 0.23050 4.43138 3.12922
#
# Compressibility (1/GPa) = -144.70299025
#
# Stress axis : x y z
#
# Youngs Moduli (GPa) = -0.35192 -0.26753 -0.01416
#
# Poissons Ratio (x) = -0.87579 -0.20132
# Poissons Ratio (y) = -1.15205 -0.23040
# Poissons Ratio (z) = -5.00265 -4.35239
#
# Static dielectric constant tensor:
#      x y z
#    x 1.898280 0.000000 0.000000 
#    y 0.000000 1.857110 0.000000 
#    z 0.000000 0.000000 1.835710 
# 
# From -- ./inp_files/13980.got.cif
#   From: 2010.05.17/outbox.cif.g08.bks.cpg/sg36_7_cif.got.tgz:13980.got - 2010.06.03 17:41:39.
