data_PCOD9351616
_publ_section_title
;
Structure prediction by ZEFSAII (Michael W. Deem and Ramdas Pophale) SiO2 
 PCOD9351616
Probable space group: C M C 21
;
_chemical_formula_sum "Si O2"
_cell_formula_units_Z 64
_cell_length_a 14.928589
_cell_length_b 23.554665
_cell_length_c 8.942709
_cell_angle_alpha 90.000000
_cell_angle_beta 90.000000
_cell_angle_gamma 90.000000
_cell_volume 3144.595528
_symmetry_space_group_name_H-M "C M C 21"
_symmetry_group_IT_number 36
_symmetry_cell_setting 'orthorhombic'
loop_
_space_group_symop_operation_xyz
x,y,z
-x,-y,1/2+z
x,-y,1/2+z
-x,y,z
1/2+x,1/2+y,z
1/2-x,1/2-y,1/2+z
1/2+x,1/2-y,1/2+z
1/2-x,1/2+y,z
loop_
_atom_site_type_symbol
_atom_site_label
_atom_site_fract_x
_atom_site_fract_y
_atom_site_fract_z
Si Si1 0.601370 0.858507 0.715800
Si Si2 0.600320 0.417148 0.307807
Si Si3 0.102224 0.129199 0.145321
Si Si4 0.598016 0.017860 0.176459
Si Si5 0.290061 0.467175 0.824267
Si Si6 0.751032 0.784997 0.558295
Si Si7 0.246253 0.829760 0.220362
Si Si8 0.664696 0.913180 0.026916
O O1 0.500000 0.837031 0.720492
O O2 0.603266 0.917139 0.619779
O O3 0.670156 0.815119 0.645938
O O4 0.631106 0.878349 0.882221
O O5 0.500000 0.422546 0.246534
O O6 0.596206 0.396214 0.479000
O O7 0.647950 0.478116 0.316213
O O8 0.657693 0.368557 0.226891
O O9 0.162327 0.084131 0.236536
O O10 0.157958 0.187396 0.125863
O O11 0.000000 0.135587 0.202520
O O12 0.500000 0.014696 0.252349
O O13 0.692206 0.013624 0.263589
O O14 0.602568 0.966402 0.062025
O O15 0.261129 0.440834 0.983228
O O16 0.744303 0.801136 0.383358
O O17 0.745169 0.718845 0.595085
O O18 0.324133 0.873005 0.169777
#
# Coordination Sequence:
#
# PCOD9351616 Si02
#       8
#     8   8   8   8   8   8   8   8
#     4  10  22  40  65  92 127 171 214 265 326 386
#     4  10  22  39  63  95 128 171 216 266 332 397
#     4  10  21  40  63  90 124 170 216 266 325 385
#     4  10  20  34  58  94 130 167 209 257 320 393
#     4  11  20  37  64  94 135 165 213 271 331 397
#     4  11  23  44  66  91 127 172 223 273 322 382
#     4  11  25  42  69  92 131 175 220 272 326 390
#     4  11  21  38  64  96 132 173 211 264 336 392
#
# _framework density 20.352378999999999
#
# number of rings (size 3 to 8) (size 9 to 14) (size 15 to 20)
#    0.000    1.500    3.750    2.250    1.750    1.000 
#    0.000    8.750    0.000    0.000    0.000    0.000 
#    0.000    0.000    0.000    0.000    0.000    0.000 
#
# Total GULP energy -178450.142340 kJ/mol
# GULP energy per Si atom -5576.566948 kJ/mol
# Density = 2.030606 g / cm^3
# Si number density = 20.352379 Si / 1000 Ang^3
#
#
#
# Elastic Constant Matrix: (Units=GPa)
#
#
# Indices 1 2 3 4 5 6 
#
# 1 115.4886 23.2063 26.0385 0.0000 0.0000 0.0000
# 2 23.2063 70.1746 20.8940 0.0000 0.0000 0.0000
# 3 26.0385 20.8940 53.0442 0.0000 0.0000 0.0000
# 4 0.0000 0.0000 0.0000 34.5825 0.0000 0.0000
# 5 0.0000 0.0000 0.0000 0.0000 22.6827 0.0000
# 6 0.0000 0.0000 0.0000 0.0000 0.0000 8.2996
#
#
#
# Elastic Compliance Matrix: (Units=1/GPa)
#
#
# Indices 1 2 3 4 5 6 
#
# 1 0.010000 -0.002091 -0.004085 0.000000 0.000000 0.000000
# 2 -0.002091 0.016581 -0.005505 0.000000 0.000000 0.000000
# 3 -0.004085 -0.005505 0.023026 0.000000 0.000000 0.000000
# 4 0.000000 0.000000 0.000000 0.028916 0.000000 0.000000
# 5 0.000000 0.000000 0.000000 0.000000 0.044086 0.000000
# 6 0.000000 0.000000 0.000000 0.000000 0.000000 0.120487
#
#
# Mechanical properties :
#
#
# Convention : Reuss Voigt Hill
#
# Bulk Modulus (GPa) = 38.10243 42.10943 40.10593
# Shear Modulus (GPa) = 18.16818 24.35089 21.25954
#
# Velocity S-wave (km/s) = 2.99102 3.46275 3.23549
# Velocity P-wave (km/s) = 5.53988 6.05992 5.80572
#
# Compressibility (1/GPa) = 0.02624505
#
# Stress axis : x y z
#
# Youngs Moduli (GPa) = 99.99954 60.31174 43.42926
#
# Poissons Ratio (x) = 0.12609 0.17742
# Poissons Ratio (y) = 0.20906 0.23907
# Poissons Ratio (z) = 0.40854 0.33200
#
# Static dielectric constant tensor:
#      x y z
#    x 1.736200 0.000000 0.000000 
#    y 0.000000 1.719440 0.000000 
#    z 0.000000 0.000000 1.779900 
# 
# From -- ./inp_files/4320.got.cif
#   From: 2010.05.17/outbox.cif.g08.bks.cpg/sg36_3_cif.got.tgz:4320.got - 2010.06.03 17:41:39.
