data_PCOD9351006
_publ_section_title
;
Structure prediction by ZEFSAII (Michael W. Deem and Ramdas Pophale) SiO2 
 PCOD9351006
Probable space group: C M C 21
;
_chemical_formula_sum "Si O2"
_cell_formula_units_Z 48
_cell_length_a 9.058107
_cell_length_b 20.353653
_cell_length_c 11.852906
_cell_angle_alpha 90.000000
_cell_angle_beta 90.000000
_cell_angle_gamma 90.000000
_cell_volume 2185.267732
_symmetry_space_group_name_H-M "C M C 21"
_symmetry_group_IT_number 36
_symmetry_cell_setting 'orthorhombic'
loop_
_space_group_symop_operation_xyz
x,y,z
-x,-y,1/2+z
x,-y,1/2+z
-x,y,z
1/2+x,1/2+y,z
1/2-x,1/2-y,1/2+z
1/2+x,1/2-y,1/2+z
1/2-x,1/2+y,z
loop_
_atom_site_type_symbol
_atom_site_label
_atom_site_fract_x
_atom_site_fract_y
_atom_site_fract_z
Si Si1 0.663906 0.544681 0.021750
Si Si2 0.175821 0.262028 0.007324
Si Si3 0.667121 0.590193 0.770449
Si Si4 0.670059 0.087206 0.461691
Si Si5 0.331413 0.044690 0.219382
Si Si6 0.676802 0.225620 0.762015
O O1 0.500000 0.544196 0.070499
O O2 0.778627 0.577558 0.105528
O O3 0.659978 0.582507 0.905102
O O4 0.721505 0.470825 0.998239
O O5 0.194411 0.341124 0.008656
O O6 0.252777 0.242996 0.886432
O O7 0.000000 0.246840 0.995685
O O8 0.219542 0.241802 0.137964
O O9 0.500000 0.600972 0.727787
O O10 0.732574 0.520319 0.732932
O O11 0.774575 0.649917 0.746252
O O12 0.500000 0.066929 0.485536
O O13 0.686712 0.090379 0.326821
O O14 0.500000 0.023678 0.214766
O O15 0.500000 0.232775 0.770833
#
# Coordination Sequence:
#
# PCOD9351006 Si02
#       6
#     8   8   8   8   8   8
#     4  10  20  33  53  83 117 152 188 233 292 352
#     4  10  23  43  63  87 120 156 200 253 304 358
#     4  10  21  37  57  83 117 155 194 241 296 353
#     4   9  19  36  57  80 110 150 193 240 291 345
#     4  10  19  32  54  84 116 152 193 236 287 349
#     4  11  24  41  64  91 118 157 206 253 306 365
#
# _framework density 21.965273
#
# number of rings (size 3 to 8) (size 9 to 14) (size 15 to 20)
#    0.000    2.000    0.000    3.000    0.000    7.333 
#    0.000    3.333    0.000    0.000    0.000    0.000 
#    0.000    0.000    0.000    0.000    0.000    0.000 
#
# Total GULP energy -133765.459523 kJ/mol
# GULP energy per Si atom -5573.560813 kJ/mol
# Density = 2.191528 g / cm^3
# Si number density = 21.965273 Si / 1000 Ang^3
#
#
#
# Elastic Constant Matrix: (Units=GPa)
#
#
# Indices 1 2 3 4 5 6 
#
# 1 49.0248 15.0517 54.8118 0.0000 0.0000 0.0000
# 2 15.0517 40.2314 10.4472 0.0000 0.0000 0.0000
# 3 54.8118 10.4472 169.6698 0.0000 0.0000 0.0000
# 4 0.0000 0.0000 0.0000 -11.5150 0.0000 0.0000
# 5 0.0000 0.0000 0.0000 0.0000 37.0202 0.0000
# 6 0.0000 0.0000 0.0000 0.0000 0.0000 23.3545
#
#
#
# Elastic Compliance Matrix: (Units=1/GPa)
#
#
# Indices 1 2 3 4 5 6 
#
# 1 0.035876 -0.010582 -0.010938 0.000000 0.000000 0.000000
# 2 -0.010582 0.028381 0.001671 0.000000 0.000000 0.000000
# 3 -0.010938 0.001671 0.009324 0.000000 0.000000 0.000000
# 4 0.000000 0.000000 0.000000 -0.086843 0.000000 0.000000
# 5 0.000000 0.000000 0.000000 0.000000 0.027012 0.000000
# 6 0.000000 0.000000 0.000000 0.000000 0.000000 0.042818
#
#
# Mechanical properties :
#
#
# Convention : Reuss Voigt Hill
#
# Bulk Modulus (GPa) = 29.51279 46.61637 38.06458
# Shear Modulus (GPa) = 46.48477 21.67961 34.08219
#
# Velocity S-wave (km/s) = 4.60530 3.14506 3.94336
# Velocity P-wave (km/s) = 6.46093 5.87004 6.17256
#
# Compressibility (1/GPa) = 0.03388361
#
# Stress axis : x y z
#
# Youngs Moduli (GPa) = 27.87374 35.23448 107.24436
#
# Poissons Ratio (x) = 0.37285 1.17306
# Poissons Ratio (y) = 0.29496 -0.17920
# Poissons Ratio (z) = 0.30489 -0.05887
#
# Static dielectric constant tensor:
#      x y z
#    x 1.776630 0.000000 0.000000 
#    y 0.000000 1.797110 0.000000 
#    z 0.000000 0.000000 1.972110 
# 
# From -- ./inp_files/6708.got.cif
#   From: 2010.05.17/outbox.cif.g08.bks.cpg/sg36_4_cif.got.tgz:6708.got - 2010.06.03 17:41:39.
