data_PCOD9351231
_publ_section_title
;
Structure prediction by ZEFSAII (Michael W. Deem and Ramdas Pophale) SiO2 
 PCOD9351231
Probable space group: C M C 21
;
_chemical_formula_sum "Si O2"
_cell_formula_units_Z 56
_cell_length_a 22.248140
_cell_length_b 13.894953
_cell_length_c 9.082212
_cell_angle_alpha 90.000000
_cell_angle_beta 90.000000
_cell_angle_gamma 90.000000
_cell_volume 2807.646496
_symmetry_space_group_name_H-M "C M C 21"
_symmetry_group_IT_number 36
_symmetry_cell_setting 'orthorhombic'
loop_
_space_group_symop_operation_xyz
x,y,z
-x,-y,1/2+z
x,-y,1/2+z
-x,y,z
1/2+x,1/2+y,z
1/2-x,1/2-y,1/2+z
1/2+x,1/2-y,1/2+z
1/2-x,1/2+y,z
loop_
_atom_site_type_symbol
_atom_site_label
_atom_site_fract_x
_atom_site_fract_y
_atom_site_fract_z
Si Si1 0.258071 0.220353 0.452160
Si Si2 0.568155 0.301470 0.376620
Si Si3 0.143935 0.497017 0.741516
Si Si4 0.335632 0.619668 0.072319
Si Si5 0.930954 0.584749 0.502052
Si Si6 0.727716 0.478539 0.846142
Si Si7 0.663164 0.775786 0.665765
O O1 0.304813 0.275513 0.557019
O O2 0.254381 0.105645 0.449821
O O3 0.284753 0.240383 0.289543
O O4 0.192718 0.253353 0.508702
O O5 0.500000 0.329958 0.343578
O O6 0.597911 0.365598 0.506064
O O7 0.568329 0.192545 0.439542
O O8 0.609621 0.290900 0.229801
O O9 0.108159 0.573679 0.647109
O O10 0.213141 0.521877 0.770142
O O11 0.146160 0.388707 0.670969
O O12 0.104766 0.480810 0.886924
O O13 0.303494 0.555239 0.948444
O O14 0.317446 0.570515 0.227024
O O15 0.000000 0.553828 0.523762
#
# Coordination Sequence:
#
# PCOD9351231 Si02
#       7
#     8   8   8   8   8   8   8
#     4  10  19  38  56  91 125 152 194 244 307 358
#     4   9  21  41  62  81 116 165 204 243 301 359
#     4  10  19  35  51  90 116 150 194 238 293 357
#     4  11  23  39  59  92 117 158 197 253 300 365
#     4  10  20  36  58  81 118 162 199 239 293 359
#     4  11  24  36  61  89 124 155 194 252 315 359
#     4   9  19  35  59  86 117 158 192 241 301 355
#
# _framework density 19.945530000000002
#
# number of rings (size 3 to 8) (size 9 to 14) (size 15 to 20)
#    0.000    2.000    2.857    2.143    4.000    1.714 
#    0.000    0.714    0.000    0.857    0.000    0.000 
#    0.000    0.000    0.000    0.000    0.000    0.000 
#
# Total GULP energy -156078.304823 kJ/mol
# GULP energy per Si atom -5574.225172 kJ/mol
# Density = 1.990013 g / cm^3
# Si number density = 19.945530 Si / 1000 Ang^3
#
#
#
# Elastic Constant Matrix: (Units=GPa)
#
#
# Indices 1 2 3 4 5 6 
#
# 1 120.6056 20.3297 36.6723 0.0000 0.0000 0.0000
# 2 20.3297 30.9326 20.1101 0.0000 0.0000 0.0000
# 3 36.6723 20.1101 33.5532 0.0000 0.0000 0.0000
# 4 0.0000 0.0000 0.0000 10.5749 0.0000 0.0000
# 5 0.0000 0.0000 0.0000 0.0000 27.4874 0.0000
# 6 0.0000 0.0000 0.0000 0.0000 0.0000 23.6573
#
#
#
# Elastic Compliance Matrix: (Units=1/GPa)
#
#
# Indices 1 2 3 4 5 6 
#
# 1 0.012441 0.001087 -0.014249 0.000000 0.000000 0.000000
# 2 0.001087 0.053062 -0.032991 0.000000 0.000000 0.000000
# 3 -0.014249 -0.032991 0.065150 0.000000 0.000000 0.000000
# 4 0.000000 0.000000 0.000000 0.094564 0.000000 0.000000
# 5 0.000000 0.000000 0.000000 0.000000 0.036380 0.000000
# 6 0.000000 0.000000 0.000000 0.000000 0.000000 0.042270
#
#
# Mechanical properties :
#
#
# Convention : Reuss Voigt Hill
#
# Bulk Modulus (GPa) = 26.07729 37.70171 31.88950
# Shear Modulus (GPa) = 12.22625 19.54253 15.88439
#
# Velocity S-wave (km/s) = 2.47853 3.13356 2.82510
# Velocity P-wave (km/s) = 4.61448 5.66001 5.16377
#
# Compressibility (1/GPa) = 0.03834755
#
# Stress axis : x y z
#
# Youngs Moduli (GPa) = 80.38006 18.84577 15.34913
#
# Poissons Ratio (x) = -0.02049 0.21871
# Poissons Ratio (y) = -0.08739 0.50639
# Poissons Ratio (z) = 1.14534 0.62174
#
# Static dielectric constant tensor:
#      x y z
#    x 1.742920 0.000000 0.000000 
#    y 0.000000 1.727900 0.000000 
#    z 0.000000 0.000000 1.760870 
# 
# From -- ./inp_files/5281.got.cif
#   From: 2010.05.17/outbox.cif.g08.bks.cpg/sg36_3_cif.got.tgz:5281.got - 2010.06.03 17:41:39.
