data_PCOD9351247
_publ_section_title
;
Structure prediction by ZEFSAII (Michael W. Deem and Ramdas Pophale) SiO2 
 PCOD9351247
Probable space group: C M C 21
;
_chemical_formula_sum "Si O2"
_cell_formula_units_Z 64
_cell_length_a 7.632870
_cell_length_b 21.826934
_cell_length_c 14.480335
_cell_angle_alpha 90.000000
_cell_angle_beta 90.000000
_cell_angle_gamma 90.000000
_cell_volume 2412.454940
_symmetry_space_group_name_H-M "C M C 21"
_symmetry_group_IT_number 36
_symmetry_cell_setting 'orthorhombic'
loop_
_space_group_symop_operation_xyz
x,y,z
-x,-y,1/2+z
x,-y,1/2+z
-x,y,z
1/2+x,1/2+y,z
1/2-x,1/2-y,1/2+z
1/2+x,1/2-y,1/2+z
1/2-x,1/2+y,z
loop_
_atom_site_type_symbol
_atom_site_label
_atom_site_fract_x
_atom_site_fract_y
_atom_site_fract_z
Si Si1 0.790077 0.528109 0.713450
Si Si2 0.793363 0.961693 0.887065
Si Si3 0.284372 0.719177 0.340535
Si Si4 0.295087 0.892998 0.055379
Si Si5 0.289848 0.421835 0.500268
Si Si6 0.797152 0.853573 0.671642
Si Si7 0.709487 0.852468 0.324568
Si Si8 0.797954 0.239021 0.550327
O O1 0.737348 0.472039 0.778841
O O2 0.729146 0.546476 0.610833
O O3 0.724951 0.588800 0.768748
O O4 0.000000 0.525688 0.712734
O O5 0.716655 0.020593 0.942585
O O6 0.000000 0.961166 0.898498
O O7 0.729075 0.904989 0.946971
O O8 0.500000 0.714354 0.342952
O O9 0.221085 0.666700 0.270430
O O10 0.232766 0.784948 0.297325
O O11 0.227018 0.726964 0.446526
O O12 0.500000 0.886536 0.074906
O O13 0.209614 0.830339 0.088683
O O14 0.500000 0.428341 0.507727
O O15 0.219004 0.404340 0.601508
O O16 0.253760 0.365467 0.431263
O O17 0.794784 0.790369 0.611283
O O18 0.000000 0.870342 0.686859
O O19 0.500000 0.853194 0.314799
O O20 0.000000 0.258676 0.543230
#
# Coordination Sequence:
#
# PCOD9351247 Si02
#       8
#     8   8   8   8   8   8   8   8
#     4   9  19  36  61  87 110 150 200 240 287 346
#     4  10  21  38  59  87 118 148 190 248 301 344
#     4   9  18  32  52  79 114 153 188 222 278 348
#     4  11  23  41  62  84 117 158 200 241 290 355
#     4   9  18  32  53  79 107 138 180 231 283 334
#     4  10  19  35  57  81 113 154 191 226 282 353
#     4   9  15  29  53  77 105 142 186 231 272 327
#     4  11  22  37  57  86 120 153 193 243 293 341
#
# _framework density 26.528991999999999
#
# number of rings (size 3 to 8) (size 9 to 14) (size 15 to 20)
#    0.000    2.250    1.250    1.875    0.000    3.500 
#    2.250    4.375    0.000    0.000    0.000    0.000 
#    0.000    0.000    0.000    0.000    0.000    0.000 
#
# Total GULP energy -178884.000851 kJ/mol
# GULP energy per Si atom -5590.125027 kJ/mol
# Density = 2.646861 g / cm^3
# Si number density = 26.528992 Si / 1000 Ang^3
#
#
#
# Elastic Constant Matrix: (Units=GPa)
#
#
# Indices 1 2 3 4 5 6 
#
# 1 72.8676 -3.2831 -4.4776 0.0000 0.0000 0.0000
# 2 -3.2831 87.7898 26.8523 0.0000 0.0000 0.0000
# 3 -4.4776 26.8523 153.5872 0.0000 0.0000 0.0000
# 4 0.0000 0.0000 0.0000 56.3469 0.0000 0.0000
# 5 0.0000 0.0000 0.0000 0.0000 19.0138 0.0000
# 6 0.0000 0.0000 0.0000 0.0000 0.0000 11.7521
#
#
#
# Elastic Compliance Matrix: (Units=1/GPa)
#
#
# Indices 1 2 3 4 5 6 
#
# 1 0.013762 0.000414 0.000329 0.000000 0.000000 0.000000
# 2 0.000414 0.012047 -0.002094 0.000000 0.000000 0.000000
# 3 0.000329 -0.002094 0.006887 0.000000 0.000000 0.000000
# 4 0.000000 0.000000 0.000000 0.017747 0.000000 0.000000
# 5 0.000000 0.000000 0.000000 0.000000 0.052593 0.000000
# 6 0.000000 0.000000 0.000000 0.000000 0.000000 0.085091
#
#
# Mechanical properties :
#
#
# Convention : Reuss Voigt Hill
#
# Bulk Modulus (GPa) = 33.34056 39.15865 36.24961
# Shear Modulus (GPa) = 24.89698 37.09944 30.99821
#
# Velocity S-wave (km/s) = 3.06679 3.74364 3.42199
# Velocity P-wave (km/s) = 5.01350 5.78612 5.41361
#
# Compressibility (1/GPa) = 0.02999349
#
# Stress axis : x y z
#
# Youngs Moduli (GPa) = 72.66183 83.00912 145.20801
#
# Poissons Ratio (x) = -0.03437 -0.04775
# Poissons Ratio (y) = -0.03009 0.30409
# Poissons Ratio (z) = -0.02389 0.17383
#
# Static dielectric constant tensor:
#      x y z
#    x 1.951000 0.000000 0.000000 
#    y 0.000000 2.119860 0.000000 
#    z 0.000000 0.000000 2.144320 
# 
# From -- ./inp_files/11106.got.cif
#   From: 2010.05.17/outbox.cif.g08.bks.cpg/sg36_6_cif.got.tgz:11106.got - 2010.06.03 17:41:39.
