data_PCOD9351824
_publ_section_title
;
Structure prediction by ZEFSAII (Michael W. Deem and Ramdas Pophale) SiO2 
 PCOD9351824
Probable space group: C M C 21
;
_chemical_formula_sum "Si O2"
_cell_formula_units_Z 64
_cell_length_a 9.438822
_cell_length_b 31.630466
_cell_length_c 10.583565
_cell_angle_alpha 90.000000
_cell_angle_beta 90.000000
_cell_angle_gamma 90.000000
_cell_volume 3159.769246
_symmetry_space_group_name_H-M "C M C 21"
_symmetry_group_IT_number 36
_symmetry_cell_setting 'orthorhombic'
loop_
_space_group_symop_operation_xyz
x,y,z
-x,-y,1/2+z
x,-y,1/2+z
-x,y,z
1/2+x,1/2+y,z
1/2-x,1/2-y,1/2+z
1/2+x,1/2-y,1/2+z
1/2-x,1/2+y,z
loop_
_atom_site_type_symbol
_atom_site_label
_atom_site_fract_x
_atom_site_fract_y
_atom_site_fract_z
Si Si1 0.343169 0.664390 0.908380
Si Si2 0.330640 0.711542 0.449603
Si Si3 0.667477 0.256891 0.225526
Si Si4 0.658049 0.425782 0.271928
Si Si5 0.160711 0.462032 0.479118
Si Si6 0.336282 0.127970 0.118884
Si Si7 0.667510 0.380473 0.872057
Si Si8 0.164507 0.557661 0.535241
O O1 0.500000 0.672408 0.965608
O O2 0.320394 0.698570 0.799810
O O3 0.347690 0.618775 0.842746
O O4 0.221896 0.660156 0.013025
O O5 0.500000 0.718122 0.435935
O O6 0.285551 0.735401 0.579638
O O7 0.252840 0.726667 0.321484
O O8 0.308297 0.660894 0.459992
O O9 0.500000 0.245343 0.222775
O O10 0.500000 0.436753 0.227606
O O11 0.721610 0.458581 0.371682
O O12 0.767561 0.422774 0.159232
O O13 0.172295 0.420189 0.565080
O O14 0.177213 0.506998 0.545751
O O15 0.000000 0.461125 0.424582
O O16 0.500000 0.136460 0.149770
O O17 0.234139 0.130534 0.237542
O O18 0.500000 0.387545 0.864419
O O19 0.747496 0.421703 0.922284
O O20 0.000000 0.568017 0.519754
#
# Coordination Sequence:
#
# PCOD9351824 Si02
#       8
#     8   8   8   8   8   8   8   8
#     4   9  19  38  62  87 119 158 198 248 308 365
#     4  10  24  44  64  92 130 167 208 263 323 378
#     4  10  22  41  66  93 125 164 209 258 314 379
#     4  10  20  36  59  85 114 149 195 246 298 361
#     4   9  21  39  57  82 118 158 197 246 303 361
#     4  10  21  38  61  90 123 161 205 253 308 374
#     4  11  24  42  62  87 124 164 207 260 318 373
#     4  11  23  38  59  84 117 159 201 248 306 367
#
# _framework density 20.254643999999999
#
# number of rings (size 3 to 8) (size 9 to 14) (size 15 to 20)
#    0.000    2.000    0.000    2.250    3.500    6.000 
#    0.000    1.250    0.000    0.000    0.000    0.000 
#    0.000    0.000    0.000    0.000    0.000    0.000 
#
# Total GULP energy -178597.263388 kJ/mol
# GULP energy per Si atom -5581.164481 kJ/mol
# Density = 2.020854 g / cm^3
# Si number density = 20.254644 Si / 1000 Ang^3
#
#
#
# Elastic Constant Matrix: (Units=GPa)
#
#
# Indices 1 2 3 4 5 6 
#
# 1 93.9798 41.2559 32.4738 0.0000 0.0000 0.0000
# 2 41.2559 56.1433 11.1465 0.0000 0.0000 0.0000
# 3 32.4738 11.1465 62.4394 0.0000 0.0000 0.0000
# 4 0.0000 0.0000 0.0000 4.2104 0.0000 0.0000
# 5 0.0000 0.0000 0.0000 0.0000 34.7730 0.0000
# 6 0.0000 0.0000 0.0000 0.0000 0.0000 13.9327
#
#
#
# Elastic Compliance Matrix: (Units=1/GPa)
#
#
# Indices 1 2 3 4 5 6 
#
# 1 0.018562 -0.012154 -0.007484 0.000000 0.000000 0.000000
# 2 -0.012154 0.026424 0.001604 0.000000 0.000000 0.000000
# 3 -0.007484 0.001604 0.019622 0.000000 0.000000 0.000000
# 4 0.000000 0.000000 0.000000 0.237508 0.000000 0.000000
# 5 0.000000 0.000000 0.000000 0.000000 0.028758 0.000000
# 6 0.000000 0.000000 0.000000 0.000000 0.000000 0.071774
#
#
# Mechanical properties :
#
#
# Convention : Reuss Voigt Hill
#
# Bulk Modulus (GPa) = 35.03923 42.47942 38.75932
# Shear Modulus (GPa) = 11.15500 19.09563 15.12532
#
# Velocity S-wave (km/s) = 2.34933 3.07380 2.73565
# Velocity P-wave (km/s) = 4.96951 5.79792 5.39963
#
# Compressibility (1/GPa) = 0.02853944
#
# Stress axis : x y z
#
# Youngs Moduli (GPa) = 53.87293 37.84377 50.96428
#
# Poissons Ratio (x) = 0.45996 0.38143
# Poissons Ratio (y) = 0.65478 -0.08175
# Poissons Ratio (z) = 0.40319 -0.06070
#
# Static dielectric constant tensor:
#      x y z
#    x 1.697720 0.000000 0.000000 
#    y 0.000000 1.740500 0.000000 
#    z 0.000000 0.000000 1.730780 
# 
# From -- ./inp_files/7203.got.cif
#   From: 2010.05.17/outbox.cif.g08.bks.cpg/sg36_4_cif.got.tgz:7203.got - 2010.06.03 17:41:39.
