data_PCOD9351058
_publ_section_title
;
Structure prediction by ZEFSAII (Michael W. Deem and Ramdas Pophale) SiO2 
 PCOD9351058
Probable space group: C M C 21
;
_chemical_formula_sum "Si O2"
_cell_formula_units_Z 64
_cell_length_a 17.643073
_cell_length_b 16.550073
_cell_length_c 11.714383
_cell_angle_alpha 90.000000
_cell_angle_beta 90.000000
_cell_angle_gamma 90.000000
_cell_volume 3420.531261
_symmetry_space_group_name_H-M "C M C 21"
_symmetry_group_IT_number 36
_symmetry_cell_setting 'orthorhombic'
loop_
_space_group_symop_operation_xyz
x,y,z
-x,-y,1/2+z
x,-y,1/2+z
-x,y,z
1/2+x,1/2+y,z
1/2-x,1/2-y,1/2+z
1/2+x,1/2-y,1/2+z
1/2-x,1/2+y,z
loop_
_atom_site_type_symbol
_atom_site_label
_atom_site_fract_x
_atom_site_fract_y
_atom_site_fract_z
Si Si1 0.408342 0.749433 0.160620
Si Si2 0.277792 0.615201 0.805131
Si Si3 0.838049 0.504737 0.924981
Si Si4 0.090440 0.352226 0.799534
Si Si5 0.910167 0.342222 0.541611
Si Si6 0.279039 0.871370 0.065756
Si Si7 0.412985 0.320335 0.418340
Si Si8 0.183620 0.230031 0.389055
O O1 0.500000 0.768925 0.176826
O O2 0.354097 0.823532 0.114524
O O3 0.366804 0.715518 0.274472
O O4 0.404339 0.688114 0.054360
O O5 0.225383 0.540987 0.841886
O O6 0.278924 0.627499 0.670462
O O7 0.358869 0.614005 0.863394
O O8 0.236883 0.694441 0.856639
O O9 0.880668 0.431099 0.864290
O O10 0.889083 0.579117 0.966934
O O11 0.802103 0.462037 0.034956
O O12 0.120415 0.350038 0.670413
O O13 0.105918 0.267951 0.864002
O O14 0.000000 0.358870 0.794644
O O15 0.873896 0.264720 0.482734
O O16 0.000000 0.334412 0.545658
O O17 0.237862 0.833874 0.953673
O O18 0.500000 0.336184 0.391550
#
# Coordination Sequence:
#
# PCOD9351058 Si02
#       8
#     8   8   8   8   8   8   8   8
#     4  10  20  35  59  88 116 149 193 242 291 344
#     4  10  21  36  53  85 112 147 194 234 289 339
#     4  11  21  35  52  82 117 154 185 228 283 354
#     4  10  19  33  54  81 110 147 189 226 278 344
#     4  10  21  34  52  81 116 149 183 232 287 343
#     4  11  21  37  58  84 118 158 191 238 293 348
#     4  10  19  37  62  83 107 144 193 243 285 335
#     4  10  20  35  56  82 116 150 190 241 286 341
#
# _framework density 18.710543000000001
#
# number of rings (size 3 to 8) (size 9 to 14) (size 15 to 20)
#    0.000    1.750    2.500    2.250    0.000    1.500 
#    2.250    3.750    0.000    2.250    0.000    0.000 
#    0.000    0.000    0.000    0.000    0.000    0.000 
#
# Total GULP energy -178356.514526 kJ/mol
# GULP energy per Si atom -5573.641079 kJ/mol
# Density = 1.866796 g / cm^3
# Si number density = 18.710543 Si / 1000 Ang^3
#
#
#
# Elastic Constant Matrix: (Units=GPa)
#
#
# Indices 1 2 3 4 5 6 
#
# 1 84.8425 15.6438 35.8423 0.0000 0.0000 0.0000
# 2 15.6438 19.3188 -1.0252 0.0000 0.0000 0.0000
# 3 35.8423 -1.0252 95.2393 0.0000 0.0000 0.0000
# 4 0.0000 0.0000 0.0000 19.2524 0.0000 0.0000
# 5 0.0000 0.0000 0.0000 0.0000 30.8919 0.0000
# 6 0.0000 0.0000 0.0000 0.0000 0.0000 20.3365
#
#
#
# Elastic Compliance Matrix: (Units=1/GPa)
#
#
# Indices 1 2 3 4 5 6 
#
# 1 0.017228 -0.014303 -0.006637 0.000000 0.000000 0.000000
# 2 -0.014303 0.063667 0.006068 0.000000 0.000000 0.000000
# 3 -0.006637 0.006068 0.013063 0.000000 0.000000 0.000000
# 4 0.000000 0.000000 0.000000 0.051942 0.000000 0.000000
# 5 0.000000 0.000000 0.000000 0.000000 0.032371 0.000000
# 6 0.000000 0.000000 0.000000 0.000000 0.000000 0.049173
#
#
# Mechanical properties :
#
#
# Convention : Reuss Voigt Hill
#
# Bulk Modulus (GPa) = 15.57305 33.36916 24.47110
# Shear Modulus (GPa) = 17.94738 24.02548 20.98643
#
# Velocity S-wave (km/s) = 3.10048 3.58727 3.35272
# Velocity P-wave (km/s) = 4.59983 5.91871 5.30045
#
# Compressibility (1/GPa) = 0.06421352
#
# Stress axis : x y z
#
# Youngs Moduli (GPa) = 58.04566 15.70671 76.55143
#
# Poissons Ratio (x) = 0.22465 0.50811
# Poissons Ratio (y) = 0.83022 -0.46452
# Poissons Ratio (z) = 0.38528 -0.09531
#
# Static dielectric constant tensor:
#      x y z
#    x 1.683190 0.000000 0.000000 
#    y 0.000000 1.607700 0.000000 
#    z 0.000000 0.000000 1.691650 
# 
# From -- ./inp_files/9019.got.cif
#   From: 2010.05.17/outbox.cif.g08.bks.cpg/sg36_5_cif.got.tgz:9019.got - 2010.06.03 17:41:39.
