data_PCOD9351331
_publ_section_title
;
Structure prediction by ZEFSAII (Michael W. Deem and Ramdas Pophale) SiO2 
 PCOD9351331
Probable space group: C M C 21
;
_chemical_formula_sum "Si O2"
_cell_formula_units_Z 60
_cell_length_a 16.968842
_cell_length_b 32.519869
_cell_length_c 4.984769
_cell_angle_alpha 90.000000
_cell_angle_beta 90.000000
_cell_angle_gamma 90.000000
_cell_volume 2750.717755
_symmetry_space_group_name_H-M "C M C 21"
_symmetry_group_IT_number 36
_symmetry_cell_setting 'orthorhombic'
loop_
_space_group_symop_operation_xyz
x,y,z
-x,-y,1/2+z
x,-y,1/2+z
-x,y,z
1/2+x,1/2+y,z
1/2-x,1/2-y,1/2+z
1/2+x,1/2-y,1/2+z
1/2-x,1/2+y,z
loop_
_atom_site_type_symbol
_atom_site_label
_atom_site_fract_x
_atom_site_fract_y
_atom_site_fract_z
Si Si1 0.253230 0.393312 0.941270
Si Si2 0.589811 0.688495 0.872192
Si Si3 0.759914 0.659412 0.969710
Si Si4 0.500000 0.973831 0.042501
Si Si5 0.094986 0.975607 0.455296
Si Si6 0.696605 0.757226 0.645882
Si Si7 0.414788 0.399048 0.088482
Si Si8 0.328701 0.971958 0.165338
O O1 0.216375 0.377027 0.669084
O O2 0.345355 0.399182 0.879730
O O3 0.225192 0.435401 0.068971
O O4 0.243352 0.358481 0.170772
O O5 0.500000 0.695555 0.985768
O O6 0.670629 0.676927 0.036412
O O7 0.621899 0.727958 0.705289
O O8 0.580808 0.647029 0.699018
O O9 0.817020 0.697862 0.020856
O O10 0.500000 0.984863 0.728962
O O11 0.417482 0.954706 0.123250
O O12 0.000000 0.978996 0.472701
O O13 0.125180 0.990500 0.741481
O O14 0.107355 0.931171 0.323052
O O15 0.755954 0.737449 0.426151
O O16 0.500000 0.411399 0.977883
O O17 0.319189 0.010622 0.963130
#
# Coordination Sequence:
#
# PCOD9351331 Si02
#       8
#     8   8   8   4   8   8   8   8
#     4  11  22  36  57  81 115 154 191 235 289 348
#     4   9  19  36  60  87 112 144 196 251 291 335
#     4  10  21  37  56  82 114 153 189 229 293 361
#     4   8  16  32  56  82 108 136 176 238 294 336
#     4   9  18  31  45  61  88 130 171 208 257 311
#     4  10  19  36  60  82 108 147 190 235 298 363
#     4   9  19  34  51  75 105 140 185 233 273 317
#     4  10  20  36  59  87 115 147 195 245 290 345
#
# _framework density 21.812487000000001
#
# number of rings (size 3 to 8) (size 9 to 14) (size 15 to 20)
#    0.000    2.400    0.000    3.200    0.000    3.733 
#    0.000   10.667    2.933    0.000    0.000    0.000 
#    0.000    0.000    0.000    0.000    0.000    0.000 
#
# Total GULP energy -167287.264357 kJ/mol
# GULP energy per Si atom -5576.242145 kJ/mol
# Density = 2.176284 g / cm^3
# Si number density = 21.812487 Si / 1000 Ang^3
#
#
#
# Elastic Constant Matrix: (Units=GPa)
#
#
# Indices 1 2 3 4 5 6 
#
# 1 67.8725 25.8456 -5.7459 0.0000 0.0000 0.0000
# 2 25.8456 91.5420 6.6570 0.0000 0.0000 0.0000
# 3 -5.7459 6.6570 76.5739 0.0000 0.0000 0.0000
# 4 0.0000 0.0000 0.0000 31.1459 0.0000 0.0000
# 5 0.0000 0.0000 0.0000 0.0000 16.3982 0.0000
# 6 0.0000 0.0000 0.0000 0.0000 0.0000 31.5535
#
#
#
# Elastic Compliance Matrix: (Units=1/GPa)
#
#
# Indices 1 2 3 4 5 6 
#
# 1 0.016719 -0.004842 0.001676 0.000000 0.000000 0.000000
# 2 -0.004842 0.012396 -0.001441 0.000000 0.000000 0.000000
# 3 0.001676 -0.001441 0.013310 0.000000 0.000000 0.000000
# 4 0.000000 0.000000 0.000000 0.032107 0.000000 0.000000
# 5 0.000000 0.000000 0.000000 0.000000 0.060982 0.000000
# 6 0.000000 0.000000 0.000000 0.000000 0.000000 0.031692
#
#
# Mechanical properties :
#
#
# Convention : Reuss Voigt Hill
#
# Bulk Modulus (GPa) = 30.11148 32.16689 31.13919
# Shear Modulus (GPa) = 26.66773 29.76829 28.21801
#
# Velocity S-wave (km/s) = 3.50035 3.69824 3.60065
# Velocity P-wave (km/s) = 5.49284 5.74587 5.62078
#
# Compressibility (1/GPa) = 0.03320992
#
# Stress axis : x y z
#
# Youngs Moduli (GPa) = 59.81113 80.67185 75.12986
#
# Poissons Ratio (x) = 0.39064 -0.12588
# Poissons Ratio (y) = 0.28962 0.10826
# Poissons Ratio (z) = -0.10022 0.11625
#
# Static dielectric constant tensor:
#      x y z
#    x 1.872960 0.000000 0.000000 
#    y 0.000000 1.822690 0.000000 
#    z 0.000000 0.000000 1.792340 
# 
# From -- ./inp_files/1218.got.cif
#   From: 2010.05.17/outbox.cif.g08.bks.cpg/sg36_1_cif.got.tgz:1218.got - 2010.06.03 17:41:39.
