data_PCOD9351896
_publ_section_title
;
Structure prediction by ZEFSAII (Michael W. Deem and Ramdas Pophale) SiO2 
 PCOD9351896
Probable space group: C M C 21
;
_chemical_formula_sum "Si O2"
_cell_formula_units_Z 32
_cell_length_a 12.532134
_cell_length_b 27.197894
_cell_length_c 5.258062
_cell_angle_alpha 90.000000
_cell_angle_beta 90.000000
_cell_angle_gamma 90.000000
_cell_volume 1792.198087
_symmetry_space_group_name_H-M "C M C 21"
_symmetry_group_IT_number 36
_symmetry_cell_setting 'orthorhombic'
loop_
_space_group_symop_operation_xyz
x,y,z
-x,-y,1/2+z
x,-y,1/2+z
-x,y,z
1/2+x,1/2+y,z
1/2-x,1/2-y,1/2+z
1/2+x,1/2-y,1/2+z
1/2-x,1/2+y,z
loop_
_atom_site_type_symbol
_atom_site_label
_atom_site_fract_x
_atom_site_fract_y
_atom_site_fract_z
Si Si1 0.671322 0.697754 0.888600
Si Si2 0.807135 0.141836 0.379714
Si Si3 0.879630 0.698392 0.172645
Si Si4 0.371242 0.530126 0.314186
O O1 0.655346 0.661907 0.650747
O O2 0.623095 0.750359 0.825314
O O3 0.636161 0.671924 0.150055
O O4 0.798854 0.706020 0.935267
O O5 0.683590 0.157518 0.335875
O O6 0.824888 0.084414 0.347396
O O7 0.000000 0.685641 0.105743
O O8 0.340417 0.495274 0.549421
O O9 0.500000 0.534724 0.317561
#
# Coordination Sequence:
#
# PCOD9351896 Si02
#       4
#     8   8   8   8
#     4  10  20  37  51  86 114 147 191 222 273 337
#     4  10  20  37  55  81 113 146 188 228 282 339
#     4  10  21  37  57  81 119 153 186 231 278 332
#     4  10  21  37  59  84 110 144 185 237 295 338
#
# _framework density 17.855167999999999
#
# number of rings (size 3 to 8) (size 9 to 14) (size 15 to 20)
#    1.500    0.500    2.500    1.500    0.000    3.000 
#    0.000    0.000    0.000    1.500    0.000    0.000 
#    0.000    0.000    0.000    0.000    0.000    0.000 
#
# Total GULP energy -89152.896575 kJ/mol
# GULP energy per Si atom -5572.056036 kJ/mol
# Density = 1.781453 g / cm^3
# Si number density = 17.855168 Si / 1000 Ang^3
#
#
#
# Elastic Constant Matrix: (Units=GPa)
#
#
# Indices 1 2 3 4 5 6 
#
# 1 50.3656 6.3327 4.1337 0.0000 0.0000 0.0000
# 2 6.3327 84.9185 2.7534 0.0000 0.0000 0.0000
# 3 4.1337 2.7534 85.8206 0.0000 0.0000 0.0000
# 4 0.0000 0.0000 0.0000 29.1766 0.0000 0.0000
# 5 0.0000 0.0000 0.0000 0.0000 9.3008 0.0000
# 6 0.0000 0.0000 0.0000 0.0000 0.0000 -1.6729
#
#
#
# Elastic Compliance Matrix: (Units=1/GPa)
#
#
# Indices 1 2 3 4 5 6 
#
# 1 0.020115 -0.001470 -0.000922 0.000000 0.000000 0.000000
# 2 -0.001470 0.011896 -0.000311 0.000000 0.000000 0.000000
# 3 -0.000922 -0.000311 0.011707 0.000000 0.000000 0.000000
# 4 0.000000 0.000000 0.000000 0.034274 0.000000 0.000000
# 5 0.000000 0.000000 0.000000 0.000000 0.107517 0.000000
# 6 0.000000 0.000000 0.000000 0.000000 0.000000 -0.597756
#
#
# Mechanical properties :
#
#
# Convention : Reuss Voigt Hill
#
# Bulk Modulus (GPa) = 26.10140 27.50491 26.80316
# Shear Modulus (GPa) = -12.68808 21.21990 4.26591
#
# Velocity S-wave (km/s) = -2.66862 3.45112 1.54737
# Velocity P-wave (km/s) = 2.27041 5.59627 4.27042
#
# Compressibility (1/GPa) = 0.03831212
#
# Stress axis : x y z
#
# Youngs Moduli (GPa) = 49.71337 84.06388 85.42201
#
# Poissons Ratio (x) = 0.12359 0.07874
# Poissons Ratio (y) = 0.07309 0.02655
# Poissons Ratio (z) = 0.04582 0.02613
#
# Static dielectric constant tensor:
#      x y z
#    x 1.629990 0.000000 0.000000 
#    y 0.000000 1.571890 0.000000 
#    z 0.000000 0.000000 1.640660 
# 
# From -- ./inp_files/230.got.cif
#   From: 2010.05.17/outbox.cif.g08.bks.cpg/sg36_1_cif.got.tgz:230.got - 2010.06.03 17:41:39.
