data_PCOD9351020
_publ_section_title
;
Structure prediction by ZEFSAII (Michael W. Deem and Ramdas Pophale) SiO2 
 PCOD9351020
Probable space group: C M C 21
;
_chemical_formula_sum "Si O2"
_cell_formula_units_Z 64
_cell_length_a 7.776265
_cell_length_b 15.135896
_cell_length_c 21.786235
_cell_angle_alpha 90.000000
_cell_angle_beta 90.000000
_cell_angle_gamma 90.000000
_cell_volume 2564.255944
_symmetry_space_group_name_H-M "C M C 21"
_symmetry_group_IT_number 36
_symmetry_cell_setting 'orthorhombic'
loop_
_space_group_symop_operation_xyz
x,y,z
-x,-y,1/2+z
x,-y,1/2+z
-x,y,z
1/2+x,1/2+y,z
1/2-x,1/2-y,1/2+z
1/2+x,1/2-y,1/2+z
1/2-x,1/2+y,z
loop_
_atom_site_type_symbol
_atom_site_label
_atom_site_fract_x
_atom_site_fract_y
_atom_site_fract_z
Si Si1 0.303246 0.028342 0.327510
Si Si2 0.200856 0.834141 0.727148
Si Si3 0.293493 0.236236 0.546392
Si Si4 0.789266 0.670394 0.416096
Si Si5 0.210309 0.528457 0.131678
Si Si6 0.292074 0.845280 0.179482
Si Si7 0.196115 0.143695 0.872388
Si Si8 0.805457 0.424724 0.503199
O O1 0.500000 0.014495 0.343066
O O2 0.291209 0.096889 0.271942
O O3 0.219806 0.084377 0.382508
O O4 0.241800 0.928258 0.321181
O O5 0.270507 0.733988 0.723596
O O6 0.000000 0.830868 0.743462
O O7 0.219024 0.881889 0.661276
O O8 0.500000 0.254395 0.543463
O O9 0.250414 0.176062 0.487696
O O10 0.258434 0.191789 0.610987
O O11 0.196759 0.327294 0.533696
O O12 0.721275 0.759956 0.382759
O O13 0.000000 0.669378 0.411726
O O14 0.267475 0.446254 0.174228
O O15 0.264611 0.518512 0.060437
O O16 0.000000 0.530953 0.131802
O O17 0.500000 0.848566 0.188158
O O18 0.000000 0.163794 0.862680
O O19 0.218768 0.092853 0.937751
O O20 0.000000 0.455013 0.490568
#
# Coordination Sequence:
#
# PCOD9351020 Si02
#       8
#     8   8   8   8   8   8   8   8
#     4  11  23  40  62  86 113 151 196 241 289 344
#     4  11  23  41  60  82 115 154 195 239 289 345
#     4   9  16  33  59  83 115 154 190 233 289 348
#     4   8  18  35  59  85 114 151 190 231 285 343
#     4  10  21  37  59  87 117 154 197 241 289 344
#     4   9  19  35  59  85 112 151 195 237 289 344
#     4  10  21  39  60  86 119 155 194 236 288 348
#     4  10  19  32  56  88 123 154 189 238 292 344
#
# _framework density 24.958507000000001
#
# number of rings (size 3 to 8) (size 9 to 14) (size 15 to 20)
#    0.000    2.250    1.250    2.250    1.750    1.500 
#    0.000   10.625    0.000    0.000    0.000    0.000 
#    0.000    0.000    0.000    0.000    0.000    0.000 
#
# Total GULP energy -178689.578278 kJ/mol
# GULP energy per Si atom -5584.049321 kJ/mol
# Density = 2.490170 g / cm^3
# Si number density = 24.958507 Si / 1000 Ang^3
#
#
#
# Elastic Constant Matrix: (Units=GPa)
#
#
# Indices 1 2 3 4 5 6 
#
# 1 31.6563 2.5971 -3.5328 0.0000 0.0000 0.0000
# 2 2.5971 142.8030 6.9537 0.0000 0.0000 0.0000
# 3 -3.5328 6.9537 22.8530 0.0000 0.0000 0.0000
# 4 0.0000 0.0000 0.0000 40.8812 0.0000 0.0000
# 5 0.0000 0.0000 0.0000 0.0000 19.0313 0.0000
# 6 0.0000 0.0000 0.0000 0.0000 0.0000 11.3664
#
#
#
# Elastic Compliance Matrix: (Units=1/GPa)
#
#
# Indices 1 2 3 4 5 6 
#
# 1 0.032243 -0.000842 0.005241 0.000000 0.000000 0.000000
# 2 -0.000842 0.007130 -0.002300 0.000000 0.000000 0.000000
# 3 0.005241 -0.002300 0.045268 0.000000 0.000000 0.000000
# 4 0.000000 0.000000 0.000000 0.024461 0.000000 0.000000
# 5 0.000000 0.000000 0.000000 0.000000 0.052545 0.000000
# 6 0.000000 0.000000 0.000000 0.000000 0.000000 0.087979
#
#
# Mechanical properties :
#
#
# Convention : Reuss Voigt Hill
#
# Bulk Modulus (GPa) = 11.25623 23.26091 17.25857
# Shear Modulus (GPa) = 18.17914 27.00873 22.59394
#
# Velocity S-wave (km/s) = 2.70177 3.29317 3.01202
# Velocity P-wave (km/s) = 3.77525 4.87852 4.36191
#
# Compressibility (1/GPa) = 0.08883972
#
# Stress axis : x y z
#
# Youngs Moduli (GPa) = 31.01428 140.25365 22.09075
#
# Poissons Ratio (x) = 0.11804 -0.11577
# Poissons Ratio (y) = 0.02610 0.05080
# Poissons Ratio (z) = -0.16253 0.32253
#
# Static dielectric constant tensor:
#      x y z
#    x 1.922300 0.000000 0.000000 
#    y 0.000000 2.020970 0.000000 
#    z 0.000000 0.000000 2.067970 
# 
# From -- ./inp_files/16559.got.cif
#   From: 2010.05.17/outbox.cif.g08.bks.cpg/sg36_9_cif.got.tgz:16559.got - 2010.06.03 17:41:39.
