data_PCOD9351419
_publ_section_title
;
Structure prediction by ZEFSAII (Michael W. Deem and Ramdas Pophale) SiO2 
 PCOD9351419
Probable space group: C M C 21
;
_chemical_formula_sum "Si O2"
_cell_formula_units_Z 40
_cell_length_a 14.016689
_cell_length_b 12.304055
_cell_length_c 12.579784
_cell_angle_alpha 90.000000
_cell_angle_beta 90.000000
_cell_angle_gamma 90.000000
_cell_volume 2169.536122
_symmetry_space_group_name_H-M "C M C 21"
_symmetry_group_IT_number 36
_symmetry_cell_setting 'orthorhombic'
loop_
_space_group_symop_operation_xyz
x,y,z
-x,-y,1/2+z
x,-y,1/2+z
-x,y,z
1/2+x,1/2+y,z
1/2-x,1/2-y,1/2+z
1/2+x,1/2-y,1/2+z
1/2-x,1/2+y,z
loop_
_atom_site_type_symbol
_atom_site_label
_atom_site_fract_x
_atom_site_fract_y
_atom_site_fract_z
Si Si1 0.500000 0.093159 0.210191
Si Si2 0.000000 0.342931 0.956103
Si Si3 0.000000 0.910352 0.509036
Si Si4 0.000000 0.765116 0.018932
Si Si5 0.500000 0.502631 0.779364
Si Si6 0.864638 0.591909 0.637466
Si Si7 0.359028 0.434867 0.112882
Si Si8 0.500000 0.757024 0.271032
O O1 0.500000 0.138113 0.330150
O O2 0.500000 0.178336 0.113945
O O3 0.591069 0.015490 0.191173
O O4 0.000000 0.215618 0.984077
O O5 0.910701 0.393958 0.020243
O O6 0.096432 0.952733 0.566709
O O7 0.000000 0.977534 0.401800
O O8 0.092017 0.841240 0.041752
O O9 0.000000 0.721002 0.898259
O O10 0.590397 0.562978 0.727575
O O11 0.500000 0.373196 0.759295
O O12 0.752192 0.581808 0.625293
O O13 0.909152 0.688703 0.710676
#
# Coordination Sequence:
#
# PCOD9351419 Si02
#       8
#     4   4   4   4   4   8   8   4
#     4  10  23  40  61  84 129 162 197 259 302 374
#     4  10  21  43  61  87 126 169 206 247 323 363
#     4  10  20  40  62  86 122 162 196 264 299 362
#     4  10  21  41  61  90 128 156 201 252 313 360
#     4  10  19  39  64  83 126 156 203 250 313 354
#     4  10  24  38  64  90 122 164 206 252 303 377
#     4  10  21  39  60  95 116 155 210 252 302 364
#     4  10  20  43  63  88 127 169 191 252 320 369
#
# _framework density 18.437121000000001
#
# number of rings (size 3 to 8) (size 9 to 14) (size 15 to 20)
#    0.000    2.400    2.000    3.600    5.600    4.800 
#    7.200    0.000    0.000    0.000    0.000    0.000 
#    0.000    0.000    0.000    0.000    0.000    0.000 
#
# Total GULP energy -111402.270184 kJ/mol
# GULP energy per Si atom -5570.113509 kJ/mol
# Density = 1.839516 g / cm^3
# Si number density = 18.437121 Si / 1000 Ang^3
#
#
#
# Elastic Constant Matrix: (Units=GPa)
#
#
# Indices 1 2 3 4 5 6 
#
# 1 200.6968 41.3809 56.4484 0.0000 0.0000 0.0000
# 2 41.3809 75.9798 37.2899 0.0000 0.0000 0.0000
# 3 56.4484 37.2899 151.7849 0.0000 0.0000 0.0000
# 4 0.0000 0.0000 0.0000 39.1269 0.0000 0.0000
# 5 0.0000 0.0000 0.0000 0.0000 0.0127 0.0000
# 6 0.0000 0.0000 0.0000 0.0000 0.0000 -1.6012
#
#
#
# Elastic Compliance Matrix: (Units=1/GPa)
#
#
# Indices 1 2 3 4 5 6 
#
# 1 0.005939 -0.002445 -0.001608 0.000000 0.000000 0.000000
# 2 -0.002445 0.015973 -0.003015 0.000000 0.000000 0.000000
# 3 -0.001608 -0.003015 0.007927 0.000000 0.000000 0.000000
# 4 0.000000 0.000000 0.000000 0.025558 0.000000 0.000000
# 5 0.000000 0.000000 0.000000 0.000000 78.608023 0.000000
# 6 0.000000 0.000000 0.000000 0.000000 0.000000 -0.624515
#
#
# Mechanical properties :
#
#
# Convention : Reuss Voigt Hill
#
# Bulk Modulus (GPa) = 63.68350 77.63334 70.65842
# Shear Modulus (GPa) = 0.06405 27.06383 13.56394
#
# Velocity S-wave (km/s) = 0.18659 3.83547 2.71530
# Velocity P-wave (km/s) = 5.88747 7.86212 6.94533
#
# Compressibility (1/GPa) = 0.01570265
#
# Stress axis : x y z
#
# Youngs Moduli (GPa) = 168.37523 62.60635 126.15271
#
# Poissons Ratio (x) = 0.15310 0.20285
# Poissons Ratio (y) = 0.41175 0.38031
# Poissons Ratio (z) = 0.27074 0.18874
#
# Static dielectric constant tensor:
#      x y z
#    x 1.601560 0.000000 0.000000 
#    y 0.000000 1.686950 0.000000 
#    z 0.000000 0.000000 1.665130 
# 
# From -- ./inp_files/8305.got.cif
#   From: 2010.05.17/outbox.cif.g08.bks.cpg/sg36_5_cif.got.tgz:8305.got - 2010.06.03 17:41:39.
