data_PCOD9351823
_publ_section_title
;
Structure prediction by ZEFSAII (Michael W. Deem and Ramdas Pophale) SiO2 
 PCOD9351823
Probable space group: C M C 21
;
_chemical_formula_sum "Si O2"
_cell_formula_units_Z 48
_cell_length_a 18.674383
_cell_length_b 5.068880
_cell_length_c 23.636361
_cell_angle_alpha 90.000000
_cell_angle_beta 90.000000
_cell_angle_gamma 90.000000
_cell_volume 2237.375540
_symmetry_space_group_name_H-M "C M C 21"
_symmetry_group_IT_number 36
_symmetry_cell_setting 'orthorhombic'
loop_
_space_group_symop_operation_xyz
x,y,z
-x,-y,1/2+z
x,-y,1/2+z
-x,y,z
1/2+x,1/2+y,z
1/2-x,1/2-y,1/2+z
1/2+x,1/2-y,1/2+z
1/2-x,1/2+y,z
loop_
_atom_site_type_symbol
_atom_site_label
_atom_site_fract_x
_atom_site_fract_y
_atom_site_fract_z
Si Si1 0.206344 0.348192 0.815710
Si Si2 0.921100 0.317114 0.473441
Si Si3 0.697468 0.263801 0.193066
Si Si4 0.914223 0.552223 0.102024
Si Si5 0.295640 0.301751 0.559227
Si Si6 0.148595 0.818931 0.436695
O O1 0.223730 0.657774 0.813896
O O2 0.168004 0.269071 0.757390
O O3 0.173175 0.270143 0.875523
O O4 0.800761 0.780098 0.491165
O O5 0.914309 0.618060 0.454305
O O6 0.000000 0.216562 0.463058
O O7 0.869224 0.126488 0.439503
O O8 0.761940 0.045596 0.188758
O O9 0.632072 0.193282 0.150900
O O10 0.738308 0.421536 0.074930
O O11 0.907424 0.697097 0.040789
O O12 0.870584 0.280926 0.087998
O O13 0.000000 0.477962 0.612872
#
# Coordination Sequence:
#
# PCOD9351823 Si02
#       6
#     8   8   8   8   8   8
#     4  10  20  36  59  85 114 147 189 243 295 341
#     4  10  22  37  55  82 119 158 192 236 294 351
#     4  10  22  41  63  86 116 155 198 244 293 345
#     4  10  22  40  60  86 120 157 198 242 293 350
#     4  11  21  35  56  85 116 147 186 234 285 341
#     4  11  20  35  58  86 116 150 193 239 291 350
#
# _framework density 21.453709
#
# number of rings (size 3 to 8) (size 9 to 14) (size 15 to 20)
#    0.000    1.667    0.000    5.500    0.000    3.333 
#    0.000    8.333    0.000    0.000    0.000    0.000 
#    0.000    0.000    0.000    0.000    0.000    0.000 
#
# Total GULP energy -133943.601481 kJ/mol
# GULP energy per Si atom -5580.983395 kJ/mol
# Density = 2.140488 g / cm^3
# Si number density = 21.453709 Si / 1000 Ang^3
#
#
#
# Elastic Constant Matrix: (Units=GPa)
#
#
# Indices 1 2 3 4 5 6 
#
# 1 99.9448 28.7005 26.1421 0.0000 0.0000 0.0000
# 2 28.7005 90.7359 -21.4613 0.0000 0.0000 0.0000
# 3 26.1421 -21.4613 112.6796 0.0000 0.0000 0.0000
# 4 0.0000 0.0000 0.0000 21.4871 0.0000 0.0000
# 5 0.0000 0.0000 0.0000 0.0000 16.8756 0.0000
# 6 0.0000 0.0000 0.0000 0.0000 0.0000 18.0739
#
#
#
# Elastic Compliance Matrix: (Units=1/GPa)
#
#
# Indices 1 2 3 4 5 6 
#
# 1 0.012378 -0.004811 -0.003788 0.000000 0.000000 0.000000
# 2 -0.004811 0.013411 0.003671 0.000000 0.000000 0.000000
# 3 -0.003788 0.003671 0.010453 0.000000 0.000000 0.000000
# 4 0.000000 0.000000 0.000000 0.046539 0.000000 0.000000
# 5 0.000000 0.000000 0.000000 0.000000 0.059257 0.000000
# 6 0.000000 0.000000 0.000000 0.000000 0.000000 0.055329
#
#
# Mechanical properties :
#
#
# Convention : Reuss Voigt Hill
#
# Bulk Modulus (GPa) = 37.90175 41.12479 39.51327
# Shear Modulus (GPa) = 23.14610 29.28592 26.21601
#
# Velocity S-wave (km/s) = 3.28820 3.69870 3.49948
# Velocity P-wave (km/s) = 5.66758 6.11974 5.89799
#
# Compressibility (1/GPa) = 0.02638401
#
# Stress axis : x y z
#
# Youngs Moduli (GPa) = 80.78864 74.56568 95.66933
#
# Poissons Ratio (x) = 0.35875 0.36241
# Poissons Ratio (y) = 0.38869 -0.35116
# Poissons Ratio (z) = 0.30604 -0.27370
#
# Static dielectric constant tensor:
#      x y z
#    x 1.782930 0.000000 0.000000 
#    y 0.000000 1.813350 0.000000 
#    z 0.000000 0.000000 1.834980 
# 
# From -- ./inp_files/16269.got.cif
#   From: 2010.05.17/outbox.cif.g08.bks.cpg/sg36_9_cif.got.tgz:16269.got - 2010.06.03 17:41:39.
