data_PCOD9351102
_publ_section_title
;
Structure prediction by ZEFSAII (Michael W. Deem and Ramdas Pophale) SiO2 
 PCOD9351102
Probable space group: C M C 21
;
_chemical_formula_sum "Si O2"
_cell_formula_units_Z 64
_cell_length_a 18.092375
_cell_length_b 9.791446
_cell_length_c 20.161931
_cell_angle_alpha 90.000000
_cell_angle_beta 90.000000
_cell_angle_gamma 90.000000
_cell_volume 3571.696416
_symmetry_space_group_name_H-M "C M C 21"
_symmetry_group_IT_number 36
_symmetry_cell_setting 'orthorhombic'
loop_
_space_group_symop_operation_xyz
x,y,z
-x,-y,1/2+z
x,-y,1/2+z
-x,y,z
1/2+x,1/2+y,z
1/2-x,1/2-y,1/2+z
1/2+x,1/2-y,1/2+z
1/2-x,1/2+y,z
loop_
_atom_site_type_symbol
_atom_site_label
_atom_site_fract_x
_atom_site_fract_y
_atom_site_fract_z
Si Si1 0.142454 0.933977 0.125000
Si Si2 0.816845 0.612200 0.613859
Si Si3 0.185523 0.680155 0.766728
Si Si4 0.088208 0.823498 0.378811
Si Si5 0.585584 0.863759 0.648903
Si Si6 0.087398 0.439184 0.802105
Si Si7 0.412202 0.674626 0.033031
Si Si8 0.669335 0.495403 0.775369
O O1 0.228950 0.909293 0.106766
O O2 0.101939 0.788972 0.126562
O O3 0.139201 0.991549 0.200258
O O4 0.105251 0.039152 0.074938
O O5 0.828953 0.675114 0.687513
O O6 0.858195 0.467242 0.614451
O O7 0.858323 0.709577 0.562487
O O8 0.124739 0.587126 0.803124
O O9 0.260082 0.594828 0.776819
O O10 0.188747 0.837300 0.787589
O O11 0.116141 0.675703 0.352663
O O12 0.105573 0.845705 0.455614
O O13 0.116183 0.942305 0.330659
O O14 0.000000 0.818162 0.372491
O O15 0.500000 0.901129 0.637346
O O16 0.599742 0.878288 0.728033
O O17 0.000000 0.455528 0.811322
O O18 0.500000 0.709282 0.039305
#
# Coordination Sequence:
#
# PCOD9351102 Si02
#       8
#     8   8   8   8   8   8   8   8
#     4  11  21  36  61  89 118 156 198 254 298 357
#     4  10  21  37  59  88 119 151 195 246 304 354
#     4  10  21  35  61  90 115 151 192 256 293 360
#     4  10  22  40  60  83 123 166 200 245 304 365
#     4  10  19  33  57  86 115 147 192 244 296 349
#     4   9  18  35  56  84 115 149 193 242 295 351
#     4  11  23  41  60  87 124 164 203 247 305 367
#     4  11  21  37  60  87 121 152 201 248 307 347
#
# _framework density 17.918655999999999
#
# number of rings (size 3 to 8) (size 9 to 14) (size 15 to 20)
#    0.000    1.750    2.500    2.250    7.000    1.500 
#    4.500    1.250    0.000    3.000    0.000    0.000 
#    0.000    0.000    0.000    0.000    0.000    0.000 
#
# Total GULP energy -178597.123214 kJ/mol
# GULP energy per Si atom -5581.160100 kJ/mol
# Density = 1.787787 g / cm^3
# Si number density = 17.918656 Si / 1000 Ang^3
#
#
#
# Elastic Constant Matrix: (Units=GPa)
#
#
# Indices 1 2 3 4 5 6 
#
# 1 42.1261 13.6658 44.5170 0.0000 0.0000 0.0000
# 2 13.6658 108.3810 51.3445 0.0000 0.0000 0.0000
# 3 44.5170 51.3445 93.7670 0.0000 0.0000 0.0000
# 4 0.0000 0.0000 0.0000 20.9940 0.0000 0.0000
# 5 0.0000 0.0000 0.0000 0.0000 22.5706 0.0000
# 6 0.0000 0.0000 0.0000 0.0000 0.0000 28.3116
#
#
#
# Elastic Compliance Matrix: (Units=1/GPa)
#
#
# Indices 1 2 3 4 5 6 
#
# 1 0.051120 0.006821 -0.028005 0.000000 0.000000 0.000000
# 2 0.006821 0.013369 -0.010559 0.000000 0.000000 0.000000
# 3 -0.028005 -0.010559 0.029742 0.000000 0.000000 0.000000
# 4 0.000000 0.000000 0.000000 0.047633 0.000000 0.000000
# 5 0.000000 0.000000 0.000000 0.000000 0.044306 0.000000
# 6 0.000000 0.000000 0.000000 0.000000 0.000000 0.035321
#
#
# Mechanical properties :
#
#
# Convention : Reuss Voigt Hill
#
# Bulk Modulus (GPa) = 32.52484 51.48098 42.00291
# Shear Modulus (GPa) = 16.93632 23.35837 20.14734
#
# Velocity S-wave (km/s) = 3.07771 3.61443 3.35681
# Velocity P-wave (km/s) = 5.55162 6.79791 6.20613
#
# Compressibility (1/GPa) = 0.03074573
#
# Stress axis : x y z
#
# Youngs Moduli (GPa) = 19.56191 74.80111 33.62225
#
# Poissons Ratio (x) = -0.51024 0.94159
# Poissons Ratio (y) = -0.13344 0.35501
# Poissons Ratio (z) = 0.54783 0.78982
#
# Static dielectric constant tensor:
#      x y z
#    x 1.661610 0.000000 0.000000 
#    y 0.000000 1.606770 0.000000 
#    z 0.000000 0.000000 1.601130 
# 
# From -- ./inp_files/15036.got.cif
#   From: 2010.05.17/outbox.cif.g08.bks.cpg/sg36_8_cif.got.tgz:15036.got - 2010.06.03 17:41:39.
