data_PCOD9351619
_publ_section_title
;
Structure prediction by ZEFSAII (Michael W. Deem and Ramdas Pophale) SiO2 
 PCOD9351619
Probable space group: C M C 21
;
_chemical_formula_sum "Si O2"
_cell_formula_units_Z 56
_cell_length_a 10.545677
_cell_length_b 14.404543
_cell_length_c 17.552789
_cell_angle_alpha 90.000000
_cell_angle_beta 90.000000
_cell_angle_gamma 90.000000
_cell_volume 2666.367959
_symmetry_space_group_name_H-M "C M C 21"
_symmetry_group_IT_number 36
_symmetry_cell_setting 'orthorhombic'
loop_
_space_group_symop_operation_xyz
x,y,z
-x,-y,1/2+z
x,-y,1/2+z
-x,y,z
1/2+x,1/2+y,z
1/2-x,1/2-y,1/2+z
1/2+x,1/2-y,1/2+z
1/2-x,1/2+y,z
loop_
_atom_site_type_symbol
_atom_site_label
_atom_site_fract_x
_atom_site_fract_y
_atom_site_fract_z
Si Si1 0.356516 0.889714 0.807970
Si Si2 0.777744 0.636163 0.687140
Si Si3 0.348604 0.654508 0.187303
Si Si4 0.860766 0.988099 0.079702
Si Si5 0.855455 0.778915 0.425866
Si Si6 0.353471 0.090182 0.860904
Si Si7 0.864356 0.393821 0.028228
O O1 0.500000 0.893979 0.773440
O O2 0.238821 0.894675 0.750602
O O3 0.348540 0.794565 0.855572
O O4 0.346342 0.978837 0.862367
O O5 0.780513 0.746679 0.679912
O O6 0.656026 0.581360 0.653406
O O7 0.818140 0.612484 0.772282
O O8 0.872267 0.605232 0.620118
O O9 0.500000 0.665061 0.205871
O O10 0.342380 0.590825 0.112472
O O11 0.000000 0.977914 0.048130
O O12 0.756803 0.958159 0.018898
O O13 0.746989 0.854278 0.412223
O O14 0.839281 0.709963 0.497836
O O15 0.000000 0.816547 0.428350
O O16 0.000000 0.618558 0.874937
O O17 0.000000 0.423247 0.997119
#
# Coordination Sequence:
#
# PCOD9351619 Si02
#       7
#     8   8   8   8   8   8   8
#     4  10  21  36  54  81 114 145 184 228 280 336
#     4  10  20  34  60  81 110 143 187 232 276 331
#     4  11  20  34  57  85 110 142 184 229 280 330
#     4   9  21  36  55  81 111 140 180 234 278 323
#     4  10  22  39  58  81 114 153 187 231 285 337
#     4  11  21  36  60  85 111 149 190 234 280 332
#     4   9  19  39  60  78 112 154 188 226 283 345
#
# _framework density 21.002351999999998
#
# number of rings (size 3 to 8) (size 9 to 14) (size 15 to 20)
#    0.857    1.143    2.857    1.286    0.000    2.857 
#    2.571    0.000    0.000    0.000    0.000    0.000 
#    0.000    0.000    0.000    0.000    0.000    0.000 
#
# Total GULP energy -155940.555448 kJ/mol
# GULP energy per Si atom -5569.305552 kJ/mol
# Density = 2.095455 g / cm^3
# Si number density = 21.002352 Si / 1000 Ang^3
#
#
#
# Elastic Constant Matrix: (Units=GPa)
#
#
# Indices 1 2 3 4 5 6 
#
# 1 78.8639 51.1619 23.3350 0.0000 0.0000 0.0000
# 2 51.1619 93.3496 -4.3642 0.0000 0.0000 0.0000
# 3 23.3350 -4.3642 53.5994 0.0000 0.0000 0.0000
# 4 0.0000 0.0000 0.0000 29.8130 0.0000 0.0000
# 5 0.0000 0.0000 0.0000 0.0000 28.1272 0.0000
# 6 0.0000 0.0000 0.0000 0.0000 0.0000 20.2827
#
#
#
# Elastic Compliance Matrix: (Units=1/GPa)
#
#
# Indices 1 2 3 4 5 6 
#
# 1 0.026023 -0.014848 -0.012538 0.000000 0.000000 0.000000
# 2 -0.014848 0.019226 0.008030 0.000000 0.000000 0.000000
# 3 -0.012538 0.008030 0.024769 0.000000 0.000000 0.000000
# 4 0.000000 0.000000 0.000000 0.033542 0.000000 0.000000
# 5 0.000000 0.000000 0.000000 0.000000 0.035553 0.000000
# 6 0.000000 0.000000 0.000000 0.000000 0.000000 0.049303
#
#
# Mechanical properties :
#
#
# Convention : Reuss Voigt Hill
#
# Bulk Modulus (GPa) = 31.94460 40.67535 36.30998
# Shear Modulus (GPa) = 21.04692 26.02325 23.53509
#
# Velocity S-wave (km/s) = 3.16907 3.52385 3.35116
# Velocity P-wave (km/s) = 5.35104 5.99715 5.68329
#
# Compressibility (1/GPa) = 0.03130420
#
# Stress axis : x y z
#
# Youngs Moduli (GPa) = 38.42802 52.01362 40.37247
#
# Poissons Ratio (x) = 0.77232 0.50620
# Poissons Ratio (y) = 0.57059 -0.32418
# Poissons Ratio (z) = 0.48182 -0.41766
#
# Static dielectric constant tensor:
#      x y z
#    x 1.797900 0.000000 0.000000 
#    y 0.000000 1.788550 0.000000 
#    z 0.000000 0.000000 1.817490 
# 
# From -- ./inp_files/15470.got.cif
#   From: 2010.05.17/outbox.cif.g08.bks.cpg/sg36_8_cif.got.tgz:15470.got - 2010.06.03 17:41:39.
