data_PCOD9351573
_publ_section_title
;
Structure prediction by ZEFSAII (Michael W. Deem and Ramdas Pophale) SiO2 
 PCOD9351573
Probable space group: C M C 21
;
_chemical_formula_sum "Si O2"
_cell_formula_units_Z 56
_cell_length_a 22.754274
_cell_length_b 24.807229
_cell_length_c 4.951266
_cell_angle_alpha 90.000000
_cell_angle_beta 90.000000
_cell_angle_gamma 90.000000
_cell_volume 2794.843525
_symmetry_space_group_name_H-M "C M C 21"
_symmetry_group_IT_number 36
_symmetry_cell_setting 'orthorhombic'
loop_
_space_group_symop_operation_xyz
x,y,z
-x,-y,1/2+z
x,-y,1/2+z
-x,y,z
1/2+x,1/2+y,z
1/2-x,1/2-y,1/2+z
1/2+x,1/2-y,1/2+z
1/2-x,1/2+y,z
loop_
_atom_site_type_symbol
_atom_site_label
_atom_site_fract_x
_atom_site_fract_y
_atom_site_fract_z
Si Si1 0.931877 0.641978 0.734850
Si Si2 0.601721 0.792928 0.724720
Si Si3 0.566077 0.684652 0.447295
Si Si4 0.629756 0.643498 0.947109
Si Si5 0.067888 0.037259 0.115740
Si Si6 0.715692 0.265763 0.456760
Si Si7 0.571342 0.031756 0.462737
O O1 0.929415 0.685398 0.493269
O O2 0.909157 0.587392 0.595294
O O3 0.000000 0.634382 0.821063
O O4 0.896470 0.660856 0.997096
O O5 0.569386 0.744299 0.569663
O O6 0.663630 0.769210 0.823073
O O7 0.500000 0.664210 0.460844
O O8 0.589729 0.680874 0.144186
O O9 0.607534 0.649582 0.641496
O O10 0.614393 0.583800 0.047254
O O11 0.692945 0.672469 0.967052
O O12 0.000000 0.057301 0.080700
O O13 0.074356 0.013011 0.412843
O O14 0.730404 0.243961 0.753315
O O15 0.500000 0.034481 0.459986
O O16 0.589090 0.016944 0.161157
#
# Coordination Sequence:
#
# PCOD9351573 Si02
#       7
#     8   8   8   8   8   8   8
#     4  11  20  32  51  78 113 142 170 212 264 330
#     4  11  22  34  51  79 106 138 177 215 275 335
#     4  11  20  32  51  78 117 150 174 208 255 330
#     4  11  22  36  56  83 110 150 194 225 273 329
#     4  10  20  34  54  84 122 155 184 222 271 337
#     4  11  23  41  59  78 104 137 188 245 285 324
#     4   9  17  29  45  68  99 138 177 205 236 289
#
# _framework density 20.036899999999999
#
# number of rings (size 3 to 8) (size 9 to 14) (size 15 to 20)
#    0.000    1.429    0.000    8.571    0.000    3.429 
#    0.000    0.000    0.000    0.000    0.000   20.000 
#    0.000    0.000    0.000    0.000    0.000    0.000 
#
# Total GULP energy -156379.093740 kJ/mol
# GULP energy per Si atom -5584.967634 kJ/mol
# Density = 1.999130 g / cm^3
# Si number density = 20.036900 Si / 1000 Ang^3
#
#
#
# Elastic Constant Matrix: (Units=GPa)
#
#
# Indices 1 2 3 4 5 6 
#
# 1 34.5977 14.8123 -3.6154 0.0000 0.0000 0.0000
# 2 14.8123 73.9432 0.5352 0.0000 0.0000 0.0000
# 3 -3.6154 0.5352 72.8541 0.0000 0.0000 0.0000
# 4 0.0000 0.0000 0.0000 34.7980 0.0000 0.0000
# 5 0.0000 0.0000 0.0000 0.0000 31.0417 0.0000
# 6 0.0000 0.0000 0.0000 0.0000 0.0000 22.4110
#
#
#
# Elastic Compliance Matrix: (Units=1/GPa)
#
#
# Indices 1 2 3 4 5 6 
#
# 1 0.031806 -0.006383 0.001625 0.000000 0.000000 0.000000
# 2 -0.006383 0.014806 -0.000426 0.000000 0.000000 0.000000
# 3 0.001625 -0.000426 0.013810 0.000000 0.000000 0.000000
# 4 0.000000 0.000000 0.000000 0.028737 0.000000 0.000000
# 5 0.000000 0.000000 0.000000 0.000000 0.032215 0.000000
# 6 0.000000 0.000000 0.000000 0.000000 0.000000 0.044621
#
#
# Mechanical properties :
#
#
# Convention : Reuss Voigt Hill
#
# Bulk Modulus (GPa) = 19.97805 22.76213 21.37009
# Shear Modulus (GPa) = 25.90050 28.96101 27.43076
#
# Velocity S-wave (km/s) = 3.59923 3.80594 3.70403
# Velocity P-wave (km/s) = 5.22158 5.54061 5.38346
#
# Compressibility (1/GPa) = 0.05005494
#
# Stress axis : x y z
#
# Youngs Moduli (GPa) = 31.44033 67.54180 72.41206
#
# Poissons Ratio (x) = 0.43113 -0.11769
# Poissons Ratio (y) = 0.20069 0.03081
# Poissons Ratio (z) = -0.05110 0.02874
#
# Static dielectric constant tensor:
#      x y z
#    x 1.764960 0.000000 0.000000 
#    y 0.000000 1.766450 0.000000 
#    z 0.000000 0.000000 1.693220 
# 
# From -- ./inp_files/1407.got.cif
#   From: 2010.05.17/outbox.cif.g08.bks.cpg/sg36_1_cif.got.tgz:1407.got - 2010.06.03 17:41:39.
