data_PCOD9351756
_publ_section_title
;
Structure prediction by ZEFSAII (Michael W. Deem and Ramdas Pophale) SiO2 
 PCOD9351756
Probable space group: C M C 21
;
_chemical_formula_sum "Si O2"
_cell_formula_units_Z 56
_cell_length_a 13.575964
_cell_length_b 21.887890
_cell_length_c 9.196431
_cell_angle_alpha 90.000000
_cell_angle_beta 90.000000
_cell_angle_gamma 90.000000
_cell_volume 2732.712176
_symmetry_space_group_name_H-M "C M C 21"
_symmetry_group_IT_number 36
_symmetry_cell_setting 'orthorhombic'
loop_
_space_group_symop_operation_xyz
x,y,z
-x,-y,1/2+z
x,-y,1/2+z
-x,y,z
1/2+x,1/2+y,z
1/2-x,1/2-y,1/2+z
1/2+x,1/2-y,1/2+z
1/2-x,1/2+y,z
loop_
_atom_site_type_symbol
_atom_site_label
_atom_site_fract_x
_atom_site_fract_y
_atom_site_fract_z
Si Si1 0.610571 0.674563 0.429020
Si Si2 0.673571 0.851111 0.834093
Si Si3 0.827969 0.690697 0.020640
Si Si4 0.890521 0.773386 0.471446
Si Si5 0.606838 0.619123 0.744312
Si Si6 0.690717 0.926047 0.338211
Si Si7 0.115512 0.533026 0.523845
O O1 0.500000 0.665548 0.368501
O O2 0.707615 0.656571 0.339692
O O3 0.622626 0.745518 0.476470
O O4 0.618393 0.634469 0.575659
O O5 0.636896 0.839543 0.670521
O O6 0.626948 0.796547 0.929169
O O7 0.644318 0.913824 0.910258
O O8 0.711349 0.705859 0.045292
O O9 0.839484 0.641612 0.891737
O O10 0.890685 0.815809 0.327538
O O11 0.000000 0.780604 0.538889
O O12 0.500000 0.591372 0.771339
O O13 0.693870 0.578439 0.804090
O O14 0.669913 0.972523 0.468401
O O15 0.640631 0.946871 0.188084
O O16 0.000000 0.521437 0.513827
#
# Coordination Sequence:
#
# PCOD9351756 Si02
#       7
#     8   8   8   8   8   8   8
#     4  10  20  35  60  92 127 166 203 253 322 388
#     4  11  21  37  58  92 124 164 207 261 313 372
#     4  10  22  36  62  92 129 161 206 258 317 377
#     4   9  18  33  57  86 124 164 203 247 310 376
#     4   9  17  37  64  90 121 161 201 256 322 377
#     4  11  24  45  63  90 125 168 215 267 310 371
#     4  12  26  43  64  86 122 170 217 262 312 367
#
# _framework density 20.492460999999999
#
# number of rings (size 3 to 8) (size 9 to 14) (size 15 to 20)
#    0.000    1.714    2.857    1.714    0.000    2.286 
#    0.000    1.429    0.000    1.714    0.000    0.000 
#    0.000    0.000    0.000    0.000    0.000    0.000 
#
# Total GULP energy -156310.303583 kJ/mol
# GULP energy per Si atom -5582.510842 kJ/mol
# Density = 2.044582 g / cm^3
# Si number density = 20.492461 Si / 1000 Ang^3
#
#
#
# Elastic Constant Matrix: (Units=GPa)
#
#
# Indices 1 2 3 4 5 6 
#
# 1 97.0852 37.7561 9.7716 0.0000 0.0000 0.0000
# 2 37.7561 64.7793 8.5690 0.0000 0.0000 0.0000
# 3 9.7716 8.5690 26.2021 0.0000 0.0000 0.0000
# 4 0.0000 0.0000 0.0000 9.4677 0.0000 0.0000
# 5 0.0000 0.0000 0.0000 0.0000 8.0583 0.0000
# 6 0.0000 0.0000 0.0000 0.0000 0.0000 20.7796
#
#
#
# Elastic Compliance Matrix: (Units=1/GPa)
#
#
# Indices 1 2 3 4 5 6 
#
# 1 0.013483 -0.007518 -0.002569 0.000000 0.000000 0.000000
# 2 -0.007518 0.020328 -0.003844 0.000000 0.000000 0.000000
# 3 -0.002569 -0.003844 0.040380 0.000000 0.000000 0.000000
# 4 0.000000 0.000000 0.000000 0.105622 0.000000 0.000000
# 5 0.000000 0.000000 0.000000 0.000000 0.124095 0.000000
# 6 0.000000 0.000000 0.000000 0.000000 0.000000 0.048124
#
#
# Mechanical properties :
#
#
# Convention : Reuss Voigt Hill
#
# Bulk Modulus (GPa) = 21.58568 33.36224 27.47396
# Shear Modulus (GPa) = 12.64741 16.45911 14.55326
#
# Velocity S-wave (km/s) = 2.48699 2.83712 2.66780
# Velocity P-wave (km/s) = 4.33626 5.20076 4.78806
#
# Compressibility (1/GPa) = 0.04632702
#
# Stress axis : x y z
#
# Youngs Moduli (GPa) = 74.16897 49.19423 24.76457
#
# Poissons Ratio (x) = 0.36986 0.06363
# Poissons Ratio (y) = 0.55763 0.09519
# Poissons Ratio (z) = 0.19057 0.18910
#
# Static dielectric constant tensor:
#      x y z
#    x 1.751130 0.000000 0.000000 
#    y 0.000000 1.699140 0.000000 
#    z 0.000000 0.000000 1.729420 
# 
# From -- ./inp_files/4191.got.cif
#   From: 2010.05.17/outbox.cif.g08.bks.cpg/sg36_3_cif.got.tgz:4191.got - 2010.06.03 17:41:39.
