data_PCOD9351970
_publ_section_title
;
Structure prediction by ZEFSAII (Michael W. Deem and Ramdas Pophale) SiO2 
 PCOD9351970
Probable space group: C M C 21
;
_chemical_formula_sum "Si O2"
_cell_formula_units_Z 64
_cell_length_a 12.602777
_cell_length_b 17.421166
_cell_length_c 14.715351
_cell_angle_alpha 90.000000
_cell_angle_beta 90.000000
_cell_angle_gamma 90.000000
_cell_volume 3230.829921
_symmetry_space_group_name_H-M "C M C 21"
_symmetry_group_IT_number 36
_symmetry_cell_setting 'orthorhombic'
loop_
_space_group_symop_operation_xyz
x,y,z
-x,-y,1/2+z
x,-y,1/2+z
-x,y,z
1/2+x,1/2+y,z
1/2-x,1/2-y,1/2+z
1/2+x,1/2-y,1/2+z
1/2-x,1/2+y,z
loop_
_atom_site_type_symbol
_atom_site_label
_atom_site_fract_x
_atom_site_fract_y
_atom_site_fract_z
Si Si1 0.113885 0.875421 0.939720
Si Si2 0.381655 0.666967 0.646089
Si Si3 0.128224 0.833288 0.450722
Si Si4 0.258187 0.013292 0.912465
Si Si5 0.748832 0.820432 0.639792
Si Si6 0.818886 0.407284 0.237692
Si Si7 0.693894 0.244971 0.826235
Si Si8 0.620549 0.970688 0.597274
O O1 0.129676 0.790426 0.901815
O O2 0.000000 0.905414 0.908810
O O3 0.205190 0.930982 0.907664
O O4 0.116276 0.873064 0.048259
O O5 0.500000 0.667828 0.684929
O O6 0.338322 0.752774 0.629828
O O7 0.297780 0.621024 0.706400
O O8 0.169836 0.920264 0.431603
O O9 0.170361 0.814157 0.553627
O O10 0.196867 0.782298 0.377795
O O11 0.000000 0.826001 0.443829
O O12 0.312610 0.032439 0.818168
O O13 0.340084 0.016639 0.995052
O O14 0.793586 0.801118 0.739658
O O15 0.696519 0.904229 0.636539
O O16 0.862533 0.330019 0.284139
O O17 0.870126 0.449778 0.152732
O O18 0.500000 0.943634 0.600031
#
# Coordination Sequence:
#
# PCOD9351970 Si02
#       8
#     8   8   8   8   8   8   8   8
#     4  11  21  37  60  87 120 159 200 245 304 360
#     4  10  20  37  63  88 117 160 204 247 301 358
#     4  10  21  39  62  88 121 162 204 256 314 364
#     4  10  22  40  62  88 120 157 204 254 299 363
#     4  10  21  39  60  88 123 157 206 255 296 365
#     4  10  22  41  61  90 124 154 202 257 304 362
#     4  10  22  39  61  90 123 158 202 257 309 366
#     4  11  23  40  61  87 122 163 202 249 305 362
#
# _framework density 19.809152000000001
#
# number of rings (size 3 to 8) (size 9 to 14) (size 15 to 20)
#    0.000    1.750    2.500    1.500    0.000    7.000 
#    0.000    5.000    0.000    0.000    0.000    0.000 
#    0.000    0.000    0.000    0.000    0.000    0.000 
#
# Total GULP energy -178458.947546 kJ/mol
# GULP energy per Si atom -5576.842111 kJ/mol
# Density = 1.976407 g / cm^3
# Si number density = 19.809152 Si / 1000 Ang^3
#
#
#
# Elastic Constant Matrix: (Units=GPa)
#
#
# Indices 1 2 3 4 5 6 
#
# 1 49.7016 -5.5921 18.7332 0.0000 0.0000 0.0000
# 2 -5.5921 36.1049 13.0218 0.0000 0.0000 0.0000
# 3 18.7332 13.0218 106.3686 0.0000 0.0000 0.0000
# 4 0.0000 0.0000 0.0000 40.3503 0.0000 0.0000
# 5 0.0000 0.0000 0.0000 0.0000 -8.5990 0.0000
# 6 0.0000 0.0000 0.0000 0.0000 0.0000 24.1228
#
#
#
# Elastic Compliance Matrix: (Units=1/GPa)
#
#
# Indices 1 2 3 4 5 6 
#
# 1 0.022421 0.005123 -0.004576 0.000000 0.000000 0.000000
# 2 0.005123 0.030147 -0.004593 0.000000 0.000000 0.000000
# 3 -0.004576 -0.004593 0.010769 0.000000 0.000000 0.000000
# 4 0.000000 0.000000 0.000000 0.024783 0.000000 0.000000
# 5 0.000000 0.000000 0.000000 0.000000 -0.116293 0.000000
# 6 0.000000 0.000000 0.000000 0.000000 0.000000 0.041455
#
#
# Mechanical properties :
#
#
# Convention : Reuss Voigt Hill
#
# Bulk Modulus (GPa) = 18.10077 27.16675 22.63376
# Shear Modulus (GPa) = 125.66186 22.24230 73.95208
#
# Velocity S-wave (km/s) = 7.97333 3.35450 6.11664
# Velocity P-wave (km/s) = 9.69137 5.36168 7.83168
#
# Compressibility (1/GPa) = 0.05524626
#
# Stress axis : x y z
#
# Youngs Moduli (GPa) = 44.60061 33.17072 92.85545
#
# Poissons Ratio (x) = -0.16994 0.42490
# Poissons Ratio (y) = -0.22849 0.42648
# Poissons Ratio (z) = 0.20409 0.15235
#
# Static dielectric constant tensor:
#      x y z
#    x 1.734920 0.000000 0.000000 
#    y 0.000000 1.691120 0.000000 
#    z 0.000000 0.000000 1.706020 
# 
# From -- ./inp_files/11797.got.cif
#   From: 2010.05.17/outbox.cif.g08.bks.cpg/sg36_6_cif.got.tgz:11797.got - 2010.06.03 17:41:39.
