data_PCOD9351627
_publ_section_title
;
Structure prediction by ZEFSAII (Michael W. Deem and Ramdas Pophale) SiO2 
 PCOD9351627
Probable space group: C M C 21
;
_chemical_formula_sum "Si O2"
_cell_formula_units_Z 64
_cell_length_a 22.113981
_cell_length_b 19.016394
_cell_length_c 8.298294
_cell_angle_alpha 90.000000
_cell_angle_beta 90.000000
_cell_angle_gamma 90.000000
_cell_volume 3489.666436
_symmetry_space_group_name_H-M "C M C 21"
_symmetry_group_IT_number 36
_symmetry_cell_setting 'orthorhombic'
loop_
_space_group_symop_operation_xyz
x,y,z
-x,-y,1/2+z
x,-y,1/2+z
-x,y,z
1/2+x,1/2+y,z
1/2-x,1/2-y,1/2+z
1/2+x,1/2-y,1/2+z
1/2-x,1/2+y,z
loop_
_atom_site_type_symbol
_atom_site_label
_atom_site_fract_x
_atom_site_fract_y
_atom_site_fract_z
Si Si1 0.932001 0.091591 0.424840
Si Si2 0.745534 0.103299 0.223266
Si Si3 0.862579 0.198714 0.257452
Si Si4 0.386875 0.545280 0.749834
Si Si5 0.755608 0.041742 0.583179
Si Si6 0.713658 0.816551 0.178393
Si Si7 0.928242 0.179452 0.930392
Si Si8 0.677066 0.231021 0.316261
O O1 0.891928 0.161283 0.410014
O O2 0.931754 0.064155 0.605642
O O3 0.000000 0.103245 0.368227
O O4 0.900776 0.031284 0.318422
O O5 0.804884 0.151806 0.201070
O O6 0.754932 0.066709 0.398181
O O7 0.689852 0.157736 0.225857
O O8 0.738715 0.039667 0.099767
O O9 0.836390 0.276226 0.283524
O O10 0.911642 0.195181 0.115709
O O11 0.321166 0.547794 0.667688
O O12 0.399345 0.603845 0.884867
O O13 0.713869 0.099552 0.671722
O O14 0.778506 0.789007 0.239107
O O15 0.700879 0.786979 0.997715
O O16 0.889684 0.237220 0.830523
O O17 0.000000 0.179610 0.902543
#
# Coordination Sequence:
#
# PCOD9351627 Si02
#       8
#     8   8   8   8   8   8   8   8
#     4  12  23  35  48  67 102 141 178 207 238 289
#     4  10  21  33  52  75 102 132 167 210 257 305
#     4  10  20  35  50  74 100 134 171 208 255 298
#     4  12  22  35  47  71  98 141 174 207 241 296
#     4  11  19  34  51  75 101 133 162 207 258 301
#     4   9  19  32  53  72 101 127 164 210 256 304
#     4  11  22  35  53  75 103 138 177 210 251 306
#     4   9  19  35  51  75 100 132 170 209 258 301
#
# _framework density 18.339860999999999
#
# number of rings (size 3 to 8) (size 9 to 14) (size 15 to 20)
#    0.000    1.500    3.750    2.250    1.750    1.000 
#    0.000    0.000    0.000    0.000    0.000    8.750 
#    0.000    0.000    0.000    0.000    0.000    0.000 
#
# Total GULP energy -178664.665455 kJ/mol
# GULP energy per Si atom -5583.270795 kJ/mol
# Density = 1.829812 g / cm^3
# Si number density = 18.339861 Si / 1000 Ang^3
#
#
#
# Elastic Constant Matrix: (Units=GPa)
#
#
# Indices 1 2 3 4 5 6 
#
# 1 41.4835 12.9374 6.0679 0.0000 0.0000 0.0000
# 2 12.9374 54.7915 -7.4859 0.0000 0.0000 0.0000
# 3 6.0679 -7.4859 19.1188 0.0000 0.0000 0.0000
# 4 0.0000 0.0000 0.0000 23.1986 0.0000 0.0000
# 5 0.0000 0.0000 0.0000 0.0000 20.9919 0.0000
# 6 0.0000 0.0000 0.0000 0.0000 0.0000 11.3770
#
#
#
# Elastic Compliance Matrix: (Units=1/GPa)
#
#
# Indices 1 2 3 4 5 6 
#
# 1 0.028542 -0.008428 -0.012358 0.000000 0.000000 0.000000
# 2 -0.008428 0.021771 0.011199 0.000000 0.000000 0.000000
# 3 -0.012358 0.011199 0.060612 0.000000 0.000000 0.000000
# 4 0.000000 0.000000 0.000000 0.043106 0.000000 0.000000
# 5 0.000000 0.000000 0.000000 0.000000 0.047637 0.000000
# 6 0.000000 0.000000 0.000000 0.000000 0.000000 0.087896
#
#
# Mechanical properties :
#
#
# Convention : Reuss Voigt Hill
#
# Bulk Modulus (GPa) = 10.89907 15.38138 13.14023
# Shear Modulus (GPa) = 14.73524 18.03848 16.38686
#
# Velocity S-wave (km/s) = 2.83760 3.13959 2.99241
# Velocity P-wave (km/s) = 4.08555 4.64196 4.37261
#
# Compressibility (1/GPa) = 0.09175091
#
# Stress axis : x y z
#
# Youngs Moduli (GPa) = 35.03606 45.93251 16.49839
#
# Poissons Ratio (x) = 0.38711 0.20390
# Poissons Ratio (y) = 0.29528 -0.18477
# Poissons Ratio (z) = 0.43299 -0.51441
#
# Static dielectric constant tensor:
#      x y z
#    x 1.631290 0.000000 0.000000 
#    y 0.000000 1.653350 0.000000 
#    z 0.000000 0.000000 1.704890 
# 
# From -- ./inp_files/5336.got.cif
#   From: 2010.05.17/outbox.cif.g08.bks.cpg/sg36_3_cif.got.tgz:5336.got - 2010.06.03 17:41:39.
