data_PCOD9351522
_publ_section_title
;
Structure prediction by ZEFSAII (Michael W. Deem and Ramdas Pophale) SiO2 
 PCOD9351522
Probable space group: C M C 21
;
_chemical_formula_sum "Si O2"
_cell_formula_units_Z 56
_cell_length_a 21.740713
_cell_length_b 17.617478
_cell_length_c 8.087756
_cell_angle_alpha 90.000000
_cell_angle_beta 90.000000
_cell_angle_gamma 90.000000
_cell_volume 3097.744263
_symmetry_space_group_name_H-M "C M C 21"
_symmetry_group_IT_number 36
_symmetry_cell_setting 'orthorhombic'
loop_
_space_group_symop_operation_xyz
x,y,z
-x,-y,1/2+z
x,-y,1/2+z
-x,y,z
1/2+x,1/2+y,z
1/2-x,1/2-y,1/2+z
1/2+x,1/2-y,1/2+z
1/2-x,1/2+y,z
loop_
_atom_site_type_symbol
_atom_site_label
_atom_site_fract_x
_atom_site_fract_y
_atom_site_fract_z
Si Si1 0.881516 0.194682 0.012740
Si Si2 0.747049 0.459937 0.786112
Si Si3 0.193344 0.750573 0.058133
Si Si4 0.687293 0.826749 0.919891
Si Si5 0.877229 0.874528 0.878424
Si Si6 0.000000 0.886012 0.383922
Si Si7 0.254260 0.615058 0.926649
Si Si8 0.500000 0.549597 0.514726
O O1 0.884022 0.166531 0.201436
O O2 0.820790 0.155128 0.933405
O O3 0.871431 0.285189 0.997744
O O4 0.940354 0.164095 0.918314
O O5 0.800779 0.415143 0.885128
O O6 0.681444 0.430944 0.859800
O O7 0.749533 0.430323 0.599522
O O8 0.751051 0.550089 0.792063
O O9 0.192050 0.712029 0.237059
O O10 0.202851 0.680432 0.930960
O O11 0.255747 0.798360 0.031671
O O12 0.139841 0.808490 0.009737
O O13 0.938373 0.919019 0.927892
O O14 0.000000 0.920835 0.201540
O O15 0.000000 0.958676 0.505509
#
# Coordination Sequence:
#
# PCOD9351522 Si02
#       8
#     8   8   8   8   8   4   8   4
#     4  10  20  34  49  68  94 127 164 200 236 281
#     4   9  18  29  45  69  96 123 154 192 236 280
#     4   9  17  30  46  67  93 123 158 197 239 285
#     4   9  17  30  46  67  93 123 158 197 239 285
#     4  10  20  34  49  68  94 127 164 200 236 281
#     4  12  24  36  50  70  97 130 163 198 234 276
#     4   9  18  29  45  69  96 123 154 192 236 280
#     4  12  24  36  50  70  97 130 163 198 234 276
#
# _framework density 18.077669
#
# number of rings (size 3 to 8) (size 9 to 14) (size 15 to 20)
#    0.000    2.286    0.000    5.571    0.000    9.143 
#    0.000    0.000    0.000    0.000    0.000    1.000 
#    0.000    0.000    0.000    0.000    0.000    0.000 
#
# Total GULP energy -156209.143280 kJ/mol
# GULP energy per Si atom -5578.897974 kJ/mol
# Density = 1.803652 g / cm^3
# Si number density = 18.077669 Si / 1000 Ang^3
#
#
#
# Elastic Constant Matrix: (Units=GPa)
#
#
# Indices 1 2 3 4 5 6 
#
# 1 59.1111 23.0454 4.4994 0.0000 0.0000 0.0000
# 2 23.0454 56.6484 3.6649 0.0000 0.0000 0.0000
# 3 4.4994 3.6649 40.0690 0.0000 0.0000 0.0000
# 4 0.0000 0.0000 0.0000 28.5193 0.0000 0.0000
# 5 0.0000 0.0000 0.0000 0.0000 16.8039 0.0000
# 6 0.0000 0.0000 0.0000 0.0000 0.0000 22.5351
#
#
#
# Elastic Compliance Matrix: (Units=1/GPa)
#
#
# Indices 1 2 3 4 5 6 
#
# 1 0.020198 -0.008118 -0.001526 0.000000 0.000000 0.000000
# 2 -0.008118 0.021021 -0.001011 0.000000 0.000000 0.000000
# 3 -0.001526 -0.001011 0.025221 0.000000 0.000000 0.000000
# 4 0.000000 0.000000 0.000000 0.035064 0.000000 0.000000
# 5 0.000000 0.000000 0.000000 0.000000 0.059510 0.000000
# 6 0.000000 0.000000 0.000000 0.000000 0.000000 0.044375
#
#
# Mechanical properties :
#
#
# Convention : Reuss Voigt Hill
#
# Bulk Modulus (GPa) = 22.15817 24.24978 23.20397
# Shear Modulus (GPa) = 20.68318 21.87958 21.28138
#
# Velocity S-wave (km/s) = 3.38617 3.48273 3.43479
# Velocity P-wave (km/s) = 5.25090 5.44204 5.34733
#
# Compressibility (1/GPa) = 0.04513008
#
# Stress axis : x y z
#
# Youngs Moduli (GPa) = 49.50869 47.57187 39.64994
#
# Poissons Ratio (x) = 0.38620 0.06049
# Poissons Ratio (y) = 0.40193 0.04009
# Poissons Ratio (z) = 0.07553 0.04810
#
# Static dielectric constant tensor:
#      x y z
#    x 1.593300 0.000000 0.000000 
#    y 0.000000 1.658290 0.000000 
#    z 0.000000 0.000000 1.684500 
# 
# From -- ./inp_files/5239.got.cif
#   From: 2010.05.17/outbox.cif.g08.bks.cpg/sg36_3_cif.got.tgz:5239.got - 2010.06.03 17:41:39.
