data_PCOD9351072
_publ_section_title
;
Structure prediction by ZEFSAII (Michael W. Deem and Ramdas Pophale) SiO2 
 PCOD9351072
Probable space group: C M C 21
;
_chemical_formula_sum "Si O2"
_cell_formula_units_Z 64
_cell_length_a 7.586131
_cell_length_b 22.114365
_cell_length_c 14.445249
_cell_angle_alpha 90.000000
_cell_angle_beta 90.000000
_cell_angle_gamma 90.000000
_cell_volume 2423.370650
_symmetry_space_group_name_H-M "C M C 21"
_symmetry_group_IT_number 36
_symmetry_cell_setting 'orthorhombic'
loop_
_space_group_symop_operation_xyz
x,y,z
-x,-y,1/2+z
x,-y,1/2+z
-x,y,z
1/2+x,1/2+y,z
1/2-x,1/2-y,1/2+z
1/2+x,1/2-y,1/2+z
1/2-x,1/2+y,z
loop_
_atom_site_type_symbol
_atom_site_label
_atom_site_fract_x
_atom_site_fract_y
_atom_site_fract_z
Si Si1 0.788076 0.652825 0.166090
Si Si2 0.708537 0.415160 0.493901
Si Si3 0.285421 0.535440 0.383777
Si Si4 0.795782 0.767862 0.055065
Si Si5 0.797812 0.972312 0.211966
Si Si6 0.202678 0.351110 0.315728
Si Si7 0.794588 0.282251 0.843256
Si Si8 0.282444 0.396445 0.050768
O O1 0.745860 0.595321 0.101973
O O2 0.718874 0.708454 0.101785
O O3 0.722268 0.668544 0.269476
O O4 0.000000 0.654318 0.172318
O O5 0.500000 0.411491 0.482468
O O6 0.764418 0.478046 0.447576
O O7 0.789138 0.364307 0.426548
O O8 0.500000 0.536213 0.377579
O O9 0.216535 0.521270 0.281558
O O10 0.229465 0.591966 0.444934
O O11 0.719410 0.832083 0.086644
O O12 0.000000 0.767133 0.082396
O O13 0.790682 0.773678 0.943731
O O14 0.798639 0.908563 0.269583
O O15 0.718591 0.950289 0.116160
O O16 0.000000 0.990272 0.193892
O O17 0.278312 0.284727 0.297297
O O18 0.000000 0.353279 0.287799
O O19 0.000000 0.293828 0.859229
O O20 0.500000 0.397052 0.053322
#
# Coordination Sequence:
#
# PCOD9351072 Si02
#       8
#     8   8   8   8   8   8   8   8
#     4  10  21  36  54  78 111 148 182 220 278 342
#     4  10  19  33  55  81 107 138 182 229 273 322
#     4   8  16  31  52  82 109 134 180 233 273 321
#     4  10  20  35  55  80 110 146 185 228 277 334
#     4   9  17  32  56  81 106 144 189 230 279 329
#     4  11  20  32  53  79 109 142 182 230 274 320
#     4  11  22  36  54  79 112 149 183 222 278 337
#     4   9  17  33  55  80 112 147 183 230 284 329
#
# _framework density 26.409497999999999
#
# number of rings (size 3 to 8) (size 9 to 14) (size 15 to 20)
#    0.000    2.250    1.250    3.375    0.000    3.000 
#    2.250    1.875    0.000    7.500    0.000    0.000 
#    0.000    0.000    0.000    0.000    0.000    0.000 
#
# Total GULP energy -178923.500345 kJ/mol
# GULP energy per Si atom -5591.359386 kJ/mol
# Density = 2.634939 g / cm^3
# Si number density = 26.409498 Si / 1000 Ang^3
#
#
#
# Elastic Constant Matrix: (Units=GPa)
#
#
# Indices 1 2 3 4 5 6 
#
# 1 87.3718 0.3452 1.1856 0.0000 0.0000 0.0000
# 2 0.3452 60.4326 16.6547 0.0000 0.0000 0.0000
# 3 1.1856 16.6547 145.7125 0.0000 0.0000 0.0000
# 4 0.0000 0.0000 0.0000 54.7014 0.0000 0.0000
# 5 0.0000 0.0000 0.0000 0.0000 19.5679 0.0000
# 6 0.0000 0.0000 0.0000 0.0000 0.0000 4.3219
#
#
#
# Elastic Compliance Matrix: (Units=1/GPa)
#
#
# Indices 1 2 3 4 5 6 
#
# 1 0.011447 -0.000041 -0.000088 0.000000 0.000000 0.000000
# 2 -0.000041 0.017086 -0.001953 0.000000 0.000000 0.000000
# 3 -0.000088 -0.001953 0.007087 0.000000 0.000000 0.000000
# 4 0.000000 0.000000 0.000000 0.018281 0.000000 0.000000
# 5 0.000000 0.000000 0.000000 0.000000 0.051104 0.000000
# 6 0.000000 0.000000 0.000000 0.000000 0.000000 0.231382
#
#
# Mechanical properties :
#
#
# Convention : Reuss Voigt Hill
#
# Bulk Modulus (GPa) = 31.79130 36.65420 34.22275
# Shear Modulus (GPa) = 14.24357 34.07366 24.15862
#
# Velocity S-wave (km/s) = 2.32488 3.59584 3.02780
# Velocity P-wave (km/s) = 4.38984 5.58116 5.02096
#
# Compressibility (1/GPa) = 0.03145515
#
# Stress axis : x y z
#
# Youngs Moduli (GPa) = 87.36140 58.52845 141.10897
#
# Poissons Ratio (x) = 0.00240 0.01248
# Poissons Ratio (y) = 0.00358 0.27552
# Poissons Ratio (z) = 0.00773 0.11428
#
# Static dielectric constant tensor:
#      x y z
#    x 1.952200 0.000000 0.000000 
#    y 0.000000 2.109600 0.000000 
#    z 0.000000 0.000000 2.133990 
# 
# From -- ./inp_files/10997.got.cif
#   From: 2010.05.17/outbox.cif.g08.bks.cpg/sg36_6_cif.got.tgz:10997.got - 2010.06.03 17:41:39.
