data_PCOD9351611
_publ_section_title
;
Structure prediction by ZEFSAII (Michael W. Deem and Ramdas Pophale) SiO2 
 PCOD9351611
Probable space group: C M C 21
;
_chemical_formula_sum "Si O2"
_cell_formula_units_Z 64
_cell_length_a 19.780761
_cell_length_b 18.833726
_cell_length_c 10.013518
_cell_angle_alpha 90.000000
_cell_angle_beta 90.000000
_cell_angle_gamma 90.000000
_cell_volume 3730.490397
_symmetry_space_group_name_H-M "C M C 21"
_symmetry_group_IT_number 36
_symmetry_cell_setting 'orthorhombic'
loop_
_space_group_symop_operation_xyz
x,y,z
-x,-y,1/2+z
x,-y,1/2+z
-x,y,z
1/2+x,1/2+y,z
1/2-x,1/2-y,1/2+z
1/2+x,1/2-y,1/2+z
1/2-x,1/2+y,z
loop_
_atom_site_type_symbol
_atom_site_label
_atom_site_fract_x
_atom_site_fract_y
_atom_site_fract_z
Si Si1 0.862241 0.342021 0.474470
Si Si2 0.663948 0.790722 0.757290
Si Si3 0.239514 0.002936 0.308556
Si Si4 0.422927 0.760577 0.242027
Si Si5 0.419658 0.861862 0.991310
Si Si6 0.835599 0.498693 0.056062
Si Si7 0.812928 0.855535 0.706708
Si Si8 0.792443 0.851233 0.393509
O O1 0.866169 0.296015 0.609025
O O2 0.913565 0.315484 0.363557
O O3 0.865841 0.424452 0.517819
O O4 0.787392 0.333525 0.410240
O O5 0.620007 0.837363 0.859346
O O6 0.739542 0.822699 0.743071
O O7 0.671210 0.711987 0.816075
O O8 0.275224 0.015786 0.450748
O O9 0.189639 0.065890 0.267460
O O10 0.300100 0.001609 0.199988
O O11 0.204895 0.926199 0.318140
O O12 0.500000 0.735896 0.234766
O O13 0.371138 0.695992 0.258431
O O14 0.406693 0.803368 0.106269
O O15 0.500000 0.866478 0.969077
O O16 0.389497 0.936310 0.041960
O O17 0.817698 0.859001 0.545762
#
# Coordination Sequence:
#
# PCOD9351611 Si02
#       8
#     8   8   8   8   8   8   8   8
#     4  10  21  36  54  87 121 153 190 241 291 333
#     4  11  20  36  62  86 110 155 200 247 282 335
#     4  11  20  34  57  88 117 146 187 245 300 334
#     4  11  24  39  58  82 117 159 197 242 297 357
#     4  11  23  37  57  83 117 164 198 230 288 356
#     4  11  20  35  53  86 124 150 192 238 279 351
#     4  11  20  37  60  89 116 146 195 248 299 335
#     4  10  20  34  57  91 118 141 189 251 292 343
#
# _framework density 17.155920999999999
#
# number of rings (size 3 to 8) (size 9 to 14) (size 15 to 20)
#    0.000    1.250    7.500    1.500    0.000    2.000 
#    0.000    3.125    0.000    1.500    0.000    0.000 
#    0.000    0.000    0.000    0.000    0.000    0.000 
#
# Total GULP energy -178654.012280 kJ/mol
# GULP energy per Si atom -5582.937884 kJ/mol
# Density = 1.711687 g / cm^3
# Si number density = 17.155921 Si / 1000 Ang^3
#
#
#
# Elastic Constant Matrix: (Units=GPa)
#
#
# Indices 1 2 3 4 5 6 
#
# 1 47.0090 28.6038 16.6837 0.0000 0.0000 0.0000
# 2 28.6038 111.8740 25.3194 0.0000 0.0000 0.0000
# 3 16.6837 25.3194 63.2317 0.0000 0.0000 0.0000
# 4 0.0000 0.0000 0.0000 31.8342 0.0000 0.0000
# 5 0.0000 0.0000 0.0000 0.0000 12.6458 0.0000
# 6 0.0000 0.0000 0.0000 0.0000 0.0000 22.1387
#
#
#
# Elastic Compliance Matrix: (Units=1/GPa)
#
#
# Indices 1 2 3 4 5 6 
#
# 1 0.026397 -0.005688 -0.004687 0.000000 0.000000 0.000000
# 2 -0.005688 0.011055 -0.002926 0.000000 0.000000 0.000000
# 3 -0.004687 -0.002926 0.018223 0.000000 0.000000 0.000000
# 4 0.000000 0.000000 0.000000 0.031413 0.000000 0.000000
# 5 0.000000 0.000000 0.000000 0.000000 0.079077 0.000000
# 6 0.000000 0.000000 0.000000 0.000000 0.000000 0.045170
#
#
# Mechanical properties :
#
#
# Convention : Reuss Voigt Hill
#
# Bulk Modulus (GPa) = 34.39647 40.36984 37.38315
# Shear Modulus (GPa) = 20.19147 23.42428 21.80788
#
# Velocity S-wave (km/s) = 3.43438 3.69911 3.56920
# Velocity P-wave (km/s) = 5.98493 6.46736 6.23082
#
# Compressibility (1/GPa) = 0.02907275
#
# Stress axis : x y z
#
# Youngs Moduli (GPa) = 37.88273 90.45497 54.87531
#
# Poissons Ratio (x) = 0.51455 0.25721
# Poissons Ratio (y) = 0.21549 0.16056
# Poissons Ratio (z) = 0.17756 0.26466
#
# Static dielectric constant tensor:
#      x y z
#    x 1.561350 0.000000 0.000000 
#    y 0.000000 1.588450 0.000000 
#    z 0.000000 0.000000 1.582830 
# 
# From -- ./inp_files/5330.got.cif
#   From: 2010.05.17/outbox.cif.g08.bks.cpg/sg36_3_cif.got.tgz:5330.got - 2010.06.03 17:41:39.
