data_PCOD9351192
_publ_section_title
;
Structure prediction by ZEFSAII (Michael W. Deem and Ramdas Pophale) SiO2 
 PCOD9351192
Probable space group: C M C 21
;
_chemical_formula_sum "Si O2"
_cell_formula_units_Z 64
_cell_length_a 14.078103
_cell_length_b 23.377370
_cell_length_c 9.551527
_cell_angle_alpha 90.000000
_cell_angle_beta 90.000000
_cell_angle_gamma 90.000000
_cell_volume 3143.493717
_symmetry_space_group_name_H-M "C M C 21"
_symmetry_group_IT_number 36
_symmetry_cell_setting 'orthorhombic'
loop_
_space_group_symop_operation_xyz
x,y,z
-x,-y,1/2+z
x,-y,1/2+z
-x,y,z
1/2+x,1/2+y,z
1/2-x,1/2-y,1/2+z
1/2+x,1/2-y,1/2+z
1/2-x,1/2+y,z
loop_
_atom_site_type_symbol
_atom_site_label
_atom_site_fract_x
_atom_site_fract_y
_atom_site_fract_z
Si Si1 0.112145 0.952320 0.954220
Si Si2 0.729759 0.476556 0.232004
Si Si3 0.392584 0.695301 0.786402
Si Si4 0.311956 0.668522 0.481166
Si Si5 0.400350 0.943685 0.655131
Si Si6 0.105830 0.401905 0.346876
Si Si7 0.154573 0.674709 0.274840
Si Si8 0.215022 0.300548 0.474999
O O1 0.131350 0.885230 0.915845
O O2 0.000000 0.962148 0.959696
O O3 0.163463 0.998291 0.853896
O O4 0.163236 0.960735 0.103051
O O5 0.804188 0.526830 0.199641
O O6 0.803886 0.425281 0.262506
O O7 0.500000 0.672775 0.801980
O O8 0.345412 0.672315 0.642652
O O9 0.397799 0.764715 0.785018
O O10 0.316049 0.684015 0.907030
O O11 0.205473 0.658691 0.421027
O O12 0.318133 0.735900 0.441170
O O13 0.500000 0.972377 0.698601
O O14 0.398620 0.940283 0.487373
O O15 0.400060 0.880537 0.720725
O O16 0.135432 0.340505 0.407046
O O17 0.000000 0.400140 0.283013
O O18 0.223188 0.688208 0.141262
#
# Coordination Sequence:
#
# PCOD9351192 Si02
#       8
#     8   8   8   8   8   8   8   8
#     4  12  26  43  65  89 121 166 214 259 314 375
#     4  12  23  43  63  89 128 157 206 263 311 368
#     4  10  19  34  57  88 125 165 201 244 306 369
#     4  10  20  37  62  89 121 160 206 253 306 358
#     4  10  19  35  61  89 117 159 203 250 309 366
#     4  10  21  38  63  93 123 161 205 251 311 372
#     4   9  18  35  59  85 118 158 205 257 297 357
#     4   9  20  37  62  90 127 162 200 253 304 365
#
# _framework density 20.359513
#
# number of rings (size 3 to 8) (size 9 to 14) (size 15 to 20)
#    0.000    1.750    2.500    2.250    0.000    3.500 
#    0.000    1.875    0.000   15.750    0.000    0.000 
#    0.000    0.000    0.000    0.000    0.000    0.000 
#
# Total GULP energy -178150.443741 kJ/mol
# GULP energy per Si atom -5567.201367 kJ/mol
# Density = 2.031317 g / cm^3
# Si number density = 20.359513 Si / 1000 Ang^3
#
#
#
# Elastic Constant Matrix: (Units=GPa)
#
#
# Indices 1 2 3 4 5 6 
#
# 1 168.5396 30.3945 60.6012 0.0000 0.0000 0.0000
# 2 30.3945 55.0701 11.0778 0.0000 0.0000 0.0000
# 3 60.6012 11.0778 56.1399 0.0000 0.0000 0.0000
# 4 0.0000 0.0000 0.0000 17.5454 0.0000 0.0000
# 5 0.0000 0.0000 0.0000 0.0000 -21.4755 0.0000
# 6 0.0000 0.0000 0.0000 0.0000 0.0000 11.3160
#
#
#
# Elastic Compliance Matrix: (Units=1/GPa)
#
#
# Indices 1 2 3 4 5 6 
#
# 1 0.010342 -0.003605 -0.010452 0.000000 0.000000 0.000000
# 2 -0.003605 0.020166 -0.000087 0.000000 0.000000 0.000000
# 3 -0.010452 -0.000087 0.029113 0.000000 0.000000 0.000000
# 4 0.000000 0.000000 0.000000 0.056995 0.000000 0.000000
# 5 0.000000 0.000000 0.000000 0.000000 -0.046565 0.000000
# 6 0.000000 0.000000 0.000000 0.000000 0.000000 0.088370
#
#
# Mechanical properties :
#
#
# Convention : Reuss Voigt Hill
#
# Bulk Modulus (GPa) = 31.91760 53.76632 42.84196
# Shear Modulus (GPa) = 25.36083 13.32226 19.34155
#
# Velocity S-wave (km/s) = 3.53321 2.56080 3.08555
# Velocity P-wave (km/s) = 5.68821 5.93375 5.81228
#
# Compressibility (1/GPa) = 0.03133068
#
# Stress axis : x y z
#
# Youngs Moduli (GPa) = 96.69524 49.58810 34.34924
#
# Poissons Ratio (x) = 0.17878 0.35903
# Poissons Ratio (y) = 0.34862 0.00300
# Poissons Ratio (z) = 1.01068 0.00434
#
# Static dielectric constant tensor:
#      x y z
#    x 1.731650 0.000000 0.000000 
#    y 0.000000 1.779640 0.000000 
#    z 0.000000 0.000000 1.735300 
# 
# From -- ./inp_files/4333.got.cif
#   From: 2010.05.17/outbox.cif.g08.bks.cpg/sg36_3_cif.got.tgz:4333.got - 2010.06.03 17:41:39.
