data_PCOD9351866
_publ_section_title
;
Structure prediction by ZEFSAII (Michael W. Deem and Ramdas Pophale) SiO2 
 PCOD9351866
Probable space group: C M C 21
;
_chemical_formula_sum "Si O2"
_cell_formula_units_Z 64
_cell_length_a 9.137448
_cell_length_b 14.614101
_cell_length_c 21.743501
_cell_angle_alpha 90.000000
_cell_angle_beta 90.000000
_cell_angle_gamma 90.000000
_cell_volume 2903.531190
_symmetry_space_group_name_H-M "C M C 21"
_symmetry_group_IT_number 36
_symmetry_cell_setting 'orthorhombic'
loop_
_space_group_symop_operation_xyz
x,y,z
-x,-y,1/2+z
x,-y,1/2+z
-x,y,z
1/2+x,1/2+y,z
1/2-x,1/2-y,1/2+z
1/2+x,1/2-y,1/2+z
1/2-x,1/2+y,z
loop_
_atom_site_type_symbol
_atom_site_label
_atom_site_fract_x
_atom_site_fract_y
_atom_site_fract_z
Si Si1 0.830831 0.125046 0.353820
Si Si2 0.829149 0.420257 0.203835
Si Si3 0.669540 0.657521 0.494685
Si Si4 0.326835 0.416195 0.649858
Si Si5 0.673429 0.031221 0.022555
Si Si6 0.168368 0.926527 0.403851
Si Si7 0.330188 0.227481 0.602846
Si Si8 0.833226 0.215641 0.795320
O O1 0.823290 0.172234 0.421626
O O2 0.735247 0.185440 0.308263
O O3 0.000000 0.126068 0.333279
O O4 0.789472 0.019027 0.366133
O O5 0.749638 0.517339 0.198319
O O6 0.813957 0.368294 0.138219
O O7 0.757988 0.350584 0.251385
O O8 0.000000 0.432315 0.216537
O O9 0.500000 0.636064 0.508987
O O10 0.775640 0.571759 0.506862
O O11 0.726809 0.731290 0.543573
O O12 0.500000 0.432833 0.651842
O O13 0.261174 0.440068 0.582990
O O14 0.300230 0.307556 0.652205
O O15 0.500000 0.037764 0.032091
O O16 0.726977 0.084815 0.961936
O O17 0.166836 0.840310 0.359513
O O18 0.000000 0.943394 0.425446
O O19 0.500000 0.237908 0.583724
O O20 0.000000 0.223005 0.773218
#
# Coordination Sequence:
#
# PCOD9351866 Si02
#       8
#     8   8   8   8   8   8   8   8
#     4   9  20  39  60  87 121 158 199 246 302 359
#     4  11  24  44  64  87 122 163 206 256 307 363
#     4  10  20  36  61  90 126 164 200 249 308 365
#     4  11  23  40  62  90 122 161 205 252 309 367
#     4  11  21  35  59  91 127 161 200 250 308 364
#     4   9  21  41  61  86 121 163 203 246 305 365
#     4  10  23  40  61  89 122 161 203 250 308 368
#     4  11  24  41  64  90 119 161 208 253 303 365
#
# _framework density 22.042127000000001
#
# number of rings (size 3 to 8) (size 9 to 14) (size 15 to 20)
#    0.000    1.750    1.250    3.375    1.750    6.000 
#    0.000    5.000    0.000    0.000    0.000    0.000 
#    0.000    0.000    0.000    0.000    0.000    0.000 
#
# Total GULP energy -178882.664682 kJ/mol
# GULP energy per Si atom -5590.083271 kJ/mol
# Density = 2.199196 g / cm^3
# Si number density = 22.042127 Si / 1000 Ang^3
#
#
#
# Elastic Constant Matrix: (Units=GPa)
#
#
# Indices 1 2 3 4 5 6 
#
# 1 86.0180 30.7329 14.6475 0.0000 0.0000 0.0000
# 2 30.7329 76.8610 -2.6420 0.0000 0.0000 0.0000
# 3 14.6475 -2.6420 26.4381 0.0000 0.0000 0.0000
# 4 0.0000 0.0000 0.0000 30.4219 0.0000 0.0000
# 5 0.0000 0.0000 0.0000 0.0000 31.6306 0.0000
# 6 0.0000 0.0000 0.0000 0.0000 0.0000 23.7146
#
#
#
# Elastic Compliance Matrix: (Units=1/GPa)
#
#
# Indices 1 2 3 4 5 6 
#
# 1 0.015535 -0.006530 -0.009260 0.000000 0.000000 0.000000
# 2 -0.006530 0.015800 0.005197 0.000000 0.000000 0.000000
# 3 -0.009260 0.005197 0.043474 0.000000 0.000000 0.000000
# 4 0.000000 0.000000 0.000000 0.032871 0.000000 0.000000
# 5 0.000000 0.000000 0.000000 0.000000 0.031615 0.000000
# 6 0.000000 0.000000 0.000000 0.000000 0.000000 0.042168
#
#
# Mechanical properties :
#
#
# Convention : Reuss Voigt Hill
#
# Bulk Modulus (GPa) = 18.64859 30.53266 24.59062
# Shear Modulus (GPa) = 22.67332 26.92533 24.79933
#
# Velocity S-wave (km/s) = 3.21071 3.49884 3.35787
# Velocity P-wave (km/s) = 4.71420 5.49587 5.11998
#
# Compressibility (1/GPa) = 0.05362336
#
# Stress axis : x y z
#
# Youngs Moduli (GPa) = 64.36942 63.29037 23.00246
#
# Poissons Ratio (x) = 0.41329 0.21299
# Poissons Ratio (y) = 0.42034 -0.11954
# Poissons Ratio (z) = 0.59603 -0.32891
#
# Static dielectric constant tensor:
#      x y z
#    x 1.751140 0.000000 0.000000 
#    y 0.000000 1.843670 0.000000 
#    z 0.000000 0.000000 1.827210 
# 
# From -- ./inp_files/16662.got.cif
#   From: 2010.05.17/outbox.cif.g08.bks.cpg/sg36_9_cif.got.tgz:16662.got - 2010.06.03 17:41:39.
