data_PCOD9351831
_publ_section_title
;
Structure prediction by ZEFSAII (Michael W. Deem and Ramdas Pophale) SiO2 
 PCOD9351831
Probable space group: C M C 21
;
_chemical_formula_sum "Si O2"
_cell_formula_units_Z 48
_cell_length_a 12.347764
_cell_length_b 9.035185
_cell_length_c 16.153599
_cell_angle_alpha 90.000000
_cell_angle_beta 90.000000
_cell_angle_gamma 90.000000
_cell_volume 1802.165483
_symmetry_space_group_name_H-M "C M C 21"
_symmetry_group_IT_number 36
_symmetry_cell_setting 'orthorhombic'
loop_
_space_group_symop_operation_xyz
x,y,z
-x,-y,1/2+z
x,-y,1/2+z
-x,y,z
1/2+x,1/2+y,z
1/2-x,1/2-y,1/2+z
1/2+x,1/2-y,1/2+z
1/2-x,1/2+y,z
loop_
_atom_site_type_symbol
_atom_site_label
_atom_site_fract_x
_atom_site_fract_y
_atom_site_fract_z
Si Si1 0.877971 0.655171 0.707980
Si Si2 0.657962 0.318539 0.545191
Si Si3 0.882013 0.949736 0.910794
Si Si4 0.618185 0.083660 0.410795
Si Si5 0.877971 0.655168 0.113610
Si Si6 0.842038 0.181462 0.776399
O O1 0.867752 0.787174 0.640812
O O2 0.853124 0.500002 0.660795
O O3 0.789151 0.676776 0.778453
O O4 0.000000 0.648213 0.737348
O O5 0.612883 0.458198 0.497130
O O6 0.613186 0.181559 0.493873
O O7 0.789150 0.323227 0.543137
O O8 0.887117 0.041801 0.824457
O O9 0.000000 0.865673 0.910794
O O10 0.749858 0.935330 0.910794
O O11 0.500000 0.000565 0.410795
O O12 0.613186 0.181560 0.327718
O O13 0.867752 0.787171 0.180778
O O14 0.000000 0.648209 0.084243
#
# Coordination Sequence:
#
# PCOD9351831 Si02
#       6
#     8   8   8   8   8   8
#     4  10  20  36  59  87 119 156 198 241 288 348
#     4  10  21  37  59  86 118 155 193 239 295 346
#     4  11  23  39  60  86 118 153 193 243 296 348
#     4  11  23  41  64  86 116 157 199 243 292 350
#     4  10  20  36  59  87 119 156 198 241 288 348
#     4  10  21  37  59  86 118 155 193 239 295 346
#
# _framework density 26.634625
#
# number of rings (size 3 to 8) (size 9 to 14) (size 15 to 20)
#    0.000    1.667    0.000    6.000    0.000    5.333 
#    0.000    3.333    0.000   16.000    0.000    0.000 
#    0.000    0.000    0.000    0.000    0.000    0.000 
#
# Total GULP energy -133714.580793 kJ/mol
# GULP energy per Si atom -5571.440866 kJ/mol
# Density = 2.657400 g / cm^3
# Si number density = 26.634625 Si / 1000 Ang^3
#
#
#
# Elastic Constant Matrix: (Units=GPa)
#
#
# Indices 1 2 3 4 5 6 
#
# 1 325.8163 40.6483 36.1926 0.0000 0.0000 0.0000
# 2 40.6483 33.5991 6.8651 0.0000 0.0000 0.0000
# 3 36.1926 6.8651 86.7091 0.0000 0.0000 0.0000
# 4 0.0000 0.0000 0.0000 32.0327 0.0000 0.0000
# 5 0.0000 0.0000 0.0000 0.0000 29.1403 0.0000
# 6 0.0000 0.0000 0.0000 0.0000 0.0000 -2.6297
#
#
#
# Elastic Compliance Matrix: (Units=1/GPa)
#
#
# Indices 1 2 3 4 5 6 
#
# 1 0.003738 -0.004273 -0.001222 0.000000 0.000000 0.000000
# 2 -0.004273 0.035136 -0.000998 0.000000 0.000000 0.000000
# 3 -0.001222 -0.000998 0.012122 0.000000 0.000000 0.000000
# 4 0.000000 0.000000 0.000000 0.031218 0.000000 0.000000
# 5 0.000000 0.000000 0.000000 0.000000 0.034317 0.000000
# 6 0.000000 0.000000 0.000000 0.000000 0.000000 -0.380275
#
#
# Mechanical properties :
#
#
# Convention : Reuss Voigt Hill
#
# Bulk Modulus (GPa) = 26.30913 68.17071 47.23992
# Shear Modulus (GPa) = -21.00058 35.86990 7.43466
#
# Velocity S-wave (km/s) = -2.81102 3.67378 1.67255
# Velocity P-wave (km/s) = 0.79781 6.60650 4.63731
#
# Compressibility (1/GPa) = 0.03800961
#
# Stress axis : x y z
#
# Youngs Moduli (GPa) = 267.52341 28.46109 82.49520
#
# Poissons Ratio (x) = 0.12160 0.10081
# Poissons Ratio (y) = 1.14301 0.08237
# Poissons Ratio (z) = 0.32691 0.02842
#
# Static dielectric constant tensor:
#      x y z
#    x 2.205560 0.000000 0.000000 
#    y 0.000000 2.183080 0.000000 
#    z 0.000000 0.000000 2.077820 
# 
# From -- ./inp_files/14238.got.cif
#   From: 2010.05.17/outbox.cif.g08.bks.cpg/sg36_8_cif.got.tgz:14238.got - 2010.06.03 17:41:39.
