data_PCOD9351364
_publ_section_title
;
Structure prediction by ZEFSAII (Michael W. Deem and Ramdas Pophale) SiO2 
 PCOD9351364
Probable space group: C M C 21
;
_chemical_formula_sum "Si O2"
_cell_formula_units_Z 64
_cell_length_a 8.809928
_cell_length_b 29.693543
_cell_length_c 12.402592
_cell_angle_alpha 90.000000
_cell_angle_beta 90.000000
_cell_angle_gamma 90.000000
_cell_volume 3244.492963
_symmetry_space_group_name_H-M "C M C 21"
_symmetry_group_IT_number 36
_symmetry_cell_setting 'orthorhombic'
loop_
_space_group_symop_operation_xyz
x,y,z
-x,-y,1/2+z
x,-y,1/2+z
-x,y,z
1/2+x,1/2+y,z
1/2-x,1/2-y,1/2+z
1/2+x,1/2-y,1/2+z
1/2-x,1/2+y,z
loop_
_atom_site_type_symbol
_atom_site_label
_atom_site_fract_x
_atom_site_fract_y
_atom_site_fract_z
Si Si1 0.819081 0.226012 0.981460
Si Si2 0.323667 0.065460 0.819211
Si Si3 0.168920 0.430631 0.572760
Si Si4 0.825363 0.331662 0.664489
Si Si5 0.316728 0.167487 0.785649
Si Si6 0.183149 0.880741 0.867508
Si Si7 0.324122 0.472510 0.765320
Si Si8 0.681515 0.316381 0.054326
O O1 0.754955 0.196045 0.883150
O O2 0.000000 0.229635 0.973354
O O3 0.771540 0.203294 0.095405
O O4 0.740183 0.274610 0.983549
O O5 0.500000 0.065294 0.788131
O O6 0.264261 0.115222 0.791802
O O7 0.247835 0.021380 0.771886
O O8 0.312603 0.060379 0.947905
O O9 0.173175 0.377297 0.593323
O O10 0.294137 0.453390 0.646322
O O11 0.000000 0.446078 0.608064
O O12 0.756372 0.347891 0.777859
O O13 0.000000 0.316174 0.677093
O O14 0.500000 0.168948 0.796154
O O15 0.263770 0.184873 0.669283
O O16 0.236490 0.931852 0.842180
O O17 0.000000 0.879661 0.853007
O O18 0.216889 0.861469 0.985675
O O19 0.500000 0.477162 0.789683
O O20 0.500000 0.313484 0.068711
#
# Coordination Sequence:
#
# PCOD9351364 Si02
#       8
#     8   8   8   8   8   8   8   8
#     4  12  25  41  64  93 125 164 209 255 316 380
#     4  10  21  39  62  88 122 164 208 256 312 375
#     4   9  18  36  58  83 115 156 204 254 309 368
#     4  10  19  36  63  90 118 153 203 261 311 365
#     4  11  24  45  67  93 128 163 212 266 318 376
#     4   9  21  41  61  87 126 166 208 259 315 373
#     4  10  21  36  58  91 125 161 208 259 314 373
#     4  11  25  44  65  91 129 171 212 260 319 380
#
# _framework density 19.725733000000002
#
# number of rings (size 3 to 8) (size 9 to 14) (size 15 to 20)
#    0.000    1.750    1.250    2.625    1.750    4.500 
#    0.000    2.500    0.000    0.000    0.000    0.000 
#    0.000    0.000    0.000    0.000    0.000    0.000 
#
# Total GULP energy -178666.159027 kJ/mol
# GULP energy per Si atom -5583.317470 kJ/mol
# Density = 1.968084 g / cm^3
# Si number density = 19.725733 Si / 1000 Ang^3
#
#
#
# Elastic Constant Matrix: (Units=GPa)
#
#
# Indices 1 2 3 4 5 6 
#
# 1 45.1575 20.7860 10.9437 0.0000 0.0000 0.0000
# 2 20.7860 105.5263 23.5550 0.0000 0.0000 0.0000
# 3 10.9437 23.5550 39.1204 0.0000 0.0000 0.0000
# 4 0.0000 0.0000 0.0000 19.5728 0.0000 0.0000
# 5 0.0000 0.0000 0.0000 0.0000 28.6668 0.0000
# 6 0.0000 0.0000 0.0000 0.0000 0.0000 26.6954
#
#
#
# Elastic Compliance Matrix: (Units=1/GPa)
#
#
# Indices 1 2 3 4 5 6 
#
# 1 0.025069 -0.003896 -0.004667 0.000000 0.000000 0.000000
# 2 -0.003896 0.011553 -0.005866 0.000000 0.000000 0.000000
# 3 -0.004667 -0.005866 0.030400 0.000000 0.000000 0.000000
# 4 0.000000 0.000000 0.000000 0.051091 0.000000 0.000000
# 5 0.000000 0.000000 0.000000 0.000000 0.034884 0.000000
# 6 0.000000 0.000000 0.000000 0.000000 0.000000 0.037460
#
#
# Mechanical properties :
#
#
# Convention : Reuss Voigt Hill
#
# Bulk Modulus (GPa) = 26.20336 33.37483 29.78909
# Shear Modulus (GPa) = 21.54826 23.95495 22.75161
#
# Velocity S-wave (km/s) = 3.30872 3.48861 3.39985
# Velocity P-wave (km/s) = 5.28295 5.76050 5.52688
#
# Compressibility (1/GPa) = 0.03816305
#
# Stress axis : x y z
#
# Youngs Moduli (GPa) = 39.88963 86.55579 32.89482
#
# Poissons Ratio (x) = 0.33724 0.15352
# Poissons Ratio (y) = 0.15542 0.19297
# Poissons Ratio (z) = 0.18616 0.50777
#
# Static dielectric constant tensor:
#      x y z
#    x 1.682540 0.000000 0.000000 
#    y 0.000000 1.710210 0.000000 
#    z 0.000000 0.000000 1.674860 
# 
# From -- ./inp_files/7276.got.cif
#   From: 2010.05.17/outbox.cif.g08.bks.cpg/sg36_4_cif.got.tgz:7276.got - 2010.06.03 17:41:39.
