data_PCOD9351806
_publ_section_title
;
Structure prediction by ZEFSAII (Michael W. Deem and Ramdas Pophale) SiO2 
 PCOD9351806
Probable space group: C M C 21
;
_chemical_formula_sum "Si O2"
_cell_formula_units_Z 64
_cell_length_a 8.783224
_cell_length_b 20.437015
_cell_length_c 20.159107
_cell_angle_alpha 90.000000
_cell_angle_beta 90.000000
_cell_angle_gamma 90.000000
_cell_volume 3618.617778
_symmetry_space_group_name_H-M "C M C 21"
_symmetry_group_IT_number 36
_symmetry_cell_setting 'orthorhombic'
loop_
_space_group_symop_operation_xyz
x,y,z
-x,-y,1/2+z
x,-y,1/2+z
-x,y,z
1/2+x,1/2+y,z
1/2-x,1/2-y,1/2+z
1/2+x,1/2-y,1/2+z
1/2-x,1/2+y,z
loop_
_atom_site_type_symbol
_atom_site_label
_atom_site_fract_x
_atom_site_fract_y
_atom_site_fract_z
Si Si1 0.817339 0.085796 0.052800
Si Si2 0.818693 0.979169 0.299265
Si Si3 0.682134 0.201179 0.968635
Si Si4 0.817300 0.972735 0.947919
Si Si5 0.181545 0.340728 0.317441
Si Si6 0.182716 0.194871 0.285106
Si Si7 0.318695 0.835239 0.929551
Si Si8 0.681433 0.916936 0.697723
O O1 0.750720 0.073018 0.125155
O O2 0.000000 0.090459 0.055581
O O3 0.749437 0.152394 0.022678
O O4 0.777230 0.027343 0.002014
O O5 0.769507 0.903909 0.292203
O O6 0.000000 0.986175 0.291584
O O7 0.778134 0.001381 0.374223
O O8 0.736156 0.025929 0.247158
O O9 0.500000 0.206191 0.974196
O O10 0.716755 0.171715 0.895312
O O11 0.755418 0.272976 0.969503
O O12 0.734702 0.904095 0.959087
O O13 0.000000 0.962832 0.949681
O O14 0.217935 0.272185 0.281398
O O15 0.000000 0.351808 0.312129
O O16 0.245834 0.170374 0.355995
O O17 0.255290 0.150644 0.228508
O O18 0.000000 0.187329 0.285390
O O19 0.500000 0.831966 0.924450
O O20 0.500000 0.915180 0.694942
#
# Coordination Sequence:
#
# PCOD9351806 Si02
#       8
#     8   8   8   8   8   8   8   8
#     4  11  23  41  62  86 118 157 198 244 298 359
#     4  11  21  36  60  88 119 155 195 244 295 349
#     4  10  20  36  58  85 119 154 191 239 291 349
#     4  10  21  37  59  87 119 155 196 244 298 350
#     4   9  19  34  57  87 118 148 187 240 291 339
#     4  10  20  37  58  84 117 153 193 242 293 346
#     4  11  21  33  57  89 119 151 192 243 293 343
#     4  12  25  40  59  86 119 159 200 242 295 359
#
# _framework density 17.686312999999998
#
# number of rings (size 3 to 8) (size 9 to 14) (size 15 to 20)
#    0.000    1.500    2.500    4.500    0.000    4.000 
#    0.000    1.250    0.000    6.000    0.000    0.000 
#    0.000    0.000    0.000    0.000    0.000    0.000 
#
# Total GULP energy -178811.397589 kJ/mol
# GULP energy per Si atom -5587.856175 kJ/mol
# Density = 1.764606 g / cm^3
# Si number density = 17.686313 Si / 1000 Ang^3
#
#
#
# Elastic Constant Matrix: (Units=GPa)
#
#
# Indices 1 2 3 4 5 6 
#
# 1 76.2846 61.1489 52.0668 0.0000 0.0000 0.0000
# 2 61.1489 137.2120 66.9857 0.0000 0.0000 0.0000
# 3 52.0668 66.9857 113.7273 0.0000 0.0000 0.0000
# 4 0.0000 0.0000 0.0000 25.6682 0.0000 0.0000
# 5 0.0000 0.0000 0.0000 0.0000 26.2973 0.0000
# 6 0.0000 0.0000 0.0000 0.0000 0.0000 35.3238
#
#
#
# Elastic Compliance Matrix: (Units=1/GPa)
#
#
# Indices 1 2 3 4 5 6 
#
# 1 0.023287 -0.007261 -0.006384 0.000000 0.000000 0.000000
# 2 -0.007261 0.012493 -0.004034 0.000000 0.000000 0.000000
# 3 -0.006384 -0.004034 0.014092 0.000000 0.000000 0.000000
# 4 0.000000 0.000000 0.000000 0.038959 0.000000 0.000000
# 5 0.000000 0.000000 0.000000 0.000000 0.038027 0.000000
# 6 0.000000 0.000000 0.000000 0.000000 0.000000 0.028310
#
#
# Mechanical properties :
#
#
# Convention : Reuss Voigt Hill
#
# Bulk Modulus (GPa) = 68.90533 76.40297 72.65415
# Shear Modulus (GPa) = 25.59317 27.25934 26.42625
#
# Velocity S-wave (km/s) = 3.80815 3.93016 3.86964
# Velocity P-wave (km/s) = 7.64070 7.99297 7.81882
#
# Compressibility (1/GPa) = 0.01451266
#
# Stress axis : x y z
#
# Youngs Moduli (GPa) = 42.94296 80.04204 70.96127
#
# Poissons Ratio (x) = 0.58118 0.45305
# Poissons Ratio (y) = 0.31181 0.28629
# Poissons Ratio (z) = 0.27417 0.32293
#
# Static dielectric constant tensor:
#      x y z
#    x 1.586630 0.000000 0.000000 
#    y 0.000000 1.598430 0.000000 
#    z 0.000000 0.000000 1.580020 
# 
# From -- ./inp_files/13927.got.cif
#   From: 2010.05.17/outbox.cif.g08.bks.cpg/sg36_7_cif.got.tgz:13927.got - 2010.06.03 17:41:39.
