data_PCOD9351100
_publ_section_title
;
Structure prediction by ZEFSAII (Michael W. Deem and Ramdas Pophale) SiO2 
 PCOD9351100
Probable space group: C M C 21
;
_chemical_formula_sum "Si O2"
_cell_formula_units_Z 64
_cell_length_a 9.010500
_cell_length_b 18.597633
_cell_length_c 21.528349
_cell_angle_alpha 90.000000
_cell_angle_beta 90.000000
_cell_angle_gamma 90.000000
_cell_volume 3607.590956
_symmetry_space_group_name_H-M "C M C 21"
_symmetry_group_IT_number 36
_symmetry_cell_setting 'orthorhombic'
loop_
_space_group_symop_operation_xyz
x,y,z
-x,-y,1/2+z
x,-y,1/2+z
-x,y,z
1/2+x,1/2+y,z
1/2-x,1/2-y,1/2+z
1/2+x,1/2-y,1/2+z
1/2-x,1/2+y,z
loop_
_atom_site_type_symbol
_atom_site_label
_atom_site_fract_x
_atom_site_fract_y
_atom_site_fract_z
Si Si1 0.675883 0.677281 0.143230
Si Si2 0.322014 0.918028 0.891181
Si Si3 0.676170 0.665285 0.007024
Si Si4 0.822513 0.664045 0.515566
Si Si5 0.676421 0.669462 0.280608
Si Si6 0.676435 0.087401 0.892064
Si Si7 0.321637 0.672258 0.779313
Si Si8 0.824126 0.167391 0.641637
O O1 0.500000 0.697801 0.141148
O O2 0.701485 0.641234 0.209910
O O3 0.772837 0.749385 0.143145
O O4 0.705445 0.638931 0.077727
O O5 0.500000 0.907795 0.885789
O O6 0.273497 0.879468 0.954986
O O7 0.244804 0.881183 0.832623
O O8 0.291540 0.002600 0.893826
O O9 0.500000 0.657760 0.994424
O O10 0.710794 0.750923 0.006432
O O11 0.767604 0.624405 0.955144
O O12 0.752462 0.637054 0.580027
O O13 0.000000 0.658298 0.520929
O O14 0.500000 0.676706 0.289416
O O15 0.750670 0.748291 0.284762
O O16 0.500000 0.097473 0.885417
O O17 0.759142 0.124074 0.834392
O O18 0.500000 0.678485 0.783066
O O19 0.283411 0.640812 0.710811
O O20 0.000000 0.162077 0.634765
#
# Coordination Sequence:
#
# PCOD9351100 Si02
#       8
#     8   8   8   8   8   8   8   8
#     4   8  16  31  51  77 105 131 162 204 257 310
#     4  10  22  38  52  72 106 143 176 213 260 307
#     4   9  17  32  55  78 101 133 168 206 260 316
#     4   9  18  34  55  75 100 135 169 206 258 313
#     4  10  19  33  57  84 105 131 172 215 254 306
#     4  11  23  36  51  74 104 139 181 221 252 297
#     4  10  20  35  55  78 106 138 170 210 262 310
#     4   9  17  29  50  80 105 126 162 211 255 301
#
# _framework density 17.740371
#
# number of rings (size 3 to 8) (size 9 to 14) (size 15 to 20)
#    0.000    2.500    0.000    3.000    0.000    6.500 
#    0.000    1.250    0.000    6.000    0.000    0.000 
#    0.000    0.000    0.000    0.000    0.000    0.000 
#
# Total GULP energy -178384.030564 kJ/mol
# GULP energy per Si atom -5574.500955 kJ/mol
# Density = 1.769999 g / cm^3
# Si number density = 17.740371 Si / 1000 Ang^3
#
#
#
# Elastic Constant Matrix: (Units=GPa)
#
#
# Indices 1 2 3 4 5 6 
#
# 1 45.8795 42.2530 69.5634 0.0000 0.0000 0.0000
# 2 42.2530 56.8851 73.2354 0.0000 0.0000 0.0000
# 3 69.5634 73.2354 200.0661 0.0000 0.0000 0.0000
# 4 0.0000 0.0000 0.0000 -7.6337 0.0000 0.0000
# 5 0.0000 0.0000 0.0000 0.0000 33.3406 0.0000
# 6 0.0000 0.0000 0.0000 0.0000 0.0000 18.3343
#
#
#
# Elastic Compliance Matrix: (Units=1/GPa)
#
#
# Indices 1 2 3 4 5 6 
#
# 1 0.081165 -0.045307 -0.011637 0.000000 0.000000 0.000000
# 2 -0.045307 0.058538 -0.005675 0.000000 0.000000 0.000000
# 3 -0.011637 -0.005675 0.011122 0.000000 0.000000 0.000000
# 4 0.000000 0.000000 0.000000 -0.130997 0.000000 0.000000
# 5 0.000000 0.000000 0.000000 0.000000 0.029993 0.000000
# 6 0.000000 0.000000 0.000000 0.000000 0.000000 0.054543
#
#
# Mechanical properties :
#
#
# Convention : Reuss Voigt Hill
#
# Bulk Modulus (GPa) = 39.07947 74.77047 56.92497
# Shear Modulus (GPa) = 20.99691 16.66016 18.82854
#
# Velocity S-wave (km/s) = 3.44403 3.06781 3.26135
# Velocity P-wave (km/s) = 6.15561 7.40184 6.80730
#
# Compressibility (1/GPa) = 0.02558888
#
# Stress axis : x y z
#
# Youngs Moduli (GPa) = 12.32055 17.08279 89.91327
#
# Poissons Ratio (x) = 0.77396 1.04628
# Poissons Ratio (y) = 0.55820 0.51027
# Poissons Ratio (z) = 0.14337 0.09695
#
# Static dielectric constant tensor:
#      x y z
#    x 1.592200 0.000000 0.000000 
#    y 0.000000 1.565390 0.000000 
#    z 0.000000 0.000000 1.639290 
# 
# From -- ./inp_files/15703.got.cif
#   From: 2010.05.17/outbox.cif.g08.bks.cpg/sg36_8_cif.got.tgz:15703.got - 2010.06.03 17:41:39.
