data_PCOD9351546
_publ_section_title
;
Structure prediction by ZEFSAII (Michael W. Deem and Ramdas Pophale) SiO2 
 PCOD9351546
Probable space group: C M C 21
;
_chemical_formula_sum "Si O2"
_cell_formula_units_Z 64
_cell_length_a 9.120969
_cell_length_b 25.904928
_cell_length_c 12.931475
_cell_angle_alpha 90.000000
_cell_angle_beta 90.000000
_cell_angle_gamma 90.000000
_cell_volume 3055.423635
_symmetry_space_group_name_H-M "C M C 21"
_symmetry_group_IT_number 36
_symmetry_cell_setting 'orthorhombic'
loop_
_space_group_symop_operation_xyz
x,y,z
-x,-y,1/2+z
x,-y,1/2+z
-x,y,z
1/2+x,1/2+y,z
1/2-x,1/2-y,1/2+z
1/2+x,1/2-y,1/2+z
1/2-x,1/2+y,z
loop_
_atom_site_type_symbol
_atom_site_label
_atom_site_fract_x
_atom_site_fract_y
_atom_site_fract_z
Si Si1 0.173875 0.792973 0.572980
Si Si2 0.826845 0.323463 0.007322
Si Si3 0.326691 0.538007 0.102246
Si Si4 0.675612 0.289108 0.801202
Si Si5 0.674373 0.174485 0.865709
Si Si6 0.171835 0.465752 0.803205
Si Si7 0.174112 0.070800 0.869266
Si Si8 0.327551 0.933578 0.038269
O O1 0.190556 0.730743 0.565696
O O2 0.215648 0.809296 0.688166
O O3 0.272852 0.816281 0.483487
O O4 0.000000 0.804589 0.554779
O O5 0.747527 0.317080 0.897851
O O6 0.780305 0.375499 0.065772
O O7 0.000000 0.330003 0.988071
O O8 0.500000 0.537525 0.119281
O O9 0.247302 0.559557 0.203718
O O10 0.298301 0.566694 0.993571
O O11 0.266025 0.479934 0.084862
O O12 0.500000 0.292286 0.810362
O O13 0.714089 0.228201 0.810001
O O14 0.500000 0.167184 0.858699
O O15 0.757318 0.123658 0.828646
O O16 0.248251 0.521172 0.820531
O O17 0.187561 0.437374 0.913275
O O18 0.000000 0.472338 0.783347
O O19 0.000000 0.068480 0.853151
O O20 0.500000 0.941600 0.063644
#
# Coordination Sequence:
#
# PCOD9351546 Si02
#       8
#     8   8   8   8   8   8   8   8
#     4   9  18  34  53  73 102 138 171 207 256 309
#     4   9  18  33  53  76 102 133 170 212 257 304
#     4  10  21  36  54  77 105 137 173 213 259 312
#     4   9  19  34  51  74 104 137 173 212 257 309
#     4  10  20  34  53  78 105 134 173 218 261 306
#     4  10  20  35  55  78 106 138 174 217 261 307
#     4  10  21  37  55  77 107 141 177 216 261 312
#     4   9  19  35  54  77 103 134 173 215 260 307
#
# _framework density 20.946356999999999
#
# number of rings (size 3 to 8) (size 9 to 14) (size 15 to 20)
#    0.000    2.500    0.000    1.500    0.000    5.500 
#    0.000    5.000    0.000    0.000    0.000    0.000 
#    0.000    0.000    0.000    0.000    0.000    0.000 
#
# Total GULP energy -178755.813741 kJ/mol
# GULP energy per Si atom -5586.119179 kJ/mol
# Density = 2.089868 g / cm^3
# Si number density = 20.946357 Si / 1000 Ang^3
#
#
#
# Elastic Constant Matrix: (Units=GPa)
#
#
# Indices 1 2 3 4 5 6 
#
# 1 46.1871 17.6857 20.5423 0.0000 0.0000 0.0000
# 2 17.6857 79.8019 -17.5864 0.0000 0.0000 0.0000
# 3 20.5423 -17.5864 79.3037 0.0000 0.0000 0.0000
# 4 0.0000 0.0000 0.0000 -8.6484 0.0000 0.0000
# 5 0.0000 0.0000 0.0000 0.0000 28.8632 0.0000
# 6 0.0000 0.0000 0.0000 0.0000 0.0000 23.2534
#
#
#
# Elastic Compliance Matrix: (Units=1/GPa)
#
#
# Indices 1 2 3 4 5 6 
#
# 1 0.029113 -0.008531 -0.009433 0.000000 0.000000 0.000000
# 2 -0.008531 0.015675 0.005686 0.000000 0.000000 0.000000
# 3 -0.009433 0.005686 0.016314 0.000000 0.000000 0.000000
# 4 0.000000 0.000000 0.000000 -0.115629 0.000000 0.000000
# 5 0.000000 0.000000 0.000000 0.000000 0.034646 0.000000
# 6 0.000000 0.000000 0.000000 0.000000 0.000000 0.043005
#
#
# Mechanical properties :
#
#
# Convention : Reuss Voigt Hill
#
# Bulk Modulus (GPa) = 27.36310 27.39733 27.38022
# Shear Modulus (GPa) = 83.52543 21.00372 52.26457
#
# Velocity S-wave (km/s) = 6.32159 3.17004 5.00058
# Velocity P-wave (km/s) = 8.14709 5.14850 6.81477
#
# Compressibility (1/GPa) = 0.03654557
#
# Stress axis : x y z
#
# Youngs Moduli (GPa) = 34.34870 63.79723 61.29656
#
# Poissons Ratio (x) = 0.54425 0.57822
# Poissons Ratio (y) = 0.29303 -0.34852
# Poissons Ratio (z) = 0.32402 -0.36274
#
# Static dielectric constant tensor:
#      x y z
#    x 1.692130 0.000000 0.000000 
#    y 0.000000 1.776060 0.000000 
#    z 0.000000 0.000000 1.762700 
# 
# From -- ./inp_files/11204.got.cif
#   From: 2010.05.17/outbox.cif.g08.bks.cpg/sg36_6_cif.got.tgz:11204.got - 2010.06.03 17:41:39.
