data_PCOD9351937
_publ_section_title
;
Structure prediction by ZEFSAII (Michael W. Deem and Ramdas Pophale) SiO2 
 PCOD9351937
Probable space group: C M C 21
;
_chemical_formula_sum "Si O2"
_cell_formula_units_Z 48
_cell_length_a 7.576052
_cell_length_b 28.321000
_cell_length_c 10.355550
_cell_angle_alpha 90.000000
_cell_angle_beta 90.000000
_cell_angle_gamma 90.000000
_cell_volume 2221.900982
_symmetry_space_group_name_H-M "C M C 21"
_symmetry_group_IT_number 36
_symmetry_cell_setting 'orthorhombic'
loop_
_space_group_symop_operation_xyz
x,y,z
-x,-y,1/2+z
x,-y,1/2+z
-x,y,z
1/2+x,1/2+y,z
1/2-x,1/2-y,1/2+z
1/2+x,1/2-y,1/2+z
1/2-x,1/2+y,z
loop_
_atom_site_type_symbol
_atom_site_label
_atom_site_fract_x
_atom_site_fract_y
_atom_site_fract_z
Si Si1 0.206895 0.862054 0.468220
Si Si2 0.708399 0.289280 0.254634
Si Si3 0.295470 0.032417 0.903774
Si Si4 0.713061 0.144088 0.519002
Si Si5 0.217287 0.541070 0.615098
Si Si6 0.214325 0.318095 0.744081
O O1 0.280937 0.823708 0.366301
O O2 0.288933 0.913455 0.449378
O O3 0.227717 0.842715 0.612369
O O4 0.000000 0.868124 0.439428
O O5 0.500000 0.284547 0.281587
O O6 0.778604 0.236098 0.250801
O O7 0.732024 0.315217 0.118355
O O8 0.500000 0.018219 0.891218
O O9 0.219667 0.030047 0.759677
O O10 0.221087 0.997460 0.011564
O O11 0.500000 0.143553 0.517845
O O12 0.772376 0.093425 0.571989
O O13 0.772143 0.155153 0.373807
O O14 0.000000 0.541124 0.618637
O O15 0.000000 0.317977 0.742359
#
# Coordination Sequence:
#
# PCOD9351937 Si02
#       6
#     8   8   8   8   8   8
#     4  11  23  39  58  85 120 154 189 234 288 346
#     4  10  21  38  57  82 116 154 191 234 288 342
#     4  10  20  37  60  86 113 147 191 239 286 336
#     4  10  20  37  60  86 113 149 192 238 287 338
#     4   9  19  34  59  88 111 142 189 238 282 331
#     4  10  22  37  58  85 115 152 194 237 281 337
#
# _framework density 21.603121999999999
#
# number of rings (size 3 to 8) (size 9 to 14) (size 15 to 20)
#    0.000    2.000    1.667    1.500    2.333    3.333 
#    0.000    1.667    0.000    0.000    0.000    0.000 
#    0.000    0.000    0.000    0.000    0.000    0.000 
#
# Total GULP energy -134138.378756 kJ/mol
# GULP energy per Si atom -5589.099115 kJ/mol
# Density = 2.155395 g / cm^3
# Si number density = 21.603122 Si / 1000 Ang^3
#
#
#
# Elastic Constant Matrix: (Units=GPa)
#
#
# Indices 1 2 3 4 5 6 
#
# 1 45.6692 -6.9044 -14.9860 0.0000 0.0000 0.0000
# 2 -6.9044 117.5641 69.9552 0.0000 0.0000 0.0000
# 3 -14.9860 69.9552 158.5110 0.0000 0.0000 0.0000
# 4 0.0000 0.0000 0.0000 41.8309 0.0000 0.0000
# 5 0.0000 0.0000 0.0000 0.0000 11.9297 0.0000
# 6 0.0000 0.0000 0.0000 0.0000 0.0000 -4.0396
#
#
#
# Elastic Compliance Matrix: (Units=1/GPa)
#
#
# Indices 1 2 3 4 5 6 
#
# 1 0.022598 0.000076 0.002103 0.000000 0.000000 0.000000
# 2 0.000076 0.011535 -0.005084 0.000000 0.000000 0.000000
# 3 0.002103 -0.005084 0.008751 0.000000 0.000000 0.000000
# 4 0.000000 0.000000 0.000000 0.023906 0.000000 0.000000
# 5 0.000000 0.000000 0.000000 0.000000 0.083824 0.000000
# 6 0.000000 0.000000 0.000000 0.000000 0.000000 -0.247548
#
#
# Mechanical properties :
#
#
# Convention : Reuss Voigt Hill
#
# Bulk Modulus (GPa) = 26.97244 46.43045 36.70144
# Shear Modulus (GPa) = -63.48036 28.18949 -17.64544
#
# Velocity S-wave (km/s) = -5.42666 3.61623 -2.86107
# Velocity P-wave (km/s) = 5.17226 6.24302 2.47215
#
# Compressibility (1/GPa) = 0.03707488
#
# Stress axis : x y z
#
# Youngs Moduli (GPa) = 44.25139 86.68908 114.27084
#
# Poissons Ratio (x) = -0.00657 -0.24032
# Poissons Ratio (y) = -0.00335 0.58093
# Poissons Ratio (z) = -0.09306 0.44071
#
# Static dielectric constant tensor:
#      x y z
#    x 1.814880 0.000000 0.000000 
#    y 0.000000 1.740120 0.000000 
#    z 0.000000 0.000000 1.746150 
# 
# From -- ./inp_files/2674.got.cif
#   From: 2010.05.17/outbox.cif.g08.bks.cpg/sg36_2_cif.got.tgz:2674.got - 2010.06.03 17:41:39.
