data_PCOD9351933
_publ_section_title
;
Structure prediction by ZEFSAII (Michael W. Deem and Ramdas Pophale) SiO2 
 PCOD9351933
Probable space group: C M C 21
;
_chemical_formula_sum "Si O2"
_cell_formula_units_Z 64
_cell_length_a 8.506166
_cell_length_b 23.170329
_cell_length_c 16.532114
_cell_angle_alpha 90.000000
_cell_angle_beta 90.000000
_cell_angle_gamma 90.000000
_cell_volume 3258.325338
_symmetry_space_group_name_H-M "C M C 21"
_symmetry_group_IT_number 36
_symmetry_cell_setting 'orthorhombic'
loop_
_space_group_symop_operation_xyz
x,y,z
-x,-y,1/2+z
x,-y,1/2+z
-x,y,z
1/2+x,1/2+y,z
1/2-x,1/2-y,1/2+z
1/2+x,1/2-y,1/2+z
1/2-x,1/2+y,z
loop_
_atom_site_type_symbol
_atom_site_label
_atom_site_fract_x
_atom_site_fract_y
_atom_site_fract_z
Si Si1 0.680025 0.786639 0.931680
Si Si2 0.188621 0.965226 0.438806
Si Si3 0.819683 0.145832 0.288355
Si Si4 0.682509 0.339256 0.088810
Si Si5 0.314431 0.216023 0.146739
Si Si6 0.312750 0.335008 0.482160
Si Si7 0.189066 0.482002 0.770621
Si Si8 0.686043 0.033976 0.596268
O O1 0.500000 0.792734 0.960485
O O2 0.708744 0.823349 0.852817
O O3 0.708167 0.718290 0.919962
O O4 0.791691 0.813171 0.999685
O O5 0.235140 0.898445 0.454153
O O6 0.000000 0.968335 0.432104
O O7 0.259778 0.986240 0.353475
O O8 0.238186 0.003043 0.517511
O O9 0.795029 0.182129 0.207686
O O10 0.764754 0.081000 0.274430
O O11 0.000000 0.147116 0.315628
O O12 0.500000 0.352996 0.102158
O O13 0.725134 0.284142 0.144008
O O14 0.778509 0.397852 0.096014
O O15 0.500000 0.210200 0.166096
O O16 0.281284 0.186890 0.060122
O O17 0.500000 0.337862 0.501152
O O18 0.238263 0.510163 0.684483
O O19 0.000000 0.478032 0.770213
O O20 0.500000 0.024091 0.589713
#
# Coordination Sequence:
#
# PCOD9351933 Si02
#       8
#     8   8   8   8   8   8   8   8
#     4  10  20  37  60  85 116 151 190 237 288 345
#     4  11  23  40  63  90 122 159 199 245 298 355
#     4  12  24  38  58  84 115 150 191 238 291 347
#     4  10  21  38  60  86 116 151 192 237 289 347
#     4  10  21  37  59  86 115 149 189 236 289 346
#     4   9  20  38  60  86 115 151 192 235 288 347
#     4  11  25  43  62  87 119 157 203 250 297 354
#     4  11  24  41  62  88 120 160 202 246 298 353
#
# _framework density 19.641991999999998
#
# number of rings (size 3 to 8) (size 9 to 14) (size 15 to 20)
#    0.000    1.500    0.000    4.875    0.000    8.000 
#    0.000    3.750    0.000    0.000    0.000    0.000 
#    0.000    0.000    0.000    0.000    0.000    0.000 
#
# Total GULP energy -178659.422301 kJ/mol
# GULP energy per Si atom -5583.106947 kJ/mol
# Density = 1.959729 g / cm^3
# Si number density = 19.641992 Si / 1000 Ang^3
#
#
#
# Elastic Constant Matrix: (Units=GPa)
#
#
# Indices 1 2 3 4 5 6 
#
# 1 32.2726 14.8566 1.9423 0.0000 0.0000 0.0000
# 2 14.8566 123.8028 35.6836 0.0000 0.0000 0.0000
# 3 1.9423 35.6836 70.9948 0.0000 0.0000 0.0000
# 4 0.0000 0.0000 0.0000 26.8917 0.0000 0.0000
# 5 0.0000 0.0000 0.0000 0.0000 20.0216 0.0000
# 6 0.0000 0.0000 0.0000 0.0000 0.0000 16.2417
#
#
#
# Elastic Compliance Matrix: (Units=1/GPa)
#
#
# Indices 1 2 3 4 5 6 
#
# 1 0.032895 -0.004313 0.001268 0.000000 0.000000 0.000000
# 2 -0.004313 0.010011 -0.004914 0.000000 0.000000 0.000000
# 3 0.001268 -0.004914 0.016521 0.000000 0.000000 0.000000
# 4 0.000000 0.000000 0.000000 0.037186 0.000000 0.000000
# 5 0.000000 0.000000 0.000000 0.000000 0.049946 0.000000
# 6 0.000000 0.000000 0.000000 0.000000 0.000000 0.061570
#
#
# Mechanical properties :
#
#
# Convention : Reuss Voigt Hill
#
# Bulk Modulus (GPa) = 22.98371 36.89281 29.93826
# Shear Modulus (GPa) = 20.95996 24.27019 22.61508
#
# Velocity S-wave (km/s) = 3.27019 3.51896 3.39686
# Velocity P-wave (km/s) = 5.09761 5.94426 5.53714
#
# Compressibility (1/GPa) = 0.04350907
#
# Stress axis : x y z
#
# Youngs Moduli (GPa) = 30.39963 99.88765 60.53024
#
# Poissons Ratio (x) = 0.43081 -0.07674
# Poissons Ratio (y) = 0.13111 0.29744
# Poissons Ratio (z) = -0.03854 0.49084
#
# Static dielectric constant tensor:
#      x y z
#    x 1.660670 0.000000 0.000000 
#    y 0.000000 1.672640 0.000000 
#    z 0.000000 0.000000 1.689880 
# 
# From -- ./inp_files/14089.got.cif
#   From: 2010.05.17/outbox.cif.g08.bks.cpg/sg36_8_cif.got.tgz:14089.got - 2010.06.03 17:41:39.
