data_PCOD9351757
_publ_section_title
;
Structure prediction by ZEFSAII (Michael W. Deem and Ramdas Pophale) SiO2 
 PCOD9351757
Probable space group: C M C 21
;
_chemical_formula_sum "Si O2"
_cell_formula_units_Z 64
_cell_length_a 17.303298
_cell_length_b 16.906509
_cell_length_c 10.440412
_cell_angle_alpha 90.000000
_cell_angle_beta 90.000000
_cell_angle_gamma 90.000000
_cell_volume 3054.221039
_symmetry_space_group_name_H-M "C M C 21"
_symmetry_group_IT_number 36
_symmetry_cell_setting 'orthorhombic'
loop_
_space_group_symop_operation_xyz
x,y,z
-x,-y,1/2+z
x,-y,1/2+z
-x,y,z
1/2+x,1/2+y,z
1/2-x,1/2-y,1/2+z
1/2+x,1/2-y,1/2+z
1/2-x,1/2+y,z
loop_
_atom_site_type_symbol
_atom_site_label
_atom_site_fract_x
_atom_site_fract_y
_atom_site_fract_z
Si Si1 0.592072 0.039425 0.893960
Si Si2 0.587641 0.403405 0.189761
Si Si3 0.905964 0.920707 0.672260
Si Si4 0.091324 0.764722 0.536574
Si Si5 0.912064 0.176426 0.416896
Si Si6 0.091418 0.406455 0.682136
Si Si7 0.659917 0.805986 0.288525
Si Si8 0.168384 0.748263 0.283279
O O1 0.500000 0.059108 0.879188
O O2 0.645698 0.104079 0.824357
O O3 0.603547 0.959764 0.810288
O O4 0.607514 0.046148 0.048042
O O5 0.500000 0.413974 0.238072
O O6 0.624423 0.490231 0.178740
O O7 0.623283 0.330868 0.265020
O O8 0.587206 0.370894 0.046184
O O9 0.886283 0.856945 0.563185
O O10 0.882407 0.879313 0.804106
O O11 0.000000 0.925487 0.666731
O O12 0.105434 0.719774 0.670591
O O13 0.146406 0.727743 0.429618
O O14 0.000000 0.759906 0.502806
O O15 0.864937 0.256311 0.413754
O O16 0.000000 0.197884 0.385255
O O17 0.139179 0.325375 0.699100
O O18 0.000000 0.385627 0.678234
O O19 0.744388 0.773772 0.257061
#
# Coordination Sequence:
#
# PCOD9351757 Si02
#       8
#     8   8   8   8   8   8   8   8
#     4  10  22  44  74  99 128 173 231 285 339 412
#     4  10  20  35  61  89 120 158 203 253 311 386
#     4   8  17  34  57  90 118 154 204 250 300 373
#     4  10  22  41  66  92 125 173 222 268 323 405
#     4   9  18  36  62  84 112 156 205 250 302 380
#     4  10  23  44  71 101 132 173 229 287 340 410
#     4  11  24  41  63  91 127 171 214 273 338 402
#     4  12  26  39  62  96 135 170 214 278 346 400
#
# _framework density 20.954606999999999
#
# number of rings (size 3 to 8) (size 9 to 14) (size 15 to 20)
#    0.000    2.000    0.000    3.750    7.000    2.000 
#    4.500    0.000    0.000    0.000    0.000    0.000 
#    0.000    0.000    0.000    0.000    0.000    0.000 
#
# Total GULP energy -178388.244432 kJ/mol
# GULP energy per Si atom -5574.632638 kJ/mol
# Density = 2.090691 g / cm^3
# Si number density = 20.954607 Si / 1000 Ang^3
#
#
#
# Elastic Constant Matrix: (Units=GPa)
#
#
# Indices 1 2 3 4 5 6 
#
# 1 34.4438 19.6603 6.2299 0.0000 0.0000 0.0000
# 2 19.6603 79.2058 21.4766 0.0000 0.0000 0.0000
# 3 6.2299 21.4766 87.8247 0.0000 0.0000 0.0000
# 4 0.0000 0.0000 0.0000 60.9619 0.0000 0.0000
# 5 0.0000 0.0000 0.0000 0.0000 22.0399 0.0000
# 6 0.0000 0.0000 0.0000 0.0000 0.0000 -9.3718
#
#
#
# Elastic Compliance Matrix: (Units=1/GPa)
#
#
# Indices 1 2 3 4 5 6 
#
# 1 0.033836 -0.008298 -0.000371 0.000000 0.000000 0.000000
# 2 -0.008298 0.015557 -0.003216 0.000000 0.000000 0.000000
# 3 -0.000371 -0.003216 0.012199 0.000000 0.000000 0.000000
# 4 0.000000 0.000000 0.000000 0.016404 0.000000 0.000000
# 5 0.000000 0.000000 0.000000 0.000000 0.045372 0.000000
# 6 0.000000 0.000000 0.000000 0.000000 0.000000 -0.106703
#
#
# Mechanical properties :
#
#
# Convention : Reuss Voigt Hill
#
# Bulk Modulus (GPa) = 26.43910 32.91197 29.67553
# Shear Modulus (GPa) = 94.26433 24.99985 59.63209
#
# Velocity S-wave (km/s) = 6.71436 3.45780 5.34037
# Velocity P-wave (km/s) = 8.52965 5.62870 7.22624
#
# Compressibility (1/GPa) = 0.03782277
#
# Stress axis : x y z
#
# Youngs Moduli (GPa) = 29.55394 64.27965 81.97396
#
# Poissons Ratio (x) = 0.53341 0.03041
# Poissons Ratio (y) = 0.24524 0.26360
# Poissons Ratio (z) = 0.01096 0.20670
#
# Static dielectric constant tensor:
#      x y z
#    x 1.720700 0.000000 0.000000 
#    y 0.000000 0.587470 0.000000 
#    z 0.000000 0.000000 1.813090 
# 
# From -- ./inp_files/9008.got.cif
#   From: 2010.05.17/outbox.cif.g08.bks.cpg/sg36_5_cif.got.tgz:9008.got - 2010.06.03 17:41:39.
