data_PCOD9351925
_publ_section_title
;
Structure prediction by ZEFSAII (Michael W. Deem and Ramdas Pophale) SiO2 
 PCOD9351925
Probable space group: C M C 21
;
_chemical_formula_sum "Si O2"
_cell_formula_units_Z 64
_cell_length_a 18.375084
_cell_length_b 19.477616
_cell_length_c 9.344792
_cell_angle_alpha 90.000000
_cell_angle_beta 90.000000
_cell_angle_gamma 90.000000
_cell_volume 3344.527504
_symmetry_space_group_name_H-M "C M C 21"
_symmetry_group_IT_number 36
_symmetry_cell_setting 'orthorhombic'
loop_
_space_group_symop_operation_xyz
x,y,z
-x,-y,1/2+z
x,-y,1/2+z
-x,y,z
1/2+x,1/2+y,z
1/2-x,1/2-y,1/2+z
1/2+x,1/2-y,1/2+z
1/2-x,1/2+y,z
loop_
_atom_site_type_symbol
_atom_site_label
_atom_site_fract_x
_atom_site_fract_y
_atom_site_fract_z
Si Si1 0.078569 0.321944 0.120840
Si Si2 0.585716 0.144675 0.014820
Si Si3 0.239364 0.685491 0.913710
Si Si4 0.609039 0.040377 0.792163
Si Si5 0.773187 0.944683 0.219162
Si Si6 0.379574 0.888722 0.826470
Si Si7 0.806185 0.792373 0.719123
Si Si8 0.791641 0.921092 0.886095
O O1 0.077569 0.393687 0.209476
O O2 0.138670 0.267024 0.167299
O O3 0.000000 0.288790 0.137609
O O4 0.091640 0.346897 0.960364
O O5 0.500000 0.159951 0.988358
O O6 0.603286 0.150184 0.180887
O O7 0.651493 0.185147 0.938021
O O8 0.604067 0.068060 0.955473
O O9 0.269306 0.622860 0.818679
O O10 0.251971 0.753731 0.821595
O O11 0.272392 0.681374 0.070895
O O12 0.687848 0.035469 0.717715
O O13 0.582520 0.963015 0.802326
O O14 0.809658 0.008392 0.302144
O O15 0.799402 0.930260 0.057576
O O16 0.294232 0.904594 0.856720
O O17 0.832835 0.856760 0.813628
#
# Coordination Sequence:
#
# PCOD9351925 Si02
#       8
#     8   8   8   8   8   8   8   8
#     4  12  24  39  55  81 118 160 206 247 297 360
#     4  11  22  35  50  77 111 152 195 241 283 336
#     4  11  22  37  57  82 113 158 197 245 296 355
#     4  10  21  34  56  77 114 156 199 234 286 340
#     4  10  20  37  59  90 117 150 192 248 289 360
#     4  11  21  36  54  80 113 158 200 242 282 341
#     4  12  23  38  59  83 115 161 200 252 306 352
#     4  11  21  36  61  88 119 151 200 243 301 354
#
# _framework density 19.135736999999999
#
# number of rings (size 3 to 8) (size 9 to 14) (size 15 to 20)
#    0.000    1.000    5.000    3.750    7.000    3.000 
#    0.000    0.000    0.000    0.000    0.000    3.500 
#    0.000    0.000    0.000    0.000    0.000    0.000 
#
# Total GULP energy -178262.624046 kJ/mol
# GULP energy per Si atom -5570.707001 kJ/mol
# Density = 1.909218 g / cm^3
# Si number density = 19.135737 Si / 1000 Ang^3
#
#
#
# Elastic Constant Matrix: (Units=GPa)
#
#
# Indices 1 2 3 4 5 6 
#
# 1 35.6735 7.2251 14.6516 0.0000 0.0000 0.0000
# 2 7.2251 114.5768 66.8392 0.0000 0.0000 0.0000
# 3 14.6516 66.8392 183.9239 0.0000 0.0000 0.0000
# 4 0.0000 0.0000 0.0000 21.0309 0.0000 0.0000
# 5 0.0000 0.0000 0.0000 0.0000 3.3398 0.0000
# 6 0.0000 0.0000 0.0000 0.0000 0.0000 -9.9744
#
#
#
# Elastic Compliance Matrix: (Units=1/GPa)
#
#
# Indices 1 2 3 4 5 6 
#
# 1 0.029014 -0.000611 -0.002089 0.000000 0.000000 0.000000
# 2 -0.000611 0.011089 -0.003981 0.000000 0.000000 0.000000
# 3 -0.002089 -0.003981 0.007050 0.000000 0.000000 0.000000
# 4 0.000000 0.000000 0.000000 0.047549 0.000000 0.000000
# 5 0.000000 0.000000 0.000000 0.000000 0.299415 0.000000
# 6 0.000000 0.000000 0.000000 0.000000 0.000000 -0.100257
#
#
# Mechanical properties :
#
#
# Convention : Reuss Voigt Hill
#
# Bulk Modulus (GPa) = 29.59416 56.84510 43.21963
# Shear Modulus (GPa) = 15.69930 19.24317 17.47123
#
# Velocity S-wave (km/s) = 2.86740 3.17458 3.02489
# Velocity P-wave (km/s) = 5.14408 6.57328 5.90210
#
# Compressibility (1/GPa) = 0.03379046
#
# Stress axis : x y z
#
# Youngs Moduli (GPa) = 34.46633 90.18229 141.83983
#
# Poissons Ratio (x) = 0.05508 0.29635
# Poissons Ratio (y) = 0.02105 0.56467
# Poissons Ratio (z) = 0.07201 0.35902
#
# Static dielectric constant tensor:
#      x y z
#    x 1.694290 0.000000 0.000000 
#    y 0.000000 1.715260 0.000000 
#    z 0.000000 0.000000 1.716270 
# 
# From -- ./inp_files/5341.got.cif
#   From: 2010.05.17/outbox.cif.g08.bks.cpg/sg36_3_cif.got.tgz:5341.got - 2010.06.03 17:41:39.
