data_PCOD9351402
_publ_section_title
;
Structure prediction by ZEFSAII (Michael W. Deem and Ramdas Pophale) SiO2 
 PCOD9351402
Probable space group: C M C 21
;
_chemical_formula_sum "Si O2"
_cell_formula_units_Z 64
_cell_length_a 20.710176
_cell_length_b 18.443253
_cell_length_c 8.522204
_cell_angle_alpha 90.000000
_cell_angle_beta 90.000000
_cell_angle_gamma 90.000000
_cell_volume 3255.166740
_symmetry_space_group_name_H-M "C M C 21"
_symmetry_group_IT_number 36
_symmetry_cell_setting 'orthorhombic'
loop_
_space_group_symop_operation_xyz
x,y,z
-x,-y,1/2+z
x,-y,1/2+z
-x,y,z
1/2+x,1/2+y,z
1/2-x,1/2-y,1/2+z
1/2+x,1/2-y,1/2+z
1/2-x,1/2+y,z
loop_
_atom_site_type_symbol
_atom_site_label
_atom_site_fract_x
_atom_site_fract_y
_atom_site_fract_z
Si Si1 0.157241 0.721013 0.337960
Si Si2 0.927052 0.805720 0.086890
Si Si3 0.307846 0.401845 0.043765
Si Si4 0.246101 0.518103 0.262843
Si Si5 0.224447 0.263156 0.149844
Si Si6 0.148438 0.547127 0.007105
Si Si7 0.074410 0.395162 0.019721
Si Si8 0.395173 0.815273 0.343237
O O1 0.105542 0.765749 0.236253
O O2 0.184706 0.761410 0.495422
O O3 0.219456 0.714462 0.224495
O O4 0.121189 0.649923 0.403857
O O5 0.000000 0.826825 0.121199
O O6 0.879858 0.872154 0.048452
O O7 0.926282 0.750520 0.938763
O O8 0.285842 0.430236 0.875491
O O9 0.292770 0.466759 0.163171
O O10 0.261066 0.335823 0.092969
O O11 0.197264 0.469217 0.364734
O O12 0.196799 0.558198 0.149304
O O13 0.174149 0.285092 0.285294
O O14 0.104710 0.475643 0.036023
O O15 0.109349 0.618228 0.964208
O O16 0.000000 0.399362 0.965935
O O17 0.075912 0.350813 0.184532
#
# Coordination Sequence:
#
# PCOD9351402 Si02
#       8
#     8   8   8   8   8   8   8   8
#     4  10  21  38  61  88 121 161 203 256 308 357
#     4  11  25  42  60  88 126 164 210 251 302 377
#     4  10  21  39  62  92 120 156 192 258 317 372
#     4  10  19  39  63  88 120 145 198 262 323 356
#     4  10  19  38  59  94 121 152 207 254 318 359
#     4  11  21  38  58  91 123 160 206 259 296 353
#     4  11  24  41  58  86 132 179 213 239 290 371
#     4  11  22  39  61  87 123 171 205 261 298 355
#
# _framework density 19.661052000000002
#
# number of rings (size 3 to 8) (size 9 to 14) (size 15 to 20)
#    0.000    1.500    2.500    4.500    3.500    1.000 
#    4.500    0.625    0.000    0.000    0.000    0.000 
#    0.000    0.000    0.000    0.000    0.000    0.000 
#
# Total GULP energy -178764.975416 kJ/mol
# GULP energy per Si atom -5586.405482 kJ/mol
# Density = 1.961630 g / cm^3
# Si number density = 19.661052 Si / 1000 Ang^3
#
#
#
# Elastic Constant Matrix: (Units=GPa)
#
#
# Indices 1 2 3 4 5 6 
#
# 1 145.6455 51.1353 37.4707 0.0000 0.0000 0.0000
# 2 51.1353 83.1190 43.6182 0.0000 0.0000 0.0000
# 3 37.4707 43.6182 96.6998 0.0000 0.0000 0.0000
# 4 0.0000 0.0000 0.0000 15.6139 0.0000 0.0000
# 5 0.0000 0.0000 0.0000 0.0000 12.3359 0.0000
# 6 0.0000 0.0000 0.0000 0.0000 0.0000 12.0190
#
#
#
# Elastic Compliance Matrix: (Units=1/GPa)
#
#
# Indices 1 2 3 4 5 6 
#
# 1 0.008877 -0.004790 -0.001279 0.000000 0.000000 0.000000
# 2 -0.004790 0.018346 -0.006419 0.000000 0.000000 0.000000
# 3 -0.001279 -0.006419 0.013733 0.000000 0.000000 0.000000
# 4 0.000000 0.000000 0.000000 0.064045 0.000000 0.000000
# 5 0.000000 0.000000 0.000000 0.000000 0.081064 0.000000
# 6 0.000000 0.000000 0.000000 0.000000 0.000000 0.083202
#
#
# Mechanical properties :
#
#
# Convention : Reuss Voigt Hill
#
# Bulk Modulus (GPa) = 62.58260 65.54587 64.06423
# Shear Modulus (GPa) = 16.69059 20.87644 18.78352
#
# Velocity S-wave (km/s) = 2.91678 3.26209 3.09425
# Velocity P-wave (km/s) = 6.57596 6.89917 6.73951
#
# Compressibility (1/GPa) = 0.01597888
#
# Stress axis : x y z
#
# Youngs Moduli (GPa) = 112.65398 54.50679 72.81959
#
# Poissons Ratio (x) = 0.26107 0.09315
# Poissons Ratio (y) = 0.53958 0.46746
# Poissons Ratio (z) = 0.14411 0.34990
#
# Static dielectric constant tensor:
#      x y z
#    x 1.675930 0.000000 0.000000 
#    y 0.000000 1.693910 0.000000 
#    z 0.000000 0.000000 1.773950 
# 
# From -- ./inp_files/5322.got.cif
#   From: 2010.05.17/outbox.cif.g08.bks.cpg/sg36_3_cif.got.tgz:5322.got - 2010.06.03 17:41:39.
