data_PCOD9351096
_publ_section_title
;
Structure prediction by ZEFSAII (Michael W. Deem and Ramdas Pophale) SiO2 
 PCOD9351096
Probable space group: C M C 21
;
_chemical_formula_sum "Si O2"
_cell_formula_units_Z 64
_cell_length_a 9.164022
_cell_length_b 15.111750
_cell_length_c 23.895848
_cell_angle_alpha 90.000000
_cell_angle_beta 90.000000
_cell_angle_gamma 90.000000
_cell_volume 3309.202399
_symmetry_space_group_name_H-M "C M C 21"
_symmetry_group_IT_number 36
_symmetry_cell_setting 'orthorhombic'
loop_
_space_group_symop_operation_xyz
x,y,z
-x,-y,1/2+z
x,-y,1/2+z
-x,y,z
1/2+x,1/2+y,z
1/2-x,1/2-y,1/2+z
1/2+x,1/2-y,1/2+z
1/2-x,1/2+y,z
loop_
_atom_site_type_symbol
_atom_site_label
_atom_site_fract_x
_atom_site_fract_y
_atom_site_fract_z
Si Si1 0.174918 0.439671 0.673700
Si Si2 0.675414 0.890010 0.234567
Si Si3 0.673731 0.833930 0.919794
Si Si4 0.324285 0.186380 0.854207
Si Si5 0.167720 0.799665 0.032203
Si Si6 0.825308 0.536950 0.945292
Si Si7 0.174822 0.245503 0.653962
Si Si8 0.167948 0.009441 0.059022
O O1 0.214627 0.508000 0.722578
O O2 0.211328 0.337622 0.683872
O O3 0.250423 0.468759 0.616218
O O4 0.000000 0.444040 0.665585
O O5 0.500000 0.883553 0.232368
O O6 0.722626 0.851109 0.294018
O O7 0.743794 0.833092 0.184758
O O8 0.500000 0.826627 0.915891
O O9 0.749723 0.778172 0.871093
O O10 0.711932 0.938470 0.922232
O O11 0.731639 0.792694 0.978198
O O12 0.500000 0.196583 0.854153
O O13 0.287637 0.112546 0.900920
O O14 0.213413 0.748328 0.088171
O O15 0.169601 0.903113 0.049955
O O16 0.000000 0.775581 0.017617
O O17 0.000000 0.538222 0.954100
O O18 0.746848 0.549163 0.004621
O O19 0.000000 0.230519 0.655785
O O20 0.000000 0.037969 0.061913
#
# Coordination Sequence:
#
# PCOD9351096 Si02
#       8
#     8   8   8   8   8   8   8   8
#     4  10  21  36  57  84 113 149 191 231 279 339
#     4  10  22  40  59  82 113 149 192 239 281 329
#     4  10  21  36  57  87 114 145 190 239 281 326
#     4  10  22  40  60  80 111 155 192 229 284 343
#     4   9  18  34  55  81 117 154 182 222 286 347
#     4   9  20  38  58  81 113 151 188 228 280 340
#     4  10  21  37  58  84 113 151 190 229 285 341
#     4  10  19  33  56  85 118 148 183 233 284 333
#
# _framework density 19.340008000000001
#
# number of rings (size 3 to 8) (size 9 to 14) (size 15 to 20)
#    0.000    2.250    1.250    0.750    1.750    4.000 
#    0.000    2.500    0.000    0.000    0.000    0.000 
#    0.000    0.000    0.000    0.000    0.000    0.000 
#
# Total GULP energy -178680.011707 kJ/mol
# GULP energy per Si atom -5583.750366 kJ/mol
# Density = 1.929599 g / cm^3
# Si number density = 19.340008 Si / 1000 Ang^3
#
#
#
# Elastic Constant Matrix: (Units=GPa)
#
#
# Indices 1 2 3 4 5 6 
#
# 1 8.7971 7.3878 -0.5347 0.0000 0.0000 0.0000
# 2 7.3878 45.0285 -9.6451 0.0000 0.0000 0.0000
# 3 -0.5347 -9.6451 25.0639 0.0000 0.0000 0.0000
# 4 0.0000 0.0000 0.0000 25.5865 0.0000 0.0000
# 5 0.0000 0.0000 0.0000 0.0000 26.9106 0.0000
# 6 0.0000 0.0000 0.0000 0.0000 0.0000 16.6822
#
#
#
# Elastic Compliance Matrix: (Units=1/GPa)
#
#
# Indices 1 2 3 4 5 6 
#
# 1 0.132674 -0.023062 -0.006044 0.000000 0.000000 0.000000
# 2 -0.023062 0.028212 0.010365 0.000000 0.000000 0.000000
# 3 -0.006044 0.010365 0.043758 0.000000 0.000000 0.000000
# 4 0.000000 0.000000 0.000000 0.039083 0.000000 0.000000
# 5 0.000000 0.000000 0.000000 0.000000 0.037160 0.000000
# 6 0.000000 0.000000 0.000000 0.000000 0.000000 0.059944
#
#
# Mechanical properties :
#
#
# Convention : Reuss Voigt Hill
#
# Bulk Modulus (GPa) = 5.98233 8.14505 7.06369
# Shear Modulus (GPa) = 11.51982 19.28130 15.40056
#
# Velocity S-wave (km/s) = 2.44324 3.16090 2.82495
# Velocity P-wave (km/s) = 3.32553 4.18836 3.78163
#
# Compressibility (1/GPa) = 0.16715902
#
# Stress axis : x y z
#
# Youngs Moduli (GPa) = 7.53729 35.44583 22.85318
#
# Poissons Ratio (x) = 0.81746 0.13813
# Poissons Ratio (y) = 0.17383 -0.23686
# Poissons Ratio (z) = 0.04556 -0.36738
#
# Static dielectric constant tensor:
#      x y z
#    x 1.645680 0.000000 0.000000 
#    y 0.000000 1.701640 0.000000 
#    z 0.000000 0.000000 1.653550 
# 
# From -- ./inp_files/16555.got.cif
#   From: 2010.05.17/outbox.cif.g08.bks.cpg/sg36_9_cif.got.tgz:16555.got - 2010.06.03 17:41:39.
