data_PCOD9351953
_publ_section_title
;
Structure prediction by ZEFSAII (Michael W. Deem and Ramdas Pophale) SiO2 
 PCOD9351953
Probable space group: C M C 21
;
_chemical_formula_sum "Si O2"
_cell_formula_units_Z 64
_cell_length_a 8.620757
_cell_length_b 25.377121
_cell_length_c 14.897258
_cell_angle_alpha 90.000000
_cell_angle_beta 90.000000
_cell_angle_gamma 90.000000
_cell_volume 3259.073036
_symmetry_space_group_name_H-M "C M C 21"
_symmetry_group_IT_number 36
_symmetry_cell_setting 'orthorhombic'
loop_
_space_group_symop_operation_xyz
x,y,z
-x,-y,1/2+z
x,-y,1/2+z
-x,y,z
1/2+x,1/2+y,z
1/2-x,1/2-y,1/2+z
1/2+x,1/2-y,1/2+z
1/2-x,1/2+y,z
loop_
_atom_site_type_symbol
_atom_site_label
_atom_site_fract_x
_atom_site_fract_y
_atom_site_fract_z
Si Si1 0.318929 0.250796 0.171620
Si Si2 0.685855 0.138371 0.664468
Si Si3 0.685667 0.864212 0.657198
Si Si4 0.685456 0.135306 0.454999
Si Si5 0.316708 0.631875 0.956960
Si Si6 0.184466 0.248383 0.974339
Si Si7 0.815309 0.444463 0.311238
Si Si8 0.682381 0.560942 0.305442
O O1 0.500000 0.255414 0.192277
O O2 0.238595 0.304709 0.200796
O O3 0.264980 0.192406 0.199720
O O4 0.286727 0.249016 0.064279
O O5 0.500000 0.138227 0.665385
O O6 0.731886 0.132241 0.560037
O O7 0.740392 0.090706 0.726747
O O8 0.500000 0.861729 0.643839
O O9 0.767490 0.870834 0.561137
O O10 0.729114 0.910847 0.723690
O O11 0.500000 0.125674 0.448400
O O12 0.712233 0.196216 0.425847
O O13 0.772910 0.093912 0.393903
O O14 0.500000 0.621868 0.948126
O O15 0.287023 0.692674 0.927280
O O16 0.223553 0.590495 0.898083
O O17 0.000000 0.248786 0.000370
O O18 0.734617 0.500773 0.314781
O O19 0.000000 0.452138 0.304118
O O20 0.500000 0.564074 0.289229
#
# Coordination Sequence:
#
# PCOD9351953 Si02
#       8
#     8   8   8   8   8   8   8   8
#     4   9  17  30  55  88 118 146 182 227 279 339
#     4   9  20  38  61  86 114 149 188 230 283 341
#     4  10  21  39  61  86 117 155 191 228 282 346
#     4   9  18  37  61  85 115 151 187 229 284 346
#     4  10  20  37  61  90 120 150 186 234 286 336
#     4   8  16  32  56  84 117 151 183 223 278 341
#     4  11  24  42  60  81 112 153 198 241 285 344
#     4  12  26  41  57  82 113 149 197 250 291 333
#
# _framework density 19.637485000000002
#
# number of rings (size 3 to 8) (size 9 to 14) (size 15 to 20)
#    0.000    2.250    0.000    3.375    0.000    7.000 
#    0.000    7.500    0.000    0.000    0.000    0.000 
#    0.000    0.000    0.000    0.000    0.000    0.000 
#
# Total GULP energy -178607.994330 kJ/mol
# GULP energy per Si atom -5581.499823 kJ/mol
# Density = 1.959279 g / cm^3
# Si number density = 19.637485 Si / 1000 Ang^3
#
#
#
# Elastic Constant Matrix: (Units=GPa)
#
#
# Indices 1 2 3 4 5 6 
#
# 1 21.4466 11.9784 -1.1740 0.0000 0.0000 0.0000
# 2 11.9784 135.0107 33.9307 0.0000 0.0000 0.0000
# 3 -1.1740 33.9307 65.3934 0.0000 0.0000 0.0000
# 4 0.0000 0.0000 0.0000 31.8099 0.0000 0.0000
# 5 0.0000 0.0000 0.0000 0.0000 22.2463 0.0000
# 6 0.0000 0.0000 0.0000 0.0000 0.0000 21.0794
#
#
#
# Elastic Compliance Matrix: (Units=1/GPa)
#
#
# Indices 1 2 3 4 5 6 
#
# 1 0.049811 -0.005340 0.003665 0.000000 0.000000 0.000000
# 2 -0.005340 0.009090 -0.004812 0.000000 0.000000 0.000000
# 3 0.003665 -0.004812 0.017855 0.000000 0.000000 0.000000
# 4 0.000000 0.000000 0.000000 0.031437 0.000000 0.000000
# 5 0.000000 0.000000 0.000000 0.000000 0.044951 0.000000
# 6 0.000000 0.000000 0.000000 0.000000 0.000000 0.047440
#
#
# Mechanical properties :
#
#
# Convention : Reuss Voigt Hill
#
# Bulk Modulus (GPa) = 15.67879 34.59121 25.13500
# Shear Modulus (GPa) = 21.29300 26.83483 24.06392
#
# Velocity S-wave (km/s) = 3.29645 3.70064 3.50438
# Velocity P-wave (km/s) = 4.74239 5.99273 5.40384
#
# Compressibility (1/GPa) = 0.06378043
#
# Stress axis : x y z
#
# Youngs Moduli (GPa) = 20.07596 110.00984 56.00703
#
# Poissons Ratio (x) = 0.58750 -0.20528
# Poissons Ratio (y) = 0.10721 0.26953
# Poissons Ratio (z) = -0.07358 0.52942
#
# Static dielectric constant tensor:
#      x y z
#    x 1.660150 0.000000 0.000000 
#    y 0.000000 1.690120 0.000000 
#    z 0.000000 0.000000 1.696650 
# 
# From -- ./inp_files/11088.got.cif
#   From: 2010.05.17/outbox.cif.g08.bks.cpg/sg36_6_cif.got.tgz:11088.got - 2010.06.03 17:41:39.
