data_PCOD9351265
_publ_section_title
;
Structure prediction by ZEFSAII (Michael W. Deem and Ramdas Pophale) SiO2 
 PCOD9351265
Probable space group: C M C 21
;
_chemical_formula_sum "Si O2"
_cell_formula_units_Z 48
_cell_length_a 12.416132
_cell_length_b 25.863873
_cell_length_c 7.801669
_cell_angle_alpha 90.000000
_cell_angle_beta 90.000000
_cell_angle_gamma 90.000000
_cell_volume 2505.344202
_symmetry_space_group_name_H-M "C M C 21"
_symmetry_group_IT_number 36
_symmetry_cell_setting 'orthorhombic'
loop_
_space_group_symop_operation_xyz
x,y,z
-x,-y,1/2+z
x,-y,1/2+z
-x,y,z
1/2+x,1/2+y,z
1/2-x,1/2-y,1/2+z
1/2+x,1/2-y,1/2+z
1/2-x,1/2+y,z
loop_
_atom_site_type_symbol
_atom_site_label
_atom_site_fract_x
_atom_site_fract_y
_atom_site_fract_z
Si Si1 0.734558 0.981706 0.047020
Si Si2 0.622395 0.337911 0.677082
Si Si3 0.621834 0.548480 0.255997
Si Si4 0.627336 0.923760 0.349345
Si Si5 0.126970 0.212043 0.525816
Si Si6 0.731427 0.190132 0.866956
O O1 0.656145 0.949414 0.166590
O O2 0.842135 0.999069 0.147870
O O3 0.782059 0.948800 0.892323
O O4 0.678556 0.034481 0.981401
O O5 0.500000 0.319256 0.668740
O O6 0.623949 0.399309 0.646800
O O7 0.656852 0.328133 0.873710
O O8 0.688826 0.311310 0.529295
O O9 0.500000 0.543622 0.323811
O O10 0.500000 0.920403 0.376396
O O11 0.679104 0.866790 0.354644
O O12 0.202409 0.204346 0.693314
O O13 0.146579 0.266332 0.426756
O O14 0.000000 0.206146 0.571057
#
# Coordination Sequence:
#
# PCOD9351265 Si02
#       6
#     8   8   8   8   8   8
#     4  10  21  37  59  86 125 157 200 251 306 360
#     4  10  21  39  61  89 125 163 202 250 309 367
#     4  10  19  35  58  88 119 155 198 244 301 365
#     4  11  23  40  62  87 119 163 208 255 306 363
#     4  11  24  41  65  93 126 164 204 256 312 369
#     4  12  22  42  65  91 126 162 212 254 310 370
#
# _framework density 19.159043
#
# number of rings (size 3 to 8) (size 9 to 14) (size 15 to 20)
#    0.000    1.333    3.333    3.000    0.000    0.000 
#    0.000    1.667    0.000    0.000    0.000    0.000 
#    0.000    0.000    0.000    0.000    0.000    0.000 
#
# Total GULP energy -133761.487460 kJ/mol
# GULP energy per Si atom -5573.395311 kJ/mol
# Density = 1.911544 g / cm^3
# Si number density = 19.159043 Si / 1000 Ang^3
#
#
#
# Elastic Constant Matrix: (Units=GPa)
#
#
# Indices 1 2 3 4 5 6 
#
# 1 92.3240 35.4647 45.8202 0.0000 0.0000 0.0000
# 2 35.4647 90.2389 11.2510 0.0000 0.0000 0.0000
# 3 45.8202 11.2510 71.4595 0.0000 0.0000 0.0000
# 4 0.0000 0.0000 0.0000 25.0787 0.0000 0.0000
# 5 0.0000 0.0000 0.0000 0.0000 26.9845 0.0000
# 6 0.0000 0.0000 0.0000 0.0000 0.0000 24.7541
#
#
#
# Elastic Compliance Matrix: (Units=1/GPa)
#
#
# Indices 1 2 3 4 5 6 
#
# 1 0.018545 -0.005922 -0.010959 0.000000 0.000000 0.000000
# 2 -0.005922 0.013195 0.001720 0.000000 0.000000 0.000000
# 3 -0.010959 0.001720 0.020750 0.000000 0.000000 0.000000
# 4 0.000000 0.000000 0.000000 0.039874 0.000000 0.000000
# 5 0.000000 0.000000 0.000000 0.000000 0.037058 0.000000
# 6 0.000000 0.000000 0.000000 0.000000 0.000000 0.040397
#
#
# Mechanical properties :
#
#
# Convention : Reuss Voigt Hill
#
# Bulk Modulus (GPa) = 45.11069 48.78822 46.94946
# Shear Modulus (GPa) = 24.09275 26.12923 25.11099
#
# Velocity S-wave (km/s) = 3.54999 3.69698 3.62423
# Velocity P-wave (km/s) = 6.35608 6.61390 6.48627
#
# Compressibility (1/GPa) = 0.02216769
#
# Stress axis : x y z
#
# Youngs Moduli (GPa) = 53.92258 75.78812 48.19273
#
# Poissons Ratio (x) = 0.44882 0.52814
# Poissons Ratio (y) = 0.31933 -0.08288
# Poissons Ratio (z) = 0.59093 -0.13034
#
# Static dielectric constant tensor:
#      x y z
#    x 1.653300 0.000000 0.000000 
#    y 0.000000 1.681450 0.000000 
#    z 0.000000 0.000000 1.717400 
# 
# From -- ./inp_files/3319.got.cif
#   From: 2010.05.17/outbox.cif.g08.bks.cpg/sg36_2_cif.got.tgz:3319.got - 2010.06.03 17:41:39.
