data_PCOD9351019
_publ_section_title
;
Structure prediction by ZEFSAII (Michael W. Deem and Ramdas Pophale) SiO2 
 PCOD9351019
Probable space group: C M C 21
;
_chemical_formula_sum "Si O2"
_cell_formula_units_Z 64
_cell_length_a 8.895637
_cell_length_b 22.979174
_cell_length_c 16.488995
_cell_angle_alpha 90.000000
_cell_angle_beta 90.000000
_cell_angle_gamma 90.000000
_cell_volume 3370.587862
_symmetry_space_group_name_H-M "C M C 21"
_symmetry_group_IT_number 36
_symmetry_cell_setting 'orthorhombic'
loop_
_space_group_symop_operation_xyz
x,y,z
-x,-y,1/2+z
x,-y,1/2+z
-x,y,z
1/2+x,1/2+y,z
1/2-x,1/2-y,1/2+z
1/2+x,1/2-y,1/2+z
1/2-x,1/2+y,z
loop_
_atom_site_type_symbol
_atom_site_label
_atom_site_fract_x
_atom_site_fract_y
_atom_site_fract_z
Si Si1 0.322804 0.844591 0.162900
Si Si2 0.175907 0.722056 0.191736
Si Si3 0.168328 0.048723 0.240556
Si Si4 0.820128 0.096531 0.504010
Si Si5 0.322624 0.859919 0.845200
Si Si6 0.175106 0.473949 0.449430
Si Si7 0.669483 0.893226 0.601624
Si Si8 0.326452 0.423317 0.289301
O O1 0.500000 0.850480 0.150663
O O2 0.273823 0.777698 0.171387
O O3 0.238786 0.876157 0.088091
O O4 0.272275 0.874712 0.246864
O O5 0.217325 0.687946 0.275689
O O6 0.186620 0.674990 0.118927
O O7 0.000000 0.738827 0.199307
O O8 0.283252 0.078493 0.302525
O O9 0.204042 0.076751 0.155108
O O10 0.000000 0.062293 0.269884
O O11 0.180730 0.980116 0.232309
O O12 0.766529 0.138078 0.429492
O O13 0.000000 0.091731 0.504974
O O14 0.748114 0.032766 0.486070
O O15 0.500000 0.855210 0.860592
O O16 0.177558 0.421272 0.514074
O O17 0.264612 0.449411 0.372747
O O18 0.000000 0.486144 0.429987
O O19 0.500000 0.907473 0.633799
O O20 0.500000 0.404837 0.297214
#
# Coordination Sequence:
#
# PCOD9351019 Si02
#       8
#     8   8   8   8   8   8   8   8
#     4  12  26  43  63  89 121 165 214 259 310 368
#     4   9  20  42  65  87 119 158 203 256 309 365
#     4  10  19  32  56  88 120 154 194 239 298 362
#     4  12  24  40  63  93 128 164 205 257 313 370
#     4  10  20  37  64  92 121 158 201 252 306 364
#     4  11  22  38  62  94 128 160 201 252 308 373
#     4   9  20  37  60  88 118 156 198 245 301 358
#     4  11  23  39  59  87 125 165 200 248 311 368
#
# _framework density 18.987786
#
# number of rings (size 3 to 8) (size 9 to 14) (size 15 to 20)
#    0.000    1.500    1.250    5.250    0.000    7.000 
#    2.250    0.000    0.000    0.000    0.000    0.000 
#    0.000    0.000    0.000    0.000    0.000    0.000 
#
# Total GULP energy -178586.290511 kJ/mol
# GULP energy per Si atom -5580.821578 kJ/mol
# Density = 1.894457 g / cm^3
# Si number density = 18.987786 Si / 1000 Ang^3
#
#
#
# Elastic Constant Matrix: (Units=GPa)
#
#
# Indices 1 2 3 4 5 6 
#
# 1 104.7310 50.9045 25.1182 0.0000 0.0000 0.0000
# 2 50.9045 86.5698 45.2314 0.0000 0.0000 0.0000
# 3 25.1182 45.2314 55.8828 0.0000 0.0000 0.0000
# 4 0.0000 0.0000 0.0000 22.3822 0.0000 0.0000
# 5 0.0000 0.0000 0.0000 0.0000 25.1930 0.0000
# 6 0.0000 0.0000 0.0000 0.0000 0.0000 31.6011
#
#
#
# Elastic Compliance Matrix: (Units=1/GPa)
#
#
# Indices 1 2 3 4 5 6 
#
# 1 0.013381 -0.008189 0.000614 0.000000 0.000000 0.000000
# 2 -0.008189 0.025028 -0.016577 0.000000 0.000000 0.000000
# 3 0.000614 -0.016577 0.031036 0.000000 0.000000 0.000000
# 4 0.000000 0.000000 0.000000 0.044678 0.000000 0.000000
# 5 0.000000 0.000000 0.000000 0.000000 0.039694 0.000000
# 6 0.000000 0.000000 0.000000 0.000000 0.000000 0.031644
#
#
# Mechanical properties :
#
#
# Convention : Reuss Voigt Hill
#
# Bulk Modulus (GPa) = 47.30190 54.41020 50.85605
# Shear Modulus (GPa) = 20.76306 24.23056 22.49681
#
# Velocity S-wave (km/s) = 3.31039 3.57615 3.44583
# Velocity P-wave (km/s) = 6.29106 6.76531 6.53249
#
# Compressibility (1/GPa) = 0.02114080
#
# Stress axis : x y z
#
# Youngs Moduli (GPa) = 74.73056 39.95583 32.22084
#
# Poissons Ratio (x) = 0.32720 -0.01977
# Poissons Ratio (y) = 0.61197 0.53411
# Poissons Ratio (z) = -0.04585 0.66233
#
# Static dielectric constant tensor:
#      x y z
#    x 1.657540 0.000000 0.000000 
#    y 0.000000 1.658160 0.000000 
#    z 0.000000 0.000000 1.693650 
# 
# From -- ./inp_files/14000.got.cif
#   From: 2010.05.17/outbox.cif.g08.bks.cpg/sg36_7_cif.got.tgz:14000.got - 2010.06.03 17:41:39.
