data_PCOD9351983
_publ_section_title
;
Structure prediction by ZEFSAII (Michael W. Deem and Ramdas Pophale) SiO2 
 PCOD9351983
Probable space group: C M C 21
;
_chemical_formula_sum "Si O2"
_cell_formula_units_Z 48
_cell_length_a 7.963371
_cell_length_b 28.008321
_cell_length_c 10.320834
_cell_angle_alpha 90.000000
_cell_angle_beta 90.000000
_cell_angle_gamma 90.000000
_cell_volume 2301.965536
_symmetry_space_group_name_H-M "C M C 21"
_symmetry_group_IT_number 36
_symmetry_cell_setting 'orthorhombic'
loop_
_space_group_symop_operation_xyz
x,y,z
-x,-y,1/2+z
x,-y,1/2+z
-x,y,z
1/2+x,1/2+y,z
1/2-x,1/2-y,1/2+z
1/2+x,1/2-y,1/2+z
1/2-x,1/2+y,z
loop_
_atom_site_type_symbol
_atom_site_label
_atom_site_fract_x
_atom_site_fract_y
_atom_site_fract_z
Si Si1 0.705392 0.037220 0.242510
Si Si2 0.192328 0.851225 0.391932
Si Si3 0.703139 0.040678 0.949625
Si Si4 0.294525 0.857422 0.832681
Si Si5 0.694806 0.822577 0.111183
Si Si6 0.694459 0.783887 0.612703
O O1 0.500000 0.036982 0.243684
O O2 0.758001 0.090216 0.285902
O O3 0.762895 0.997109 0.343056
O O4 0.758941 0.028056 0.095122
O O5 0.243726 0.905622 0.417520
O O6 0.215554 0.838981 0.241610
O O7 0.295667 0.815470 0.483077
O O8 0.000000 0.844403 0.429957
O O9 0.500000 0.039584 0.948992
O O10 0.500000 0.856800 0.831869
O O11 0.241676 0.816976 0.730418
O O12 0.239164 0.845438 0.978015
O O13 0.500000 0.836562 0.124557
O O14 0.708987 0.765529 0.099027
O O15 0.500000 0.771755 0.639326
#
# Coordination Sequence:
#
# PCOD9351983 Si02
#       6
#     8   8   8   8   8   8
#     4   9  18  34  61  93 116 145 195 251 310 374
#     4  12  25  41  59  86 127 170 211 249 295 361
#     4  10  20  37  64  91 117 152 199 256 312 366
#     4   9  19  36  60  89 119 152 193 249 309 371
#     4  11  23  38  62  93 124 159 203 253 310 368
#     4  11  21  40  66  90 121 158 203 256 314 370
#
# _framework density 20.851745000000001
#
# number of rings (size 3 to 8) (size 9 to 14) (size 15 to 20)
#    0.000    1.667    1.667    3.500    2.333    1.333 
#    0.000    3.333    0.000    0.000    0.000    0.000 
#    0.000    0.000    0.000    0.000    0.000    0.000 
#
# Total GULP energy -134186.503377 kJ/mol
# GULP energy per Si atom -5591.104307 kJ/mol
# Density = 2.080429 g / cm^3
# Si number density = 20.851745 Si / 1000 Ang^3
#
#
#
# Elastic Constant Matrix: (Units=GPa)
#
#
# Indices 1 2 3 4 5 6 
#
# 1 27.9777 -3.9199 -1.7376 0.0000 0.0000 0.0000
# 2 -3.9199 96.5204 65.5087 0.0000 0.0000 0.0000
# 3 -1.7376 65.5087 169.0016 0.0000 0.0000 0.0000
# 4 0.0000 0.0000 0.0000 39.4492 0.0000 0.0000
# 5 0.0000 0.0000 0.0000 0.0000 -11.3386 0.0000
# 6 0.0000 0.0000 0.0000 0.0000 0.0000 22.8736
#
#
#
# Elastic Compliance Matrix: (Units=1/GPa)
#
#
# Indices 1 2 3 4 5 6 
#
# 1 0.035956 0.001641 -0.000266 0.000000 0.000000 0.000000
# 2 0.001641 0.014134 -0.005462 0.000000 0.000000 0.000000
# 3 -0.000266 -0.005462 0.008031 0.000000 0.000000 0.000000
# 4 0.000000 0.000000 0.000000 0.025349 0.000000 0.000000
# 5 0.000000 0.000000 0.000000 0.000000 -0.088194 0.000000
# 6 0.000000 0.000000 0.000000 0.000000 0.000000 0.043719
#
#
# Mechanical properties :
#
#
# Convention : Reuss Voigt Hill
#
# Bulk Modulus (GPa) = 20.02106 45.91133 32.96619
# Shear Modulus (GPa) = 78.34714 25.77341 52.06028
#
# Velocity S-wave (km/s) = 6.13637 3.51954 5.00211
# Velocity P-wave (km/s) = 7.73493 6.21144 7.01467
#
# Compressibility (1/GPa) = 0.04994741
#
# Stress axis : x y z
#
# Youngs Moduli (GPa) = 27.81167 70.75087 124.51009
#
# Poissons Ratio (x) = -0.11611 0.03317
# Poissons Ratio (y) = -0.04564 0.68005
# Poissons Ratio (z) = 0.00741 0.38643
#
# Static dielectric constant tensor:
#      x y z
#    x 1.743820 0.000000 0.000000 
#    y 0.000000 1.695000 0.000000 
#    z 0.000000 0.000000 1.726200 
# 
# From -- ./inp_files/2671.got.cif
#   From: 2010.05.17/outbox.cif.g08.bks.cpg/sg36_2_cif.got.tgz:2671.got - 2010.06.03 17:41:39.
