data_PCOD9351086
_publ_section_title
;
Structure prediction by ZEFSAII (Michael W. Deem and Ramdas Pophale) SiO2 
 PCOD9351086
Probable space group: C M C 21
;
_chemical_formula_sum "Si O2"
_cell_formula_units_Z 64
_cell_length_a 7.545205
_cell_length_b 21.862985
_cell_length_c 14.495076
_cell_angle_alpha 90.000000
_cell_angle_beta 90.000000
_cell_angle_gamma 90.000000
_cell_volume 2391.117938
_symmetry_space_group_name_H-M "C M C 21"
_symmetry_group_IT_number 36
_symmetry_cell_setting 'orthorhombic'
loop_
_space_group_symop_operation_xyz
x,y,z
-x,-y,1/2+z
x,-y,1/2+z
-x,y,z
1/2+x,1/2+y,z
1/2-x,1/2-y,1/2+z
1/2+x,1/2-y,1/2+z
1/2-x,1/2+y,z
loop_
_atom_site_type_symbol
_atom_site_label
_atom_site_fract_x
_atom_site_fract_y
_atom_site_fract_z
Si Si1 0.785559 0.855110 0.248770
Si Si2 0.795379 0.524640 0.860769
Si Si3 0.292139 0.778553 0.743222
Si Si4 0.206549 0.764809 0.531038
Si Si5 0.202252 0.454042 0.691986
Si Si6 0.205854 0.069636 0.576584
Si Si7 0.713596 0.850578 0.911990
Si Si8 0.783922 0.603842 0.017845
O O1 0.705181 0.910731 0.305774
O O2 0.717120 0.787775 0.271350
O O3 0.749415 0.871835 0.141459
O O4 0.000000 0.857112 0.260907
O O5 0.716193 0.476974 0.787646
O O6 0.000000 0.506669 0.876832
O O7 0.715026 0.547551 0.956310
O O8 0.500000 0.776015 0.765764
O O9 0.283791 0.776581 0.632581
O O10 0.226178 0.834343 0.807494
O O11 0.276900 0.708554 0.471216
O O12 0.228145 0.830298 0.481417
O O13 0.000000 0.752957 0.544086
O O14 0.193525 0.513810 0.624999
O O15 0.282849 0.405349 0.622300
O O16 0.000000 0.434371 0.712420
O O17 0.232056 0.089936 0.470999
O O18 0.000000 0.055935 0.591536
O O19 0.500000 0.853436 0.913453
O O20 0.000000 0.601763 0.018341
#
# Coordination Sequence:
#
# PCOD9351086 Si02
#       8
#     8   8   8   8   8   8   8   8
#     4   9  17  31  53  79 109 143 179 226 278 328
#     4   9  18  33  56  83 106 140 191 236 275 326
#     4  10  20  36  55  79 113 153 190 224 276 343
#     4  11  23  38  58  85 118 151 187 235 285 336
#     4   9  19  37  58  80 110 145 188 237 280 332
#     4  10  19  33  56  81 108 140 181 234 284 329
#     4  10  21  36  56  82 114 153 190 226 279 342
#     4  10  21  38  58  81 112 151 192 232 281 338
#
# _framework density 26.765725
#
# number of rings (size 3 to 8) (size 9 to 14) (size 15 to 20)
#    0.000    2.250    1.250    1.500    0.000    4.000 
#    2.250    0.000    0.000    0.000    0.000    0.000 
#    0.000    0.000    0.000    0.000    0.000    0.000 
#
# Total GULP energy -178889.014339 kJ/mol
# GULP energy per Si atom -5590.281698 kJ/mol
# Density = 2.670480 g / cm^3
# Si number density = 26.765725 Si / 1000 Ang^3
#
#
#
# Elastic Constant Matrix: (Units=GPa)
#
#
# Indices 1 2 3 4 5 6 
#
# 1 78.1518 -7.2491 -9.1655 0.0000 0.0000 0.0000
# 2 -7.2491 111.2978 17.2600 0.0000 0.0000 0.0000
# 3 -9.1655 17.2600 149.5552 0.0000 0.0000 0.0000
# 4 0.0000 0.0000 0.0000 55.2777 0.0000 0.0000
# 5 0.0000 0.0000 0.0000 0.0000 8.5408 0.0000
# 6 0.0000 0.0000 0.0000 0.0000 0.0000 21.3476
#
#
#
# Elastic Compliance Matrix: (Units=1/GPa)
#
#
# Indices 1 2 3 4 5 6 
#
# 1 0.012947 0.000733 0.000709 0.000000 0.000000 0.000000
# 2 0.000733 0.009190 -0.001016 0.000000 0.000000 0.000000
# 3 0.000709 -0.001016 0.006847 0.000000 0.000000 0.000000
# 4 0.000000 0.000000 0.000000 0.018090 0.000000 0.000000
# 5 0.000000 0.000000 0.000000 0.000000 0.117085 0.000000
# 6 0.000000 0.000000 0.000000 0.000000 0.000000 0.046844
#
#
# Mechanical properties :
#
#
# Convention : Reuss Voigt Hill
#
# Bulk Modulus (GPa) = 33.51543 37.85507 35.68525
# Shear Modulus (GPa) = 22.71735 39.57718 31.14726
#
# Velocity S-wave (km/s) = 2.91649 3.84950 3.41500
# Velocity P-wave (km/s) = 4.88776 5.82512 5.37690
#
# Compressibility (1/GPa) = 0.02983700
#
# Stress axis : x y z
#
# Youngs Moduli (GPa) = 77.23943 108.81177 146.04616
#
# Poissons Ratio (x) = -0.07980 -0.10352
# Poissons Ratio (y) = -0.05664 0.14834
# Poissons Ratio (z) = -0.05475 0.11052
#
# Static dielectric constant tensor:
#      x y z
#    x 1.998730 0.000000 0.000000 
#    y 0.000000 2.117970 0.000000 
#    z 0.000000 0.000000 2.164570 
# 
# From -- ./inp_files/10960.got.cif
#   From: 2010.05.17/outbox.cif.g08.bks.cpg/sg36_6_cif.got.tgz:10960.got - 2010.06.03 17:41:39.
