data_PCOD9351804
_publ_section_title
;
Structure prediction by ZEFSAII (Michael W. Deem and Ramdas Pophale) SiO2 
 PCOD9351804
Probable space group: C M C 21
;
_chemical_formula_sum "Si O2"
_cell_formula_units_Z 64
_cell_length_a 8.033725
_cell_length_b 15.187645
_cell_length_c 23.907547
_cell_angle_alpha 90.000000
_cell_angle_beta 90.000000
_cell_angle_gamma 90.000000
_cell_volume 2917.040218
_symmetry_space_group_name_H-M "C M C 21"
_symmetry_group_IT_number 36
_symmetry_cell_setting 'orthorhombic'
loop_
_space_group_symop_operation_xyz
x,y,z
-x,-y,1/2+z
x,-y,1/2+z
-x,y,z
1/2+x,1/2+y,z
1/2-x,1/2-y,1/2+z
1/2+x,1/2-y,1/2+z
1/2-x,1/2+y,z
loop_
_atom_site_type_symbol
_atom_site_label
_atom_site_fract_x
_atom_site_fract_y
_atom_site_fract_z
Si Si1 0.194161 0.743564 0.661480
Si Si2 0.298628 0.003791 0.746111
Si Si3 0.204005 0.601188 0.574392
Si Si4 0.191710 0.341561 0.394406
Si Si5 0.188796 0.801178 0.276661
Si Si6 0.203430 0.538196 0.367074
Si Si7 0.801824 0.677687 0.457431
Si Si8 0.200785 0.423926 0.626192
O O1 0.259227 0.659435 0.627317
O O2 0.276659 0.756873 0.721976
O O3 0.219920 0.828286 0.622557
O O4 0.000000 0.729101 0.672753
O O5 0.500000 0.014921 0.745964
O O6 0.220448 0.099918 0.754193
O O7 0.251374 0.950300 0.802000
O O8 0.252748 0.960791 0.687635
O O9 0.263143 0.645769 0.517333
O O10 0.251311 0.499501 0.582636
O O11 0.000000 0.603421 0.575438
O O12 0.206105 0.295716 0.333292
O O13 0.260192 0.440606 0.386454
O O14 0.270715 0.277741 0.439868
O O15 0.000000 0.351286 0.409503
O O16 0.000000 0.787461 0.294754
O O17 0.263562 0.613406 0.408604
O O18 0.000000 0.537558 0.368208
O O19 0.000000 0.664948 0.459456
O O20 0.000000 0.414541 0.624168
#
# Coordination Sequence:
#
# PCOD9351804 Si02
#       8
#     8   8   8   8   8   8   8   8
#     4  11  22  38  57  84 118 156 194 243 299 346
#     4   9  17  34  57  81 117 153 182 232 296 345
#     4   9  20  39  59  79 115 158 195 238 295 349
#     4  10  21  38  57  85 119 153 184 237 303 347
#     4  11  21  35  58  87 117 153 195 240 288 352
#     4   8  17  33  55  81 111 146 183 226 282 343
#     4  10  20  37  61  85 109 153 204 240 280 350
#     4  10  20  36  58  84 114 154 197 236 287 356
#
# _framework density 21.940045999999999
#
# number of rings (size 3 to 8) (size 9 to 14) (size 15 to 20)
#    0.000    2.250    1.250    2.625    1.750    1.500 
#    0.000    6.250    0.000    0.000    0.000    0.000 
#    0.000    0.000    0.000    0.000    0.000    0.000 
#
# Total GULP energy -178692.363036 kJ/mol
# GULP energy per Si atom -5584.136345 kJ/mol
# Density = 2.189011 g / cm^3
# Si number density = 21.940046 Si / 1000 Ang^3
#
#
#
# Elastic Constant Matrix: (Units=GPa)
#
#
# Indices 1 2 3 4 5 6 
#
# 1 10.6184 -4.2079 3.0939 0.0000 0.0000 0.0000
# 2 -4.2079 48.0373 -11.8623 0.0000 0.0000 0.0000
# 3 3.0939 -11.8623 28.4874 0.0000 0.0000 0.0000
# 4 0.0000 0.0000 0.0000 26.1197 0.0000 0.0000
# 5 0.0000 0.0000 0.0000 0.0000 14.9017 0.0000
# 6 0.0000 0.0000 0.0000 0.0000 0.0000 13.1198
#
#
#
# Elastic Compliance Matrix: (Units=1/GPa)
#
#
# Indices 1 2 3 4 5 6 
#
# 1 0.099162 0.006718 -0.007972 0.000000 0.000000 0.000000
# 2 0.006718 0.023658 0.009122 0.000000 0.000000 0.000000
# 3 -0.007972 0.009122 0.039767 0.000000 0.000000 0.000000
# 4 0.000000 0.000000 0.000000 0.038285 0.000000 0.000000
# 5 0.000000 0.000000 0.000000 0.000000 0.067106 0.000000
# 6 0.000000 0.000000 0.000000 0.000000 0.000000 0.076221
#
#
# Mechanical properties :
#
#
# Convention : Reuss Voigt Hill
#
# Bulk Modulus (GPa) = 5.60785 6.79892 6.20338
# Shear Modulus (GPa) = 12.88974 17.50288 15.19631
#
# Velocity S-wave (km/s) = 2.42647 2.82753 2.63464
# Velocity P-wave (km/s) = 3.22674 3.71019 3.47688
#
# Compressibility (1/GPa) = 0.17832160
#
# Stress axis : x y z
#
# Youngs Moduli (GPa) = 10.08456 42.26875 25.14623
#
# Poissons Ratio (x) = -0.28395 0.20047
# Poissons Ratio (y) = -0.06774 -0.22938
# Poissons Ratio (z) = 0.08040 -0.38557
#
# Static dielectric constant tensor:
#      x y z
#    x 1.788740 0.000000 0.000000 
#    y 0.000000 1.825480 0.000000 
#    z 0.000000 0.000000 1.804940 
# 
# From -- ./inp_files/16675.got.cif
#   From: 2010.05.17/outbox.cif.g08.bks.cpg/sg36_9_cif.got.tgz:16675.got - 2010.06.03 17:41:39.
