data_PCOD9351746
_publ_section_title
;
Structure prediction by ZEFSAII (Michael W. Deem and Ramdas Pophale) SiO2 
 PCOD9351746
Probable space group: C M C 21
;
_chemical_formula_sum "Si O2"
_cell_formula_units_Z 64
_cell_length_a 9.308982
_cell_length_b 31.476053
_cell_length_c 11.177254
_cell_angle_alpha 90.000000
_cell_angle_beta 90.000000
_cell_angle_gamma 90.000000
_cell_volume 3275.047315
_symmetry_space_group_name_H-M "C M C 21"
_symmetry_group_IT_number 36
_symmetry_cell_setting 'orthorhombic'
loop_
_space_group_symop_operation_xyz
x,y,z
-x,-y,1/2+z
x,-y,1/2+z
-x,y,z
1/2+x,1/2+y,z
1/2-x,1/2-y,1/2+z
1/2+x,1/2-y,1/2+z
1/2-x,1/2+y,z
loop_
_atom_site_type_symbol
_atom_site_label
_atom_site_fract_x
_atom_site_fract_y
_atom_site_fract_z
Si Si1 0.336955 0.645884 0.897090
Si Si2 0.327607 0.769982 0.452847
Si Si3 0.327193 0.225400 0.226924
Si Si4 0.330735 0.425624 0.222399
Si Si5 0.166015 0.483250 0.408413
Si Si6 0.162752 0.069372 0.089289
Si Si7 0.833789 0.373216 0.762953
Si Si8 0.161277 0.576413 0.487023
O O1 0.500000 0.663472 0.889371
O O2 0.298836 0.621281 0.775529
O O3 0.226374 0.681712 0.934715
O O4 0.339922 0.607398 0.991623
O O5 0.500000 0.766828 0.443386
O O6 0.289071 0.758216 0.591982
O O7 0.252950 0.745443 0.341724
O O8 0.500000 0.230674 0.241009
O O9 0.295982 0.174843 0.229780
O O10 0.500000 0.432624 0.236880
O O11 0.247251 0.460684 0.299814
O O12 0.279470 0.426467 0.087667
O O13 0.241862 0.467172 0.529995
O O14 0.170977 0.534009 0.406615
O O15 0.000000 0.469803 0.408588
O O16 0.233573 0.092335 0.200878
O O17 0.000000 0.054924 0.110990
O O18 0.000000 0.380414 0.726314
O O19 0.825018 0.382535 0.903816
O O20 0.000000 0.575889 0.540842
#
# Coordination Sequence:
#
# PCOD9351746 Si02
#       8
#     8   8   8   8   8   8   8   8
#     4   9  19  37  60  85 116 151 190 240 299 357
#     4  11  23  39  64  95 123 161 209 256 313 378
#     4  10  23  42  63  92 129 163 207 261 316 379
#     4  10  22  39  58  85 120 154 196 251 306 362
#     4  10  21  37  58  84 117 157 202 247 295 359
#     4  10  20  35  59  89 116 148 194 244 297 352
#     4  10  21  40  62  85 119 160 202 249 302 362
#     4  10  23  39  58  85 118 160 204 248 302 361
#
# _framework density 19.541702999999998
#
# number of rings (size 3 to 8) (size 9 to 14) (size 15 to 20)
#    0.000    2.000    1.250    2.250    1.750    6.500 
#    0.000    2.500    0.000    0.000    0.000    0.000 
#    0.000    0.000    0.000    0.000    0.000    0.000 
#
# Total GULP energy -178543.763169 kJ/mol
# GULP energy per Si atom -5579.492599 kJ/mol
# Density = 1.949723 g / cm^3
# Si number density = 19.541703 Si / 1000 Ang^3
#
#
#
# Elastic Constant Matrix: (Units=GPa)
#
#
# Indices 1 2 3 4 5 6 
#
# 1 81.9425 29.7053 53.3145 0.0000 0.0000 0.0000
# 2 29.7053 40.8158 32.8093 0.0000 0.0000 0.0000
# 3 53.3145 32.8093 99.1721 0.0000 0.0000 0.0000
# 4 0.0000 0.0000 0.0000 25.5035 0.0000 0.0000
# 5 0.0000 0.0000 0.0000 0.0000 35.6110 0.0000
# 6 0.0000 0.0000 0.0000 0.0000 0.0000 24.0993
#
#
#
# Elastic Compliance Matrix: (Units=1/GPa)
#
#
# Indices 1 2 3 4 5 6 
#
# 1 0.020652 -0.008318 -0.008351 0.000000 0.000000 0.000000
# 2 -0.008318 0.036726 -0.007679 0.000000 0.000000 0.000000
# 3 -0.008351 -0.007679 0.017113 0.000000 0.000000 0.000000
# 4 0.000000 0.000000 0.000000 0.039210 0.000000 0.000000
# 5 0.000000 0.000000 0.000000 0.000000 0.028081 0.000000
# 6 0.000000 0.000000 0.000000 0.000000 0.000000 0.041495
#
#
# Mechanical properties :
#
#
# Convention : Reuss Voigt Hill
#
# Bulk Modulus (GPa) = 38.76376 50.39873 44.58124
# Shear Modulus (GPa) = 20.78383 24.11620 22.45001
#
# Velocity S-wave (km/s) = 3.26477 3.51677 3.39311
# Velocity P-wave (km/s) = 5.83876 6.50666 6.18173
#
# Compressibility (1/GPa) = 0.02579729
#
# Stress axis : x y z
#
# Youngs Moduli (GPa) = 48.42074 27.22847 58.43459
#
# Poissons Ratio (x) = 0.22648 0.48797
# Poissons Ratio (y) = 0.40276 0.44870
# Poissons Ratio (z) = 0.40435 0.20908
#
# Static dielectric constant tensor:
#      x y z
#    x 1.676780 0.000000 0.000000 
#    y 0.000000 1.665550 0.000000 
#    z 0.000000 0.000000 1.719010 
# 
# From -- ./inp_files/7204.got.cif
#   From: 2010.05.17/outbox.cif.g08.bks.cpg/sg36_4_cif.got.tgz:7204.got - 2010.06.03 17:41:39.
