data_PCOD9351863
_publ_section_title
;
Structure prediction by ZEFSAII (Michael W. Deem and Ramdas Pophale) SiO2 
 PCOD9351863
Probable space group: C M C 21
;
_chemical_formula_sum "Si O2"
_cell_formula_units_Z 64
_cell_length_a 8.206719
_cell_length_b 15.841653
_cell_length_c 24.444121
_cell_angle_alpha 90.000000
_cell_angle_beta 90.000000
_cell_angle_gamma 90.000000
_cell_volume 3177.931153
_symmetry_space_group_name_H-M "C M C 21"
_symmetry_group_IT_number 36
_symmetry_cell_setting 'orthorhombic'
loop_
_space_group_symop_operation_xyz
x,y,z
-x,-y,1/2+z
x,-y,1/2+z
-x,y,z
1/2+x,1/2+y,z
1/2-x,1/2-y,1/2+z
1/2+x,1/2-y,1/2+z
1/2-x,1/2+y,z
loop_
_atom_site_type_symbol
_atom_site_label
_atom_site_fract_x
_atom_site_fract_y
_atom_site_fract_z
Si Si1 0.803626 0.844605 0.341530
Si Si2 0.191884 0.164530 0.607102
Si Si3 0.696422 0.660103 0.338091
Si Si4 0.809996 0.508035 0.537656
Si Si5 0.697701 0.503627 0.413031
Si Si6 0.198856 0.095936 0.722531
Si Si7 0.301532 0.600974 0.219993
Si Si8 0.192932 0.844950 0.600724
O O1 0.749813 0.751603 0.357949
O O2 0.748385 0.918513 0.382086
O O3 0.745723 0.864357 0.279694
O O4 0.000000 0.847586 0.340396
O O5 0.256122 0.143617 0.668180
O O6 0.272740 0.249008 0.583969
O O7 0.000000 0.181189 0.610981
O O8 0.218291 0.081489 0.570810
O O9 0.500000 0.657271 0.336730
O O10 0.750825 0.584053 0.377105
O O11 0.756068 0.644203 0.275930
O O12 0.759803 0.508112 0.474489
O O13 0.772297 0.416932 0.563782
O O14 0.000000 0.526015 0.543038
O O15 0.500000 0.503538 0.414132
O O16 0.000000 0.097566 0.721919
O O17 0.245749 0.997525 0.720027
O O18 0.500000 0.603512 0.220729
O O19 0.247597 0.643253 0.163476
O O20 0.000000 0.860722 0.599828
#
# Coordination Sequence:
#
# PCOD9351863 Si02
#       8
#     8   8   8   8   8   8   8   8
#     4  10  20  36  61  89 119 153 193 237 291 355
#     4  11  22  39  64  92 124 160 198 244 299 359
#     4  10  20  36  61  89 119 153 193 237 291 355
#     4  12  26  43  62  86 118 157 207 258 301 354
#     4  10  22  41  62  82 112 159 203 242 295 356
#     4   9  16  32  60  90 120 156 192 232 291 358
#     4   9  16  32  60  90 120 156 192 232 291 358
#     4  11  22  39  64  92 124 160 198 244 299 359
#
# _framework density 20.138888999999999
#
# number of rings (size 3 to 8) (size 9 to 14) (size 15 to 20)
#    0.000    1.750    2.500    2.625    0.000    2.000 
#    0.000    3.750    0.000    0.000    0.000    0.000 
#    0.000    0.000    0.000    0.000    0.000    0.000 
#
# Total GULP energy -178821.744710 kJ/mol
# GULP energy per Si atom -5588.179522 kJ/mol
# Density = 2.009305 g / cm^3
# Si number density = 20.138889 Si / 1000 Ang^3
#
#
#
# Elastic Constant Matrix: (Units=GPa)
#
#
# Indices 1 2 3 4 5 6 
#
# 1 15.2478 -8.4315 2.1868 0.0000 0.0000 0.0000
# 2 -8.4315 114.3670 22.3222 0.0000 0.0000 0.0000
# 3 2.1868 22.3222 98.7941 0.0000 0.0000 0.0000
# 4 0.0000 0.0000 0.0000 1.0169 0.0000 0.0000
# 5 0.0000 0.0000 0.0000 0.0000 -8.7123 0.0000
# 6 0.0000 0.0000 0.0000 0.0000 0.0000 25.2788
#
#
#
# Elastic Compliance Matrix: (Units=1/GPa)
#
#
# Indices 1 2 3 4 5 6 
#
# 1 0.069105 0.005642 -0.002804 0.000000 0.000000 0.000000
# 2 0.005642 0.009608 -0.002296 0.000000 0.000000 0.000000
# 3 -0.002804 -0.002296 0.010703 0.000000 0.000000 0.000000
# 4 0.000000 0.000000 0.000000 0.983375 0.000000 0.000000
# 5 0.000000 0.000000 0.000000 0.000000 -0.114780 0.000000
# 6 0.000000 0.000000 0.000000 0.000000 0.000000 0.039559
#
#
# Mechanical properties :
#
#
# Convention : Reuss Voigt Hill
#
# Bulk Modulus (GPa) = 11.04978 28.95155 20.00067
# Shear Modulus (GPa) = 4.87020 17.67211 11.27115
#
# Velocity S-wave (km/s) = 1.55678 2.96550 2.36830
# Velocity P-wave (km/s) = 2.95468 5.11202 4.17509
#
# Compressibility (1/GPa) = 0.09049951
#
# Stress axis : x y z
#
# Youngs Moduli (GPa) = 14.47070 104.08198 93.43303
#
# Poissons Ratio (x) = -0.58723 0.26202
# Poissons Ratio (y) = -0.08164 0.21450
# Poissons Ratio (z) = 0.04058 0.23895
#
# Static dielectric constant tensor:
#      x y z
#    x 1.701430 0.000000 0.000000 
#    y 0.000000 1.688350 0.000000 
#    z 0.000000 0.000000 1.696410 
# 
# From -- ./inp_files/16592.got.cif
#   From: 2010.05.17/outbox.cif.g08.bks.cpg/sg36_9_cif.got.tgz:16592.got - 2010.06.03 17:41:39.
