data_PCOD9351282
_publ_section_title
;
Structure prediction by ZEFSAII (Michael W. Deem and Ramdas Pophale) SiO2 
 PCOD9351282
Probable space group: C M C 21
;
_chemical_formula_sum "Si O2"
_cell_formula_units_Z 64
_cell_length_a 8.688015
_cell_length_b 25.452413
_cell_length_c 14.324602
_cell_angle_alpha 90.000000
_cell_angle_beta 90.000000
_cell_angle_gamma 90.000000
_cell_volume 3167.612790
_symmetry_space_group_name_H-M "C M C 21"
_symmetry_group_IT_number 36
_symmetry_cell_setting 'orthorhombic'
loop_
_space_group_symop_operation_xyz
x,y,z
-x,-y,1/2+z
x,-y,1/2+z
-x,y,z
1/2+x,1/2+y,z
1/2-x,1/2-y,1/2+z
1/2+x,1/2-y,1/2+z
1/2-x,1/2+y,z
loop_
_atom_site_type_symbol
_atom_site_label
_atom_site_fract_x
_atom_site_fract_y
_atom_site_fract_z
Si Si1 0.316517 0.161290 0.066440
Si Si2 0.319949 0.087837 0.789832
Si Si3 0.180717 0.046745 0.086279
Si Si4 0.317545 0.570509 0.589531
Si Si5 0.818654 0.809808 0.375417
Si Si6 0.181371 0.879596 0.901119
Si Si7 0.819210 0.528217 0.287666
Si Si8 0.313654 0.792783 0.768129
O O1 0.500000 0.161563 0.067662
O O2 0.263295 0.100460 0.056089
O O3 0.263358 0.185955 0.166001
O O4 0.259686 0.193733 0.976790
O O5 0.500000 0.098711 0.805105
O O6 0.281363 0.083055 0.680254
O O7 0.221712 0.133186 0.835605
O O8 0.283237 0.029495 0.826643
O O9 0.218976 0.040287 0.196204
O O10 0.000000 0.054211 0.069746
O O11 0.223714 0.988001 0.050890
O O12 0.500000 0.567665 0.614664
O O13 0.299014 0.615115 0.511832
O O14 0.772105 0.766417 0.298306
O O15 0.000000 0.804495 0.389439
O O16 0.280765 0.926613 0.858977
O O17 0.240059 0.828418 0.848746
O O18 0.000000 0.887720 0.881724
O O19 0.000000 0.528595 0.261247
O O20 0.500000 0.797744 0.770453
#
# Coordination Sequence:
#
# PCOD9351282 Si02
#       8
#     8   8   8   8   8   8   8   8
#     4  11  23  41  64  91 123 160 205 260 314 371
#     4  10  22  40  61  90 124 163 207 255 312 368
#     4  10  19  35  59  89 123 163 208 252 306 368
#     4   9  21  38  57  89 130 169 207 253 309 371
#     4  11  25  44  66  91 122 164 210 258 314 373
#     4  11  22  36  60  92 123 163 210 253 305 369
#     4  10  20  35  56  86 124 162 200 251 310 366
#     4  10  24  45  65  88 123 164 207 260 316 366
#
# _framework density 20.20449
#
# number of rings (size 3 to 8) (size 9 to 14) (size 15 to 20)
#    0.000    1.750    1.250    2.250    1.750    5.500 
#    0.000    3.750    0.000    0.000    0.000    0.000 
#    0.000    0.000    0.000    0.000    0.000    0.000 
#
# Total GULP energy -178649.044975 kJ/mol
# GULP energy per Si atom -5582.782655 kJ/mol
# Density = 2.015850 g / cm^3
# Si number density = 20.204490 Si / 1000 Ang^3
#
#
#
# Elastic Constant Matrix: (Units=GPa)
#
#
# Indices 1 2 3 4 5 6 
#
# 1 16.3012 17.7429 7.3827 0.0000 0.0000 0.0000
# 2 17.7429 73.9913 21.5631 0.0000 0.0000 0.0000
# 3 7.3827 21.5631 48.3930 0.0000 0.0000 0.0000
# 4 0.0000 0.0000 0.0000 25.6045 0.0000 0.0000
# 5 0.0000 0.0000 0.0000 0.0000 28.5214 0.0000
# 6 0.0000 0.0000 0.0000 0.0000 0.0000 23.8662
#
#
#
# Elastic Compliance Matrix: (Units=1/GPa)
#
#
# Indices 1 2 3 4 5 6 
#
# 1 0.083820 -0.018817 -0.004403 0.000000 0.000000 0.000000
# 2 -0.018817 0.019756 -0.005932 0.000000 0.000000 0.000000
# 3 -0.004403 -0.005932 0.023979 0.000000 0.000000 0.000000
# 4 0.000000 0.000000 0.000000 0.039056 0.000000 0.000000
# 5 0.000000 0.000000 0.000000 0.000000 0.035061 0.000000
# 6 0.000000 0.000000 0.000000 0.000000 0.000000 0.041900
#
#
# Mechanical properties :
#
#
# Convention : Reuss Voigt Hill
#
# Bulk Modulus (GPa) = 14.44013 25.78478 20.11245
# Shear Modulus (GPa) = 15.38645 21.73154 18.55899
#
# Velocity S-wave (km/s) = 2.76259 3.28316 3.03406
# Velocity P-wave (km/s) = 4.16394 5.21170 4.71700
#
# Compressibility (1/GPa) = 0.06925145
#
# Stress axis : x y z
#
# Youngs Moduli (GPa) = 11.93027 50.61711 41.70280
#
# Poissons Ratio (x) = 0.95245 0.18362
# Poissons Ratio (y) = 0.22449 0.24740
# Poissons Ratio (z) = 0.05253 0.30028
#
# Static dielectric constant tensor:
#      x y z
#    x 1.686960 0.000000 0.000000 
#    y 0.000000 1.722570 0.000000 
#    z 0.000000 0.000000 1.723000 
# 
# From -- ./inp_files/10945.got.cif
#   From: 2010.05.17/outbox.cif.g08.bks.cpg/sg36_6_cif.got.tgz:10945.got - 2010.06.03 17:41:39.
