data_PCOD9351065
_publ_section_title
;
Structure prediction by ZEFSAII (Michael W. Deem and Ramdas Pophale) SiO2 
 PCOD9351065
Probable space group: C M C 21
;
_chemical_formula_sum "Si O2"
_cell_formula_units_Z 48
_cell_length_a 7.654534
_cell_length_b 19.852375
_cell_length_c 15.325859
_cell_angle_alpha 90.000000
_cell_angle_beta 90.000000
_cell_angle_gamma 90.000000
_cell_volume 2328.927946
_symmetry_space_group_name_H-M "C M C 21"
_symmetry_group_IT_number 36
_symmetry_cell_setting 'orthorhombic'
loop_
_space_group_symop_operation_xyz
x,y,z
-x,-y,1/2+z
x,-y,1/2+z
-x,y,z
1/2+x,1/2+y,z
1/2-x,1/2-y,1/2+z
1/2+x,1/2-y,1/2+z
1/2-x,1/2+y,z
loop_
_atom_site_type_symbol
_atom_site_label
_atom_site_fract_x
_atom_site_fract_y
_atom_site_fract_z
Si Si1 0.785423 0.923396 0.717220
Si Si2 0.797418 0.924677 0.223887
Si Si3 0.711899 0.680108 0.866048
Si Si4 0.205172 0.167250 0.377491
Si Si5 0.701396 0.827252 0.076519
Si Si6 0.786560 0.176531 0.065869
O O1 0.730232 0.884370 0.804621
O O2 0.729260 0.880084 0.633405
O O3 0.000000 0.922752 0.715480
O O4 0.723367 0.000351 0.716499
O O5 0.722405 0.875013 0.297625
O O6 0.790578 0.884637 0.133063
O O7 0.000000 0.934220 0.248433
O O8 0.500000 0.681230 0.863829
O O9 0.770703 0.756009 0.845302
O O10 0.765868 0.664694 0.965620
O O11 0.289305 0.161394 0.472754
O O12 0.000000 0.155141 0.390198
O O13 0.500000 0.827553 0.103861
O O14 0.773006 0.751785 0.092066
O O15 0.000000 0.178398 0.066431
#
# Coordination Sequence:
#
# PCOD9351065 Si02
#       6
#     8   8   8   8   8   8
#     4   9  18  31  50  77 104 132 169 209 249 298
#     4  10  20  33  51  77 106 136 171 209 251 305
#     4   9  18  32  51  76 105 135 166 207 259 306
#     4  10  19  33  55  79 101 132 175 216 252 299
#     4  10  20  35  54  75 101 135 173 216 264 304
#     4   8  15  30  51  72  97 132 170 207 249 298
#
# _framework density 20.610340000000001
#
# number of rings (size 3 to 8) (size 9 to 14) (size 15 to 20)
#    0.000    2.667    0.000    3.000    0.000    3.333 
#    0.000    6.667    0.000   10.000    0.000    0.000 
#    0.000    0.000    0.000    0.000    0.000    0.000 
#
# Total GULP energy -133967.975509 kJ/mol
# GULP energy per Si atom -5581.998980 kJ/mol
# Density = 2.056343 g / cm^3
# Si number density = 20.610340 Si / 1000 Ang^3
#
#
#
# Elastic Constant Matrix: (Units=GPa)
#
#
# Indices 1 2 3 4 5 6 
#
# 1 39.5878 -3.2658 -6.2097 0.0000 0.0000 0.0000
# 2 -3.2658 191.5499 109.2794 0.0000 0.0000 0.0000
# 3 -6.2097 109.2794 101.5821 0.0000 0.0000 0.0000
# 4 0.0000 0.0000 0.0000 -10.1469 0.0000 0.0000
# 5 0.0000 0.0000 0.0000 0.0000 13.7456 0.0000
# 6 0.0000 0.0000 0.0000 0.0000 0.0000 -460.4209
#
#
#
# Elastic Compliance Matrix: (Units=1/GPa)
#
#
# Indices 1 2 3 4 5 6 
#
# 1 0.025608 -0.001182 0.002837 0.000000 0.000000 0.000000
# 2 -0.001182 0.013570 -0.014670 0.000000 0.000000 0.000000
# 3 0.002837 -0.014670 0.025800 0.000000 0.000000 0.000000
# 4 0.000000 0.000000 0.000000 -0.098552 0.000000 0.000000
# 5 0.000000 0.000000 0.000000 0.000000 0.072751 0.000000
# 6 0.000000 0.000000 0.000000 0.000000 0.000000 -0.002172
#
#
# Mechanical properties :
#
#
# Convention : Reuss Voigt Hill
#
# Bulk Modulus (GPa) = 25.67627 59.14751 42.41189
# Shear Modulus (GPa) = 65.77446 -75.83673 -5.03114
#
# Velocity S-wave (km/s) = 5.65532 -6.07251 -1.56409
# Velocity P-wave (km/s) = 7.42486 4.51740 4.16663
#
# Compressibility (1/GPa) = 0.03894646
#
# Stress axis : x y z
#
# Youngs Moduli (GPa) = 39.05061 73.69256 38.76021
#
# Poissons Ratio (x) = 0.08708 -0.10995
# Poissons Ratio (y) = 0.04615 0.56863
# Poissons Ratio (z) = -0.11077 1.08110
#
# Static dielectric constant tensor:
#      x y z
#    x 1.763700 0.000000 0.000000 
#    y 0.000000 1.712530 0.000000 
#    z 0.000000 0.000000 1.709950 
# 
# From -- ./inp_files/10403.got.cif
#   From: 2010.05.17/outbox.cif.g08.bks.cpg/sg36_6_cif.got.tgz:10403.got - 2010.06.03 17:41:39.
