data_PCOD9351271
_publ_section_title
;
Structure prediction by ZEFSAII (Michael W. Deem and Ramdas Pophale) SiO2 
 PCOD9351271
Probable space group: C M C 21
;
_chemical_formula_sum "Si O2"
_cell_formula_units_Z 64
_cell_length_a 8.701548
_cell_length_b 20.686207
_cell_length_c 20.203037
_cell_angle_alpha 90.000000
_cell_angle_beta 90.000000
_cell_angle_gamma 90.000000
_cell_volume 3636.587534
_symmetry_space_group_name_H-M "C M C 21"
_symmetry_group_IT_number 36
_symmetry_cell_setting 'orthorhombic'
loop_
_space_group_symop_operation_xyz
x,y,z
-x,-y,1/2+z
x,-y,1/2+z
-x,y,z
1/2+x,1/2+y,z
1/2-x,1/2-y,1/2+z
1/2+x,1/2-y,1/2+z
1/2-x,1/2+y,z
loop_
_atom_site_type_symbol
_atom_site_label
_atom_site_fract_x
_atom_site_fract_y
_atom_site_fract_z
Si Si1 0.316166 0.172494 0.920920
Si Si2 0.814226 0.077741 0.551009
Si Si3 0.685572 0.231198 0.172187
Si Si4 0.184031 0.157531 0.776070
Si Si5 0.816797 0.092595 0.164436
Si Si6 0.184033 0.062273 0.010883
Si Si7 0.686827 0.721232 0.526338
Si Si8 0.817169 0.542755 0.694586
O O1 0.500000 0.176004 0.914507
O O2 0.240617 0.173822 0.849212
O O3 0.269981 0.107041 0.959059
O O4 0.262040 0.231533 0.967924
O O5 0.766589 0.146357 0.520929
O O6 0.745551 0.069354 0.624221
O O7 0.000000 0.077657 0.558425
O O8 0.774076 0.013632 0.509724
O O9 0.500000 0.227003 0.171924
O O10 0.730648 0.286149 0.224522
O O11 0.753871 0.161230 0.187929
O O12 0.735567 0.252301 0.098286
O O13 0.254031 0.090287 0.750613
O O14 0.000000 0.152733 0.774441
O O15 0.780240 0.085469 0.085860
O O16 0.000000 0.089425 0.171037
O O17 0.743485 0.030504 0.199637
O O18 0.000000 0.068209 0.001297
O O19 0.500000 0.722504 0.526206
O O20 0.000000 0.543161 0.694094
#
# Coordination Sequence:
#
# PCOD9351271 Si02
#       8
#     8   8   8   8   8   8   8   8
#     4  11  22  36  56  81 113 149 189 236 287 342
#     4   9  17  34  57  82 111 146 188 231 282 334
#     4  10  19  35  59  84 112 149 189 236 286 335
#     4  11  23  40  59  79 113 155 193 232 287 349
#     4  10  20  34  56  85 116 146 184 234 282 335
#     4   9  18  32  53  80 110 145 185 227 276 337
#     4   9  17  33  57  83 111 146 186 230 283 334
#     4  11  21  34  55  84 114 144 186 236 285 336
#
# _framework density 17.598915999999999
#
# number of rings (size 3 to 8) (size 9 to 14) (size 15 to 20)
#    0.000    2.000    2.500    3.000    0.000    3.000 
#    0.000    2.500    0.000    4.500    0.000    0.000 
#    0.000    0.000    0.000    0.000    0.000    0.000 
#
# Total GULP energy -178617.211574 kJ/mol
# GULP energy per Si atom -5581.787862 kJ/mol
# Density = 1.755886 g / cm^3
# Si number density = 17.598916 Si / 1000 Ang^3
#
#
#
# Elastic Constant Matrix: (Units=GPa)
#
#
# Indices 1 2 3 4 5 6 
#
# 1 38.1452 36.3145 28.7262 0.0000 0.0000 0.0000
# 2 36.3145 142.4435 45.8841 0.0000 0.0000 0.0000
# 3 28.7262 45.8841 71.3061 0.0000 0.0000 0.0000
# 4 0.0000 0.0000 0.0000 23.6571 0.0000 0.0000
# 5 0.0000 0.0000 0.0000 0.0000 25.9330 0.0000
# 6 0.0000 0.0000 0.0000 0.0000 0.0000 25.3970
#
#
#
# Elastic Compliance Matrix: (Units=1/GPa)
#
#
# Indices 1 2 3 4 5 6 
#
# 1 0.042092 -0.006646 -0.012680 0.000000 0.000000 0.000000
# 2 -0.006646 0.009905 -0.003696 0.000000 0.000000 0.000000
# 3 -0.012680 -0.003696 0.021511 0.000000 0.000000 0.000000
# 4 0.000000 0.000000 0.000000 0.042271 0.000000 0.000000
# 5 0.000000 0.000000 0.000000 0.000000 0.038561 0.000000
# 6 0.000000 0.000000 0.000000 0.000000 0.000000 0.039375
#
#
# Mechanical properties :
#
#
# Convention : Reuss Voigt Hill
#
# Bulk Modulus (GPa) = 36.41342 52.63828 44.52585
# Shear Modulus (GPa) = 20.08713 24.39542 22.24128
#
# Velocity S-wave (km/s) = 3.38210 3.72719 3.55883
# Velocity P-wave (km/s) = 5.99893 6.96402 6.49941
#
# Compressibility (1/GPa) = 0.02746240
#
# Stress axis : x y z
#
# Youngs Moduli (GPa) = 23.75729 100.95454 46.48782
#
# Poissons Ratio (x) = 0.67098 0.58948
# Poissons Ratio (y) = 0.15790 0.17184
# Poissons Ratio (z) = 0.30125 0.37317
#
# Static dielectric constant tensor:
#      x y z
#    x 1.588070 0.000000 0.000000 
#    y 0.000000 1.606850 0.000000 
#    z 0.000000 0.000000 1.571820 
# 
# From -- ./inp_files/13910.got.cif
#   From: 2010.05.17/outbox.cif.g08.bks.cpg/sg36_7_cif.got.tgz:13910.got - 2010.06.03 17:41:39.
