data_PCOD9351218
_publ_section_title
;
Structure prediction by ZEFSAII (Michael W. Deem and Ramdas Pophale) SiO2 
 PCOD9351218
Probable space group: C M C 21
;
_chemical_formula_sum "Si O2"
_cell_formula_units_Z 64
_cell_length_a 8.881658
_cell_length_b 14.876974
_cell_length_c 22.692542
_cell_angle_alpha 90.000000
_cell_angle_beta 90.000000
_cell_angle_gamma 90.000000
_cell_volume 2998.415388
_symmetry_space_group_name_H-M "C M C 21"
_symmetry_group_IT_number 36
_symmetry_cell_setting 'orthorhombic'
loop_
_space_group_symop_operation_xyz
x,y,z
-x,-y,1/2+z
x,-y,1/2+z
-x,y,z
1/2+x,1/2+y,z
1/2-x,1/2-y,1/2+z
1/2+x,1/2-y,1/2+z
1/2-x,1/2+y,z
loop_
_atom_site_type_symbol
_atom_site_label
_atom_site_fract_x
_atom_site_fract_y
_atom_site_fract_z
Si Si1 0.821546 0.135555 0.353820
Si Si2 0.820342 0.409876 0.188988
Si Si3 0.825991 0.683396 0.474430
Si Si4 0.321156 0.424902 0.636442
Si Si5 0.671850 0.024804 0.014439
Si Si6 0.177483 0.938109 0.393965
Si Si7 0.316905 0.236006 0.597909
Si Si8 0.823335 0.205736 0.792234
O O1 0.774231 0.179111 0.416525
O O2 0.741054 0.195369 0.304574
O O3 0.000000 0.139871 0.345035
O O4 0.776846 0.030574 0.360246
O O5 0.753284 0.508969 0.183330
O O6 0.771631 0.354714 0.130571
O O7 0.762138 0.350456 0.242618
O O8 0.000000 0.414762 0.189883
O O9 0.829359 0.581533 0.499529
O O10 0.767887 0.740700 0.529941
O O11 0.000000 0.708675 0.459501
O O12 0.500000 0.428785 0.643546
O O13 0.274324 0.456160 0.570757
O O14 0.270954 0.321170 0.636760
O O15 0.500000 0.051307 0.027887
O O16 0.732567 0.069505 0.954628
O O17 0.195752 0.853844 0.351428
O O18 0.000000 0.948223 0.408290
O O19 0.500000 0.236027 0.595051
O O20 0.000000 0.209730 0.778561
#
# Coordination Sequence:
#
# PCOD9351218 Si02
#       8
#     8   8   8   8   8   8   8   8
#     4  10  21  38  59  89 119 153 197 246 293 342
#     4  11  23  44  64  84 118 158 201 251 297 346
#     4   9  17  35  59  84 119 160 193 233 293 357
#     4  11  22  37  60  89 118 155 199 240 293 359
#     4  10  19  34  59  89 123 155 194 245 297 345
#     4   9  21  40  60  84 120 160 198 238 293 359
#     4   9  20  38  60  84 116 159 197 232 295 361
#     4  11  24  42  63  87 117 160 203 243 295 361
#
# _framework density 21.344607
#
# number of rings (size 3 to 8) (size 9 to 14) (size 15 to 20)
#    0.000    2.000    1.250    1.875    1.750    3.000 
#    0.000    8.125    0.000    0.000    0.000    0.000 
#    0.000    0.000    0.000    0.000    0.000    0.000 
#
# Total GULP energy -178828.186573 kJ/mol
# GULP energy per Si atom -5588.380830 kJ/mol
# Density = 2.129603 g / cm^3
# Si number density = 21.344607 Si / 1000 Ang^3
#
#
#
# Elastic Constant Matrix: (Units=GPa)
#
#
# Indices 1 2 3 4 5 6 
#
# 1 45.6329 16.5071 -1.2738 0.0000 0.0000 0.0000
# 2 16.5071 64.7854 -12.5088 0.0000 0.0000 0.0000
# 3 -1.2738 -12.5088 7.5028 0.0000 0.0000 0.0000
# 4 0.0000 0.0000 0.0000 20.3180 0.0000 0.0000
# 5 0.0000 0.0000 0.0000 0.0000 33.4155 0.0000
# 6 0.0000 0.0000 0.0000 0.0000 0.0000 20.6035
#
#
#
# Elastic Compliance Matrix: (Units=1/GPa)
#
#
# Indices 1 2 3 4 5 6 
#
# 1 0.024566 -0.008043 -0.009239 0.000000 0.000000 0.000000
# 2 -0.008043 0.025397 0.040976 0.000000 0.000000 0.000000
# 3 -0.009239 0.040976 0.200032 0.000000 0.000000 0.000000
# 4 0.000000 0.000000 0.000000 0.049217 0.000000 0.000000
# 5 0.000000 0.000000 0.000000 0.000000 0.029926 0.000000
# 6 0.000000 0.000000 0.000000 0.000000 0.000000 0.048535
#
#
# Mechanical properties :
#
#
# Convention : Reuss Voigt Hill
#
# Bulk Modulus (GPa) = 3.36267 13.70778 8.53523
# Shear Modulus (GPa) = 11.64382 22.54716 17.09549
#
# Velocity S-wave (km/s) = 2.33816 3.25366 2.83314
# Velocity P-wave (km/s) = 2.97795 4.53334 3.83532
#
# Compressibility (1/GPa) = 0.29738242
#
# Stress axis : x y z
#
# Youngs Moduli (GPa) = 40.70725 39.37513 4.99921
#
# Poissons Ratio (x) = 0.31670 0.04619
# Poissons Ratio (y) = 0.32741 -0.20485
# Poissons Ratio (z) = 0.37610 -1.61345
#
# Static dielectric constant tensor:
#      x y z
#    x 1.717920 0.000000 0.000000 
#    y 0.000000 1.802750 0.000000 
#    z 0.000000 0.000000 1.776440 
# 
# From -- ./inp_files/16601.got.cif
#   From: 2010.05.17/outbox.cif.g08.bks.cpg/sg36_9_cif.got.tgz:16601.got - 2010.06.03 17:41:39.
