data_PCOD9351132
_publ_section_title
;
Structure prediction by ZEFSAII (Michael W. Deem and Ramdas Pophale) SiO2 
 PCOD9351132
Probable space group: C M C 21
;
_chemical_formula_sum "Si O2"
_cell_formula_units_Z 64
_cell_length_a 8.570234
_cell_length_b 23.379324
_cell_length_c 16.628059
_cell_angle_alpha 90.000000
_cell_angle_beta 90.000000
_cell_angle_gamma 90.000000
_cell_volume 3331.702283
_symmetry_space_group_name_H-M "C M C 21"
_symmetry_group_IT_number 36
_symmetry_cell_setting 'orthorhombic'
loop_
_space_group_symop_operation_xyz
x,y,z
-x,-y,1/2+z
x,-y,1/2+z
-x,y,z
1/2+x,1/2+y,z
1/2-x,1/2-y,1/2+z
1/2+x,1/2-y,1/2+z
1/2-x,1/2+y,z
loop_
_atom_site_type_symbol
_atom_site_label
_atom_site_fract_x
_atom_site_fract_y
_atom_site_fract_z
Si Si1 0.186850 0.785833 0.640480
Si Si2 0.185818 0.587502 0.118793
Si Si3 0.813196 0.915667 0.003538
Si Si4 0.817937 0.397606 0.299735
Si Si5 0.689771 0.284837 0.985791
Si Si6 0.317176 0.523796 0.667861
Si Si7 0.318482 0.026145 0.956566
Si Si8 0.189483 0.734558 0.812587
O O1 0.234937 0.852108 0.634380
O O2 0.253223 0.750941 0.563536
O O3 0.241833 0.762927 0.728303
O O4 0.000000 0.780363 0.638072
O O5 0.227897 0.536045 0.179298
O O6 0.243222 0.560417 0.034196
O O7 0.000000 0.596122 0.115085
O O8 0.000000 0.912754 0.004691
O O9 0.759601 0.942560 0.088353
O O10 0.763310 0.965382 0.942162
O O11 0.757346 0.851094 0.991612
O O12 0.713092 0.432495 0.238790
O O13 0.809208 0.430807 0.383244
O O14 0.769517 0.332175 0.309243
O O15 0.000000 0.398494 0.272705
O O16 0.500000 0.283086 0.987386
O O17 0.741235 0.260583 0.898455
O O18 0.500000 0.511228 0.658323
O O19 0.500000 0.013334 0.972552
O O20 0.000000 0.738792 0.813398
#
# Coordination Sequence:
#
# PCOD9351132 Si02
#       8
#     8   8   8   8   8   8   8   8
#     4  11  22  36  56  85 116 147 184 235 286 328
#     4  10  20  37  58  79 106 145 185 223 271 332
#     4   9  19  34  54  79 107 138 178 222 271 326
#     4  10  19  34  54  77 104 139 181 220 262 324
#     4  10  20  38  60  80 108 152 192 224 271 336
#     4  10  20  34  52  79 110 138 173 226 278 323
#     4   9  19  34  55  79 104 136 178 223 268 322
#     4   9  20  37  57  80 111 149 189 227 273 337
#
# _framework density 19.209399999999999
#
# number of rings (size 3 to 8) (size 9 to 14) (size 15 to 20)
#    0.000    2.250    0.000    2.625    0.000    5.000 
#    0.000    5.000    0.000    0.000    0.000    0.000 
#    0.000    0.000    0.000    0.000    0.000    0.000 
#
# Total GULP energy -178444.076269 kJ/mol
# GULP energy per Si atom -5576.377383 kJ/mol
# Density = 1.916568 g / cm^3
# Si number density = 19.209400 Si / 1000 Ang^3
#
#
#
# Elastic Constant Matrix: (Units=GPa)
#
#
# Indices 1 2 3 4 5 6 
#
# 1 15.9535 25.8587 22.5209 0.0000 0.0000 0.0000
# 2 25.8587 177.9827 67.7907 0.0000 0.0000 0.0000
# 3 22.5209 67.7907 96.2702 0.0000 0.0000 0.0000
# 4 0.0000 0.0000 0.0000 28.5340 0.0000 0.0000
# 5 0.0000 0.0000 0.0000 0.0000 22.0297 0.0000
# 6 0.0000 0.0000 0.0000 0.0000 0.0000 20.8865
#
#
#
# Elastic Compliance Matrix: (Units=1/GPa)
#
#
# Indices 1 2 3 4 5 6 
#
# 1 0.100834 -0.007742 -0.018137 0.000000 0.000000 0.000000
# 2 -0.007742 0.008272 -0.004014 0.000000 0.000000 0.000000
# 3 -0.018137 -0.004014 0.017457 0.000000 0.000000 0.000000
# 4 0.000000 0.000000 0.000000 0.035046 0.000000 0.000000
# 5 0.000000 0.000000 0.000000 0.000000 0.045393 0.000000
# 6 0.000000 0.000000 0.000000 0.000000 0.000000 0.047878
#
#
# Mechanical properties :
#
#
# Convention : Reuss Voigt Hill
#
# Bulk Modulus (GPa) = 14.97516 58.06078 36.51797
# Shear Modulus (GPa) = 14.84015 25.89243 20.36629
#
# Velocity S-wave (km/s) = 2.78249 3.67536 3.25964
# Velocity P-wave (km/s) = 4.25860 6.94996 5.76357
#
# Compressibility (1/GPa) = 0.06677724
#
# Stress axis : x y z
#
# Youngs Moduli (GPa) = 9.91734 120.88738 57.28455
#
# Poissons Ratio (x) = 0.93590 1.03896
# Poissons Ratio (y) = 0.07678 0.22994
# Poissons Ratio (z) = 0.17987 0.48523
#
# Static dielectric constant tensor:
#      x y z
#    x 1.675500 0.000000 0.000000 
#    y 0.000000 1.650700 0.000000 
#    z 0.000000 0.000000 1.702590 
# 
# From -- ./inp_files/13872.got.cif
#   From: 2010.05.17/outbox.cif.g08.bks.cpg/sg36_7_cif.got.tgz:13872.got - 2010.06.03 17:41:39.
