data_PCOD9351122
_publ_section_title
;
Structure prediction by ZEFSAII (Michael W. Deem and Ramdas Pophale) SiO2 
 PCOD9351122
Probable space group: C M C 21
;
_chemical_formula_sum "Si O2"
_cell_formula_units_Z 52
_cell_length_a 8.021183
_cell_length_b 19.488883
_cell_length_c 13.977398
_cell_angle_alpha 90.000000
_cell_angle_beta 90.000000
_cell_angle_gamma 90.000000
_cell_volume 2185.001325
_symmetry_space_group_name_H-M "C M C 21"
_symmetry_group_IT_number 36
_symmetry_cell_setting 'orthorhombic'
loop_
_space_group_symop_operation_xyz
x,y,z
-x,-y,1/2+z
x,-y,1/2+z
-x,y,z
1/2+x,1/2+y,z
1/2-x,1/2-y,1/2+z
1/2+x,1/2-y,1/2+z
1/2-x,1/2+y,z
loop_
_atom_site_type_symbol
_atom_site_label
_atom_site_fract_x
_atom_site_fract_y
_atom_site_fract_z
Si Si1 0.318226 0.129832 0.757510
Si Si2 0.803187 0.863231 0.912236
Si Si3 0.808227 0.718706 0.013825
Si Si4 0.000000 0.873168 0.503736
Si Si5 0.307257 0.221469 0.243314
Si Si6 0.000000 0.047324 0.832900
Si Si7 0.500000 0.463477 0.658333
Si Si8 0.814871 0.455134 0.072601
O O1 0.500000 0.107372 0.793611
O O2 0.296345 0.210882 0.770749
O O3 0.313811 0.110116 0.644838
O O4 0.163795 0.088388 0.799590
O O5 0.748999 0.844063 0.804876
O O6 0.000000 0.872945 0.920149
O O7 0.767029 0.793584 0.972305
O O8 0.717502 0.926489 0.966367
O O9 0.666260 0.667564 0.978166
O O10 0.799173 0.715914 0.129029
O O11 0.000000 0.702208 0.987417
O O12 0.000000 0.944876 0.446191
O O13 0.000000 0.887625 0.616740
O O14 0.500000 0.235280 0.268165
O O15 0.000000 0.978304 0.771104
O O16 0.332715 0.498092 0.614338
O O17 0.000000 0.486987 0.078573
#
# Coordination Sequence:
#
# PCOD9351122 Si02
#       8
#     8   8   8   4   8   4   4   8
#     4  10  19  33  59  90 125 160 204 255 304 370
#     4  11  21  35  59  95 131 161 205 255 314 383
#     4  10  25  41  59  93 134 167 203 259 316 374
#     4  12  26  44  68  90 124 180 212 256 320 386
#     4  11  21  34  54  88 132 171 194 245 318 384
#     4  10  22  42  66  90 120 166 219 266 309 360
#     4  10  24  46  64  92 120 164 221 270 307 360
#     4  10  20  37  64  90 118 156 206 266 314 363
#
# _framework density 23.798611999999999
#
# number of rings (size 3 to 8) (size 9 to 14) (size 15 to 20)
#    0.000    1.538    3.077    1.846    4.308    2.462 
#    2.769    0.000    0.000    0.000    0.000    0.000 
#    0.000    0.000    0.000    0.000    0.000    0.000 
#
# Total GULP energy -145418.950088 kJ/mol
# GULP energy per Si atom -5593.036542 kJ/mol
# Density = 2.374445 g / cm^3
# Si number density = 23.798612 Si / 1000 Ang^3
#
#
#
# Elastic Constant Matrix: (Units=GPa)
#
#
# Indices 1 2 3 4 5 6 
#
# 1 134.1177 26.8274 7.0308 0.0000 0.0000 0.0000
# 2 26.8274 42.3620 -1.4057 0.0000 0.0000 0.0000
# 3 7.0308 -1.4057 89.8947 0.0000 0.0000 0.0000
# 4 0.0000 0.0000 0.0000 37.8392 0.0000 0.0000
# 5 0.0000 0.0000 0.0000 0.0000 -26.6852 0.0000
# 6 0.0000 0.0000 0.0000 0.0000 0.0000 11.9041
#
#
#
# Elastic Compliance Matrix: (Units=1/GPa)
#
#
# Indices 1 2 3 4 5 6 
#
# 1 0.008589 -0.005464 -0.000757 0.000000 0.000000 0.000000
# 2 -0.005464 0.027095 0.000851 0.000000 0.000000 0.000000
# 3 -0.000757 0.000851 0.011197 0.000000 0.000000 0.000000
# 4 0.000000 0.000000 0.000000 0.026428 0.000000 0.000000
# 5 0.000000 0.000000 0.000000 0.000000 -0.037474 0.000000
# 6 0.000000 0.000000 0.000000 0.000000 0.000000 0.084005
#
#
# Mechanical properties :
#
#
# Convention : Reuss Voigt Hill
#
# Bulk Modulus (GPa) = 27.67067 36.80883 32.23975
# Shear Modulus (GPa) = 35.05664 20.20641 27.63152
#
# Velocity S-wave (km/s) = 3.84220 2.91702 3.41112
# Velocity P-wave (km/s) = 5.59782 5.18129 5.39358
#
# Compressibility (1/GPa) = 0.03613935
#
# Stress axis : x y z
#
# Youngs Moduli (GPa) = 116.42991 36.90740 89.31238
#
# Poissons Ratio (x) = 0.20168 0.06763
# Poissons Ratio (y) = 0.63622 -0.07601
# Poissons Ratio (z) = 0.08816 -0.03141
#
# Static dielectric constant tensor:
#      x y z
#    x 1.917770 0.000000 0.000000 
#    y 0.000000 1.867220 0.000000 
#    z 0.000000 0.000000 1.937530 
# 
# From -- ./inp_files/10616.got.cif
#   From: 2010.05.17/outbox.cif.g08.bks.cpg/sg36_6_cif.got.tgz:10616.got - 2010.06.03 17:41:39.
