data_PCOD9351951
_publ_section_title
;
Structure prediction by ZEFSAII (Michael W. Deem and Ramdas Pophale) SiO2 
 PCOD9351951
Probable space group: C M C 21
;
_chemical_formula_sum "Si O2"
_cell_formula_units_Z 48
_cell_length_a 8.648604
_cell_length_b 24.557787
_cell_length_c 12.241448
_cell_angle_alpha 90.000000
_cell_angle_beta 90.000000
_cell_angle_gamma 90.000000
_cell_volume 2599.968178
_symmetry_space_group_name_H-M "C M C 21"
_symmetry_group_IT_number 36
_symmetry_cell_setting 'orthorhombic'
loop_
_space_group_symop_operation_xyz
x,y,z
-x,-y,1/2+z
x,-y,1/2+z
-x,y,z
1/2+x,1/2+y,z
1/2-x,1/2-y,1/2+z
1/2+x,1/2-y,1/2+z
1/2-x,1/2+y,z
loop_
_atom_site_type_symbol
_atom_site_label
_atom_site_fract_x
_atom_site_fract_y
_atom_site_fract_z
Si Si1 0.311519 0.169349 0.793090
Si Si2 0.313175 0.291164 0.852408
Si Si3 0.685078 0.920720 0.468364
Si Si4 0.814818 0.039323 0.416611
Si Si5 0.685523 0.139496 0.548602
Si Si6 0.814160 0.107292 0.204563
O O1 0.500000 0.169892 0.792911
O O2 0.261868 0.230255 0.824745
O O3 0.261620 0.125046 0.882103
O O4 0.262299 0.152856 0.671328
O O5 0.500000 0.292060 0.862416
O O6 0.273006 0.334132 0.756742
O O7 0.243286 0.314866 0.963720
O O8 0.500000 0.923710 0.463575
O O9 0.736276 0.904366 0.589749
O O10 0.752861 0.979314 0.437315
O O11 0.749768 0.082230 0.504466
O O12 0.771069 0.063040 0.297310
O O13 0.000000 0.039930 0.423191
O O14 0.500000 0.137721 0.546680
O O15 0.000000 0.105495 0.191185
#
# Coordination Sequence:
#
# PCOD9351951 Si02
#       6
#     8   8   8   8   8   8
#     4   9  21  38  57  85 120 151 184 233 289 336
#     4   9  19  39  61  82 116 156 189 230 285 342
#     4  11  23  37  58  87 118 150 189 239 287 337
#     4  10  22  41  61  83 114 153 193 236 288 345
#     4  10  20  37  61  88 114 148 193 239 286 338
#     4   9  20  38  60  83 112 152 192 233 283 340
#
# _framework density 18.461765
#
# number of rings (size 3 to 8) (size 9 to 14) (size 15 to 20)
#    0.000    2.333    0.000    2.500    4.667    3.333 
#    0.000    5.000    0.000    0.000    0.000    0.000 
#    0.000    0.000    0.000    0.000    0.000    0.000 
#
# Total GULP energy -134010.358268 kJ/mol
# GULP energy per Si atom -5583.764928 kJ/mol
# Density = 1.841974 g / cm^3
# Si number density = 18.461765 Si / 1000 Ang^3
#
#
#
# Elastic Constant Matrix: (Units=GPa)
#
#
# Indices 1 2 3 4 5 6 
#
# 1 35.7745 45.6077 47.5429 0.0000 0.0000 0.0000
# 2 45.6077 201.6161 132.3667 0.0000 0.0000 0.0000
# 3 47.5429 132.3667 179.5248 0.0000 0.0000 0.0000
# 4 0.0000 0.0000 0.0000 12.3436 0.0000 0.0000
# 5 0.0000 0.0000 0.0000 0.0000 30.1814 0.0000
# 6 0.0000 0.0000 0.0000 0.0000 0.0000 24.0628
#
#
#
# Elastic Compliance Matrix: (Units=1/GPa)
#
#
# Indices 1 2 3 4 5 6 
#
# 1 0.045222 -0.004588 -0.008593 0.000000 0.000000 0.000000
# 2 -0.004588 0.010079 -0.006216 0.000000 0.000000 0.000000
# 3 -0.008593 -0.006216 0.012429 0.000000 0.000000 0.000000
# 4 0.000000 0.000000 0.000000 0.081014 0.000000 0.000000
# 5 0.000000 0.000000 0.000000 0.000000 0.033133 0.000000
# 6 0.000000 0.000000 0.000000 0.000000 0.000000 0.041558
#
#
# Mechanical properties :
#
#
# Convention : Reuss Voigt Hill
#
# Bulk Modulus (GPa) = 34.55997 96.43890 65.49944
# Shear Modulus (GPa) = 18.39079 26.07742 22.23411
#
# Velocity S-wave (km/s) = 3.15962 3.76241 3.47411
# Velocity P-wave (km/s) = 5.66315 8.43948 7.18666
#
# Compressibility (1/GPa) = 0.02893521
#
# Stress axis : x y z
#
# Youngs Moduli (GPa) = 22.11317 99.21581 80.45437
#
# Poissons Ratio (x) = 0.45521 0.69135
# Poissons Ratio (y) = 0.10146 0.50014
# Poissons Ratio (z) = 0.19002 0.61677
#
# Static dielectric constant tensor:
#      x y z
#    x 1.628870 0.000000 0.000000 
#    y 0.000000 1.616400 0.000000 
#    z 0.000000 0.000000 1.610150 
# 
# From -- ./inp_files/6712.got.cif
#   From: 2010.05.17/outbox.cif.g08.bks.cpg/sg36_4_cif.got.tgz:6712.got - 2010.06.03 17:41:39.
