data_PCOD9351457
_publ_section_title
;
Structure prediction by ZEFSAII (Michael W. Deem and Ramdas Pophale) SiO2 
 PCOD9351457
Probable space group: C M C 21
;
_chemical_formula_sum "Si O2"
_cell_formula_units_Z 40
_cell_length_a 15.330204
_cell_length_b 19.553234
_cell_length_c 5.170426
_cell_angle_alpha 90.000000
_cell_angle_beta 90.000000
_cell_angle_gamma 90.000000
_cell_volume 1549.861387
_symmetry_space_group_name_H-M "C M C 21"
_symmetry_group_IT_number 36
_symmetry_cell_setting 'orthorhombic'
loop_
_space_group_symop_operation_xyz
x,y,z
-x,-y,1/2+z
x,-y,1/2+z
-x,y,z
1/2+x,1/2+y,z
1/2-x,1/2-y,1/2+z
1/2+x,1/2-y,1/2+z
1/2-x,1/2+y,z
loop_
_atom_site_type_symbol
_atom_site_label
_atom_site_fract_x
_atom_site_fract_y
_atom_site_fract_z
Si Si1 0.000000 0.653467 0.793741
Si Si2 0.812278 0.417444 0.893668
Si Si3 0.814344 0.153616 0.802195
Si Si4 0.140648 0.962147 0.645186
Si Si5 0.500000 0.069471 0.305745
Si Si6 0.658316 0.782380 0.558653
O O1 0.912971 0.693302 0.855544
O O2 0.000000 0.634166 0.498118
O O3 0.000000 0.590779 0.004427
O O4 0.745448 0.455863 0.700185
O O5 0.904306 0.458007 0.894191
O O6 0.837349 0.344097 0.766857
O O7 0.752725 0.395486 0.141751
O O8 0.871563 0.109890 0.000798
O O9 0.754536 0.210266 0.941704
O O10 0.866307 0.204549 0.620116
O O11 0.109759 0.982927 0.930663
#
# Coordination Sequence:
#
# PCOD9351457 Si02
#       6
#     4   8   8   8   4   8
#     4  10  20  34  52  79 126 151 176 230 292 380
#     4  10  20  35  56  78 114 148 189 242 283 357
#     4  11  19  33  59  86 114 149 192 247 288 361
#     4  11  23  39  55  76 109 149 199 245 286 330
#     4  10  20  34  52  79 110 157 188 220 304 340
#     4  10  20  32  55  90 118 148 188 233 309 357
#
# _framework density 25.808759999999999
#
# number of rings (size 3 to 8) (size 9 to 14) (size 15 to 20)
#    0.000    1.600    6.000    0.000    0.000    0.000 
#    0.000    1.000    0.000    0.000    0.000    1.400 
#    0.000    0.000    0.000    0.000    0.000    0.000 
#
# Total GULP energy -111476.339726 kJ/mol
# GULP energy per Si atom -5573.816986 kJ/mol
# Density = 2.575002 g / cm^3
# Si number density = 25.808760 Si / 1000 Ang^3
#
#
#
# Elastic Constant Matrix: (Units=GPa)
#
#
# Indices 1 2 3 4 5 6 
#
# 1 38.2631 5.6356 0.6121 0.0000 0.0000 0.0000
# 2 5.6356 113.1840 24.1411 0.0000 0.0000 0.0000
# 3 0.6121 24.1411 92.1649 0.0000 0.0000 0.0000
# 4 0.0000 0.0000 0.0000 46.4941 0.0000 0.0000
# 5 0.0000 0.0000 0.0000 0.0000 14.8724 0.0000
# 6 0.0000 0.0000 0.0000 0.0000 0.0000 17.0022
#
#
#
# Elastic Compliance Matrix: (Units=1/GPa)
#
#
# Indices 1 2 3 4 5 6 
#
# 1 0.026331 -0.001349 0.000179 0.000000 0.000000 0.000000
# 2 -0.001349 0.009427 -0.002460 0.000000 0.000000 0.000000
# 3 0.000179 -0.002460 0.011493 0.000000 0.000000 0.000000
# 4 0.000000 0.000000 0.000000 0.021508 0.000000 0.000000
# 5 0.000000 0.000000 0.000000 0.000000 0.067239 0.000000
# 6 0.000000 0.000000 0.000000 0.000000 0.000000 0.058816
#
#
# Mechanical properties :
#
#
# Convention : Reuss Voigt Hill
#
# Bulk Modulus (GPa) = 25.00669 33.82107 29.41388
# Shear Modulus (GPa) = 23.21202 29.88861 26.55032
#
# Velocity S-wave (km/s) = 3.00223 3.40675 3.21087
# Velocity P-wave (km/s) = 4.66134 5.34860 5.01675
#
# Compressibility (1/GPa) = 0.03998930
#
# Stress axis : x y z
#
# Youngs Moduli (GPa) = 37.97851 106.07707 87.00672
#
# Poissons Ratio (x) = 0.14311 -0.01553
# Poissons Ratio (y) = 0.05124 0.21406
# Poissons Ratio (z) = -0.00678 0.26098
#
# Static dielectric constant tensor:
#      x y z
#    x 2.091330 0.000000 0.000000 
#    y 0.000000 2.112460 0.000000 
#    z 0.000000 0.000000 2.121290 
# 
# From -- ./inp_files/1050.got.cif
#   From: 2010.05.17/outbox.cif.g08.bks.cpg/sg36_1_cif.got.tgz:1050.got - 2010.06.03 17:41:39.
