data_PCOD9351574
_publ_section_title
;
Structure prediction by ZEFSAII (Michael W. Deem and Ramdas Pophale) SiO2 
 PCOD9351574
Probable space group: C M C 21
;
_chemical_formula_sum "Si O2"
_cell_formula_units_Z 40
_cell_length_a 14.849536
_cell_length_b 21.724123
_cell_length_c 5.185915
_cell_angle_alpha 90.000000
_cell_angle_beta 90.000000
_cell_angle_gamma 90.000000
_cell_volume 1672.940638
_symmetry_space_group_name_H-M "C M C 21"
_symmetry_group_IT_number 36
_symmetry_cell_setting 'orthorhombic'
loop_
_space_group_symop_operation_xyz
x,y,z
-x,-y,1/2+z
x,-y,1/2+z
-x,y,z
1/2+x,1/2+y,z
1/2-x,1/2-y,1/2+z
1/2+x,1/2-y,1/2+z
1/2-x,1/2+y,z
loop_
_atom_site_type_symbol
_atom_site_label
_atom_site_fract_x
_atom_site_fract_y
_atom_site_fract_z
Si Si1 0.602465 0.978080 0.757250
Si Si2 0.810456 0.166252 0.231767
Si Si3 0.630981 0.847039 0.989734
Si Si4 0.608898 0.461016 0.538592
Si Si5 0.138230 0.718565 0.994054
O O1 0.500000 0.999129 0.702589
O O2 0.598913 0.911499 0.881267
O O3 0.646800 0.979516 0.476290
O O4 0.738772 0.147871 0.453024
O O5 0.851044 0.106082 0.102489
O O6 0.875647 0.214825 0.370659
O O7 0.745917 0.204755 0.034615
O O8 0.602074 0.796100 0.777603
O O9 0.606273 0.829598 0.277704
O O10 0.634465 0.491259 0.266087
O O11 0.500000 0.455160 0.542098
#
# Coordination Sequence:
#
# PCOD9351574 Si02
#       5
#     8   8   8   8   8
#     4  10  21  37  54  74 111 155 186 226 279 324
#     4  10  21  37  63  80 120 143 185 234 294 324
#     4  10  20  34  54  85 111 140 189 233 274 345
#     4  10  24  41  58  84 118 155 195 235 282 341
#     4  10  20  35  57  85 112 141 179 232 291 330
#
# _framework density 23.909996
#
# number of rings (size 3 to 8) (size 9 to 14) (size 15 to 20)
#    1.200    0.800    2.000    1.200    2.800    1.600 
#    0.000    2.000    0.000    0.000    0.000    0.000 
#    0.000    0.000    0.000    0.000    0.000    0.000 
#
# Total GULP energy -111607.609902 kJ/mol
# GULP energy per Si atom -5580.380495 kJ/mol
# Density = 2.385558 g / cm^3
# Si number density = 23.909996 Si / 1000 Ang^3
#
#
#
# Elastic Constant Matrix: (Units=GPa)
#
#
# Indices 1 2 3 4 5 6 
#
# 1 41.8145 6.7289 1.3808 0.0000 0.0000 0.0000
# 2 6.7289 97.6152 -9.7459 0.0000 0.0000 0.0000
# 3 1.3808 -9.7459 92.5818 0.0000 0.0000 0.0000
# 4 0.0000 0.0000 0.0000 40.7596 0.0000 0.0000
# 5 0.0000 0.0000 0.0000 0.0000 7.2704 0.0000
# 6 0.0000 0.0000 0.0000 0.0000 0.0000 40.2445
#
#
#
# Elastic Compliance Matrix: (Units=1/GPa)
#
#
# Indices 1 2 3 4 5 6 
#
# 1 0.024210 -0.001723 -0.000542 0.000000 0.000000 0.000000
# 2 -0.001723 0.010476 0.001128 0.000000 0.000000 0.000000
# 3 -0.000542 0.001128 0.010928 0.000000 0.000000 0.000000
# 4 0.000000 0.000000 0.000000 0.024534 0.000000 0.000000
# 5 0.000000 0.000000 0.000000 0.000000 0.137544 0.000000
# 6 0.000000 0.000000 0.000000 0.000000 0.000000 0.024848
#
#
# Mechanical properties :
#
#
# Convention : Reuss Voigt Hill
#
# Bulk Modulus (GPa) = 23.07331 25.41545 24.24438
# Shear Modulus (GPa) = 20.05931 33.23141 26.64536
#
# Velocity S-wave (km/s) = 2.89961 3.73212 3.34189
# Velocity P-wave (km/s) = 4.56961 5.40595 5.00528
#
# Compressibility (1/GPa) = 0.04334011
#
# Stress axis : x y z
#
# Youngs Moduli (GPa) = 41.30467 95.45856 91.50685
#
# Poissons Ratio (x) = 0.16448 0.04964
# Poissons Ratio (y) = 0.07117 -0.10326
# Poissons Ratio (z) = 0.02241 -0.10772
#
# Static dielectric constant tensor:
#      x y z
#    x 2.029390 0.000000 0.000000 
#    y 0.000000 1.903160 0.000000 
#    z 0.000000 0.000000 1.942190 
# 
# From -- ./inp_files/744.got.cif
#   From: 2010.05.17/outbox.cif.g08.bks.cpg/sg36_1_cif.got.tgz:744.got - 2010.06.03 17:41:39.
