data_PCOD9351059
_publ_section_title
;
Structure prediction by ZEFSAII (Michael W. Deem and Ramdas Pophale) SiO2 
 PCOD9351059
Probable space group: C M C 21
;
_chemical_formula_sum "Si O2"
_cell_formula_units_Z 64
_cell_length_a 16.356801
_cell_length_b 20.471852
_cell_length_c 10.705199
_cell_angle_alpha 90.000000
_cell_angle_beta 90.000000
_cell_angle_gamma 90.000000
_cell_volume 3584.678805
_symmetry_space_group_name_H-M "C M C 21"
_symmetry_group_IT_number 36
_symmetry_cell_setting 'orthorhombic'
loop_
_space_group_symop_operation_xyz
x,y,z
-x,-y,1/2+z
x,-y,1/2+z
-x,y,z
1/2+x,1/2+y,z
1/2-x,1/2-y,1/2+z
1/2+x,1/2-y,1/2+z
1/2-x,1/2+y,z
loop_
_atom_site_type_symbol
_atom_site_label
_atom_site_fract_x
_atom_site_fract_y
_atom_site_fract_z
Si Si1 0.593479 0.904285 0.234680
Si Si2 0.670054 0.336991 0.636917
Si Si3 0.301214 0.096825 0.971333
Si Si4 0.784617 0.357871 0.866195
Si Si5 0.907210 0.290534 0.032187
Si Si6 0.904822 0.557768 0.199485
Si Si7 0.688049 0.529851 0.475171
Si Si8 0.403774 0.525084 0.209494
O O1 0.500000 0.900759 0.284602
O O2 0.659847 0.887185 0.338904
O O3 0.597932 0.854049 0.121000
O O4 0.606601 0.979552 0.195012
O O5 0.733701 0.353758 0.525606
O O6 0.725412 0.329873 0.760121
O O7 0.616677 0.274281 0.606961
O O8 0.615966 0.401530 0.661535
O O9 0.256040 0.026832 0.970055
O O10 0.374725 0.089005 0.070244
O O11 0.845423 0.410643 0.802068
O O12 0.730266 0.399593 0.962797
O O13 0.840611 0.303132 0.926428
O O14 0.000000 0.285759 0.984859
O O15 0.000000 0.570777 0.225418
O O16 0.639421 0.520151 0.604657
O O17 0.634307 0.519928 0.348731
O O18 0.500000 0.513005 0.213638
#
# Coordination Sequence:
#
# PCOD9351059 Si02
#       8
#     8   8   8   8   8   8   8   8
#     4  10  21  31  52  82 111 143 172 216 268 321
#     4   9  22  37  56  77 103 147 184 223 268 315
#     4  10  19  34  54  78 110 141 178 221 268 322
#     4  10  20  36  56  81 110 143 180 223 275 323
#     4  11  23  37  55  80 108 143 185 223 263 325
#     4  10  19  33  54  82 116 146 173 216 276 333
#     4  10  20  33  57  83 112 141 179 230 276 334
#     4  10  20  37  58  83 110 144 181 230 284 327
#
# _framework density 17.853760999999999
#
# number of rings (size 3 to 8) (size 9 to 14) (size 15 to 20)
#    0.000    2.000    1.250    3.000    3.500    0.000 
#    0.000    0.000    0.000    0.000    0.000    0.000 
#    0.000    0.000    0.000    0.000    0.000    0.000 
#
# Total GULP energy -178570.788256 kJ/mol
# GULP energy per Si atom -5580.337133 kJ/mol
# Density = 1.781313 g / cm^3
# Si number density = 17.853761 Si / 1000 Ang^3
#
#
#
# Elastic Constant Matrix: (Units=GPa)
#
#
# Indices 1 2 3 4 5 6 
#
# 1 75.2923 2.2310 19.2402 0.0000 0.0000 0.0000
# 2 2.2310 39.3183 0.6044 0.0000 0.0000 0.0000
# 3 19.2402 0.6044 31.5438 0.0000 0.0000 0.0000
# 4 0.0000 0.0000 0.0000 12.9018 0.0000 0.0000
# 5 0.0000 0.0000 0.0000 0.0000 20.3934 0.0000
# 6 0.0000 0.0000 0.0000 0.0000 0.0000 13.0996
#
#
#
# Elastic Compliance Matrix: (Units=1/GPa)
#
#
# Indices 1 2 3 4 5 6 
#
# 1 0.015756 -0.000747 -0.009596 0.000000 0.000000 0.000000
# 2 -0.000747 0.025476 -0.000033 0.000000 0.000000 0.000000
# 3 -0.009596 -0.000033 0.037556 0.000000 0.000000 0.000000
# 4 0.000000 0.000000 0.000000 0.077508 0.000000 0.000000
# 5 0.000000 0.000000 0.000000 0.000000 0.049035 0.000000
# 6 0.000000 0.000000 0.000000 0.000000 0.000000 0.076338
#
#
# Mechanical properties :
#
#
# Convention : Reuss Voigt Hill
#
# Bulk Modulus (GPa) = 17.23032 21.14505 19.18769
# Shear Modulus (GPa) = 15.53922 17.55089 16.54505
#
# Velocity S-wave (km/s) = 2.95339 3.13874 3.04747
# Velocity P-wave (km/s) = 4.61538 5.00048 4.81179
#
# Compressibility (1/GPa) = 0.05803723
#
# Stress axis : x y z
#
# Youngs Moduli (GPa) = 63.46843 39.25219 26.62711
#
# Poissons Ratio (x) = 0.02930 0.25551
# Poissons Ratio (y) = 0.04738 0.00087
# Poissons Ratio (z) = 0.60904 0.00129
#
# Static dielectric constant tensor:
#      x y z
#    x 1.606440 0.000000 0.000000 
#    y 0.000000 1.586530 0.000000 
#    z 0.000000 0.000000 1.623380 
# 
# From -- ./inp_files/8627.got.cif
#   From: 2010.05.17/outbox.cif.g08.bks.cpg/sg36_5_cif.got.tgz:8627.got - 2010.06.03 17:41:39.
