data_PCOD9351401
_publ_section_title
;
Structure prediction by ZEFSAII (Michael W. Deem and Ramdas Pophale) SiO2 
 PCOD9351401
Probable space group: C M C 21
;
_chemical_formula_sum "Si O2"
_cell_formula_units_Z 48
_cell_length_a 15.401587
_cell_length_b 16.713857
_cell_length_c 10.077499
_cell_angle_alpha 90.000000
_cell_angle_beta 90.000000
_cell_angle_gamma 90.000000
_cell_volume 2594.149013
_symmetry_space_group_name_H-M "C M C 21"
_symmetry_group_IT_number 36
_symmetry_cell_setting 'orthorhombic'
loop_
_space_group_symop_operation_xyz
x,y,z
-x,-y,1/2+z
x,-y,1/2+z
-x,y,z
1/2+x,1/2+y,z
1/2-x,1/2-y,1/2+z
1/2+x,1/2-y,1/2+z
1/2-x,1/2+y,z
loop_
_atom_site_type_symbol
_atom_site_label
_atom_site_fract_x
_atom_site_fract_y
_atom_site_fract_z
Si Si1 0.809589 0.569106 0.722080
Si Si2 0.407594 0.591168 0.030760
Si Si3 0.645868 0.472230 0.808498
Si Si4 0.221766 0.349289 0.945316
Si Si5 0.780059 0.330466 0.477406
Si Si6 0.602844 0.103053 0.216233
O O1 0.713028 0.533786 0.740509
O O2 0.811884 0.613018 0.582079
O O3 0.818210 0.630679 0.843213
O O4 0.871886 0.491451 0.728621
O O5 0.500000 0.634255 0.007950
O O6 0.403494 0.518162 0.925513
O O7 0.317374 0.636894 0.005534
O O8 0.404869 0.563378 0.183839
O O9 0.706279 0.406374 0.878631
O O10 0.266504 0.264024 0.967038
O O11 0.141299 0.350885 0.843709
O O12 0.842948 0.360737 0.593669
O O13 0.500000 0.111842 0.201752
#
# Coordination Sequence:
#
# PCOD9351401 Si02
#       6
#     8   8   8   8   8   8
#     4  10  20  37  64  88 119 160 208 246 304 365
#     4  11  21  37  61  89 120 157 205 249 300 372
#     4  10  19  38  59  89 114 157 203 250 301 359
#     4  11  21  39  64  89 124 162 199 256 316 365
#     4  11  23  39  63  92 128 162 198 258 319 365
#     4  11  23  42  66  91 123 166 214 255 303 372
#
# _framework density 18.503177999999998
#
# number of rings (size 3 to 8) (size 9 to 14) (size 15 to 20)
#    0.000    1.333    5.000    3.500    0.000    3.333 
#    0.000    1.667    0.000    0.000    0.000    0.000 
#    0.000    0.000    0.000    0.000    0.000    0.000 
#
# Total GULP energy -133872.415630 kJ/mol
# GULP energy per Si atom -5578.017318 kJ/mol
# Density = 1.846106 g / cm^3
# Si number density = 18.503178 Si / 1000 Ang^3
#
#
#
# Elastic Constant Matrix: (Units=GPa)
#
#
# Indices 1 2 3 4 5 6 
#
# 1 126.3947 16.0739 42.2972 0.0000 0.0000 0.0000
# 2 16.0739 67.9262 31.3062 0.0000 0.0000 0.0000
# 3 42.2972 31.3062 141.7215 0.0000 0.0000 0.0000
# 4 0.0000 0.0000 0.0000 17.4848 0.0000 0.0000
# 5 0.0000 0.0000 0.0000 0.0000 -140.6725 0.0000
# 6 0.0000 0.0000 0.0000 0.0000 0.0000 5.8520
#
#
#
# Elastic Compliance Matrix: (Units=1/GPa)
#
#
# Indices 1 2 3 4 5 6 
#
# 1 0.008847 -0.000976 -0.002425 0.000000 0.000000 0.000000
# 2 -0.000976 0.016498 -0.003353 0.000000 0.000000 0.000000
# 3 -0.002425 -0.003353 0.008521 0.000000 0.000000 0.000000
# 4 0.000000 0.000000 0.000000 0.057193 0.000000 0.000000
# 5 0.000000 0.000000 0.000000 0.000000 -0.007109 0.000000
# 6 0.000000 0.000000 0.000000 0.000000 0.000000 0.170882
#
#
# Mechanical properties :
#
#
# Convention : Reuss Voigt Hill
#
# Bulk Modulus (GPa) = 49.12087 57.26634 53.19361
# Shear Modulus (GPa) = 18.17351 -7.04281 5.56535
#
# Velocity S-wave (km/s) = 3.13738 -1.95308 1.73618
# Velocity P-wave (km/s) = 6.30310 5.09221 5.72973
#
# Compressibility (1/GPa) = 0.02035794
#
# Stress axis : x y z
#
# Youngs Moduli (GPa) = 113.02847 60.61250 117.36362
#
# Poissons Ratio (x) = 0.05916 0.28460
# Poissons Ratio (y) = 0.11032 0.39354
# Poissons Ratio (z) = 0.27408 0.20324
#
# Static dielectric constant tensor:
#      x y z
#    x 1.795690 0.000000 0.000000 
#    y 0.000000 1.631400 0.000000 
#    z 0.000000 0.000000 1.646060 
# 
# From -- ./inp_files/3982.got.cif
#   From: 2010.05.17/outbox.cif.g08.bks.cpg/sg36_2_cif.got.tgz:3982.got - 2010.06.03 17:41:39.
