data_PCOD9351590
_publ_section_title
;
Structure prediction by ZEFSAII (Michael W. Deem and Ramdas Pophale) SiO2 
 PCOD9351590
Probable space group: C M C 21
;
_chemical_formula_sum "Si O2"
_cell_formula_units_Z 64
_cell_length_a 22.051284
_cell_length_b 18.677390
_cell_length_c 8.280761
_cell_angle_alpha 90.000000
_cell_angle_beta 90.000000
_cell_angle_gamma 90.000000
_cell_volume 3410.517797
_symmetry_space_group_name_H-M "C M C 21"
_symmetry_group_IT_number 36
_symmetry_cell_setting 'orthorhombic'
loop_
_space_group_symop_operation_xyz
x,y,z
-x,-y,1/2+z
x,-y,1/2+z
-x,y,z
1/2+x,1/2+y,z
1/2-x,1/2-y,1/2+z
1/2+x,1/2-y,1/2+z
1/2-x,1/2+y,z
loop_
_atom_site_type_symbol
_atom_site_label
_atom_site_fract_x
_atom_site_fract_y
_atom_site_fract_z
Si Si1 0.172814 0.733412 0.854870
Si Si2 0.249486 0.458951 0.861966
Si Si3 0.768122 0.393965 0.218398
Si Si4 0.780170 0.319676 0.705969
Si Si5 0.149225 0.802327 0.325458
Si Si6 0.931587 0.105532 0.010505
Si Si7 0.394311 0.463946 0.842754
Si Si8 0.428818 0.676749 0.515276
O O1 0.178085 0.662855 0.745193
O O2 0.215334 0.791616 0.768171
O O3 0.109831 0.771065 0.898188
O O4 0.203277 0.708589 0.027114
O O5 0.224534 0.538304 0.835573
O O6 0.221186 0.404000 0.732442
O O7 0.321628 0.466065 0.832991
O O8 0.239051 0.424554 0.038013
O O9 0.706415 0.350583 0.265904
O O10 0.826633 0.278257 0.824351
O O11 0.119590 0.834747 0.484322
O O12 0.096591 0.807679 0.192550
O O13 0.000000 0.132751 0.996062
O O14 0.919078 0.042213 0.882560
O O15 0.922119 0.067190 0.180337
O O16 0.412481 0.405434 0.976089
O O17 0.500000 0.687513 0.499898
#
# Coordination Sequence:
#
# PCOD9351590 Si02
#       8
#     8   8   8   8   8   8   8   8
#     4  10  21  36  55  84 107 147 183 231 281 329
#     4  12  21  37  55  82 109 148 175 232 287 339
#     4  11  22  35  56  80 112 141 185 229 287 334
#     4  10  20  34  56  78 110 140 184 228 285 328
#     4  10  21  36  54  80 106 149 185 230 273 323
#     4  12  24  36  50  73 109 155 194 231 266 317
#     4  12  23  36  50  76 107 148 195 223 271 329
#     4  11  21  38  57  79 113 150 190 226 270 333
#
# _framework density 18.765478999999999
#
# number of rings (size 3 to 8) (size 9 to 14) (size 15 to 20)
#    0.000    1.000    3.750    5.250    3.500    1.000 
#    0.000    0.000    0.000    0.000    0.000    8.750 
#    0.000    0.000    0.000    0.000    0.000    0.000 
#
# Total GULP energy -178895.925753 kJ/mol
# GULP energy per Si atom -5590.497680 kJ/mol
# Density = 1.872277 g / cm^3
# Si number density = 18.765479 Si / 1000 Ang^3
#
#
#
# Elastic Constant Matrix: (Units=GPa)
#
#
# Indices 1 2 3 4 5 6 
#
# 1 62.8723 18.0931 -2.7864 0.0000 0.0000 0.0000
# 2 18.0931 72.0721 -6.8627 0.0000 0.0000 0.0000
# 3 -2.7864 -6.8627 33.7671 0.0000 0.0000 0.0000
# 4 0.0000 0.0000 0.0000 24.6462 0.0000 0.0000
# 5 0.0000 0.0000 0.0000 0.0000 15.5116 0.0000
# 6 0.0000 0.0000 0.0000 0.0000 0.0000 16.4386
#
#
#
# Elastic Compliance Matrix: (Units=1/GPa)
#
#
# Indices 1 2 3 4 5 6 
#
# 1 0.017154 -0.004254 0.000551 0.000000 0.000000 0.000000
# 2 -0.004254 0.015204 0.002739 0.000000 0.000000 0.000000
# 3 0.000551 0.002739 0.030217 0.000000 0.000000 0.000000
# 4 0.000000 0.000000 0.000000 0.040574 0.000000 0.000000
# 5 0.000000 0.000000 0.000000 0.000000 0.064468 0.000000
# 6 0.000000 0.000000 0.000000 0.000000 0.000000 0.060833
#
#
# Mechanical properties :
#
#
# Convention : Reuss Voigt Hill
#
# Bulk Modulus (GPa) = 16.48905 20.62217 18.55561
# Shear Modulus (GPa) = 19.95274 22.00379 20.97827
#
# Velocity S-wave (km/s) = 3.26432 3.42799 3.34716
# Velocity P-wave (km/s) = 4.79726 5.16541 4.98473
#
# Compressibility (1/GPa) = 0.06064630
#
# Stress axis : x y z
#
# Youngs Moduli (GPa) = 58.29602 65.77351 33.09424
#
# Poissons Ratio (x) = 0.27979 -0.01823
# Poissons Ratio (y) = 0.24798 -0.09064
# Poissons Ratio (z) = -0.03212 -0.18015
#
# Static dielectric constant tensor:
#      x y z
#    x 1.623870 0.000000 0.000000 
#    y 0.000000 1.664700 0.000000 
#    z 0.000000 0.000000 1.746320 
# 
# From -- ./inp_files/5320.got.cif
#   From: 2010.05.17/outbox.cif.g08.bks.cpg/sg36_3_cif.got.tgz:5320.got - 2010.06.03 17:41:39.
