data_PCOD9351339
_publ_section_title
;
Structure prediction by ZEFSAII (Michael W. Deem and Ramdas Pophale) SiO2 
 PCOD9351339
Probable space group: C M C 21
;
_chemical_formula_sum "Si O2"
_cell_formula_units_Z 64
_cell_length_a 8.629430
_cell_length_b 25.442632
_cell_length_c 14.293545
_cell_angle_alpha 90.000000
_cell_angle_beta 90.000000
_cell_angle_gamma 90.000000
_cell_volume 3138.225159
_symmetry_space_group_name_H-M "C M C 21"
_symmetry_group_IT_number 36
_symmetry_cell_setting 'orthorhombic'
loop_
_space_group_symop_operation_xyz
x,y,z
-x,-y,1/2+z
x,-y,1/2+z
-x,y,z
1/2+x,1/2+y,z
1/2-x,1/2-y,1/2+z
1/2+x,1/2-y,1/2+z
1/2-x,1/2+y,z
loop_
_atom_site_type_symbol
_atom_site_label
_atom_site_fract_x
_atom_site_fract_y
_atom_site_fract_z
Si Si1 0.310945 0.790531 0.215410
Si Si2 0.316532 0.569641 0.038156
Si Si3 0.182882 0.189885 0.324165
Si Si4 0.681644 0.086280 0.241375
Si Si5 0.184736 0.662226 0.516627
Si Si6 0.179406 0.627448 0.872339
Si Si7 0.178776 0.471084 0.236053
Si Si8 0.681072 0.452148 0.037572
O O1 0.500000 0.792424 0.211386
O O2 0.262888 0.732258 0.246824
O O3 0.264699 0.827490 0.302235
O O4 0.257032 0.813358 0.115501
O O5 0.500000 0.567749 0.059108
O O6 0.222036 0.581980 0.131777
O O7 0.270707 0.510660 0.003523
O O8 0.279487 0.613880 0.962339
O O9 0.220978 0.132065 0.287283
O O10 0.257331 0.194204 0.426645
O O11 0.000000 0.196918 0.334810
O O12 0.500000 0.096904 0.256325
O O13 0.719113 0.027815 0.277936
O O14 0.234362 0.601079 0.506768
O O15 0.000000 0.663485 0.518659
O O16 0.181836 0.574819 0.810301
O O17 0.000000 0.638249 0.898811
O O18 0.287245 0.457153 0.149058
O O19 0.000000 0.475139 0.200258
O O20 0.500000 0.445417 0.017437
#
# Coordination Sequence:
#
# PCOD9351339 Si02
#       8
#     8   8   8   8   8   8   8   8
#     4   9  21  42  65  87 119 158 202 253 305 354
#     4  10  22  37  55  88 129 167 200 247 308 363
#     4  11  24  42  63  91 123 158 198 253 311 357
#     4  10  21  39  60  88 120 161 206 246 295 361
#     4  11  22  41  65  88 116 158 206 252 298 361
#     4  10  19  36  60  88 118 159 203 248 300 358
#     4   9  18  34  58  85 117 156 198 245 297 353
#     4  10  20  35  56  87 124 159 197 246 306 359
#
# _framework density 20.393694
#
# number of rings (size 3 to 8) (size 9 to 14) (size 15 to 20)
#    0.000    2.000    1.250    1.875    1.750    3.500 
#    0.000    6.250    0.000    0.000    0.000    0.000 
#    0.000    0.000    0.000    0.000    0.000    0.000 
#
# Total GULP energy -178629.955020 kJ/mol
# GULP energy per Si atom -5582.186094 kJ/mol
# Density = 2.034728 g / cm^3
# Si number density = 20.393694 Si / 1000 Ang^3
#
#
#
# Elastic Constant Matrix: (Units=GPa)
#
#
# Indices 1 2 3 4 5 6 
#
# 1 25.8639 12.6509 6.6005 0.0000 0.0000 0.0000
# 2 12.6509 75.4614 19.4895 0.0000 0.0000 0.0000
# 3 6.6005 19.4895 55.0517 0.0000 0.0000 0.0000
# 4 0.0000 0.0000 0.0000 24.5431 0.0000 0.0000
# 5 0.0000 0.0000 0.0000 0.0000 27.6163 0.0000
# 6 0.0000 0.0000 0.0000 0.0000 0.0000 17.0604
#
#
#
# Elastic Compliance Matrix: (Units=1/GPa)
#
#
# Indices 1 2 3 4 5 6 
#
# 1 0.042515 -0.006396 -0.002833 0.000000 0.000000 0.000000
# 2 -0.006396 0.015548 -0.004737 0.000000 0.000000 0.000000
# 3 -0.002833 -0.004737 0.020182 0.000000 0.000000 0.000000
# 4 0.000000 0.000000 0.000000 0.040745 0.000000 0.000000
# 5 0.000000 0.000000 0.000000 0.000000 0.036210 0.000000
# 6 0.000000 0.000000 0.000000 0.000000 0.000000 0.058615
#
#
# Mechanical properties :
#
#
# Convention : Reuss Voigt Hill
#
# Bulk Modulus (GPa) = 19.87603 25.98429 22.93016
# Shear Modulus (GPa) = 19.34098 21.68636 20.51367
#
# Velocity S-wave (km/s) = 3.08292 3.26450 3.17501
# Velocity P-wave (km/s) = 4.73707 5.19406 4.97082
#
# Compressibility (1/GPa) = 0.05031185
#
# Stress axis : x y z
#
# Youngs Moduli (GPa) = 23.52086 64.31871 49.55020
#
# Poissons Ratio (x) = 0.41137 0.14038
# Poissons Ratio (y) = 0.15044 0.23474
# Poissons Ratio (z) = 0.06664 0.30470
#
# Static dielectric constant tensor:
#      x y z
#    x 1.707460 0.000000 0.000000 
#    y 0.000000 1.734660 0.000000 
#    z 0.000000 0.000000 1.723010 
# 
# From -- ./inp_files/10971.got.cif
#   From: 2010.05.17/outbox.cif.g08.bks.cpg/sg36_6_cif.got.tgz:10971.got - 2010.06.03 17:41:39.
