data_PCOD9351035
_publ_section_title
;
Structure prediction by ZEFSAII (Michael W. Deem and Ramdas Pophale) SiO2 
 PCOD9351035
Probable space group: C M C 21
;
_chemical_formula_sum "Si O2"
_cell_formula_units_Z 56
_cell_length_a 15.669525
_cell_length_b 20.809658
_cell_length_c 9.257360
_cell_angle_alpha 90.000000
_cell_angle_beta 90.000000
_cell_angle_gamma 90.000000
_cell_volume 3018.616401
_symmetry_space_group_name_H-M "C M C 21"
_symmetry_group_IT_number 36
_symmetry_cell_setting 'orthorhombic'
loop_
_space_group_symop_operation_xyz
x,y,z
-x,-y,1/2+z
x,-y,1/2+z
-x,y,z
1/2+x,1/2+y,z
1/2-x,1/2-y,1/2+z
1/2+x,1/2-y,1/2+z
1/2-x,1/2+y,z
loop_
_atom_site_type_symbol
_atom_site_label
_atom_site_fract_x
_atom_site_fract_y
_atom_site_fract_z
Si Si1 0.594885 0.326297 0.242640
Si Si2 0.226845 0.136167 0.983601
Si Si3 0.803152 0.501463 0.477256
Si Si4 0.903782 0.308564 0.579995
Si Si5 0.866548 0.053694 0.541999
Si Si6 0.403600 0.578815 0.202489
Si Si7 0.906187 0.557140 0.224816
O O1 0.500000 0.328290 0.308150
O O2 0.665054 0.333684 0.365705
O O3 0.603729 0.260003 0.155812
O O4 0.602380 0.385423 0.131525
O O5 0.315381 0.175696 0.997183
O O6 0.170457 0.123224 0.129943
O O7 0.254193 0.064149 0.937386
O O8 0.735324 0.545936 0.557649
O O9 0.836510 0.537849 0.339454
O O10 0.880204 0.478838 0.578151
O O11 0.905188 0.367274 0.693755
O O12 0.000000 0.311099 0.509221
O O13 0.886165 0.062292 0.371229
O O14 0.902127 0.987805 0.610990
O O15 0.500000 0.605970 0.191694
O O16 0.000000 0.537414 0.272722
#
# Coordination Sequence:
#
# PCOD9351035 Si02
#       7
#     8   8   8   8   8   8   8
#     4  11  22  38  58  81 110 149 188 224 272 334
#     4  10  21  37  57  83 111 143 183 232 277 327
#     4  10  19  33  52  79 106 135 175 222 275 328
#     4   9  21  38  56  78 109 146 184 223 271 327
#     4  11  21  34  54  80 114 148 181 224 278 337
#     4  11  21  34  54  84 116 146 181 229 282 333
#     4  10  19  34  54  77 104 137 178 228 276 322
#
# _framework density 18.551545999999998
#
# number of rings (size 3 to 8) (size 9 to 14) (size 15 to 20)
#    0.000    1.714    0.000    7.286    0.000    2.857 
#    0.000    0.000    0.000    0.857    0.000    8.000 
#    0.000    0.000    0.000    0.000    0.000    0.000 
#
# Total GULP energy -156112.496370 kJ/mol
# GULP energy per Si atom -5575.446299 kJ/mol
# Density = 1.850932 g / cm^3
# Si number density = 18.551546 Si / 1000 Ang^3
#
#
#
# Elastic Constant Matrix: (Units=GPa)
#
#
# Indices 1 2 3 4 5 6 
#
# 1 155.7231 47.8648 42.8755 0.0000 0.0000 0.0000
# 2 47.8648 36.8923 13.5932 0.0000 0.0000 0.0000
# 3 42.8755 13.5932 60.8510 0.0000 0.0000 0.0000
# 4 0.0000 0.0000 0.0000 4.7489 0.0000 0.0000
# 5 0.0000 0.0000 0.0000 0.0000 1.6116 0.0000
# 6 0.0000 0.0000 0.0000 0.0000 0.0000 3.2937
#
#
#
# Elastic Compliance Matrix: (Units=1/GPa)
#
#
# Indices 1 2 3 4 5 6 
#
# 1 0.012163 -0.013755 -0.005498 0.000000 0.000000 0.000000
# 2 -0.013755 0.045093 -0.000381 0.000000 0.000000 0.000000
# 3 -0.005498 -0.000381 0.020392 0.000000 0.000000 0.000000
# 4 0.000000 0.000000 0.000000 0.210575 0.000000 0.000000
# 5 0.000000 0.000000 0.000000 0.000000 0.620500 0.000000
# 6 0.000000 0.000000 0.000000 0.000000 0.000000 0.303607
#
#
# Mechanical properties :
#
#
# Convention : Reuss Voigt Hill
#
# Bulk Modulus (GPa) = 26.05490 51.34815 38.70152
# Shear Modulus (GPa) = 3.95447 11.87305 7.91376
#
# Velocity S-wave (km/s) = 1.46159 2.53257 2.06763
# Velocity P-wave (km/s) = 4.11381 6.02417 5.15820
#
# Compressibility (1/GPa) = 0.03838050
#
# Stress axis : x y z
#
# Youngs Moduli (GPa) = 82.21482 22.17657 49.03826
#
# Poissons Ratio (x) = 0.30504 0.26959
# Poissons Ratio (y) = 1.13089 0.01869
# Poissons Ratio (z) = 0.45198 0.00845
#
# Static dielectric constant tensor:
#      x y z
#    x 1.669850 0.000000 0.000000 
#    y 0.000000 1.604550 0.000000 
#    z 0.000000 0.000000 1.664970 
# 
# From -- ./inp_files/4194.got.cif
#   From: 2010.05.17/outbox.cif.g08.bks.cpg/sg36_3_cif.got.tgz:4194.got - 2010.06.03 17:41:39.
