data_PCOD9351944
_publ_section_title
;
Structure prediction by ZEFSAII (Michael W. Deem and Ramdas Pophale) SiO2 
 PCOD9351944
Probable space group: C M C 21
;
_chemical_formula_sum "Si O2"
_cell_formula_units_Z 64
_cell_length_a 8.758429
_cell_length_b 29.529341
_cell_length_c 12.405942
_cell_angle_alpha 90.000000
_cell_angle_beta 90.000000
_cell_angle_gamma 90.000000
_cell_volume 3208.556677
_symmetry_space_group_name_H-M "C M C 21"
_symmetry_group_IT_number 36
_symmetry_cell_setting 'orthorhombic'
loop_
_space_group_symop_operation_xyz
x,y,z
-x,-y,1/2+z
x,-y,1/2+z
-x,y,z
1/2+x,1/2+y,z
1/2-x,1/2-y,1/2+z
1/2+x,1/2-y,1/2+z
1/2-x,1/2+y,z
loop_
_atom_site_type_symbol
_atom_site_label
_atom_site_fract_x
_atom_site_fract_y
_atom_site_fract_z
Si Si1 0.321577 0.836077 0.076070
Si Si2 0.827581 0.081387 0.471151
Si Si3 0.317363 0.317192 0.467241
Si Si4 0.815875 0.884077 0.284237
Si Si5 0.675771 0.476958 0.185268
Si Si6 0.320680 0.064513 0.254400
Si Si7 0.181720 0.225401 0.399866
Si Si8 0.682289 0.831773 0.700980
O O1 0.500000 0.825567 0.084892
O O2 0.254733 0.852583 0.190238
O O3 0.291332 0.879103 0.998349
O O4 0.234140 0.796362 0.013907
O O5 0.825023 0.046621 0.569009
O O6 0.778648 0.058537 0.361573
O O7 0.000000 0.100704 0.464425
O O8 0.500000 0.314235 0.476685
O O9 0.279094 0.362594 0.399678
O O10 0.255600 0.274991 0.398444
O O11 0.244012 0.316220 0.585255
O O12 0.768699 0.936231 0.264014
O O13 0.000000 0.883211 0.269757
O O14 0.500000 0.488238 0.213228
O O15 0.775598 0.521816 0.182711
O O16 0.500000 0.063620 0.278560
O O17 0.284009 0.114497 0.210411
O O18 0.242602 0.195051 0.300663
O O19 0.000000 0.227987 0.394784
O O20 0.500000 0.825506 0.706909
#
# Coordination Sequence:
#
# PCOD9351944 Si02
#       8
#     8   8   8   8   8   8   8   8
#     4  11  21  36  62  92 122 156 204 263 317 373
#     4  10  20  37  60  86 118 160 209 260 314 375
#     4  11  25  44  67  94 129 170 215 265 324 386
#     4   9  21  42  64  90 126 168 214 262 317 380
#     4   9  20  38  61  90 123 165 215 260 311 381
#     4  11  23  38  61  92 127 165 207 264 322 374
#     4  12  25  42  66  93 125 166 212 261 319 382
#     4  11  25  45  65  93 132 168 214 267 322 385
#
# _framework density 19.946664999999999
#
# number of rings (size 3 to 8) (size 9 to 14) (size 15 to 20)
#    0.000    1.500    1.250    4.500    1.750    6.000 
#    0.000    3.750    0.000    0.000    0.000    0.000 
#    0.000    0.000    0.000    0.000    0.000    0.000 
#
# Total GULP energy -178771.310673 kJ/mol
# GULP energy per Si atom -5586.603459 kJ/mol
# Density = 1.990127 g / cm^3
# Si number density = 19.946665 Si / 1000 Ang^3
#
#
#
# Elastic Constant Matrix: (Units=GPa)
#
#
# Indices 1 2 3 4 5 6 
#
# 1 61.7147 30.3295 20.6385 0.0000 0.0000 0.0000
# 2 30.3295 93.8109 23.1557 0.0000 0.0000 0.0000
# 3 20.6385 23.1557 56.5658 0.0000 0.0000 0.0000
# 4 0.0000 0.0000 0.0000 14.7378 0.0000 0.0000
# 5 0.0000 0.0000 0.0000 0.0000 28.6848 0.0000
# 6 0.0000 0.0000 0.0000 0.0000 0.0000 30.1592
#
#
#
# Elastic Compliance Matrix: (Units=1/GPa)
#
#
# Indices 1 2 3 4 5 6 
#
# 1 0.020615 -0.005349 -0.005332 0.000000 0.000000 0.000000
# 2 -0.005349 0.013246 -0.003471 0.000000 0.000000 0.000000
# 3 -0.005332 -0.003471 0.021045 0.000000 0.000000 0.000000
# 4 0.000000 0.000000 0.000000 0.067853 0.000000 0.000000
# 5 0.000000 0.000000 0.000000 0.000000 0.034862 0.000000
# 6 0.000000 0.000000 0.000000 0.000000 0.000000 0.033157
#
#
# Mechanical properties :
#
#
# Convention : Reuss Voigt Hill
#
# Bulk Modulus (GPa) = 37.59034 40.03764 38.81399
# Shear Modulus (GPa) = 21.93474 23.91419 22.92447
#
# Velocity S-wave (km/s) = 3.31972 3.46628 3.39379
# Velocity P-wave (km/s) = 5.79486 6.01133 5.90409
#
# Compressibility (1/GPa) = 0.02660258
#
# Stress axis : x y z
#
# Youngs Moduli (GPa) = 48.50726 75.49589 47.51783
#
# Poissons Ratio (x) = 0.40382 0.25337
# Poissons Ratio (y) = 0.25946 0.16492
# Poissons Ratio (z) = 0.25865 0.26202
#
# Static dielectric constant tensor:
#      x y z
#    x 1.676790 0.000000 0.000000 
#    y 0.000000 1.724570 0.000000 
#    z 0.000000 0.000000 1.694810 
# 
# From -- ./inp_files/7195.got.cif
#   From: 2010.05.17/outbox.cif.g08.bks.cpg/sg36_4_cif.got.tgz:7195.got - 2010.06.03 17:41:39.
