data_PCOD9351185
_publ_section_title
;
Structure prediction by ZEFSAII (Michael W. Deem and Ramdas Pophale) SiO2 
 PCOD9351185
Probable space group: C M C 21
;
_chemical_formula_sum "Si O2"
_cell_formula_units_Z 56
_cell_length_a 13.608724
_cell_length_b 10.240839
_cell_length_c 15.674492
_cell_angle_alpha 90.000000
_cell_angle_beta 90.000000
_cell_angle_gamma 90.000000
_cell_volume 2184.471682
_symmetry_space_group_name_H-M "C M C 21"
_symmetry_group_IT_number 36
_symmetry_cell_setting 'orthorhombic'
loop_
_space_group_symop_operation_xyz
x,y,z
-x,-y,1/2+z
x,-y,1/2+z
-x,y,z
1/2+x,1/2+y,z
1/2-x,1/2-y,1/2+z
1/2+x,1/2-y,1/2+z
1/2-x,1/2+y,z
loop_
_atom_site_type_symbol
_atom_site_label
_atom_site_fract_x
_atom_site_fract_y
_atom_site_fract_z
Si Si1 0.384450 0.773025 0.613940
Si Si2 0.109603 0.201644 0.258325
Si Si3 0.882337 0.014412 0.541265
Si Si4 0.881484 0.554665 0.646214
Si Si5 0.393999 0.124254 0.921397
Si Si6 0.759918 0.089161 0.376708
Si Si7 0.116209 0.268847 0.987779
O O1 0.500000 0.764278 0.637807
O O2 0.346847 0.622702 0.610424
O O3 0.346154 0.905760 0.658403
O O4 0.377458 0.816915 0.514566
O O5 0.148936 0.322109 0.203189
O O6 0.099072 0.261218 0.353077
O O7 0.187853 0.093870 0.284931
O O8 0.000000 0.160549 0.227748
O O9 0.836489 0.053038 0.451039
O O10 0.000000 0.027402 0.538587
O O11 0.860706 0.859661 0.545478
O O12 0.869037 0.605697 0.548998
O O13 0.000000 0.549349 0.660579
O O14 0.500000 0.056636 0.924041
O O15 0.317579 0.026221 0.882436
O O16 0.692224 0.212234 0.409639
O O17 0.000000 0.257789 0.964489
#
# Coordination Sequence:
#
# PCOD9351185 Si02
#       7
#     8   8   8   8   8   8   8
#     4   9  16  33  59  85 111 148 199 245 288 342
#     4  10  21  37  59  87 120 156 197 244 300 362
#     4  10  21  34  54  87 121 150 193 245 292 346
#     4   9  18  36  62  88 116 156 199 246 302 357
#     4  10  19  34  57  85 113 150 200 249 287 342
#     4  12  20  33  58  88 117 157 195 245 295 357
#     4  10  21  37  59  92 122 151 197 250 302 352
#
# _framework density 25.635489
#
# number of rings (size 3 to 8) (size 9 to 14) (size 15 to 20)
#    0.000    2.000    2.857    1.714    0.000    0.000 
#    0.000    2.857    0.000    1.714    0.000   10.000 
#    0.000    0.000    0.000    0.000    0.000    0.000 
#
# Total GULP energy -156297.390485 kJ/mol
# GULP energy per Si atom -5582.049660 kJ/mol
# Density = 2.557714 g / cm^3
# Si number density = 25.635489 Si / 1000 Ang^3
#
#
#
# Elastic Constant Matrix: (Units=GPa)
#
#
# Indices 1 2 3 4 5 6 
#
# 1 93.2073 16.9704 18.2598 0.0000 0.0000 0.0000
# 2 16.9704 142.3809 -8.3408 0.0000 0.0000 0.0000
# 3 18.2598 -8.3408 37.5781 0.0000 0.0000 0.0000
# 4 0.0000 0.0000 0.0000 36.7685 0.0000 0.0000
# 5 0.0000 0.0000 0.0000 0.0000 34.1299 0.0000
# 6 0.0000 0.0000 0.0000 0.0000 0.0000 24.9400
#
#
#
# Elastic Compliance Matrix: (Units=1/GPa)
#
#
# Indices 1 2 3 4 5 6 
#
# 1 0.012317 -0.001843 -0.006394 0.000000 0.000000 0.000000
# 2 -0.001843 0.007392 0.002536 0.000000 0.000000 0.000000
# 3 -0.006394 0.002536 0.030281 0.000000 0.000000 0.000000
# 4 0.000000 0.000000 0.000000 0.027197 0.000000 0.000000
# 5 0.000000 0.000000 0.000000 0.000000 0.029300 0.000000
# 6 0.000000 0.000000 0.000000 0.000000 0.000000 0.040096
#
#
# Mechanical properties :
#
#
# Convention : Reuss Voigt Hill
#
# Bulk Modulus (GPa) = 25.91457 36.32725 31.12091
# Shear Modulus (GPa) = 29.26600 35.58614 32.42607
#
# Velocity S-wave (km/s) = 3.38245 3.72984 3.56039
# Velocity P-wave (km/s) = 5.03840 5.72280 5.39147
#
# Compressibility (1/GPa) = 0.03858833
#
# Stress axis : x y z
#
# Youngs Moduli (GPa) = 81.18947 135.28878 33.02397
#
# Poissons Ratio (x) = 0.24928 0.21115
# Poissons Ratio (y) = 0.14960 -0.08375
# Poissons Ratio (z) = 0.51912 -0.34309
#
# Static dielectric constant tensor:
#      x y z
#    x 2.185040 0.000000 0.000000 
#    y 0.000000 2.128650 0.000000 
#    z 0.000000 0.000000 2.001100 
# 
# From -- ./inp_files/12159.got.cif
#   From: 2010.05.17/outbox.cif.g08.bks.cpg/sg36_7_cif.got.tgz:12159.got - 2010.06.03 17:41:39.
