data_PCOD9351916
_publ_section_title
;
Structure prediction by ZEFSAII (Michael W. Deem and Ramdas Pophale) SiO2 
 PCOD9351916
Probable space group: C M C 21
;
_chemical_formula_sum "Si O2"
_cell_formula_units_Z 40
_cell_length_a 13.597933
_cell_length_b 9.113082
_cell_length_c 12.674344
_cell_angle_alpha 90.000000
_cell_angle_beta 90.000000
_cell_angle_gamma 90.000000
_cell_volume 1570.593029
_symmetry_space_group_name_H-M "C M C 21"
_symmetry_group_IT_number 36
_symmetry_cell_setting 'orthorhombic'
loop_
_space_group_symop_operation_xyz
x,y,z
-x,-y,1/2+z
x,-y,1/2+z
-x,y,z
1/2+x,1/2+y,z
1/2-x,1/2-y,1/2+z
1/2+x,1/2-y,1/2+z
1/2-x,1/2+y,z
loop_
_atom_site_type_symbol
_atom_site_label
_atom_site_fract_x
_atom_site_fract_y
_atom_site_fract_z
Si Si1 0.610182 0.742464 0.605170
Si Si2 0.712541 0.502351 0.709203
Si Si3 0.111661 0.309705 0.234723
Si Si4 0.613297 0.976345 0.455394
Si Si5 0.612925 0.272569 0.348425
O O1 0.500000 0.731706 0.563873
O O2 0.650095 0.579081 0.616318
O O3 0.664719 0.862139 0.535005
O O4 0.678700 0.585679 0.819864
O O5 0.819488 0.567918 0.683242
O O6 0.675824 0.337951 0.723711
O O7 0.893964 0.290745 0.728249
O O8 0.104456 0.374958 0.351764
O O9 0.000000 0.288728 0.195871
O O10 0.500000 0.007380 0.491813
O O11 0.650560 0.138492 0.420777
O O12 0.500000 0.312040 0.377967
#
# Coordination Sequence:
#
# PCOD9351916 Si02
#       5
#     8   8   8   8   8
#     4   8  16  33  60  90 125 168 211 255 316 374
#     4  10  20  37  59  84 122 163 205 254 311 365
#     4  11  22  37  62  91 120 160 210 255 308 372
#     4   9  17  32  59  91 126 166 208 260 313 370
#     4   8  15  31  59  88 121 165 207 254 309 369
#
# _framework density 25.468086
#
# number of rings (size 3 to 8) (size 9 to 14) (size 15 to 20)
#    1.200    1.600    0.000    2.400    0.000    0.000 
#    0.000    5.000    4.400    0.000    0.000    1.400 
#    0.000    0.000    0.000    0.000    0.000    0.000 
#
# Total GULP energy -111367.022046 kJ/mol
# GULP energy per Si atom -5568.351102 kJ/mol
# Density = 2.541012 g / cm^3
# Si number density = 25.468086 Si / 1000 Ang^3
#
#
#
# Elastic Constant Matrix: (Units=GPa)
#
#
# Indices 1 2 3 4 5 6 
#
# 1 137.0968 61.3675 -16.7712 0.0000 0.0000 0.0000
# 2 61.3675 179.1124 3.4425 0.0000 0.0000 0.0000
# 3 -16.7712 3.4425 24.7067 0.0000 0.0000 0.0000
# 4 0.0000 0.0000 0.0000 7.5573 0.0000 0.0000
# 5 0.0000 0.0000 0.0000 0.0000 5.8381 0.0000
# 6 0.0000 0.0000 0.0000 0.0000 0.0000 -24.9861
#
#
#
# Elastic Compliance Matrix: (Units=1/GPa)
#
#
# Indices 1 2 3 4 5 6 
#
# 1 0.009709 -0.003463 0.007073 0.000000 0.000000 0.000000
# 2 -0.003463 0.006833 -0.003302 0.000000 0.000000 0.000000
# 3 0.007073 -0.003302 0.045736 0.000000 0.000000 0.000000
# 4 0.000000 0.000000 0.000000 0.132322 0.000000 0.000000
# 5 0.000000 0.000000 0.000000 0.000000 0.171289 0.000000
# 6 0.000000 0.000000 0.000000 0.000000 0.000000 -0.040022
#
#
# Mechanical properties :
#
#
# Convention : Reuss Voigt Hill
#
# Bulk Modulus (GPa) = 15.89954 48.55486 32.22720
# Shear Modulus (GPa) = 14.44183 17.20700 15.82441
#
# Velocity S-wave (km/s) = 2.38388 2.60211 2.49538
# Velocity P-wave (km/s) = 3.71936 5.30418 4.58083
#
# Compressibility (1/GPa) = 0.06289491
#
# Stress axis : x y z
#
# Youngs Moduli (GPa) = 102.99404 146.35079 21.86446
#
# Poissons Ratio (x) = 0.50675 -0.15465
# Poissons Ratio (y) = 0.35662 0.07221
# Poissons Ratio (z) = -0.72850 0.48332
#
# Static dielectric constant tensor:
#      x y z
#    x 2.161640 0.000000 0.000000 
#    y 0.000000 2.025520 0.000000 
#    z 0.000000 0.000000 2.068780 
# 
# From -- ./inp_files/8259.got.cif
#   From: 2010.05.17/outbox.cif.g08.bks.cpg/sg36_5_cif.got.tgz:8259.got - 2010.06.03 17:41:39.
