data_PCOD9351996
_publ_section_title
;
Structure prediction by ZEFSAII (Michael W. Deem and Ramdas Pophale) SiO2 
 PCOD9351996
Probable space group: C M C 21
;
_chemical_formula_sum "Si O2"
_cell_formula_units_Z 48
_cell_length_a 14.203742
_cell_length_b 31.851856
_cell_length_c 4.913938
_cell_angle_alpha 90.000000
_cell_angle_beta 90.000000
_cell_angle_gamma 90.000000
_cell_volume 2223.141938
_symmetry_space_group_name_H-M "C M C 21"
_symmetry_group_IT_number 36
_symmetry_cell_setting 'orthorhombic'
loop_
_space_group_symop_operation_xyz
x,y,z
-x,-y,1/2+z
x,-y,1/2+z
-x,y,z
1/2+x,1/2+y,z
1/2-x,1/2-y,1/2+z
1/2+x,1/2-y,1/2+z
1/2-x,1/2+y,z
loop_
_atom_site_type_symbol
_atom_site_label
_atom_site_fract_x
_atom_site_fract_y
_atom_site_fract_z
Si Si1 0.108023 0.471313 0.214500
Si Si2 0.500000 0.789650 0.138649
Si Si3 0.209100 0.641473 0.159305
Si Si4 0.000000 0.348384 0.628540
Si Si5 0.201652 0.268974 0.356971
Si Si6 0.266604 0.403372 0.155658
Si Si7 0.887315 0.025726 0.417671
O O1 0.122624 0.489038 0.515954
O O2 0.177884 0.434499 0.139579
O O3 0.000000 0.457550 0.183844
O O4 0.500000 0.831810 0.320660
O O5 0.596340 0.766438 0.227437
O O6 0.500000 0.807301 0.830226
O O7 0.247361 0.636349 0.461736
O O8 0.098693 0.628559 0.169535
O O9 0.209782 0.686880 0.017834
O O10 0.269828 0.611738 0.964211
O O11 0.228592 0.236775 0.599633
O O12 0.350549 0.430968 0.037511
O O13 0.000000 0.026639 0.416372
O O14 0.855241 0.011689 0.120034
#
# Coordination Sequence:
#
# PCOD9351996 Si02
#       7
#     8   4   8   4   8   8   8
#     4  10  21  35  51  77 117 159 196 231 284 353
#     4  10  20  38  64  94 114 155 206 254 292 353
#     4  11  24  36  60  91 121 160 199 247 306 364
#     4  10  20  38  56  86 126 153 202 248 284 357
#     4  11  22  41  67  88 126 161 207 254 307 367
#     4  12  22  36  59  86 123 153 202 248 309 356
#     4  10  21  39  64  87 110 153 211 260 306 357
#
# _framework density 21.591066000000001
#
# number of rings (size 3 to 8) (size 9 to 14) (size 15 to 20)
#    0.000    1.333    0.000    8.000    2.333    0.000 
#    0.000    0.000   11.000    0.000    0.000    0.000 
#    0.000    0.000    0.000    0.000    0.000    0.000 
#
# Total GULP energy -134120.082881 kJ/mol
# GULP energy per Si atom -5588.336787 kJ/mol
# Density = 2.154192 g / cm^3
# Si number density = 21.591066 Si / 1000 Ang^3
#
#
#
# Elastic Constant Matrix: (Units=GPa)
#
#
# Indices 1 2 3 4 5 6 
#
# 1 47.0823 6.1073 -2.6574 0.0000 0.0000 0.0000
# 2 6.1073 48.6764 -3.9262 0.0000 0.0000 0.0000
# 3 -2.6574 -3.9262 65.1974 0.0000 0.0000 0.0000
# 4 0.0000 0.0000 0.0000 36.2988 0.0000 0.0000
# 5 0.0000 0.0000 0.0000 0.0000 23.0489 0.0000
# 6 0.0000 0.0000 0.0000 0.0000 0.0000 9.0656
#
#
#
# Elastic Compliance Matrix: (Units=1/GPa)
#
#
# Indices 1 2 3 4 5 6 
#
# 1 0.021624 -0.002655 0.000722 0.000000 0.000000 0.000000
# 2 -0.002655 0.020970 0.001155 0.000000 0.000000 0.000000
# 3 0.000722 0.001155 0.015437 0.000000 0.000000 0.000000
# 4 0.000000 0.000000 0.000000 0.027549 0.000000 0.000000
# 5 0.000000 0.000000 0.000000 0.000000 0.043386 0.000000
# 6 0.000000 0.000000 0.000000 0.000000 0.000000 0.110307
#
#
# Mechanical properties :
#
#
# Convention : Reuss Voigt Hill
#
# Bulk Modulus (GPa) = 17.70731 17.77818 17.74275
# Shear Modulus (GPa) = 19.25627 24.44483 21.85055
#
# Velocity S-wave (km/s) = 2.98965 3.36843 3.18467
# Velocity P-wave (km/s) = 4.48735 4.83532 4.66458
#
# Compressibility (1/GPa) = 0.05647384
#
# Stress axis : x y z
#
# Youngs Moduli (GPa) = 46.24386 47.68703 64.77953
#
# Poissons Ratio (x) = 0.12661 -0.04674
# Poissons Ratio (y) = 0.12278 -0.07480
# Poissons Ratio (z) = -0.03337 -0.05506
#
# Static dielectric constant tensor:
#      x y z
#    x 1.786900 0.000000 0.000000 
#    y 0.000000 1.805350 0.000000 
#    z 0.000000 0.000000 1.767710 
# 
# From -- ./inp_files/850.got.cif
#   From: 2010.05.17/outbox.cif.g08.bks.cpg/sg36_1_cif.got.tgz:850.got - 2010.06.03 17:41:39.
