data_PCOD9351852
_publ_section_title
;
Structure prediction by ZEFSAII (Michael W. Deem and Ramdas Pophale) SiO2 
 PCOD9351852
Probable space group: C M C 21
;
_chemical_formula_sum "Si O2"
_cell_formula_units_Z 48
_cell_length_a 13.705591
_cell_length_b 16.987290
_cell_length_c 8.547834
_cell_angle_alpha 90.000000
_cell_angle_beta 90.000000
_cell_angle_gamma 90.000000
_cell_volume 1990.113968
_symmetry_space_group_name_H-M "C M C 21"
_symmetry_group_IT_number 36
_symmetry_cell_setting 'orthorhombic'
loop_
_space_group_symop_operation_xyz
x,y,z
-x,-y,1/2+z
x,-y,1/2+z
-x,y,z
1/2+x,1/2+y,z
1/2-x,1/2-y,1/2+z
1/2+x,1/2-y,1/2+z
1/2-x,1/2+y,z
loop_
_atom_site_type_symbol
_atom_site_label
_atom_site_fract_x
_atom_site_fract_y
_atom_site_fract_z
Si Si1 0.386067 0.388049 0.001270
Si Si2 0.815808 0.720179 0.891988
Si Si3 0.115825 0.602653 0.685450
Si Si4 0.896343 0.355141 0.682164
Si Si5 0.606919 0.315457 0.343093
Si Si6 0.711848 0.967989 0.878495
O O1 0.500000 0.393223 0.959993
O O2 0.381472 0.370426 0.188051
O O3 0.335609 0.311630 0.921678
O O4 0.321634 0.461404 0.942720
O O5 0.842575 0.690019 0.718871
O O6 0.708227 0.688196 0.934025
O O7 0.889126 0.676090 0.007758
O O8 0.169910 0.549159 0.815223
O O9 0.147303 0.568493 0.518494
O O10 0.000000 0.601430 0.698821
O O11 0.896047 0.274763 0.780643
O O12 0.808881 0.410468 0.732232
O O13 0.000000 0.397436 0.707227
O O14 0.500000 0.332435 0.414408
#
# Coordination Sequence:
#
# PCOD9351852 Si02
#       6
#     8   8   8   8   8   8
#     4  10  21  41  67  95 130 170 209 260 320 380
#     4  11  20  39  65  99 130 164 209 264 321 382
#     4  12  25  40  63  96 129 167 212 266 324 379
#     4  10  20  36  60  88 128 168 201 253 316 372
#     4   9  18  35  62  95 127 163 205 257 317 371
#     4  12  24  43  63  91 130 170 214 262 316 388
#
# _framework density 24.119219999999999
#
# number of rings (size 3 to 8) (size 9 to 14) (size 15 to 20)
#    0.000    1.333    3.333    5.000    0.000    0.000 
#    0.000    2.500    0.000    0.000    0.000    0.000 
#    0.000    0.000    0.000    0.000    0.000    0.000 
#
# Total GULP energy -134153.985255 kJ/mol
# GULP energy per Si atom -5589.749386 kJ/mol
# Density = 2.406432 g / cm^3
# Si number density = 24.119220 Si / 1000 Ang^3
#
#
#
# Elastic Constant Matrix: (Units=GPa)
#
#
# Indices 1 2 3 4 5 6 
#
# 1 201.0896 7.1230 21.5668 0.0000 0.0000 0.0000
# 2 7.1230 29.9252 18.2296 0.0000 0.0000 0.0000
# 3 21.5668 18.2296 40.2864 0.0000 0.0000 0.0000
# 4 0.0000 0.0000 0.0000 31.6285 0.0000 0.0000
# 5 0.0000 0.0000 0.0000 0.0000 31.7167 0.0000
# 6 0.0000 0.0000 0.0000 0.0000 0.0000 23.9810
#
#
#
# Elastic Compliance Matrix: (Units=1/GPa)
#
#
# Indices 1 2 3 4 5 6 
#
# 1 0.005285 0.000643 -0.003120 0.000000 0.000000 0.000000
# 2 0.000643 0.046211 -0.021255 0.000000 0.000000 0.000000
# 3 -0.003120 -0.021255 0.036110 0.000000 0.000000 0.000000
# 4 0.000000 0.000000 0.000000 0.031617 0.000000 0.000000
# 5 0.000000 0.000000 0.000000 0.000000 0.031529 0.000000
# 6 0.000000 0.000000 0.000000 0.000000 0.000000 0.041700
#
#
# Mechanical properties :
#
#
# Convention : Reuss Voigt Hill
#
# Bulk Modulus (GPa) = 24.91129 40.57114 32.74121
# Shear Modulus (GPa) = 19.73964 32.42401 26.08183
#
# Velocity S-wave (km/s) = 2.86391 3.67048 3.29199
# Velocity P-wave (km/s) = 4.61376 5.90092 5.29658
#
# Compressibility (1/GPa) = 0.04014244
#
# Stress axis : x y z
#
# Youngs Moduli (GPa) = 189.22358 21.63964 27.69294
#
# Poissons Ratio (x) = -0.01391 0.08640
# Poissons Ratio (y) = -0.12161 0.58861
# Poissons Ratio (z) = 0.59036 0.45995
#
# Static dielectric constant tensor:
#      x y z
#    x 1.949750 0.000000 0.000000 
#    y 0.000000 1.959480 0.000000 
#    z 0.000000 0.000000 1.932680 
# 
# From -- ./inp_files/4005.got.cif
#   From: 2010.05.17/outbox.cif.g08.bks.cpg/sg36_3_cif.got.tgz:4005.got - 2010.06.03 17:41:39.
