data_PCOD9351084
_publ_section_title
;
Structure prediction by ZEFSAII (Michael W. Deem and Ramdas Pophale) SiO2 
 PCOD9351084
Probable space group: C M C 21
;
_chemical_formula_sum "Si O2"
_cell_formula_units_Z 64
_cell_length_a 7.885137
_cell_length_b 25.512049
_cell_length_c 14.597482
_cell_angle_alpha 90.000000
_cell_angle_beta 90.000000
_cell_angle_gamma 90.000000
_cell_volume 2936.517086
_symmetry_space_group_name_H-M "C M C 21"
_symmetry_group_IT_number 36
_symmetry_cell_setting 'orthorhombic'
loop_
_space_group_symop_operation_xyz
x,y,z
-x,-y,1/2+z
x,-y,1/2+z
-x,y,z
1/2+x,1/2+y,z
1/2-x,1/2-y,1/2+z
1/2+x,1/2-y,1/2+z
1/2-x,1/2+y,z
loop_
_atom_site_type_symbol
_atom_site_label
_atom_site_fract_x
_atom_site_fract_y
_atom_site_fract_z
Si Si1 0.704765 0.836813 0.371700
Si Si2 0.294823 0.917153 0.659481
Si Si3 0.796228 0.955161 0.342157
Si Si4 0.198725 0.468727 0.131915
Si Si5 0.192127 0.131101 0.533330
Si Si6 0.298212 0.811759 0.567923
Si Si7 0.796980 0.930295 0.870370
Si Si8 0.695601 0.787994 0.181676
O O1 0.500000 0.834942 0.366423
O O2 0.749888 0.898397 0.381605
O O3 0.763732 0.806341 0.463058
O O4 0.770315 0.812041 0.276001
O O5 0.500000 0.917456 0.657322
O O6 0.228824 0.865717 0.609776
O O7 0.241649 0.918761 0.765140
O O8 0.240699 0.972116 0.615237
O O9 0.717477 0.958120 0.240403
O O10 0.000000 0.957780 0.333816
O O11 0.738508 0.009722 0.390005
O O12 0.307073 0.425641 0.080883
O O13 0.000000 0.463118 0.107463
O O14 0.270035 0.116019 0.435282
O O15 0.289336 0.168770 0.601898
O O16 0.000000 0.151989 0.524553
O O17 0.500000 0.818163 0.560031
O O18 0.269651 0.764368 0.637355
O O19 0.000000 0.929543 0.883660
O O20 0.500000 0.776567 0.200326
#
# Coordination Sequence:
#
# PCOD9351084 Si02
#       8
#     8   8   8   8   8   8   8   8
#     4  10  22  40  62  86 117 154 196 249 303 359
#     4   9  20  38  59  86 120 157 199 245 298 357
#     4  10  19  34  57  86 120 158 200 243 295 356
#     4  10  19  33  55  86 121 156 196 244 296 351
#     4  11  22  37  58  86 121 162 201 244 298 355
#     4  10  23  43  64  88 118 158 202 249 308 361
#     4   9  21  37  55  86 126 164 200 243 300 357
#     4  11  24  42  62  88 119 155 204 253 298 356
#
# _framework density 21.794525
#
# number of rings (size 3 to 8) (size 9 to 14) (size 15 to 20)
#    0.000    2.000    1.250    1.500    1.750    4.500 
#    0.000    3.750    0.000    0.000    0.000    0.000 
#    0.000    0.000    0.000    0.000    0.000    0.000 
#
# Total GULP energy -178632.756721 kJ/mol
# GULP energy per Si atom -5582.273648 kJ/mol
# Density = 2.174492 g / cm^3
# Si number density = 21.794525 Si / 1000 Ang^3
#
#
#
# Elastic Constant Matrix: (Units=GPa)
#
#
# Indices 1 2 3 4 5 6 
#
# 1 34.3362 -1.3272 -2.3015 0.0000 0.0000 0.0000
# 2 -1.3272 97.1059 35.0500 0.0000 0.0000 0.0000
# 3 -2.3015 35.0500 68.7625 0.0000 0.0000 0.0000
# 4 0.0000 0.0000 0.0000 20.3369 0.0000 0.0000
# 5 0.0000 0.0000 0.0000 0.0000 28.6564 0.0000
# 6 0.0000 0.0000 0.0000 0.0000 0.0000 15.6278
#
#
#
# Elastic Compliance Matrix: (Units=1/GPa)
#
#
# Indices 1 2 3 4 5 6 
#
# 1 0.029190 0.000057 0.000948 0.000000 0.000000 0.000000
# 2 0.000057 0.012620 -0.006431 0.000000 0.000000 0.000000
# 3 0.000948 -0.006431 0.017852 0.000000 0.000000 0.000000
# 4 0.000000 0.000000 0.000000 0.049172 0.000000 0.000000
# 5 0.000000 0.000000 0.000000 0.000000 0.034896 0.000000
# 6 0.000000 0.000000 0.000000 0.000000 0.000000 0.063989
#
#
# Mechanical properties :
#
#
# Convention : Reuss Voigt Hill
#
# Bulk Modulus (GPa) = 20.48762 29.22746 24.85754
# Shear Modulus (GPa) = 21.29104 24.17644 22.73374
#
# Velocity S-wave (km/s) = 3.12893 3.33421 3.23320
# Velocity P-wave (km/s) = 4.74071 5.31622 5.03669
#
# Compressibility (1/GPa) = 0.04880997
#
# Stress axis : x y z
#
# Youngs Moduli (GPa) = 34.25887 79.23931 56.01460
#
# Poissons Ratio (x) = -0.00450 -0.05311
# Poissons Ratio (y) = -0.00194 0.36022
# Poissons Ratio (z) = -0.03248 0.50957
#
# Static dielectric constant tensor:
#      x y z
#    x 1.771950 0.000000 0.000000 
#    y 0.000000 1.797400 0.000000 
#    z 0.000000 0.000000 1.839520 
# 
# From -- ./inp_files/11082.got.cif
#   From: 2010.05.17/outbox.cif.g08.bks.cpg/sg36_6_cif.got.tgz:11082.got - 2010.06.03 17:41:39.
