data_PCOD9351493
_publ_section_title
;
Structure prediction by ZEFSAII (Michael W. Deem and Ramdas Pophale) SiO2 
 PCOD9351493
Probable space group: C M C 21
;
_chemical_formula_sum "Si O2"
_cell_formula_units_Z 48
_cell_length_a 9.034378
_cell_length_b 28.253784
_cell_length_c 7.667446
_cell_angle_alpha 90.000000
_cell_angle_beta 90.000000
_cell_angle_gamma 90.000000
_cell_volume 1957.156724
_symmetry_space_group_name_H-M "C M C 21"
_symmetry_group_IT_number 36
_symmetry_cell_setting 'orthorhombic'
loop_
_space_group_symop_operation_xyz
x,y,z
-x,-y,1/2+z
x,-y,1/2+z
-x,y,z
1/2+x,1/2+y,z
1/2-x,1/2-y,1/2+z
1/2+x,1/2-y,1/2+z
1/2-x,1/2+y,z
loop_
_atom_site_type_symbol
_atom_site_label
_atom_site_fract_x
_atom_site_fract_y
_atom_site_fract_z
Si Si1 0.674985 0.512309 0.937760
Si Si2 0.668616 0.347072 0.298368
Si Si3 0.164882 0.098360 0.173298
Si Si4 0.667502 0.179699 0.346445
Si Si5 0.174865 0.568197 0.628776
Si Si6 0.168385 0.263936 0.479129
O O1 0.500000 0.514692 0.887938
O O2 0.782654 0.538360 0.802790
O O3 0.688062 0.544348 0.114140
O O4 0.729508 0.459966 0.985384
O O5 0.500000 0.343689 0.235065
O O6 0.664203 0.375406 0.483817
O O7 0.768280 0.379261 0.172582
O O8 0.734358 0.297090 0.354438
O O9 0.278667 0.127803 0.289547
O O10 0.000000 0.103737 0.248382
O O11 0.500000 0.178654 0.410688
O O12 0.769827 0.210850 0.471893
O O13 0.671214 0.210046 0.165522
O O14 0.000000 0.566513 0.595189
O O15 0.000000 0.263347 0.416213
#
# Coordination Sequence:
#
# PCOD9351493 Si02
#       6
#     8   8   8   8   8   8
#     4  10  20  36  56  78 105 140 178 215 260 313
#     4   9  17  32  53  75 101 136 174 209 253 311
#     4   8  16  31  52  74  98 132 171 208 249 302
#     4  10  20  33  52  77 103 133 169 209 255 305
#     4  11  21  34  54  81 109 137 173 218 264 309
#     4  10  20  34  53  77 104 134 171 213 255 302
#
# _framework density 24.525372000000001
#
# number of rings (size 3 to 8) (size 9 to 14) (size 15 to 20)
#    0.000    2.333    0.000    4.500    0.000    6.667 
#    0.000    1.667    0.000    6.000    0.000    0.000 
#    0.000    0.000    0.000    0.000    0.000    0.000 
#
# Total GULP energy -134391.312569 kJ/mol
# GULP energy per Si atom -5599.638024 kJ/mol
# Density = 2.446955 g / cm^3
# Si number density = 24.525372 Si / 1000 Ang^3
#
#
#
# Elastic Constant Matrix: (Units=GPa)
#
#
# Indices 1 2 3 4 5 6 
#
# 1 130.4071 36.9503 7.7383 0.0000 0.0000 0.0000
# 2 36.9503 162.6826 -6.1553 0.0000 0.0000 0.0000
# 3 7.7383 -6.1553 63.1540 0.0000 0.0000 0.0000
# 4 0.0000 0.0000 0.0000 48.2651 0.0000 0.0000
# 5 0.0000 0.0000 0.0000 0.0000 27.6634 0.0000
# 6 0.0000 0.0000 0.0000 0.0000 0.0000 39.5701
#
#
#
# Elastic Compliance Matrix: (Units=1/GPa)
#
#
# Indices 1 2 3 4 5 6 
#
# 1 0.008286 -0.001927 -0.001203 0.000000 0.000000 0.000000
# 2 -0.001927 0.006618 0.000881 0.000000 0.000000 0.000000
# 3 -0.001203 0.000881 0.016068 0.000000 0.000000 0.000000
# 4 0.000000 0.000000 0.000000 0.020719 0.000000 0.000000
# 5 0.000000 0.000000 0.000000 0.000000 0.036149 0.000000
# 6 0.000000 0.000000 0.000000 0.000000 0.000000 0.025272
#
#
# Mechanical properties :
#
#
# Convention : Reuss Voigt Hill
#
# Bulk Modulus (GPa) = 37.77477 48.14559 42.96018
# Shear Modulus (GPa) = 39.54635 44.28043 41.91339
#
# Velocity S-wave (km/s) = 4.01991 4.25372 4.13847
# Velocity P-wave (km/s) = 6.08128 6.61809 6.35535
#
# Compressibility (1/GPa) = 0.02647269
#
# Stress axis : x y z
#
# Youngs Moduli (GPa) = 120.68794 151.10137 62.23694
#
# Poissons Ratio (x) = 0.29125 0.07488
# Poissons Ratio (y) = 0.23262 -0.05484
# Poissons Ratio (z) = 0.14520 -0.13315
#
# Static dielectric constant tensor:
#      x y z
#    x 1.813880 0.000000 0.000000 
#    y 0.000000 1.950570 0.000000 
#    z 0.000000 0.000000 2.055700 
# 
# From -- ./inp_files/2647.got.cif
#   From: 2010.05.17/outbox.cif.g08.bks.cpg/sg36_2_cif.got.tgz:2647.got - 2010.06.03 17:41:39.
