data_PCOD9351726
_publ_section_title
;
Structure prediction by ZEFSAII (Michael W. Deem and Ramdas Pophale) SiO2 
 PCOD9351726
Probable space group: C M C 21
;
_chemical_formula_sum "Si O2"
_cell_formula_units_Z 64
_cell_length_a 8.735690
_cell_length_b 18.741635
_cell_length_c 21.087976
_cell_angle_alpha 90.000000
_cell_angle_beta 90.000000
_cell_angle_gamma 90.000000
_cell_volume 3452.546911
_symmetry_space_group_name_H-M "C M C 21"
_symmetry_group_IT_number 36
_symmetry_cell_setting 'orthorhombic'
loop_
_space_group_symop_operation_xyz
x,y,z
-x,-y,1/2+z
x,-y,1/2+z
-x,y,z
1/2+x,1/2+y,z
1/2-x,1/2-y,1/2+z
1/2+x,1/2-y,1/2+z
1/2-x,1/2+y,z
loop_
_atom_site_type_symbol
_atom_site_label
_atom_site_fract_x
_atom_site_fract_y
_atom_site_fract_z
Si Si1 0.816112 0.201751 0.427320
Si Si2 0.816012 0.453643 0.309798
Si Si3 0.816702 0.206857 0.665759
Si Si4 0.315400 0.788333 0.302159
Si Si5 0.816450 0.788854 0.545481
Si Si6 0.183948 0.959480 0.174321
Si Si7 0.315992 0.043163 0.432349
Si Si8 0.684990 0.544746 0.049885
O O1 0.771532 0.237861 0.360420
O O2 0.754416 0.249203 0.485058
O O3 0.000000 0.199709 0.430480
O O4 0.750580 0.122477 0.432640
O O5 0.770830 0.370428 0.317411
O O6 0.752382 0.479084 0.242374
O O7 0.765268 0.501138 0.368936
O O8 0.000000 0.455584 0.307697
O O9 0.759388 0.230994 0.735014
O O10 0.742327 0.251259 0.609307
O O11 0.773245 0.122922 0.659994
O O12 0.000000 0.211880 0.662080
O O13 0.500000 0.786201 0.295428
O O14 0.773117 0.872232 0.545669
O O15 0.000000 0.783873 0.542757
O O16 0.000000 0.961967 0.178991
O O17 0.232201 0.010230 0.116938
O O18 0.500000 0.046060 0.432989
O O19 0.257856 0.999733 0.493013
O O20 0.500000 0.539165 0.045630
#
# Coordination Sequence:
#
# PCOD9351726 Si02
#       8
#     8   8   8   8   8   8   8   8
#     4  11  23  39  59  82 112 151 192 236 287 339
#     4   9  19  36  57  82 111 143 182 227 275 329
#     4  10  20  35  58  85 114 149 188 232 282 339
#     4   9  19  37  59  81 110 149 189 231 281 336
#     4  11  23  38  58  84 114 149 191 239 287 337
#     4   9  19  36  57  81 109 144 185 226 273 331
#     4  11  23  38  58  85 115 147 187 234 283 338
#     4  10  22  39  58  82 113 148 188 233 280 335
#
# _framework density 18.537039
#
# number of rings (size 3 to 8) (size 9 to 14) (size 15 to 20)
#    0.000    2.000    0.000    3.000    0.000    7.000 
#    0.000    6.250    0.000    0.000    0.000    0.000 
#    0.000    0.000    0.000    0.000    0.000    0.000 
#
# Total GULP energy -178785.337764 kJ/mol
# GULP energy per Si atom -5587.041805 kJ/mol
# Density = 1.849485 g / cm^3
# Si number density = 18.537039 Si / 1000 Ang^3
#
#
#
# Elastic Constant Matrix: (Units=GPa)
#
#
# Indices 1 2 3 4 5 6 
#
# 1 97.2278 204.3883 224.9205 0.0000 0.0000 0.0000
# 2 204.3883 520.5027 542.8259 0.0000 0.0000 0.0000
# 3 224.9205 542.8259 657.5935 0.0000 0.0000 0.0000
# 4 0.0000 0.0000 0.0000 42.5771 0.0000 0.0000
# 5 0.0000 0.0000 0.0000 0.0000 20.9557 0.0000
# 6 0.0000 0.0000 0.0000 0.0000 0.0000 15.6988
#
#
#
# Elastic Compliance Matrix: (Units=1/GPa)
#
#
# Indices 1 2 3 4 5 6 
#
# 1 0.064698 -0.016727 -0.008321 0.000000 0.000000 0.000000
# 2 -0.016727 0.018134 -0.009248 0.000000 0.000000 0.000000
# 3 -0.008321 -0.009248 0.012001 0.000000 0.000000 0.000000
# 4 0.000000 0.000000 0.000000 0.023487 0.000000 0.000000
# 5 0.000000 0.000000 0.000000 0.000000 0.047720 0.000000
# 6 0.000000 0.000000 0.000000 0.000000 0.000000 0.063699
#
#
# Mechanical properties :
#
#
# Convention : Reuss Voigt Hill
#
# Bulk Modulus (GPa) = 38.10920 357.73262 197.92091
# Shear Modulus (GPa) = 16.28247 36.05894 26.17070
#
# Velocity S-wave (km/s) = 2.96695 4.41527 3.76148
# Velocity P-wave (km/s) = 5.68684 14.81197 11.21906
#
# Compressibility (1/GPa) = 0.02624038
#
# Stress axis : x y z
#
# Youngs Moduli (GPa) = 15.45633 55.14436 83.32839
#
# Poissons Ratio (x) = 0.92243 0.69338
# Poissons Ratio (y) = 0.25855 0.77061
# Poissons Ratio (z) = 0.12861 0.50997
#
# Static dielectric constant tensor:
#      x y z
#    x 1.639230 0.000000 0.000000 
#    y 0.000000 1.620960 0.000000 
#    z 0.000000 0.000000 1.606590 
# 
# From -- ./inp_files/15670.got.cif
#   From: 2010.05.17/outbox.cif.g08.bks.cpg/sg36_8_cif.got.tgz:15670.got - 2010.06.03 17:41:39.
