data_PCOD9351441
_publ_section_title
;
Structure prediction by ZEFSAII (Michael W. Deem and Ramdas Pophale) SiO2 
 PCOD9351441
Probable space group: C M C 21
;
_chemical_formula_sum "Si O2"
_cell_formula_units_Z 64
_cell_length_a 8.944125
_cell_length_b 23.740849
_cell_length_c 18.000825
_cell_angle_alpha 90.000000
_cell_angle_beta 90.000000
_cell_angle_gamma 90.000000
_cell_volume 3822.315361
_symmetry_space_group_name_H-M "C M C 21"
_symmetry_group_IT_number 36
_symmetry_cell_setting 'orthorhombic'
loop_
_space_group_symop_operation_xyz
x,y,z
-x,-y,1/2+z
x,-y,1/2+z
-x,y,z
1/2+x,1/2+y,z
1/2-x,1/2-y,1/2+z
1/2+x,1/2-y,1/2+z
1/2-x,1/2+y,z
loop_
_atom_site_type_symbol
_atom_site_label
_atom_site_fract_x
_atom_site_fract_y
_atom_site_fract_z
Si Si1 0.321719 0.387849 0.687130
Si Si2 0.678959 0.121154 0.336942
Si Si3 0.179188 0.437772 0.993165
Si Si4 0.179114 0.322716 0.059266
Si Si5 0.822274 0.943186 0.530338
Si Si6 0.180457 0.776051 0.906962
Si Si7 0.828282 0.720131 0.124964
Si Si8 0.829452 0.339163 0.461970
O O1 0.500000 0.390585 0.696053
O O2 0.238280 0.406592 0.761628
O O3 0.278173 0.423163 0.613631
O O4 0.270147 0.323841 0.670634
O O5 0.500000 0.128106 0.335623
O O6 0.718783 0.085539 0.410879
O O7 0.759350 0.181953 0.344570
O O8 0.252739 0.497023 0.010511
O O9 0.000000 0.443463 0.994654
O O10 0.218921 0.388688 0.052659
O O11 0.259344 0.282439 0.118474
O O12 0.000000 0.317279 0.065078
O O13 0.234141 0.298687 0.979936
O O14 0.769144 0.894039 0.474347
O O15 0.000000 0.946614 0.528547
O O16 0.214927 0.709378 0.903380
O O17 0.000000 0.781155 0.915319
O O18 0.000000 0.721124 0.150664
O O19 0.828938 0.693790 0.041308
O O20 0.000000 0.356531 0.447048
#
# Coordination Sequence:
#
# PCOD9351441 Si02
#       8
#     8   8   8   8   8   8   8   8
#     4  10  20  33  49  72 100 129 161 203 252 302
#     4  10  20  33  50  73  98 128 163 202 250 303
#     4   9  19  33  49  70  98 131 168 207 248 295
#     4   9  16  27  44  68  95 122 153 193 237 283
#     4  10  20  31  48  73  98 128 169 211 248 287
#     4   9  16  27  45  69  94 122 152 188 236 287
#     4   9  16  27  45  69  94 122 153 189 235 286
#     4   8  15  27  44  66  93 122 151 185 232 283
#
# _framework density 16.743777999999999
#
# number of rings (size 3 to 8) (size 9 to 14) (size 15 to 20)
#    0.000    2.750    0.000    3.750    0.000    8.000 
#    0.000    0.000    0.000    1.500    0.000    5.250 
#    0.000    0.000    0.000    0.000    0.000    0.000 
#
# Total GULP energy -178160.414086 kJ/mol
# GULP energy per Si atom -5567.512940 kJ/mol
# Density = 1.670567 g / cm^3
# Si number density = 16.743778 Si / 1000 Ang^3
#
#
#
# Elastic Constant Matrix: (Units=GPa)
#
#
# Indices 1 2 3 4 5 6 
#
# 1 45.3591 45.1470 19.8155 0.0000 0.0000 0.0000
# 2 45.1470 134.6160 36.4419 0.0000 0.0000 0.0000
# 3 19.8155 36.4419 50.0143 0.0000 0.0000 0.0000
# 4 0.0000 0.0000 0.0000 13.0576 0.0000 0.0000
# 5 0.0000 0.0000 0.0000 0.0000 21.8509 0.0000
# 6 0.0000 0.0000 0.0000 0.0000 0.0000 30.2994
#
#
#
# Elastic Compliance Matrix: (Units=1/GPa)
#
#
# Indices 1 2 3 4 5 6 
#
# 1 0.034744 -0.009873 -0.006572 0.000000 0.000000 0.000000
# 2 -0.009873 0.012060 -0.004875 0.000000 0.000000 0.000000
# 3 -0.006572 -0.004875 0.026150 0.000000 0.000000 0.000000
# 4 0.000000 0.000000 0.000000 0.076584 0.000000 0.000000
# 5 0.000000 0.000000 0.000000 0.000000 0.045765 0.000000
# 6 0.000000 0.000000 0.000000 0.000000 0.000000 0.033004
#
#
# Mechanical properties :
#
#
# Convention : Reuss Voigt Hill
#
# Bulk Modulus (GPa) = 32.98827 48.08867 40.53847
# Shear Modulus (GPa) = 17.79031 21.61389 19.70210
#
# Velocity S-wave (km/s) = 3.26314 3.59675 3.43400
# Velocity P-wave (km/s) = 5.82598 6.78465 6.32351
#
# Compressibility (1/GPa) = 0.03031381
#
# Stress axis : x y z
#
# Youngs Moduli (GPa) = 28.78158 82.92138 38.24077
#
# Poissons Ratio (x) = 0.81872 0.25130
# Poissons Ratio (y) = 0.28417 0.18643
# Poissons Ratio (z) = 0.18914 0.40425
#
# Static dielectric constant tensor:
#      x y z
#    x 1.556080 0.000000 0.000000 
#    y 0.000000 1.578240 0.000000 
#    z 0.000000 0.000000 1.605000 
# 
# From -- ./inp_files/14018.got.cif
#   From: 2010.05.17/outbox.cif.g08.bks.cpg/sg36_8_cif.got.tgz:14018.got - 2010.06.03 17:41:39.
