data_PCOD9351237
_publ_section_title
;
Structure prediction by ZEFSAII (Michael W. Deem and Ramdas Pophale) SiO2 
 PCOD9351237
Probable space group: C M C 21
;
_chemical_formula_sum "Si O2"
_cell_formula_units_Z 64
_cell_length_a 8.658545
_cell_length_b 14.604522
_cell_length_c 29.093403
_cell_angle_alpha 90.000000
_cell_angle_beta 90.000000
_cell_angle_gamma 90.000000
_cell_volume 3678.974592
_symmetry_space_group_name_H-M "C M C 21"
_symmetry_group_IT_number 36
_symmetry_cell_setting 'orthorhombic'
loop_
_space_group_symop_operation_xyz
x,y,z
-x,-y,1/2+z
x,-y,1/2+z
-x,y,z
1/2+x,1/2+y,z
1/2-x,1/2-y,1/2+z
1/2+x,1/2-y,1/2+z
1/2-x,1/2+y,z
loop_
_atom_site_type_symbol
_atom_site_label
_atom_site_fract_x
_atom_site_fract_y
_atom_site_fract_z
Si Si1 0.314705 0.996683 0.780090
Si Si2 0.186660 0.000117 0.382345
Si Si3 0.685859 0.643323 0.207234
Si Si4 0.314020 0.648186 0.957014
Si Si5 0.312649 0.852827 0.207234
Si Si6 0.185980 0.851813 0.957455
Si Si7 0.685295 0.996683 0.634379
Si Si8 0.313340 0.499884 0.532124
O O1 0.500000 0.991479 0.778639
O O2 0.257325 0.998889 0.832031
O O3 0.266180 0.087683 0.751694
O O4 0.246677 0.911597 0.751539
O O5 0.232689 0.911235 0.412361
O O6 0.000000 0.000211 0.379022
O O7 0.232265 0.088384 0.412895
O O8 0.500000 0.641698 0.207234
O O9 0.740714 0.748433 0.207234
O O10 0.746676 0.588403 0.162929
O O11 0.500000 0.651576 0.956977
O O12 0.250000 0.750000 0.957234
O O13 0.267735 0.588383 0.001573
O O14 0.500000 0.850194 0.207234
O O15 0.266180 0.912317 0.162775
O O16 0.000000 0.848423 0.957491
O O17 0.232689 0.911234 0.002107
O O18 0.500000 0.991479 0.635830
O O19 0.742674 0.998890 0.582437
O O20 0.500000 0.499790 0.535447
#
# Coordination Sequence:
#
# PCOD9351237 Si02
#       8
#     8   8   8   8   8   8   8   8
#     4  10  20  35  53  77 105 132 168 215 254 295
#     4   9  19  36  53  73 103 139 171 205 254 310
#     4  10  19  35  56  75 100 137 171 204 252 308
#     4   9  19  35  54  75 103 135 172 213 253 300
#     4   8  18  35  52  71 100 133 165 202 250 300
#     4   9  19  35  54  75 103 135 172 213 253 300
#     4  10  20  35  53  77 105 132 168 215 254 295
#     4   9  19  36  53  73 103 139 171 205 254 310
#
# _framework density 17.396151
#
# number of rings (size 3 to 8) (size 9 to 14) (size 15 to 20)
#    0.000    2.750    0.000    3.375    0.000    4.000 
#    0.000   17.500    0.000    0.000    0.000    0.000 
#    0.000    0.000    0.000    0.000    0.000    0.000 
#
# Total GULP energy -178454.625169 kJ/mol
# GULP energy per Si atom -5576.707037 kJ/mol
# Density = 1.735656 g / cm^3
# Si number density = 17.396151 Si / 1000 Ang^3
#
#
#
# Elastic Constant Matrix: (Units=GPa)
#
#
# Indices 1 2 3 4 5 6 
#
# 1 35.8287 41.0578 45.3196 0.0000 0.0000 0.0000
# 2 41.0578 201.8891 109.5528 0.0000 0.0000 0.0000
# 3 45.3196 109.5528 195.6949 0.0000 0.0000 0.0000
# 4 0.0000 0.0000 0.0000 6.0948 0.0000 0.0000
# 5 0.0000 0.0000 0.0000 0.0000 30.5955 0.0000
# 6 0.0000 0.0000 0.0000 0.0000 0.0000 30.4172
#
#
#
# Elastic Compliance Matrix: (Units=1/GPa)
#
#
# Indices 1 2 3 4 5 6 
#
# 1 0.042404 -0.004733 -0.007171 0.000000 0.000000 0.000000
# 2 -0.004733 0.007643 -0.003182 0.000000 0.000000 0.000000
# 3 -0.007171 -0.003182 0.008552 0.000000 0.000000 0.000000
# 4 0.000000 0.000000 0.000000 0.164075 0.000000 0.000000
# 5 0.000000 0.000000 0.000000 0.000000 0.032684 0.000000
# 6 0.000000 0.000000 0.000000 0.000000 0.000000 0.032876
#
#
# Mechanical properties :
#
#
# Convention : Reuss Voigt Hill
#
# Bulk Modulus (GPa) = 35.17735 91.69702 63.43718
# Shear Modulus (GPa) = 15.24942 29.25367 22.25154
#
# Velocity S-wave (km/s) = 2.96395 4.10520 3.58034
# Velocity P-wave (km/s) = 5.65496 8.67731 7.32374
#
# Compressibility (1/GPa) = 0.02842738
#
# Stress axis : x y z
#
# Youngs Moduli (GPa) = 23.58271 130.84576 116.92906
#
# Poissons Ratio (x) = 0.61923 0.83846
# Poissons Ratio (y) = 0.11161 0.37212
# Poissons Ratio (z) = 0.16910 0.41641
#
# Static dielectric constant tensor:
#      x y z
#    x 1.592110 0.000000 0.000000 
#    y 0.000000 1.582190 0.000000 
#    z 0.000000 0.000000 1.565620 
# 
# From -- ./inp_files/17347.got.cif
#   From: 2010.05.17/outbox.cif.g08.bks.cpg/sg36_9_cif.got.tgz:17347.got - 2010.06.03 17:41:39.
