data_PCOD9351318
_publ_section_title
;
Structure prediction by ZEFSAII (Michael W. Deem and Ramdas Pophale) SiO2 
 PCOD9351318
Probable space group: C M C 21
;
_chemical_formula_sum "Si O2"
_cell_formula_units_Z 64
_cell_length_a 18.418066
_cell_length_b 33.694719
_cell_length_c 5.205034
_cell_angle_alpha 90.000000
_cell_angle_beta 90.000000
_cell_angle_gamma 90.000000
_cell_volume 3230.200162
_symmetry_space_group_name_H-M "C M C 21"
_symmetry_group_IT_number 36
_symmetry_cell_setting 'orthorhombic'
loop_
_space_group_symop_operation_xyz
x,y,z
-x,-y,1/2+z
x,-y,1/2+z
-x,y,z
1/2+x,1/2+y,z
1/2-x,1/2-y,1/2+z
1/2+x,1/2-y,1/2+z
1/2-x,1/2+y,z
loop_
_atom_site_type_symbol
_atom_site_label
_atom_site_fract_x
_atom_site_fract_y
_atom_site_fract_z
Si Si1 0.422450 0.141140 0.952820
Si Si2 0.578250 0.526796 0.797338
Si Si3 0.764141 0.972413 0.380979
Si Si4 0.084026 0.473534 0.788743
Si Si5 0.917588 0.283027 0.097314
Si Si6 0.802536 0.339093 0.822402
Si Si7 0.212126 0.231365 0.198383
Si Si8 0.839166 0.411533 0.117982
O O1 0.500000 0.136024 0.091120
O O2 0.423344 0.184647 0.824755
O O3 0.411988 0.107004 0.741438
O O4 0.347273 0.139293 0.101774
O O5 0.579122 0.508352 0.511474
O O6 0.500000 0.547581 0.831316
O O7 0.655485 0.546757 0.848489
O O8 0.705998 0.939560 0.305290
O O9 0.758811 0.993273 0.659297
O O10 0.094585 0.506878 0.010789
O O11 0.135378 0.438087 0.877512
O O12 0.000000 0.460926 0.801776
O O13 0.871708 0.244262 0.174513
O O14 0.000000 0.275790 0.005038
O O15 0.862953 0.306316 0.907694
O O16 0.731975 0.314368 0.749010
O O17 0.793127 0.372986 0.033558
O O18 0.245791 0.255856 0.438406
#
# Coordination Sequence:
#
# PCOD9351318 Si02
#       8
#     8   8   8   8   8   8   8   8
#     4  10  20  34  52  78 107 139 181 228 277 323
#     4   8  14  27  48  74  99 121 155 210 269 317
#     4  10  21  35  54  78 105 141 188 233 276 332
#     4  10  22  38  53  71  98 139 188 232 273 321
#     4   9  18  34  55  83 111 141 184 228 272 325
#     4  10  21  34  54  79 112 147 183 230 282 333
#     4  10  19  36  57  82 111 144 177 218 273 330
#     4  11  23  34  51  75 107 146 184 229 282 325
#
# _framework density 19.813013000000002
#
# number of rings (size 3 to 8) (size 9 to 14) (size 15 to 20)
#    0.000    2.250    1.250    1.500    3.500    1.500 
#    0.000    0.000    0.000    0.750    0.000    0.875 
#    0.000    0.000    0.000    0.000    0.000    0.000 
#
# Total GULP energy -178386.034437 kJ/mol
# GULP energy per Si atom -5574.563576 kJ/mol
# Density = 1.976792 g / cm^3
# Si number density = 19.813013 Si / 1000 Ang^3
#
#
#
# Elastic Constant Matrix: (Units=GPa)
#
#
# Indices 1 2 3 4 5 6 
#
# 1 105.2898 50.4017 3.6255 0.0000 0.0000 0.0000
# 2 50.4017 82.4297 14.3502 0.0000 0.0000 0.0000
# 3 3.6255 14.3502 68.9879 0.0000 0.0000 0.0000
# 4 0.0000 0.0000 0.0000 19.1359 0.0000 0.0000
# 5 0.0000 0.0000 0.0000 0.0000 21.3831 0.0000
# 6 0.0000 0.0000 0.0000 0.0000 0.0000 -24.4539
#
#
#
# Elastic Compliance Matrix: (Units=1/GPa)
#
#
# Indices 1 2 3 4 5 6 
#
# 1 0.013500 -0.008437 0.001045 0.000000 0.000000 0.000000
# 2 -0.008437 0.017860 -0.003272 0.000000 0.000000 0.000000
# 3 0.001045 -0.003272 0.015121 0.000000 0.000000 0.000000
# 4 0.000000 0.000000 0.000000 0.052258 0.000000 0.000000
# 5 0.000000 0.000000 0.000000 0.000000 0.046766 0.000000
# 6 0.000000 0.000000 0.000000 0.000000 0.000000 -0.040893
#
#
# Mechanical properties :
#
#
# Convention : Reuss Voigt Hill
#
# Bulk Modulus (GPa) = 39.75346 43.71803 41.73575
# Shear Modulus (GPa) = 37.22394 15.76835 26.49614
#
# Velocity S-wave (km/s) = 4.33917 2.82416 3.66089
# Velocity P-wave (km/s) = 6.72402 5.72256 6.24340
#
# Compressibility (1/GPa) = 0.02515504
#
# Stress axis : x y z
#
# Youngs Moduli (GPa) = 74.07292 55.99185 66.13365
#
# Poissons Ratio (x) = 0.47239 -0.06914
# Poissons Ratio (y) = 0.62493 0.21637
# Poissons Ratio (z) = -0.07744 0.18319
#
# Static dielectric constant tensor:
#      x y z
#    x 1.748830 0.000000 0.000000 
#    y 0.000000 1.687260 0.000000 
#    z 0.000000 0.000000 1.810670 
# 
# From -- ./inp_files/1493.got.cif
#   From: 2010.05.17/outbox.cif.g08.bks.cpg/sg36_1_cif.got.tgz:1493.got - 2010.06.03 17:41:39.
