data_PCOD9351479
_publ_section_title
;
Structure prediction by ZEFSAII (Michael W. Deem and Ramdas Pophale) SiO2 
 PCOD9351479
Probable space group: C M C 21
;
_chemical_formula_sum "Si O2"
_cell_formula_units_Z 64
_cell_length_a 9.155261
_cell_length_b 14.572127
_cell_length_c 21.425872
_cell_angle_alpha 90.000000
_cell_angle_beta 90.000000
_cell_angle_gamma 90.000000
_cell_volume 2858.460422
_symmetry_space_group_name_H-M "C M C 21"
_symmetry_group_IT_number 36
_symmetry_cell_setting 'orthorhombic'
loop_
_space_group_symop_operation_xyz
x,y,z
-x,-y,1/2+z
x,-y,1/2+z
-x,y,z
1/2+x,1/2+y,z
1/2-x,1/2-y,1/2+z
1/2+x,1/2-y,1/2+z
1/2-x,1/2+y,z
loop_
_atom_site_type_symbol
_atom_site_label
_atom_site_fract_x
_atom_site_fract_y
_atom_site_fract_z
Si Si1 0.664535 0.742059 0.552460
Si Si2 0.832820 0.487910 0.934883
Si Si3 0.826333 0.221201 0.688040
Si Si4 0.827479 0.470797 0.185169
Si Si5 0.332026 0.517391 0.560433
Si Si6 0.663000 0.272527 0.810295
Si Si7 0.662829 0.489266 0.812819
Si Si8 0.665337 0.236912 0.430944
O O1 0.500000 0.768445 0.534330
O O2 0.693172 0.775405 0.623004
O O3 0.666226 0.629858 0.557466
O O4 0.774796 0.767487 0.498020
O O5 0.744863 0.522004 0.874661
O O6 0.834698 0.375481 0.932401
O O7 0.000000 0.518660 0.933620
O O8 0.753556 0.513297 0.999035
O O9 0.717310 0.135721 0.682070
O O10 0.774657 0.264439 0.752697
O O11 0.000000 0.196770 0.690134
O O12 0.748576 0.510675 0.123961
O O13 0.757184 0.499606 0.250611
O O14 0.000000 0.486496 0.183549
O O15 0.500000 0.487466 0.560467
O O16 0.500000 0.234684 0.796887
O O17 0.646718 0.380594 0.821329
O O18 0.732009 0.234293 0.873751
O O19 0.500000 0.529726 0.805395
O O20 0.500000 0.267315 0.420544
#
# Coordination Sequence:
#
# PCOD9351479 Si02
#       8
#     8   8   8   8   8   8   8   8
#     4   8  15  27  44  67  94 124 158 198 242 288
#     4   9  16  27  45  71  98 125 162 206 248 289
#     4  10  20  34  52  74 102 133 165 203 249 299
#     4  11  21  33  51  75 102 132 168 208 249 295
#     4   9  16  28  46  69  97 128 162 202 249 294
#     4  10  20  33  51  74 101 132 166 204 245 293
#     4  10  20  34  51  73 102 135 168 204 250 299
#     4   9  16  26  44  69  96 125 159 201 244 287
#
# _framework density 22.389673999999999
#
# number of rings (size 3 to 8) (size 9 to 14) (size 15 to 20)
#    0.000    2.500    0.000    4.125    0.000    8.000 
#    0.000    0.000    0.000    1.500    0.000    7.000 
#    0.000    0.000    0.000    0.000    0.000    0.000 
#
# Total GULP energy -178719.204066 kJ/mol
# GULP energy per Si atom -5584.975127 kJ/mol
# Density = 2.233871 g / cm^3
# Si number density = 22.389674 Si / 1000 Ang^3
#
#
#
# Elastic Constant Matrix: (Units=GPa)
#
#
# Indices 1 2 3 4 5 6 
#
# 1 197.8932 1.5578 114.1476 0.0000 0.0000 0.0000
# 2 1.5578 40.3425 -4.6448 0.0000 0.0000 0.0000
# 3 114.1476 -4.6448 206.8251 0.0000 0.0000 0.0000
# 4 0.0000 0.0000 0.0000 13.7957 0.0000 0.0000
# 5 0.0000 0.0000 0.0000 0.0000 56.0389 0.0000
# 6 0.0000 0.0000 0.0000 0.0000 0.0000 15.3339
#
#
#
# Elastic Compliance Matrix: (Units=1/GPa)
#
#
# Indices 1 2 3 4 5 6 
#
# 1 0.007436 -0.000762 -0.004121 0.000000 0.000000 0.000000
# 2 -0.000762 0.024930 0.000980 0.000000 0.000000 0.000000
# 3 -0.004121 0.000980 0.007132 0.000000 0.000000 0.000000
# 4 0.000000 0.000000 0.000000 0.072487 0.000000 0.000000
# 5 0.000000 0.000000 0.000000 0.000000 0.017845 0.000000
# 6 0.000000 0.000000 0.000000 0.000000 0.000000 0.065215
#
#
# Mechanical properties :
#
#
# Convention : Reuss Voigt Hill
#
# Bulk Modulus (GPa) = 31.55312 74.13133 52.84223
# Shear Modulus (GPa) = 23.42864 39.30038 31.36451
#
# Velocity S-wave (km/s) = 3.23833 4.19416 3.74685
# Velocity P-wave (km/s) = 5.30148 7.52570 6.50929
#
# Compressibility (1/GPa) = 0.03169258
#
# Stress axis : x y z
#
# Youngs Moduli (GPa) = 134.47250 40.11229 140.22115
#
# Poissons Ratio (x) = 0.03055 0.57790
# Poissons Ratio (y) = 0.10242 -0.13745
# Poissons Ratio (z) = 0.55420 -0.03932
#
# Static dielectric constant tensor:
#      x y z
#    x 1.775520 0.000000 0.000000 
#    y 0.000000 1.919190 0.000000 
#    z 0.000000 0.000000 1.811210 
# 
# From -- ./inp_files/13768.got.cif
#   From: 2010.05.17/outbox.cif.g08.bks.cpg/sg36_7_cif.got.tgz:13768.got - 2010.06.03 17:41:39.
