data_PCOD9351439
_publ_section_title
;
Structure prediction by ZEFSAII (Michael W. Deem and Ramdas Pophale) SiO2 
 PCOD9351439
Probable space group: C M C 21
;
_chemical_formula_sum "Si O2"
_cell_formula_units_Z 56
_cell_length_a 23.517749
_cell_length_b 22.565068
_cell_length_c 4.931614
_cell_angle_alpha 90.000000
_cell_angle_beta 90.000000
_cell_angle_gamma 90.000000
_cell_volume 2617.106971
_symmetry_space_group_name_H-M "C M C 21"
_symmetry_group_IT_number 36
_symmetry_cell_setting 'orthorhombic'
loop_
_space_group_symop_operation_xyz
x,y,z
-x,-y,1/2+z
x,-y,1/2+z
-x,y,z
1/2+x,1/2+y,z
1/2-x,1/2-y,1/2+z
1/2+x,1/2-y,1/2+z
1/2-x,1/2+y,z
loop_
_atom_site_type_symbol
_atom_site_label
_atom_site_fract_x
_atom_site_fract_y
_atom_site_fract_z
Si Si1 0.564336 0.656846 0.244210
Si Si2 0.871594 0.801435 0.259542
Si Si3 0.061912 0.458086 0.335193
Si Si4 0.276977 0.612949 0.027629
Si Si5 0.276556 0.219829 0.328920
Si Si6 0.316014 0.041444 0.715463
Si Si7 0.626819 0.461736 0.789109
O O1 0.500000 0.664460 0.334489
O O2 0.609182 0.682702 0.459448
O O3 0.579920 0.587496 0.219906
O O4 0.576163 0.688883 0.960906
O O5 0.824121 0.847687 0.370491
O O6 0.841534 0.737978 0.281177
O O7 0.062876 0.515684 0.137594
O O8 0.122332 0.428262 0.270365
O O9 0.000000 0.428539 0.290819
O O10 0.241615 0.655894 0.225491
O O11 0.235353 0.581647 0.816086
O O12 0.312871 0.566442 0.205561
O O13 0.259326 0.235163 0.634782
O O14 0.313770 0.983367 0.911822
O O15 0.621568 0.519367 0.599826
#
# Coordination Sequence:
#
# PCOD9351439 Si02
#       7
#     8   8   8   8   8   8   8
#     4  11  23  40  61  82 109 152 201 242 289 346
#     4  10  21  38  58  84 109 139 188 243 291 338
#     4   8  14  26  43  62  87 123 165 202 232 274
#     4  10  21  35  55  81 112 146 177 222 285 343
#     4  10  20  35  57  82 107 136 175 222 277 342
#     4  10  20  31  47  75 107 140 176 211 258 325
#     4  11  22  35  52  78 115 152 188 234 280 330
#
# _framework density 21.397672
#
# number of rings (size 3 to 8) (size 9 to 14) (size 15 to 20)
#    0.000    2.000    0.000    5.571    0.000    6.286 
#    0.000    0.000    0.000    1.714    0.000    8.000 
#    0.000    0.000    0.000    0.000    0.000    0.000 
#
# Total GULP energy -156476.268929 kJ/mol
# GULP energy per Si atom -5588.438176 kJ/mol
# Density = 2.134897 g / cm^3
# Si number density = 21.397672 Si / 1000 Ang^3
#
#
#
# Elastic Constant Matrix: (Units=GPa)
#
#
# Indices 1 2 3 4 5 6 
#
# 1 98.7773 4.2313 -3.8883 0.0000 0.0000 0.0000
# 2 4.2313 22.4865 -1.9839 0.0000 0.0000 0.0000
# 3 -3.8883 -1.9839 63.4200 0.0000 0.0000 0.0000
# 4 0.0000 0.0000 0.0000 20.2659 0.0000 0.0000
# 5 0.0000 0.0000 0.0000 0.0000 25.1178 0.0000
# 6 0.0000 0.0000 0.0000 0.0000 0.0000 7.9633
#
#
#
# Elastic Compliance Matrix: (Units=1/GPa)
#
#
# Indices 1 2 3 4 5 6 
#
# 1 0.010226 -0.001874 0.000568 0.000000 0.000000 0.000000
# 2 -0.001874 0.044938 0.001291 0.000000 0.000000 0.000000
# 3 0.000568 0.001291 0.015843 0.000000 0.000000 0.000000
# 4 0.000000 0.000000 0.000000 0.049344 0.000000 0.000000
# 5 0.000000 0.000000 0.000000 0.000000 0.039812 0.000000
# 6 0.000000 0.000000 0.000000 0.000000 0.000000 0.125576
#
#
# Mechanical properties :
#
#
# Convention : Reuss Voigt Hill
#
# Bulk Modulus (GPa) = 14.08900 20.15578 17.12239
# Shear Modulus (GPa) = 16.15881 23.09105 19.62493
#
# Velocity S-wave (km/s) = 2.75101 3.28859 3.03174
# Velocity P-wave (km/s) = 4.08527 4.88465 4.50273
#
# Compressibility (1/GPa) = 0.07097737
#
# Stress axis : x y z
#
# Youngs Moduli (GPa) = 97.78571 22.25301 63.11891
#
# Poissons Ratio (x) = 0.04171 -0.03587
# Poissons Ratio (y) = 0.18327 -0.08148
# Poissons Ratio (z) = -0.05558 -0.02873
#
# Static dielectric constant tensor:
#      x y z
#    x 1.803750 0.000000 0.000000 
#    y 0.000000 1.780190 0.000000 
#    z 0.000000 0.000000 1.757480 
# 
# From -- ./inp_files/1652.got.cif
#   From: 2010.05.17/outbox.cif.g08.bks.cpg/sg36_1_cif.got.tgz:1652.got - 2010.06.03 17:41:39.
