data_PCOD9351397
_publ_section_title
;
Structure prediction by ZEFSAII (Michael W. Deem and Ramdas Pophale) SiO2 
 PCOD9351397
Probable space group: C M C 21
;
_chemical_formula_sum "Si O2"
_cell_formula_units_Z 64
_cell_length_a 21.561805
_cell_length_b 16.272290
_cell_length_c 8.515396
_cell_angle_alpha 90.000000
_cell_angle_beta 90.000000
_cell_angle_gamma 90.000000
_cell_volume 2987.711363
_symmetry_space_group_name_H-M "C M C 21"
_symmetry_group_IT_number 36
_symmetry_cell_setting 'orthorhombic'
loop_
_space_group_symop_operation_xyz
x,y,z
-x,-y,1/2+z
x,-y,1/2+z
-x,y,z
1/2+x,1/2+y,z
1/2-x,1/2-y,1/2+z
1/2+x,1/2-y,1/2+z
1/2-x,1/2+y,z
loop_
_atom_site_type_symbol
_atom_site_label
_atom_site_fract_x
_atom_site_fract_y
_atom_site_fract_z
Si Si1 0.432089 0.037836 0.757940
Si Si2 0.927896 0.110309 0.021322
Si Si3 0.069353 0.343459 0.815150
Si Si4 0.069972 0.692051 0.962429
Si Si5 0.706593 0.577872 0.413562
Si Si6 0.170807 0.378505 0.050476
Si Si7 0.626492 0.543485 0.707076
Si Si8 0.336912 0.724066 0.222039
O O1 0.500000 0.056541 0.684168
O O2 0.428274 0.095937 0.911140
O O3 0.375598 0.066156 0.651512
O O4 0.430994 0.942259 0.793315
O O5 0.880558 0.174947 0.099385
O O6 0.000000 0.133077 0.036991
O O7 0.915251 0.026039 0.120487
O O8 0.910900 0.094345 0.838226
O O9 0.080739 0.302967 0.646805
O O10 0.000000 0.319144 0.869513
O O11 0.126050 0.331328 0.929844
O O12 0.117310 0.739894 0.854362
O O13 0.000000 0.721231 0.929349
O O14 0.776003 0.567105 0.474418
O O15 0.661141 0.588650 0.563697
O O16 0.678784 0.504343 0.309666
O O17 0.706478 0.657817 0.304165
O O18 0.197837 0.303070 0.151770
#
# Coordination Sequence:
#
# PCOD9351397 Si02
#       8
#     8   8   8   8   8   8   8   8
#     4   9  18  35  56  84 118 149 190 248 296 337
#     4  10  19  37  66  91 116 146 185 241 306 356
#     4  10  20  34  55  85 117 148 194 252 291 334
#     4   9  18  34  54  78 115 154 188 235 296 353
#     4  10  23  42  61  82 119 155 196 242 293 339
#     4  11  23  36  59  84 113 160 201 232 290 359
#     4   9  21  41  62  91 116 144 194 252 291 348
#     4  10  23  39  53  83 119 156 194 238 285 354
#
# _framework density 21.421078000000001
#
# number of rings (size 3 to 8) (size 9 to 14) (size 15 to 20)
#    0.000    2.250    0.000    1.875    1.750    6.500 
#    0.000    3.125    0.000    0.000    0.000    0.000 
#    0.000    0.000    0.000    0.000    0.000    0.000 
#
# Total GULP energy -178711.330632 kJ/mol
# GULP energy per Si atom -5584.729082 kJ/mol
# Density = 2.137232 g / cm^3
# Si number density = 21.421078 Si / 1000 Ang^3
#
#
#
# Elastic Constant Matrix: (Units=GPa)
#
#
# Indices 1 2 3 4 5 6 
#
# 1 52.2983 -0.0508 11.1935 0.0000 0.0000 0.0000
# 2 -0.0508 43.9112 3.3005 0.0000 0.0000 0.0000
# 3 11.1935 3.3005 65.9099 0.0000 0.0000 0.0000
# 4 0.0000 0.0000 0.0000 19.1235 0.0000 0.0000
# 5 0.0000 0.0000 0.0000 0.0000 -20.4648 0.0000
# 6 0.0000 0.0000 0.0000 0.0000 0.0000 3.5154
#
#
#
# Elastic Compliance Matrix: (Units=1/GPa)
#
#
# Indices 1 2 3 4 5 6 
#
# 1 0.019846 0.000277 -0.003384 0.000000 0.000000 0.000000
# 2 0.000277 0.022863 -0.001192 0.000000 0.000000 0.000000
# 3 -0.003384 -0.001192 0.015807 0.000000 0.000000 0.000000
# 4 0.000000 0.000000 0.000000 0.052292 0.000000 0.000000
# 5 0.000000 0.000000 0.000000 0.000000 -0.048864 0.000000
# 6 0.000000 0.000000 0.000000 0.000000 0.000000 0.284467
#
#
# Mechanical properties :
#
#
# Convention : Reuss Voigt Hill
#
# Bulk Modulus (GPa) = 20.03303 21.22288 20.62796
# Shear Modulus (GPa) = 13.45365 10.27990 11.86677
#
# Velocity S-wave (km/s) = 2.50882 2.19303 2.35622
# Velocity P-wave (km/s) = 4.21481 4.04246 4.12953
#
# Compressibility (1/GPa) = 0.04991756
#
# Stress axis : x y z
#
# Youngs Moduli (GPa) = 50.38876 43.73855 63.26436
#
# Poissons Ratio (x) = -0.01213 0.21411
# Poissons Ratio (y) = -0.01397 0.07541
# Poissons Ratio (z) = 0.17053 0.05214
#
# Static dielectric constant tensor:
#      x y z
#    x 1.817590 0.000000 0.000000 
#    y 0.000000 1.772490 0.000000 
#    z 0.000000 0.000000 1.802480 
# 
# From -- ./inp_files/5328.got.cif
#   From: 2010.05.17/outbox.cif.g08.bks.cpg/sg36_3_cif.got.tgz:5328.got - 2010.06.03 17:41:39.
