data_PCOD9351950
_publ_section_title
;
Structure prediction by ZEFSAII (Michael W. Deem and Ramdas Pophale) SiO2 
 PCOD9351950
Probable space group: C M C 21
;
_chemical_formula_sum "Si O2"
_cell_formula_units_Z 64
_cell_length_a 8.893731
_cell_length_b 23.389108
_cell_length_c 16.538382
_cell_angle_alpha 90.000000
_cell_angle_beta 90.000000
_cell_angle_gamma 90.000000
_cell_volume 3440.255262
_symmetry_space_group_name_H-M "C M C 21"
_symmetry_group_IT_number 36
_symmetry_cell_setting 'orthorhombic'
loop_
_space_group_symop_operation_xyz
x,y,z
-x,-y,1/2+z
x,-y,1/2+z
-x,y,z
1/2+x,1/2+y,z
1/2-x,1/2-y,1/2+z
1/2+x,1/2-y,1/2+z
1/2-x,1/2+y,z
loop_
_atom_site_type_symbol
_atom_site_label
_atom_site_fract_x
_atom_site_fract_y
_atom_site_fract_z
Si Si1 0.679037 0.861501 0.904070
Si Si2 0.827420 0.044291 0.299693
Si Si3 0.672037 0.893806 0.663180
Si Si4 0.823464 0.478544 0.517428
Si Si5 0.821069 0.340273 0.222651
Si Si6 0.323740 0.219088 0.251938
Si Si7 0.679707 0.599908 0.565358
Si Si8 0.179942 0.564043 0.841451
O O1 0.500000 0.859155 0.914968
O O2 0.726919 0.922107 0.864896
O O3 0.720498 0.814486 0.835153
O O4 0.761149 0.861402 0.990094
O O5 0.799190 0.078392 0.218115
O O6 0.000000 0.044021 0.324841
O O7 0.762861 0.981740 0.285768
O O8 0.500000 0.906869 0.693964
O O9 0.684082 0.924603 0.577887
O O10 0.688558 0.826437 0.678272
O O11 0.738939 0.534987 0.549401
O O12 0.770726 0.454046 0.431160
O O13 0.000000 0.494766 0.510689
O O14 0.768006 0.275513 0.232953
O O15 0.743150 0.372924 0.147950
O O16 0.785517 0.374059 0.305967
O O17 0.000000 0.342916 0.209889
O O18 0.500000 0.233633 0.260340
O O19 0.500000 0.599412 0.566528
O O20 0.000000 0.556598 0.837196
#
# Coordination Sequence:
#
# PCOD9351950 Si02
#       8
#     8   8   8   8   8   8   8   8
#     4  10  20  38  63  87 117 156 195 240 296 358
#     4  11  20  31  54  87 118 148 186 236 290 343
#     4   9  19  36  59  84 112 153 195 235 290 354
#     4  10  20  37  61  87 118 153 194 241 296 362
#     4  11  24  41  60  85 120 164 207 244 296 358
#     4   9  20  40  62  85 116 153 198 247 294 348
#     4  12  24  38  60  92 123 154 198 250 303 354
#     4  10  21  37  57  81 116 159 195 235 289 357
#
# _framework density 18.603269999999998
#
# number of rings (size 3 to 8) (size 9 to 14) (size 15 to 20)
#    0.000    1.750    1.250    4.500    0.000    7.000 
#    2.250    0.000    0.000    0.000    0.000    0.000 
#    0.000    0.000    0.000    0.000    0.000    0.000 
#
# Total GULP energy -178463.149101 kJ/mol
# GULP energy per Si atom -5576.973409 kJ/mol
# Density = 1.856093 g / cm^3
# Si number density = 18.603270 Si / 1000 Ang^3
#
#
#
# Elastic Constant Matrix: (Units=GPa)
#
#
# Indices 1 2 3 4 5 6 
#
# 1 46.9756 51.7714 33.9764 0.0000 0.0000 0.0000
# 2 51.7714 123.2040 58.1607 0.0000 0.0000 0.0000
# 3 33.9764 58.1607 85.5970 0.0000 0.0000 0.0000
# 4 0.0000 0.0000 0.0000 21.3207 0.0000 0.0000
# 5 0.0000 0.0000 0.0000 0.0000 18.6917 0.0000
# 6 0.0000 0.0000 0.0000 0.0000 0.0000 29.8571
#
#
#
# Elastic Compliance Matrix: (Units=1/GPa)
#
#
# Indices 1 2 3 4 5 6 
#
# 1 0.042272 -0.014490 -0.006934 0.000000 0.000000 0.000000
# 2 -0.014490 0.016916 -0.005743 0.000000 0.000000 0.000000
# 3 -0.006934 -0.005743 0.018337 0.000000 0.000000 0.000000
# 4 0.000000 0.000000 0.000000 0.046903 0.000000 0.000000
# 5 0.000000 0.000000 0.000000 0.000000 0.053500 0.000000
# 6 0.000000 0.000000 0.000000 0.000000 0.000000 0.033493
#
#
# Mechanical properties :
#
#
# Convention : Reuss Voigt Hill
#
# Bulk Modulus (GPa) = 43.11726 60.39926 51.75826
# Shear Modulus (GPa) = 18.28269 21.43178 19.85723
#
# Velocity S-wave (km/s) = 3.13831 3.39786 3.27066
# Velocity P-wave (km/s) = 6.02989 6.92325 6.49196
#
# Compressibility (1/GPa) = 0.02319257
#
# Stress axis : x y z
#
# Youngs Moduli (GPa) = 23.65656 59.11485 54.53509
#
# Poissons Ratio (x) = 0.85656 0.37813
# Poissons Ratio (y) = 0.34278 0.31317
# Poissons Ratio (z) = 0.16403 0.33947
#
# Static dielectric constant tensor:
#      x y z
#    x 1.633770 0.000000 0.000000 
#    y 0.000000 1.647980 0.000000 
#    z 0.000000 0.000000 1.691310 
# 
# From -- ./inp_files/11060.got.cif
#   From: 2010.05.17/outbox.cif.g08.bks.cpg/sg36_6_cif.got.tgz:11060.got - 2010.06.03 17:41:39.
