data_PCOD9351183
_publ_section_title
;
Structure prediction by ZEFSAII (Michael W. Deem and Ramdas Pophale) SiO2 
 PCOD9351183
Probable space group: C M C 21
;
_chemical_formula_sum "Si O2"
_cell_formula_units_Z 64
_cell_length_a 13.087080
_cell_length_b 32.229792
_cell_length_c 7.535643
_cell_angle_alpha 90.000000
_cell_angle_beta 90.000000
_cell_angle_gamma 90.000000
_cell_volume 3178.487996
_symmetry_space_group_name_H-M "C M C 21"
_symmetry_group_IT_number 36
_symmetry_cell_setting 'orthorhombic'
loop_
_space_group_symop_operation_xyz
x,y,z
-x,-y,1/2+z
x,-y,1/2+z
-x,y,z
1/2+x,1/2+y,z
1/2-x,1/2-y,1/2+z
1/2+x,1/2-y,1/2+z
1/2-x,1/2+y,z
loop_
_atom_site_type_symbol
_atom_site_label
_atom_site_fract_x
_atom_site_fract_y
_atom_site_fract_z
Si Si1 0.254438 0.801861 0.011190
Si Si2 0.621480 0.275263 0.352891
Si Si3 0.190178 0.609579 0.578144
Si Si4 0.113066 0.933385 0.167153
Si Si5 0.384854 0.051950 0.878887
Si Si6 0.755200 0.582965 0.186103
Si Si7 0.620203 0.337348 0.684118
Si Si8 0.193016 0.994775 0.863979
O O1 0.184267 0.787138 0.175621
O O2 0.323345 0.841268 0.072029
O O3 0.326554 0.765682 0.936479
O O4 0.181512 0.817287 0.849659
O O5 0.500000 0.269838 0.316805
O O6 0.631570 0.310182 0.506132
O O7 0.303778 0.602397 0.660396
O O8 0.123304 0.579387 0.700047
O O9 0.194097 0.593087 0.376710
O O10 0.000000 0.917416 0.146257
O O11 0.125563 0.964497 0.331031
O O12 0.146279 0.964799 0.011061
O O13 0.500000 0.038931 0.911824
O O14 0.308070 0.012942 0.873903
O O15 0.340038 0.080602 0.035093
O O16 0.671309 0.617975 0.153208
O O17 0.702638 0.537972 0.201973
O O18 0.500000 0.340843 0.725558
#
# Coordination Sequence:
#
# PCOD9351183 Si02
#       8
#     8   8   8   8   8   8   8   8
#     4  11  21  42  66  91 134 163 204 267 308 380
#     4  11  23  39  66  99 127 168 212 254 319 384
#     4   9  23  39  62  89 122 153 205 257 305 370
#     4  10  19  34  57  84 117 154 189 243 310 359
#     4  11  23  41  61  84 121 168 212 258 309 357
#     4  10  21  41  61  88 124 156 205 263 304 366
#     4  10  22  41  68  97 126 166 209 256 324 383
#     4  10  20  37  53  86 121 150 206 248 293 365
#
# _framework density 20.135359999999999
#
# number of rings (size 3 to 8) (size 9 to 14) (size 15 to 20)
#    0.000    1.750    2.500    1.500    0.000    7.000 
#    0.000    3.750    0.000    0.000    0.000    0.000 
#    0.000    0.000    0.000    0.000    0.000    0.000 
#
# Total GULP energy -178608.150685 kJ/mol
# GULP energy per Si atom -5581.504709 kJ/mol
# Density = 2.008953 g / cm^3
# Si number density = 20.135360 Si / 1000 Ang^3
#
#
#
# Elastic Constant Matrix: (Units=GPa)
#
#
# Indices 1 2 3 4 5 6 
#
# 1 75.3313 7.3701 3.5005 0.0000 0.0000 0.0000
# 2 7.3701 68.0359 5.0016 0.0000 0.0000 0.0000
# 3 3.5005 5.0016 70.7326 0.0000 0.0000 0.0000
# 4 0.0000 0.0000 0.0000 23.1677 0.0000 0.0000
# 5 0.0000 0.0000 0.0000 0.0000 13.9858 0.0000
# 6 0.0000 0.0000 0.0000 0.0000 0.0000 12.8139
#
#
#
# Elastic Compliance Matrix: (Units=1/GPa)
#
#
# Indices 1 2 3 4 5 6 
#
# 1 0.013439 -0.001414 -0.000565 0.000000 0.000000 0.000000
# 2 -0.001414 0.014924 -0.000985 0.000000 0.000000 0.000000
# 3 -0.000565 -0.000985 0.014235 0.000000 0.000000 0.000000
# 4 0.000000 0.000000 0.000000 0.043163 0.000000 0.000000
# 5 0.000000 0.000000 0.000000 0.000000 0.071501 0.000000
# 6 0.000000 0.000000 0.000000 0.000000 0.000000 0.078040
#
#
# Mechanical properties :
#
#
# Convention : Reuss Voigt Hill
#
# Bulk Modulus (GPa) = 27.27090 27.31602 27.29346
# Shear Modulus (GPa) = 19.72731 23.20866 21.46799
#
# Velocity S-wave (km/s) = 3.13347 3.39873 3.26879
# Velocity P-wave (km/s) = 5.16379 5.38493 5.27551
#
# Compressibility (1/GPa) = 0.03666913
#
# Stress axis : x y z
#
# Youngs Moduli (GPa) = 74.40852 67.00729 70.24745
#
# Poissons Ratio (x) = 0.09477 0.03970
# Poissons Ratio (y) = 0.10524 0.06921
# Poissons Ratio (z) = 0.04205 0.06602
#
# Static dielectric constant tensor:
#      x y z
#    x 1.678790 0.000000 0.000000 
#    y 0.000000 1.699520 0.000000 
#    z 0.000000 0.000000 1.813960 
# 
# From -- ./inp_files/3608.got.cif
#   From: 2010.05.17/outbox.cif.g08.bks.cpg/sg36_2_cif.got.tgz:3608.got - 2010.06.03 17:41:39.
