data_PCOD9351367
_publ_section_title
;
Structure prediction by ZEFSAII (Michael W. Deem and Ramdas Pophale) SiO2 
 PCOD9351367
Probable space group: C M C 21
;
_chemical_formula_sum "Si O2"
_cell_formula_units_Z 64
_cell_length_a 8.722652
_cell_length_b 15.739394
_cell_length_c 24.247931
_cell_angle_alpha 90.000000
_cell_angle_beta 90.000000
_cell_angle_gamma 90.000000
_cell_volume 3328.980420
_symmetry_space_group_name_H-M "C M C 21"
_symmetry_group_IT_number 36
_symmetry_cell_setting 'orthorhombic'
loop_
_space_group_symop_operation_xyz
x,y,z
-x,-y,1/2+z
x,-y,1/2+z
-x,y,z
1/2+x,1/2+y,z
1/2-x,1/2-y,1/2+z
1/2+x,1/2-y,1/2+z
1/2-x,1/2+y,z
loop_
_atom_site_type_symbol
_atom_site_label
_atom_site_fract_x
_atom_site_fract_y
_atom_site_fract_z
Si Si1 0.813647 0.157942 0.366780
Si Si2 0.318816 0.600015 0.980228
Si Si3 0.318103 0.396438 0.989008
Si Si4 0.817745 0.341411 0.594090
Si Si5 0.315915 0.151036 0.861874
Si Si6 0.818415 0.338547 0.103373
Si Si7 0.316534 0.498129 0.662752
Si Si8 0.315056 0.499107 0.791493
O O1 0.767552 0.140022 0.429936
O O2 0.767476 0.252241 0.349071
O O3 0.761807 0.082461 0.326812
O O4 0.000000 0.155319 0.366706
O O5 0.500000 0.618729 0.981553
O O6 0.300708 0.498357 0.987284
O O7 0.249342 0.626871 0.921866
O O8 0.236703 0.645567 0.031091
O O9 0.500000 0.377969 0.996536
O O10 0.226642 0.358758 0.040108
O O11 0.744671 0.254745 0.616638
O O12 0.759158 0.422513 0.628075
O O13 0.000000 0.336183 0.596054
O O14 0.500000 0.147919 0.863756
O O15 0.254793 0.083330 0.818193
O O16 0.740800 0.412064 0.139481
O O17 0.000000 0.341431 0.110332
O O18 0.500000 0.492807 0.656005
O O19 0.277820 0.490272 0.727239
O O20 0.500000 0.504173 0.796441
#
# Coordination Sequence:
#
# PCOD9351367 Si02
#       8
#     8   8   8   8   8   8   8   8
#     4   9  19  38  61  87 119 160 198 242 302 363
#     4  11  21  37  64  93 126 165 206 252 311 377
#     4  10  19  36  64  90 124 164 204 251 309 374
#     4  12  25  42  65  93 128 164 207 261 317 379
#     4  11  22  36  61  94 127 161 206 257 307 365
#     4  12  25  41  64  93 128 165 208 258 313 380
#     4  11  24  43  66  91 122 165 215 266 318 373
#     4  10  22  43  65  85 118 164 210 255 311 373
#
# _framework density 19.225104999999999
#
# number of rings (size 3 to 8) (size 9 to 14) (size 15 to 20)
#    0.000    1.250    2.500    4.125    0.000    3.500 
#    0.000    3.125    0.000    0.000    0.000    0.000 
#    0.000    0.000    0.000    0.000    0.000    0.000 
#
# Total GULP energy -178979.118933 kJ/mol
# GULP energy per Si atom -5593.097467 kJ/mol
# Density = 1.918135 g / cm^3
# Si number density = 19.225105 Si / 1000 Ang^3
#
#
#
# Elastic Constant Matrix: (Units=GPa)
#
#
# Indices 1 2 3 4 5 6 
#
# 1 44.2014 8.3414 19.0250 0.0000 0.0000 0.0000
# 2 8.3414 70.7902 1.6414 0.0000 0.0000 0.0000
# 3 19.0250 1.6414 64.1939 0.0000 0.0000 0.0000
# 4 0.0000 0.0000 0.0000 -0.8198 0.0000 0.0000
# 5 0.0000 0.0000 0.0000 0.0000 9.2460 0.0000
# 6 0.0000 0.0000 0.0000 0.0000 0.0000 31.8273
#
#
#
# Elastic Compliance Matrix: (Units=1/GPa)
#
#
# Indices 1 2 3 4 5 6 
#
# 1 0.026532 -0.002946 -0.007788 0.000000 0.000000 0.000000
# 2 -0.002946 0.014462 0.000503 0.000000 0.000000 0.000000
# 3 -0.007788 0.000503 0.017873 0.000000 0.000000 0.000000
# 4 0.000000 0.000000 0.000000 -1.219778 0.000000 0.000000
# 5 0.000000 0.000000 0.000000 0.000000 0.108154 0.000000
# 6 0.000000 0.000000 0.000000 0.000000 0.000000 0.031420
#
#
# Mechanical properties :
#
#
# Convention : Reuss Voigt Hill
#
# Bulk Modulus (GPa) = 26.03779 26.35568 26.19673
# Shear Modulus (GPa) = -5.06034 18.06255 6.50110
#
# Velocity S-wave (km/s) = -1.62415 3.06850 1.84090
# Velocity P-wave (km/s) = 3.17110 5.12767 4.26315
#
# Compressibility (1/GPa) = 0.03840572
#
# Stress axis : x y z
#
# Youngs Moduli (GPa) = 37.69093 69.14826 55.95032
#
# Poissons Ratio (x) = 0.20369 0.43573
# Poissons Ratio (y) = 0.11103 -0.02816
# Poissons Ratio (z) = 0.29353 -0.03480
#
# Static dielectric constant tensor:
#      x y z
#    x 1.648050 0.000000 0.000000 
#    y 0.000000 1.662370 0.000000 
#    z 0.000000 0.000000 1.640630 
# 
# From -- ./inp_files/16611.got.cif
#   From: 2010.05.17/outbox.cif.g08.bks.cpg/sg36_9_cif.got.tgz:16611.got - 2010.06.03 17:41:39.
