data_PCOD9351307
_publ_section_title
;
Structure prediction by ZEFSAII (Michael W. Deem and Ramdas Pophale) SiO2 
 PCOD9351307
Probable space group: C M C 21
;
_chemical_formula_sum "Si O2"
_cell_formula_units_Z 64
_cell_length_a 8.827684
_cell_length_b 24.288840
_cell_length_c 15.791209
_cell_angle_alpha 90.000000
_cell_angle_beta 90.000000
_cell_angle_gamma 90.000000
_cell_volume 3385.859512
_symmetry_space_group_name_H-M "C M C 21"
_symmetry_group_IT_number 36
_symmetry_cell_setting 'orthorhombic'
loop_
_space_group_symop_operation_xyz
x,y,z
-x,-y,1/2+z
x,-y,1/2+z
-x,y,z
1/2+x,1/2+y,z
1/2-x,1/2-y,1/2+z
1/2+x,1/2-y,1/2+z
1/2-x,1/2+y,z
loop_
_atom_site_type_symbol
_atom_site_label
_atom_site_fract_x
_atom_site_fract_y
_atom_site_fract_z
Si Si1 0.180863 0.248622 0.474780
Si Si2 0.180172 0.362768 0.037705
Si Si3 0.819395 0.248286 0.789393
Si Si4 0.181389 0.633125 0.219118
Si Si5 0.817375 0.372139 0.529119
Si Si6 0.318526 0.571740 0.379668
Si Si7 0.317711 0.371719 0.216603
Si Si8 0.817617 0.943613 0.378620
O O1 0.259983 0.199402 0.524869
O O2 0.230208 0.244890 0.376901
O O3 0.224662 0.309129 0.507367
O O4 0.000000 0.242512 0.483014
O O5 0.239820 0.384127 0.127713
O O6 0.000000 0.363602 0.034445
O O7 0.246338 0.397983 0.960146
O O8 0.791523 0.301544 0.731553
O O9 0.780283 0.190672 0.745355
O O10 0.000000 0.246912 0.808528
O O11 0.229778 0.615296 0.125325
O O12 0.262675 0.601146 0.294344
O O13 0.000000 0.624950 0.226872
O O14 0.749131 0.412160 0.459210
O O15 0.000000 0.375181 0.525443
O O16 0.500000 0.575770 0.385478
O O17 0.274587 0.507551 0.377897
O O18 0.500000 0.374876 0.206410
O O19 0.271310 0.412283 0.292561
O O20 0.000000 0.940226 0.382877
#
# Coordination Sequence:
#
# PCOD9351307 Si02
#       8
#     8   8   8   8   8   8   8   8
#     4  11  21  36  61  92 125 159 195 242 301 360
#     4  12  25  40  61  90 122 161 206 249 298 359
#     4  10  19  35  62  90 123 158 192 239 302 362
#     4  10  21  38  60  89 122 158 195 240 299 358
#     4  10  22  39  62  92 125 158 195 241 299 359
#     4  11  24  42  62  87 118 157 205 255 303 354
#     4  10  21  40  64  90 123 159 195 246 306 360
#     4  10  23  42  64  88 118 158 203 250 302 356
#
# _framework density 18.902142999999999
#
# number of rings (size 3 to 8) (size 9 to 14) (size 15 to 20)
#    0.000    1.500    2.500    2.625    0.000    6.000 
#    0.000    5.000    0.000    0.000    0.000    0.000 
#    0.000    0.000    0.000    0.000    0.000    0.000 
#
# Total GULP energy -178884.612798 kJ/mol
# GULP energy per Si atom -5590.144150 kJ/mol
# Density = 1.885912 g / cm^3
# Si number density = 18.902143 Si / 1000 Ang^3
#
#
#
# Elastic Constant Matrix: (Units=GPa)
#
#
# Indices 1 2 3 4 5 6 
#
# 1 33.5965 30.2021 26.2493 0.0000 0.0000 0.0000
# 2 30.2021 112.0380 34.8593 0.0000 0.0000 0.0000
# 3 26.2493 34.8593 110.7314 0.0000 0.0000 0.0000
# 4 0.0000 0.0000 0.0000 -2.0062 0.0000 0.0000
# 5 0.0000 0.0000 0.0000 0.0000 33.5505 0.0000
# 6 0.0000 0.0000 0.0000 0.0000 0.0000 16.7791
#
#
#
# Elastic Compliance Matrix: (Units=1/GPa)
#
#
# Indices 1 2 3 4 5 6 
#
# 1 0.044225 -0.009600 -0.007462 0.000000 0.000000 0.000000
# 2 -0.009600 0.011979 -0.001495 0.000000 0.000000 0.000000
# 3 -0.007462 -0.001495 0.011270 0.000000 0.000000 0.000000
# 4 0.000000 0.000000 0.000000 -0.498464 0.000000 0.000000
# 5 0.000000 0.000000 0.000000 0.000000 0.029806 0.000000
# 6 0.000000 0.000000 0.000000 0.000000 0.000000 0.059598
#
#
# Mechanical properties :
#
#
# Convention : Reuss Voigt Hill
#
# Bulk Modulus (GPa) = 32.93782 48.77635 40.85708
# Shear Modulus (GPa) = -16.98645 20.66837 1.84096
#
# Velocity S-wave (km/s) = -3.00101 3.31031 0.98796
# Velocity P-wave (km/s) = 2.33564 6.36172 4.79201
#
# Compressibility (1/GPa) = 0.03036024
#
# Stress axis : x y z
#
# Youngs Moduli (GPa) = 22.61162 83.48160 88.72830
#
# Poissons Ratio (x) = 0.80144 0.66205
# Poissons Ratio (y) = 0.21708 0.13267
# Poissons Ratio (z) = 0.16872 0.12482
#
# Static dielectric constant tensor:
#      x y z
#    x 1.636740 0.000000 0.000000 
#    y 0.000000 1.641400 0.000000 
#    z 0.000000 0.000000 1.632430 
# 
# From -- ./inp_files/10977.got.cif
#   From: 2010.05.17/outbox.cif.g08.bks.cpg/sg36_6_cif.got.tgz:10977.got - 2010.06.03 17:41:39.
