data_PCOD9351666
_publ_section_title
;
Structure prediction by ZEFSAII (Michael W. Deem and Ramdas Pophale) SiO2 
 PCOD9351666
Probable space group: C M C 21
;
_chemical_formula_sum "Si O2"
_cell_formula_units_Z 56
_cell_length_a 20.434197
_cell_length_b 5.513299
_cell_length_c 19.723356
_cell_angle_alpha 90.000000
_cell_angle_beta 90.000000
_cell_angle_gamma 90.000000
_cell_volume 2222.030090
_symmetry_space_group_name_H-M "C M C 21"
_symmetry_group_IT_number 36
_symmetry_cell_setting 'orthorhombic'
loop_
_space_group_symop_operation_xyz
x,y,z
-x,-y,1/2+z
x,-y,1/2+z
-x,y,z
1/2+x,1/2+y,z
1/2-x,1/2-y,1/2+z
1/2+x,1/2-y,1/2+z
1/2-x,1/2+y,z
loop_
_atom_site_type_symbol
_atom_site_label
_atom_site_fract_x
_atom_site_fract_y
_atom_site_fract_z
Si Si1 0.000000 0.502755 0.646910
Si Si2 0.268575 0.641919 0.630891
Si Si3 0.500000 0.498160 0.727673
Si Si4 0.282882 0.973514 0.339689
Si Si5 0.104754 0.226998 0.571011
Si Si6 0.807920 0.571003 0.488511
Si Si7 0.926997 0.263792 0.334056
Si Si8 0.930467 0.900473 0.459345
O O1 0.000000 0.773166 0.674926
O O2 0.063196 0.442353 0.602236
O O3 0.000000 0.269256 0.698661
O O4 0.240256 0.402953 0.663829
O O5 0.345742 0.606586 0.623208
O O6 0.230321 0.659565 0.556631
O O7 0.562983 0.435764 0.774530
O O8 0.243080 0.735598 0.315259
O O9 0.360827 0.920264 0.328118
O O10 0.270107 0.987521 0.421736
O O11 0.151449 0.343454 0.515309
O O12 0.065374 0.026150 0.532274
O O13 0.864316 0.750334 0.462348
O O14 0.000000 0.389096 0.331814
O O15 0.924762 0.107726 0.402574
O O16 0.000000 0.767207 0.447708
#
# Coordination Sequence:
#
# PCOD9351666 Si02
#       8
#     4   8   4   8   8   8   8   8
#     4  12  28  45  73  94 126 178 246 296 340 396
#     4  10  20  35  55  85 138 182 205 242 321 429
#     4  10  28  53  71  90 126 188 244 290 346 414
#     4  12  24  39  69 110 146 184 223 274 348 431
#     4  11  23  36  61  99 138 171 219 282 344 413
#     4  11  23  35  59  98 157 184 211 257 354 452
#     4   9  23  48  71  99 141 188 234 292 359 418
#     4  11  21  38  64 104 142 177 222 287 353 427
#
# _framework density 25.202181
#
# number of rings (size 3 to 8) (size 9 to 14) (size 15 to 20)
#    0.429    0.857    3.571    2.571    3.000    2.857 
#    0.000    0.000    0.000   10.286    0.000    0.000 
#    0.000    0.000    0.000    0.000    0.000    0.000 
#
# Total GULP energy -156366.573000 kJ/mol
# GULP energy per Si atom -5584.520464 kJ/mol
# Density = 2.514482 g / cm^3
# Si number density = 25.202181 Si / 1000 Ang^3
#
#
#
# Elastic Constant Matrix: (Units=GPa)
#
#
# Indices 1 2 3 4 5 6 
#
# 1 137.7264 60.9197 0.0066 0.0000 0.0000 0.0000
# 2 60.9197 126.0806 14.9265 0.0000 0.0000 0.0000
# 3 0.0066 14.9265 46.9515 0.0000 0.0000 0.0000
# 4 0.0000 0.0000 0.0000 22.1489 0.0000 0.0000
# 5 0.0000 0.0000 0.0000 0.0000 -128.8595 0.0000
# 6 0.0000 0.0000 0.0000 0.0000 0.0000 128.3293
#
#
#
# Elastic Compliance Matrix: (Units=1/GPa)
#
#
# Indices 1 2 3 4 5 6 
#
# 1 0.009333 -0.004686 0.001488 0.000000 0.000000 0.000000
# 2 -0.004686 0.010594 -0.003367 0.000000 0.000000 0.000000
# 3 0.001488 -0.003367 0.022369 0.000000 0.000000 0.000000
# 4 0.000000 0.000000 0.000000 0.045149 0.000000 0.000000
# 5 0.000000 0.000000 0.000000 0.000000 -0.007760 0.000000
# 6 0.000000 0.000000 0.000000 0.000000 0.000000 0.007792
#
#
# Mechanical properties :
#
#
# Convention : Reuss Voigt Hill
#
# Bulk Modulus (GPa) = 34.28564 51.38491 42.83528
# Shear Modulus (GPa) = 45.31873 19.98413 32.65143
#
# Velocity S-wave (km/s) = 4.24513 2.81900 3.60332
# Velocity P-wave (km/s) = 6.13693 5.57037 5.86050
#
# Compressibility (1/GPa) = 0.02916673
#
# Stress axis : x y z
#
# Youngs Moduli (GPa) = 107.14211 94.39089 44.70487
#
# Poissons Ratio (x) = 0.44231 -0.06654
# Poissons Ratio (y) = 0.50206 0.15054
# Poissons Ratio (z) = -0.15947 0.31785
#
# Static dielectric constant tensor:
#      x y z
#    x 2.287090 0.000000 0.000000 
#    y 0.000000 2.000400 0.000000 
#    z 0.000000 0.000000 2.035580 
# 
# From -- ./inp_files/17046.got.cif
#   From: 2010.05.17/outbox.cif.g08.bks.cpg/sg36_9_cif.got.tgz:17046.got - 2010.06.03 17:41:39.
