data_PCOD9351238
_publ_section_title
;
Structure prediction by ZEFSAII (Michael W. Deem and Ramdas Pophale) SiO2 
 PCOD9351238
Probable space group: C M C 21
;
_chemical_formula_sum "Si O2"
_cell_formula_units_Z 64
_cell_length_a 8.321947
_cell_length_b 25.687515
_cell_length_c 12.947552
_cell_angle_alpha 90.000000
_cell_angle_beta 90.000000
_cell_angle_gamma 90.000000
_cell_volume 2767.799983
_symmetry_space_group_name_H-M "C M C 21"
_symmetry_group_IT_number 36
_symmetry_cell_setting 'orthorhombic'
loop_
_space_group_symop_operation_xyz
x,y,z
-x,-y,1/2+z
x,-y,1/2+z
-x,y,z
1/2+x,1/2+y,z
1/2-x,1/2-y,1/2+z
1/2+x,1/2-y,1/2+z
1/2-x,1/2+y,z
loop_
_atom_site_type_symbol
_atom_site_label
_atom_site_fract_x
_atom_site_fract_y
_atom_site_fract_z
Si Si1 0.804374 0.787024 0.116480
Si Si2 0.810483 0.187867 0.384566
Si Si3 0.186571 0.578383 0.357730
Si Si4 0.805332 0.034931 0.800974
Si Si5 0.312642 0.701655 0.836663
Si Si6 0.186743 0.324955 0.558815
Si Si7 0.686627 0.429922 0.521120
Si Si8 0.189031 0.049639 0.577939
O O1 0.750879 0.812996 0.222952
O O2 0.000000 0.785647 0.123573
O O3 0.769629 0.813901 0.007384
O O4 0.739963 0.727540 0.107442
O O5 0.773920 0.132589 0.333839
O O6 0.707694 0.235642 0.341142
O O7 0.000000 0.200391 0.376087
O O8 0.255905 0.525625 0.308461
O O9 0.213211 0.570295 0.481079
O O10 0.000000 0.582935 0.333192
O O11 0.000000 0.035936 0.802608
O O12 0.755465 0.061114 0.693750
O O13 0.744957 0.062758 0.905007
O O14 0.500000 0.687134 0.847178
O O15 0.220459 0.680918 0.936150
O O16 0.241135 0.382805 0.585174
O O17 0.000000 0.321853 0.579554
O O18 0.500000 0.416928 0.509541
O O19 0.696754 0.486803 0.570246
O O20 0.000000 0.064933 0.564686
#
# Coordination Sequence:
#
# PCOD9351238 Si02
#       8
#     8   8   8   8   8   8   8   8
#     4   8  18  35  54  74 100 135 171 209 256 308
#     4  10  20  37  56  76 105 141 177 212 258 315
#     4  11  22  35  53  80 111 141 175 218 267 315
#     4   9  19  37  58  78 104 140 180 221 265 314
#     4  10  19  35  56  78 102 130 171 220 264 305
#     4  10  20  35  52  74 105 139 170 203 253 313
#     4   9  18  33  53  78 104 132 170 214 259 305
#     4   9  19  37  58  78 103 138 180 223 266 313
#
# _framework density 23.123058
#
# number of rings (size 3 to 8) (size 9 to 14) (size 15 to 20)
#    0.000    2.500    0.000    3.750    0.000    4.500 
#    0.000   15.000    0.000    0.000    0.000    0.000 
#    0.000    0.000    0.000    0.000    0.000    0.000 
#
# Total GULP energy -178748.499088 kJ/mol
# GULP energy per Si atom -5585.890597 kJ/mol
# Density = 2.307043 g / cm^3
# Si number density = 23.123058 Si / 1000 Ang^3
#
#
#
# Elastic Constant Matrix: (Units=GPa)
#
#
# Indices 1 2 3 4 5 6 
#
# 1 14.7794 2.1852 -6.4368 0.0000 0.0000 0.0000
# 2 2.1852 80.3728 -30.2388 0.0000 0.0000 0.0000
# 3 -6.4368 -30.2388 80.5994 0.0000 0.0000 0.0000
# 4 0.0000 0.0000 0.0000 -9.8376 0.0000 0.0000
# 5 0.0000 0.0000 0.0000 0.0000 13.8314 0.0000
# 6 0.0000 0.0000 0.0000 0.0000 0.0000 -41.3099
#
#
#
# Elastic Compliance Matrix: (Units=1/GPa)
#
#
# Indices 1 2 3 4 5 6 
#
# 1 0.070104 0.000233 0.005686 0.000000 0.000000 0.000000
# 2 0.000233 0.014488 0.005454 0.000000 0.000000 0.000000
# 3 0.005686 0.005454 0.014907 0.000000 0.000000 0.000000
# 4 0.000000 0.000000 0.000000 -0.101651 0.000000 0.000000
# 5 0.000000 0.000000 0.000000 0.000000 0.072299 0.000000
# 6 0.000000 0.000000 0.000000 0.000000 0.000000 -0.024207
#
#
# Mechanical properties :
#
#
# Convention : Reuss Voigt Hill
#
# Bulk Modulus (GPa) = 8.18025 11.86341 10.02183
# Shear Modulus (GPa) = 78.19630 6.55291 42.37461
#
# Velocity S-wave (km/s) = 5.82159 1.68525 4.28550
# Velocity P-wave (km/s) = 6.98092 2.98805 5.36944
#
# Compressibility (1/GPa) = 0.12224567
#
# Stress axis : x y z
#
# Youngs Moduli (GPa) = 14.26458 69.02429 67.08097
#
# Poissons Ratio (x) = -0.01610 -0.38143
# Poissons Ratio (y) = -0.00333 -0.36586
# Poissons Ratio (z) = -0.08111 -0.37646
#
# Static dielectric constant tensor:
#      x y z
#    x 1.800310 0.000000 0.000000 
#    y 0.000000 1.894800 0.000000 
#    z 0.000000 0.000000 1.922610 
# 
# From -- ./inp_files/11187.got.cif
#   From: 2010.05.17/outbox.cif.g08.bks.cpg/sg36_6_cif.got.tgz:11187.got - 2010.06.03 17:41:39.
