data_PCOD9351233
_publ_section_title
;
Structure prediction by ZEFSAII (Michael W. Deem and Ramdas Pophale) SiO2 
 PCOD9351233
Probable space group: C M C 21
;
_chemical_formula_sum "Si O2"
_cell_formula_units_Z 64
_cell_length_a 17.891668
_cell_length_b 19.171022
_cell_length_c 8.060732
_cell_angle_alpha 90.000000
_cell_angle_beta 90.000000
_cell_angle_gamma 90.000000
_cell_volume 2764.843658
_symmetry_space_group_name_H-M "C M C 21"
_symmetry_group_IT_number 36
_symmetry_cell_setting 'orthorhombic'
loop_
_space_group_symop_operation_xyz
x,y,z
-x,-y,1/2+z
x,-y,1/2+z
-x,y,z
1/2+x,1/2+y,z
1/2-x,1/2-y,1/2+z
1/2+x,1/2-y,1/2+z
1/2-x,1/2+y,z
loop_
_atom_site_type_symbol
_atom_site_label
_atom_site_fract_x
_atom_site_fract_y
_atom_site_fract_z
Si Si1 0.915722 0.479352 0.139810
Si Si2 0.143657 0.601103 0.337921
Si Si3 0.087069 0.171334 0.841915
Si Si4 0.687517 0.399603 0.874859
Si Si5 0.685649 0.448856 0.257963
Si Si6 0.666777 0.260812 0.025845
Si Si7 0.160070 0.625122 0.857334
Si Si8 0.843901 0.273730 0.043292
O O1 0.895769 0.556941 0.196321
O O2 0.902551 0.429475 0.299264
O O3 0.000000 0.472921 0.080243
O O4 0.861484 0.450199 0.998831
O O5 0.230101 0.614934 0.302939
O O6 0.115534 0.673122 0.414059
O O7 0.116421 0.093108 0.832557
O O8 0.136522 0.210801 0.700953
O O9 0.110127 0.203913 0.017987
O O10 0.000000 0.178073 0.807585
O O11 0.667366 0.469493 0.775630
O O12 0.646415 0.324755 0.897976
O O13 0.694317 0.426839 0.065685
O O14 0.761781 0.418947 0.348166
O O15 0.643769 0.179983 0.003929
O O16 0.756795 0.258361 0.009804
O O17 0.160632 0.683134 0.711095
#
# Coordination Sequence:
#
# PCOD9351233 Si02
#       8
#     8   8   8   8   8   8   8   8
#     4  11  22  34  50  78 118 153 186 237 294 350
#     4  10  19  35  53  78 111 152 196 231 288 353
#     4  11  24  41  63  92 126 160 201 258 313 356
#     4  10  19  37  62  88 113 151 203 252 296 355
#     4  11  20  40  61  90 117 155 201 254 298 359
#     4  10  20  39  62  91 119 159 202 250 302 364
#     4  11  20  37  61  86 116 159 207 244 294 359
#     4  10  19  37  62  87 119 159 202 244 302 366
#
# _framework density 23.147781999999999
#
# number of rings (size 3 to 8) (size 9 to 14) (size 15 to 20)
#    0.000    1.500    7.500    0.375    0.000    5.000 
#    4.500    2.500    0.000    0.000    0.000    0.000 
#    0.000    0.000    0.000    0.000    0.000    0.000 
#
# Total GULP energy -178477.108658 kJ/mol
# GULP energy per Si atom -5577.409646 kJ/mol
# Density = 2.309510 g / cm^3
# Si number density = 23.147782 Si / 1000 Ang^3
#
#
#
# Elastic Constant Matrix: (Units=GPa)
#
#
# Indices 1 2 3 4 5 6 
#
# 1 72.6562 14.6031 0.9312 0.0000 0.0000 0.0000
# 2 14.6031 121.0301 23.0850 0.0000 0.0000 0.0000
# 3 0.9312 23.0850 41.4076 0.0000 0.0000 0.0000
# 4 0.0000 0.0000 0.0000 43.9687 0.0000 0.0000
# 5 0.0000 0.0000 0.0000 0.0000 14.7117 0.0000
# 6 0.0000 0.0000 0.0000 0.0000 0.0000 16.7522
#
#
#
# Elastic Compliance Matrix: (Units=1/GPa)
#
#
# Indices 1 2 3 4 5 6 
#
# 1 0.014124 -0.001839 0.000708 0.000000 0.000000 0.000000
# 2 -0.001839 0.009485 -0.005247 0.000000 0.000000 0.000000
# 3 0.000708 -0.005247 0.027059 0.000000 0.000000 0.000000
# 4 0.000000 0.000000 0.000000 0.022743 0.000000 0.000000
# 5 0.000000 0.000000 0.000000 0.000000 0.067973 0.000000
# 6 0.000000 0.000000 0.000000 0.000000 0.000000 0.059694
#
#
# Mechanical properties :
#
#
# Convention : Reuss Voigt Hill
#
# Bulk Modulus (GPa) = 26.37671 34.70360 30.54016
# Shear Modulus (GPa) = 22.07779 28.18483 25.13131
#
# Velocity S-wave (km/s) = 3.09168 3.49320 3.29856
# Velocity P-wave (km/s) = 4.91572 5.59417 5.26588
#
# Compressibility (1/GPa) = 0.03791223
#
# Stress axis : x y z
#
# Youngs Moduli (GPa) = 70.80129 105.42918 36.95597
#
# Poissons Ratio (x) = 0.19390 -0.02615
# Poissons Ratio (y) = 0.13021 0.19389
# Poissons Ratio (z) = -0.05011 0.55315
#
# Static dielectric constant tensor:
#      x y z
#    x 1.786430 0.000000 0.000000 
#    y 0.000000 1.957000 0.000000 
#    z 0.000000 0.000000 2.038340 
# 
# From -- ./inp_files/4917.got.cif
#   From: 2010.05.17/outbox.cif.g08.bks.cpg/sg36_3_cif.got.tgz:4917.got - 2010.06.03 17:41:39.
