data_PCOD9351998
_publ_section_title
;
Structure prediction by ZEFSAII (Michael W. Deem and Ramdas Pophale) SiO2 
 PCOD9351998
Probable space group: C M C 21
;
_chemical_formula_sum "Si O2"
_cell_formula_units_Z 48
_cell_length_a 12.705871
_cell_length_b 13.331050
_cell_length_c 13.081288
_cell_angle_alpha 90.000000
_cell_angle_beta 90.000000
_cell_angle_gamma 90.000000
_cell_volume 2215.742594
_symmetry_space_group_name_H-M "C M C 21"
_symmetry_group_IT_number 36
_symmetry_cell_setting 'orthorhombic'
loop_
_space_group_symop_operation_xyz
x,y,z
-x,-y,1/2+z
x,-y,1/2+z
-x,y,z
1/2+x,1/2+y,z
1/2-x,1/2-y,1/2+z
1/2+x,1/2-y,1/2+z
1/2-x,1/2+y,z
loop_
_atom_site_type_symbol
_atom_site_label
_atom_site_fract_x
_atom_site_fract_y
_atom_site_fract_z
Si Si1 0.753169 0.282113 0.224160
Si Si2 0.881625 0.003176 0.042841
Si Si3 0.618696 0.834659 0.557731
Si Si4 0.249327 0.389026 0.872295
Si Si5 0.313068 0.014528 0.688301
Si Si6 0.814215 0.809941 0.430273
O O1 0.682272 0.239335 0.133539
O O2 0.798592 0.187298 0.287349
O O3 0.833948 0.367370 0.191663
O O4 0.675916 0.331474 0.309956
O O5 0.804021 0.992906 0.138533
O O6 0.000000 0.971203 0.063403
O O7 0.878961 0.118590 0.003473
O O8 0.828933 0.940740 0.949745
O O9 0.500000 0.803169 0.538787
O O10 0.621265 0.942466 0.614059
O O11 0.693089 0.835977 0.459456
O O12 0.187242 0.467161 0.801544
O O13 0.176268 0.310581 0.935377
#
# Coordination Sequence:
#
# PCOD9351998 Si02
#       6
#     8   8   8   8   8   8
#     4   9  19  36  61  82 115 157 188 240 300 343
#     4  11  22  36  60  91 118 153 198 244 296 355
#     4  10  21  38  63  88 113 155 206 239 287 362
#     4   9  18  37  56  82 112 157 185 238 289 347
#     4  10  20  38  57  85 123 154 190 243 300 344
#     4   9  20  37  59  84 123 152 191 244 304 341
#
# _framework density 21.663166
#
# number of rings (size 3 to 8) (size 9 to 14) (size 15 to 20)
#    1.000    1.333    1.667    1.000    0.000    4.000 
#    0.000    1.667    0.000   20.000    0.000    0.000 
#    0.000    0.000    0.000    0.000    0.000    0.000 
#
# Total GULP energy -133640.402016 kJ/mol
# GULP energy per Si atom -5568.350084 kJ/mol
# Density = 2.161386 g / cm^3
# Si number density = 21.663166 Si / 1000 Ang^3
#
#
#
# Elastic Constant Matrix: (Units=GPa)
#
#
# Indices 1 2 3 4 5 6 
#
# 1 51.6282 8.7573 12.7312 0.0000 0.0000 0.0000
# 2 8.7573 106.9331 11.0814 0.0000 0.0000 0.0000
# 3 12.7312 11.0814 61.7185 0.0000 0.0000 0.0000
# 4 0.0000 0.0000 0.0000 36.4809 0.0000 0.0000
# 5 0.0000 0.0000 0.0000 0.0000 -3.0127 0.0000
# 6 0.0000 0.0000 0.0000 0.0000 0.0000 1.8778
#
#
#
# Elastic Compliance Matrix: (Units=1/GPa)
#
#
# Indices 1 2 3 4 5 6 
#
# 1 0.020575 -0.001269 -0.004016 0.000000 0.000000 0.000000
# 2 -0.001269 0.009607 -0.001463 0.000000 0.000000 0.000000
# 3 -0.004016 -0.001463 0.017294 0.000000 0.000000 0.000000
# 4 0.000000 0.000000 0.000000 0.027412 0.000000 0.000000
# 5 0.000000 0.000000 0.000000 0.000000 -0.331929 0.000000
# 6 0.000000 0.000000 0.000000 0.000000 0.000000 0.532547
#
#
# Mechanical properties :
#
#
# Convention : Reuss Voigt Hill
#
# Bulk Modulus (GPa) = 29.42980 31.71328 30.57154
# Shear Modulus (GPa) = 16.64843 19.58319 18.11581
#
# Velocity S-wave (km/s) = 2.77521 3.00990 2.89494
# Velocity P-wave (km/s) = 4.88710 5.17207 5.03161
#
# Compressibility (1/GPa) = 0.03397917
#
# Stress axis : x y z
#
# Youngs Moduli (GPa) = 48.60294 104.08888 57.82416
#
# Poissons Ratio (x) = 0.13206 0.23224
# Poissons Ratio (y) = 0.06167 0.08461
# Poissons Ratio (z) = 0.19521 0.15230
#
# Static dielectric constant tensor:
#      x y z
#    x 1.718660 0.000000 0.000000 
#    y 0.000000 1.908020 0.000000 
#    z 0.000000 0.000000 1.797510 
# 
# From -- ./inp_files/11527.got.cif
#   From: 2010.05.17/outbox.cif.g08.bks.cpg/sg36_6_cif.got.tgz:11527.got - 2010.06.03 17:41:39.
