data_PCOD9351514
_publ_section_title
;
Structure prediction by ZEFSAII (Michael W. Deem and Ramdas Pophale) SiO2 
 PCOD9351514
Probable space group: C M C 21
;
_chemical_formula_sum "Si O2"
_cell_formula_units_Z 56
_cell_length_a 10.080652
_cell_length_b 14.231508
_cell_length_c 18.616994
_cell_angle_alpha 90.000000
_cell_angle_beta 90.000000
_cell_angle_gamma 90.000000
_cell_volume 2670.847568
_symmetry_space_group_name_H-M "C M C 21"
_symmetry_group_IT_number 36
_symmetry_cell_setting 'orthorhombic'
loop_
_space_group_symop_operation_xyz
x,y,z
-x,-y,1/2+z
x,-y,1/2+z
-x,y,z
1/2+x,1/2+y,z
1/2-x,1/2-y,1/2+z
1/2+x,1/2-y,1/2+z
1/2-x,1/2+y,z
loop_
_atom_site_type_symbol
_atom_site_label
_atom_site_fract_x
_atom_site_fract_y
_atom_site_fract_z
Si Si1 0.644248 0.366409 0.939230
Si Si2 0.846448 0.660267 0.317905
Si Si3 0.254077 0.508507 0.563386
Si Si4 0.349426 0.189099 0.632333
Si Si5 0.851284 0.147074 0.757101
Si Si6 0.850443 0.942482 0.719781
Si Si7 0.649732 0.191140 0.040002
O O1 0.500000 0.377318 0.903644
O O2 0.765861 0.377959 0.885543
O O3 0.654684 0.439405 0.005115
O O4 0.651079 0.261210 0.972206
O O5 0.843450 0.774282 0.318259
O O6 0.764943 0.625099 0.248192
O O7 0.000000 0.630975 0.315434
O O8 0.155929 0.591908 0.587620
O O9 0.324845 0.476227 0.637722
O O10 0.185157 0.417464 0.529482
O O11 0.500000 0.217949 0.642583
O O12 0.269514 0.168113 0.704423
O O13 0.261981 0.265606 0.591089
O O14 0.000000 0.161131 0.723797
O O15 0.843799 0.036126 0.769790
O O16 0.000000 0.904678 0.725004
O O17 0.500000 0.197511 0.070644
#
# Coordination Sequence:
#
# PCOD9351514 Si02
#       7
#     8   8   8   8   8   8   8
#     4  10  23  42  61  85 119 159 202 249 300 361
#     4  11  24  41  60  85 119 160 203 250 304 360
#     4  10  21  38  63  93 123 155 197 251 306 362
#     4  10  20  33  55  88 120 149 188 239 291 347
#     4   9  20  38  57  79 114 155 193 237 291 349
#     4  10  21  39  64  92 120 156 202 251 303 361
#     4  10  21  37  58  82 113 154 193 233 291 354
#
# _framework density 20.967127999999999
#
# number of rings (size 3 to 8) (size 9 to 14) (size 15 to 20)
#    0.000    2.000    0.000    2.571    0.000   14.857 
#    0.000    2.857    0.000    0.000    0.000    0.000 
#    0.000    0.000    0.000    0.000    0.000    0.000 
#
# Total GULP energy -156181.815680 kJ/mol
# GULP energy per Si atom -5577.921989 kJ/mol
# Density = 2.091941 g / cm^3
# Si number density = 20.967128 Si / 1000 Ang^3
#
#
#
# Elastic Constant Matrix: (Units=GPa)
#
#
# Indices 1 2 3 4 5 6 
#
# 1 187.8772 43.8961 38.5861 0.0000 0.0000 0.0000
# 2 43.8961 124.5947 26.3672 0.0000 0.0000 0.0000
# 3 38.5861 26.3672 54.8857 0.0000 0.0000 0.0000
# 4 0.0000 0.0000 0.0000 20.5757 0.0000 0.0000
# 5 0.0000 0.0000 0.0000 0.0000 19.0858 0.0000
# 6 0.0000 0.0000 0.0000 0.0000 0.0000 3.2356
#
#
#
# Elastic Compliance Matrix: (Units=1/GPa)
#
#
# Indices 1 2 3 4 5 6 
#
# 1 0.006451 -0.001462 -0.003833 0.000000 0.000000 0.000000
# 2 -0.001462 0.009266 -0.003424 0.000000 0.000000 0.000000
# 3 -0.003833 -0.003424 0.022559 0.000000 0.000000 0.000000
# 4 0.000000 0.000000 0.000000 0.048601 0.000000 0.000000
# 5 0.000000 0.000000 0.000000 0.000000 0.052395 0.000000
# 6 0.000000 0.000000 0.000000 0.000000 0.000000 0.309063
#
#
# Mechanical properties :
#
#
# Convention : Reuss Voigt Hill
#
# Bulk Modulus (GPa) = 47.98675 65.00626 56.49650
# Shear Modulus (GPa) = 10.57713 25.81331 18.19522
#
# Velocity S-wave (km/s) = 2.24846 3.51256 2.94904
# Velocity P-wave (km/s) = 5.44767 6.89362 6.21285
#
# Compressibility (1/GPa) = 0.02083909
#
# Stress axis : x y z
#
# Youngs Moduli (GPa) = 155.00459 107.92723 44.32761
#
# Poissons Ratio (x) = 0.15776 0.16992
# Poissons Ratio (y) = 0.22657 0.15176
# Poissons Ratio (z) = 0.59418 0.36950
#
# Static dielectric constant tensor:
#      x y z
#    x 1.726840 0.000000 0.000000 
#    y 0.000000 1.782430 0.000000 
#    z 0.000000 0.000000 1.764330 
# 
# From -- ./inp_files/15482.got.cif
#   From: 2010.05.17/outbox.cif.g08.bks.cpg/sg36_8_cif.got.tgz:15482.got - 2010.06.03 17:41:39.
