data_PCOD9351878
_publ_section_title
;
Structure prediction by ZEFSAII (Michael W. Deem and Ramdas Pophale) SiO2 
 PCOD9351878
Probable space group: C M C 21
;
_chemical_formula_sum "Si O2"
_cell_formula_units_Z 56
_cell_length_a 11.546257
_cell_length_b 23.134966
_cell_length_c 10.300725
_cell_angle_alpha 90.000000
_cell_angle_beta 90.000000
_cell_angle_gamma 90.000000
_cell_volume 2751.552974
_symmetry_space_group_name_H-M "C M C 21"
_symmetry_group_IT_number 36
_symmetry_cell_setting 'orthorhombic'
loop_
_space_group_symop_operation_xyz
x,y,z
-x,-y,1/2+z
x,-y,1/2+z
-x,y,z
1/2+x,1/2+y,z
1/2-x,1/2-y,1/2+z
1/2+x,1/2-y,1/2+z
1/2-x,1/2+y,z
loop_
_atom_site_type_symbol
_atom_site_label
_atom_site_fract_x
_atom_site_fract_y
_atom_site_fract_z
Si Si1 0.266441 0.878776 0.554750
Si Si2 0.370899 0.282173 0.679975
Si Si3 0.632050 0.638693 0.428930
Si Si4 0.000000 0.429623 0.673334
Si Si5 0.869661 0.346000 0.088939
Si Si6 0.696668 0.066545 0.797967
Si Si7 0.000000 0.493742 0.933369
Si Si8 0.632813 0.533997 0.228904
O O1 0.223827 0.816252 0.597821
O O2 0.387678 0.894997 0.623855
O O3 0.264805 0.885335 0.400875
O O4 0.179853 0.927303 0.611270
O O5 0.500000 0.297252 0.629421
O O6 0.366090 0.309888 0.822598
O O7 0.358661 0.213852 0.668154
O O8 0.500000 0.639554 0.487976
O O9 0.750819 0.646783 0.508135
O O10 0.642421 0.577600 0.352033
O O11 0.000000 0.440087 0.829272
O O12 0.000000 0.490407 0.588645
O O13 0.866906 0.400766 0.183228
O O14 0.000000 0.343890 0.027459
O O15 0.612792 0.026875 0.883184
O O16 0.794304 0.023868 0.745819
O O17 0.500000 0.519535 0.209245
#
# Coordination Sequence:
#
# PCOD9351878 Si02
#       8
#     8   8   8   4   8   8   4   8
#     4  10  21  39  62  89 116 162 209 253 305 377
#     4   9  21  44  67  86 122 166 209 257 315 367
#     4   9  21  44  66  92 124 166 208 259 315 380
#     4  10  20  36  62  90 126 158 206 255 315 374
#     4  11  24  42  65  95 127 165 209 263 318 369
#     4  11  23  38  60  89 123 159 202 251 317 376
#     4  10  20  38  56  90 124 160 198 257 311 386
#     4  10  22  40  63  89 123 163 205 251 316 374
#
# _framework density 20.352143000000002
#
# number of rings (size 3 to 8) (size 9 to 14) (size 15 to 20)
#    0.000    2.000    2.143    1.286    4.000    1.714 
#    7.714    0.000    0.000    0.000    0.000    0.000 
#    0.000    0.000    0.000    0.000    0.000    0.000 
#
# Total GULP energy -156068.995553 kJ/mol
# GULP energy per Si atom -5573.892698 kJ/mol
# Density = 2.030582 g / cm^3
# Si number density = 20.352143 Si / 1000 Ang^3
#
#
#
# Elastic Constant Matrix: (Units=GPa)
#
#
# Indices 1 2 3 4 5 6 
#
# 1 131.9461 55.5144 22.1310 0.0000 0.0000 0.0000
# 2 55.5144 93.4554 19.7967 0.0000 0.0000 0.0000
# 3 22.1310 19.7967 19.6848 0.0000 0.0000 0.0000
# 4 0.0000 0.0000 0.0000 2.7944 0.0000 0.0000
# 5 0.0000 0.0000 0.0000 0.0000 21.2080 0.0000
# 6 0.0000 0.0000 0.0000 0.0000 0.0000 36.5677
#
#
#
# Elastic Compliance Matrix: (Units=1/GPa)
#
#
# Indices 1 2 3 4 5 6 
#
# 1 0.010867 -0.004914 -0.007275 0.000000 0.000000 0.000000
# 2 -0.004914 0.015819 -0.010384 0.000000 0.000000 0.000000
# 3 -0.007275 -0.010384 0.069423 0.000000 0.000000 0.000000
# 4 0.000000 0.000000 0.000000 0.357854 0.000000 0.000000
# 5 0.000000 0.000000 0.000000 0.000000 0.047152 0.000000
# 6 0.000000 0.000000 0.000000 0.000000 0.000000 0.027347
#
#
# Mechanical properties :
#
#
# Convention : Reuss Voigt Hill
#
# Bulk Modulus (GPa) = 19.62250 48.88559 34.25404
# Shear Modulus (GPa) = 8.46604 21.95699 15.21151
#
# Velocity S-wave (km/s) = 2.04177 3.28815 2.73686
# Velocity P-wave (km/s) = 3.90139 6.20387 5.18212
#
# Compressibility (1/GPa) = 0.05096191
#
# Stress axis : x y z
#
# Youngs Moduli (GPa) = 92.02590 63.21537 14.40445
#
# Poissons Ratio (x) = 0.31063 0.10479
# Poissons Ratio (y) = 0.45220 0.14958
# Poissons Ratio (z) = 0.66949 0.65645
#
# Static dielectric constant tensor:
#      x y z
#    x 1.659260 0.000000 0.000000 
#    y 0.000000 1.723240 0.000000 
#    z 0.000000 0.000000 1.769660 
# 
# From -- ./inp_files/7874.got.cif
#   From: 2010.05.17/outbox.cif.g08.bks.cpg/sg36_4_cif.got.tgz:7874.got - 2010.06.03 17:41:39.
