data_PCOD9351740
_publ_section_title
;
Structure prediction by ZEFSAII (Michael W. Deem and Ramdas Pophale) SiO2 
 PCOD9351740
Probable space group: C M C 21
;
_chemical_formula_sum "Si O2"
_cell_formula_units_Z 64
_cell_length_a 8.653347
_cell_length_b 32.427403
_cell_length_c 11.301641
_cell_angle_alpha 90.000000
_cell_angle_beta 90.000000
_cell_angle_gamma 90.000000
_cell_volume 3171.303420
_symmetry_space_group_name_H-M "C M C 21"
_symmetry_group_IT_number 36
_symmetry_cell_setting 'orthorhombic'
loop_
_space_group_symop_operation_xyz
x,y,z
-x,-y,1/2+z
x,-y,1/2+z
-x,y,z
1/2+x,1/2+y,z
1/2-x,1/2-y,1/2+z
1/2+x,1/2-y,1/2+z
1/2-x,1/2+y,z
loop_
_atom_site_type_symbol
_atom_site_label
_atom_site_fract_x
_atom_site_fract_y
_atom_site_fract_z
Si Si1 0.177943 0.824902 0.466540
Si Si2 0.685761 0.980950 0.985448
Si Si3 0.678621 0.324332 0.836539
Si Si4 0.688692 0.970472 0.719791
Si Si5 0.182803 0.239676 0.526739
Si Si6 0.818979 0.379229 0.644053
Si Si7 0.675993 0.820632 0.218107
Si Si8 0.677463 0.115384 0.516285
O O1 0.275185 0.787169 0.520279
O O2 0.231108 0.867728 0.524447
O O3 0.211930 0.824008 0.328065
O O4 0.000000 0.817471 0.492187
O O5 0.500000 0.987854 0.981771
O O6 0.741487 0.987198 0.849070
O O7 0.710605 0.932764 0.014324
O O8 0.742674 0.006886 0.099197
O O9 0.500000 0.322013 0.800088
O O10 0.781170 0.341474 0.731287
O O11 0.724431 0.281919 0.900824
O O12 0.704125 0.358763 0.937720
O O13 0.500000 0.972893 0.721991
O O14 0.729332 0.922118 0.705064
O O15 0.274245 0.215424 0.628279
O O16 0.000000 0.233318 0.543574
O O17 0.000000 0.381956 0.620081
O O18 0.500000 0.813277 0.259337
O O19 0.679159 0.862977 0.143485
O O20 0.500000 0.120843 0.469030
#
# Coordination Sequence:
#
# PCOD9351740 Si02
#       8
#     8   8   8   8   8   8   8   8
#     4  12  26  41  58  83 118 158 198 247 304 363
#     4   9  16  30  53  88 121 153 196 253 308 363
#     4  10  20  35  59  86 114 149 193 239 289 352
#     4   9  18  31  54  86 122 154 197 255 313 364
#     4  10  22  40  61  86 115 152 197 246 298 355
#     4  11  22  38  59  85 117 157 202 249 302 357
#     4  10  21  38  59  86 118 151 194 246 299 361
#     4   9  17  33  59  86 113 148 193 241 293 351
#
# _framework density 20.180976999999999
#
# number of rings (size 3 to 8) (size 9 to 14) (size 15 to 20)
#    0.000    2.000    1.250    2.625    1.750    3.000 
#    0.000    3.750    0.000    1.500    0.000    0.000 
#    0.000    0.000    0.000    0.000    0.000    0.000 
#
# Total GULP energy -178583.819280 kJ/mol
# GULP energy per Si atom -5580.744352 kJ/mol
# Density = 2.013504 g / cm^3
# Si number density = 20.180977 Si / 1000 Ang^3
#
#
#
# Elastic Constant Matrix: (Units=GPa)
#
#
# Indices 1 2 3 4 5 6 
#
# 1 20.2150 8.8913 1.6424 0.0000 0.0000 0.0000
# 2 8.8913 59.2326 45.9446 0.0000 0.0000 0.0000
# 3 1.6424 45.9446 109.1741 0.0000 0.0000 0.0000
# 4 0.0000 0.0000 0.0000 22.0776 0.0000 0.0000
# 5 0.0000 0.0000 0.0000 0.0000 24.1085 0.0000
# 6 0.0000 0.0000 0.0000 0.0000 0.0000 2.3532
#
#
#
# Elastic Compliance Matrix: (Units=1/GPa)
#
#
# Indices 1 2 3 4 5 6 
#
# 1 0.054040 -0.011107 0.003861 0.000000 0.000000 0.000000
# 2 -0.011107 0.027347 -0.011342 0.000000 0.000000 0.000000
# 3 0.003861 -0.011342 0.013875 0.000000 0.000000 0.000000
# 4 0.000000 0.000000 0.000000 0.045295 0.000000 0.000000
# 5 0.000000 0.000000 0.000000 0.000000 0.041479 0.000000
# 6 0.000000 0.000000 0.000000 0.000000 0.000000 0.424961
#
#
# Mechanical properties :
#
#
# Convention : Reuss Voigt Hill
#
# Bulk Modulus (GPa) = 17.21557 33.50870 25.36213
# Shear Modulus (GPa) = 7.53543 18.51741 13.02642
#
# Velocity S-wave (km/s) = 1.93443 3.03242 2.54339
# Velocity P-wave (km/s) = 3.67947 5.37596 4.60649
#
# Compressibility (1/GPa) = 0.05808697
#
# Stress axis : x y z
#
# Youngs Moduli (GPa) = 18.50492 36.56696 72.07425
#
# Poissons Ratio (x) = 0.40614 -0.27829
# Poissons Ratio (y) = 0.20553 0.81744
# Poissons Ratio (z) = -0.07145 0.41473
#
# Static dielectric constant tensor:
#      x y z
#    x 1.676740 0.000000 0.000000 
#    y 0.000000 1.688240 0.000000 
#    z 0.000000 0.000000 1.764860 
# 
# From -- ./inp_files/7209.got.cif
#   From: 2010.05.17/outbox.cif.g08.bks.cpg/sg36_4_cif.got.tgz:7209.got - 2010.06.03 17:41:39.
