data_PCOD9351939
_publ_section_title
;
Structure prediction by ZEFSAII (Michael W. Deem and Ramdas Pophale) SiO2 
 PCOD9351939
Probable space group: C M C 21
;
_chemical_formula_sum "Si O2"
_cell_formula_units_Z 64
_cell_length_a 8.816225
_cell_length_b 29.168354
_cell_length_c 12.691364
_cell_angle_alpha 90.000000
_cell_angle_beta 90.000000
_cell_angle_gamma 90.000000
_cell_volume 3263.644813
_symmetry_space_group_name_H-M "C M C 21"
_symmetry_group_IT_number 36
_symmetry_cell_setting 'orthorhombic'
loop_
_space_group_symop_operation_xyz
x,y,z
-x,-y,1/2+z
x,-y,1/2+z
-x,y,z
1/2+x,1/2+y,z
1/2-x,1/2-y,1/2+z
1/2+x,1/2-y,1/2+z
1/2-x,1/2+y,z
loop_
_atom_site_type_symbol
_atom_site_label
_atom_site_fract_x
_atom_site_fract_y
_atom_site_fract_z
Si Si1 0.181931 0.271138 0.827290
Si Si2 0.818243 0.322378 0.261767
Si Si3 0.174074 0.847262 0.691509
Si Si4 0.181694 0.665524 0.522623
Si Si5 0.183211 0.012412 0.242674
Si Si6 0.819356 0.917272 0.335769
Si Si7 0.827530 0.912717 0.898835
Si Si8 0.819625 0.574317 0.060641
O O1 0.243400 0.219932 0.822151
O O2 0.250916 0.300300 0.730232
O O3 0.000000 0.272017 0.821701
O O4 0.230124 0.297690 0.934081
O O5 0.767505 0.321485 0.139329
O O6 0.766026 0.370886 0.306954
O O7 0.000000 0.318239 0.266239
O O8 0.171472 0.879619 0.795736
O O9 0.267892 0.876209 0.606860
O O10 0.000000 0.840503 0.657241
O O11 0.237312 0.615424 0.485968
O O12 0.000000 0.664972 0.522423
O O13 0.215031 0.958976 0.256284
O O14 0.229863 0.039679 0.349718
O O15 0.000000 0.018967 0.232973
O O16 0.264072 0.036720 0.145267
O O17 0.765197 0.932487 0.450997
O O18 0.000000 0.909857 0.335506
O O19 0.000000 0.919111 0.935689
O O20 0.000000 0.572857 0.048603
#
# Coordination Sequence:
#
# PCOD9351939 Si02
#       8
#     8   8   8   8   8   8   8   8
#     4  10  20  37  60  86 113 150 200 245 293 352
#     4  11  24  41  57  81 118 155 193 241 297 351
#     4   9  17  33  57  85 116 149 188 237 288 339
#     4   9  20  37  57  81 113 149 184 231 289 343
#     4   9  20  39  61  85 114 152 196 240 289 346
#     4  11  24  42  61  83 116 156 197 242 291 346
#     4   8  15  30  55  84 110 139 182 231 277 332
#     4  11  22  37  60  89 120 154 192 239 294 349
#
# _framework density 19.609977000000001
#
# number of rings (size 3 to 8) (size 9 to 14) (size 15 to 20)
#    0.000    2.250    0.000    3.375    0.000    7.500 
#    0.000    7.500    0.000    0.000    0.000    0.000 
#    0.000    0.000    0.000    0.000    0.000    0.000 
#
# Total GULP energy -178664.668877 kJ/mol
# GULP energy per Si atom -5583.270902 kJ/mol
# Density = 1.956534 g / cm^3
# Si number density = 19.609977 Si / 1000 Ang^3
#
#
#
# Elastic Constant Matrix: (Units=GPa)
#
#
# Indices 1 2 3 4 5 6 
#
# 1 30.3347 10.5626 -1.0521 0.0000 0.0000 0.0000
# 2 10.5626 98.4113 5.7802 0.0000 0.0000 0.0000
# 3 -1.0521 5.7802 49.5684 0.0000 0.0000 0.0000
# 4 0.0000 0.0000 0.0000 20.0805 0.0000 0.0000
# 5 0.0000 0.0000 0.0000 0.0000 24.9402 0.0000
# 6 0.0000 0.0000 0.0000 0.0000 0.0000 28.5152
#
#
#
# Elastic Compliance Matrix: (Units=1/GPa)
#
#
# Indices 1 2 3 4 5 6 
#
# 1 0.034312 -0.003751 0.001166 0.000000 0.000000 0.000000
# 2 -0.003751 0.010642 -0.001321 0.000000 0.000000 0.000000
# 3 0.001166 -0.001321 0.020353 0.000000 0.000000 0.000000
# 4 0.000000 0.000000 0.000000 0.049800 0.000000 0.000000
# 5 0.000000 0.000000 0.000000 0.000000 0.040096 0.000000
# 6 0.000000 0.000000 0.000000 0.000000 0.000000 0.035069
#
#
# Mechanical properties :
#
#
# Convention : Reuss Voigt Hill
#
# Bulk Modulus (GPa) = 17.39296 23.21064 20.30180
# Shear Modulus (GPa) = 23.01516 25.57542 24.29529
#
# Velocity S-wave (km/s) = 3.42957 3.61530 3.52366
# Velocity P-wave (km/s) = 4.95694 5.41193 5.18942
#
# Compressibility (1/GPa) = 0.05749454
#
# Stress axis : x y z
#
# Youngs Moduli (GPa) = 29.14421 93.97062 49.13310
#
# Poissons Ratio (x) = 0.35250 -0.05728
# Poissons Ratio (y) = 0.10933 0.06488
# Poissons Ratio (z) = -0.03397 0.12409
#
# Static dielectric constant tensor:
#      x y z
#    x 1.658590 0.000000 0.000000 
#    y 0.000000 1.690350 0.000000 
#    z 0.000000 0.000000 1.704710 
# 
# From -- ./inp_files/11216.got.cif
#   From: 2010.05.17/outbox.cif.g08.bks.cpg/sg36_6_cif.got.tgz:11216.got - 2010.06.03 17:41:39.
