data_PCOD9351341
_publ_section_title
;
Structure prediction by ZEFSAII (Michael W. Deem and Ramdas Pophale) SiO2 
 PCOD9351341
Probable space group: C M C 21
;
_chemical_formula_sum "Si O2"
_cell_formula_units_Z 64
_cell_length_a 7.574190
_cell_length_b 22.227466
_cell_length_c 14.446327
_cell_angle_alpha 90.000000
_cell_angle_beta 90.000000
_cell_angle_gamma 90.000000
_cell_volume 2432.112115
_symmetry_space_group_name_H-M "C M C 21"
_symmetry_group_IT_number 36
_symmetry_cell_setting 'orthorhombic'
loop_
_space_group_symop_operation_xyz
x,y,z
-x,-y,1/2+z
x,-y,1/2+z
-x,y,z
1/2+x,1/2+y,z
1/2-x,1/2-y,1/2+z
1/2+x,1/2-y,1/2+z
1/2-x,1/2+y,z
loop_
_atom_site_type_symbol
_atom_site_label
_atom_site_fract_x
_atom_site_fract_y
_atom_site_fract_z
Si Si1 0.789333 0.402653 0.961330
Si Si2 0.785375 0.671211 0.286124
Si Si3 0.287287 0.219955 0.575569
Si Si4 0.302556 0.467401 0.438482
Si Si5 0.703337 0.980037 0.230506
Si Si6 0.287505 0.096753 0.122649
Si Si7 0.710894 0.851729 0.236710
Si Si8 0.212667 0.214877 0.904858
O O1 0.740856 0.383100 0.856739
O O2 0.708757 0.466629 0.986528
O O3 0.000000 0.410712 0.965745
O O4 0.753194 0.343305 0.021911
O O5 0.723144 0.654199 0.183027
O O6 0.720973 0.730136 0.339945
O O7 0.000000 0.674938 0.285573
O O8 0.500000 0.227883 0.580935
O O9 0.216255 0.204048 0.676788
O O10 0.218676 0.272002 0.507752
O O11 0.500000 0.455255 0.407423
O O12 0.199416 0.477882 0.342508
O O13 0.257905 0.418300 0.516897
O O14 0.500000 0.979163 0.198443
O O15 0.783811 0.915605 0.204512
O O16 0.777939 0.039146 0.182691
O O17 0.500000 0.099589 0.126777
O O18 0.500000 0.852943 0.222725
O O19 0.739670 0.842660 0.345293
O O20 0.000000 0.217563 0.908666
#
# Coordination Sequence:
#
# PCOD9351341 Si02
#       8
#     8   8   8   8   8   8   8   8
#     4   9  15  32  59  80 100 137 190 236 266 313
#     4   8  15  31  58  82  98 129 186 235 268 314
#     4   8  16  33  60  85 105 138 189 236 273 319
#     4  12  24  34  49  82 123 153 175 217 289 351
#     4  10  21  39  62  83 107 148 197 237 272 324
#     4  10  19  36  61  83 105 143 194 238 273 323
#     4  10  20  36  57  84 112 144 187 233 275 324
#     4   9  18  35  58  83 110 142 178 226 284 336
#
# _framework density 26.314575999999999
#
# number of rings (size 3 to 8) (size 9 to 14) (size 15 to 20)
#    0.000    2.500    1.250    3.375    0.000    3.000 
#    2.250    5.625    0.000    0.000    0.000    0.000 
#    0.000    0.000    0.000    0.000    0.000    0.000 
#
# Total GULP energy -178793.047342 kJ/mol
# GULP energy per Si atom -5587.282729 kJ/mol
# Density = 2.625468 g / cm^3
# Si number density = 26.314576 Si / 1000 Ang^3
#
#
#
# Elastic Constant Matrix: (Units=GPa)
#
#
# Indices 1 2 3 4 5 6 
#
# 1 64.6345 -4.4013 -7.4970 0.0000 0.0000 0.0000
# 2 -4.4013 57.7653 17.0936 0.0000 0.0000 0.0000
# 3 -7.4970 17.0936 146.6758 0.0000 0.0000 0.0000
# 4 0.0000 0.0000 0.0000 55.1472 0.0000 0.0000
# 5 0.0000 0.0000 0.0000 0.0000 7.0286 0.0000
# 6 0.0000 0.0000 0.0000 0.0000 0.0000 -1.9248
#
#
#
# Elastic Compliance Matrix: (Units=1/GPa)
#
#
# Indices 1 2 3 4 5 6 
#
# 1 0.015618 0.000988 0.000683 0.000000 0.000000 0.000000
# 2 0.000988 0.017992 -0.002046 0.000000 0.000000 0.000000
# 3 0.000683 -0.002046 0.007091 0.000000 0.000000 0.000000
# 4 0.000000 0.000000 0.000000 0.018133 0.000000 0.000000
# 5 0.000000 0.000000 0.000000 0.000000 0.142276 0.000000
# 6 0.000000 0.000000 0.000000 0.000000 0.000000 -0.519523
#
#
# Mechanical properties :
#
#
# Convention : Reuss Voigt Hill
#
# Bulk Modulus (GPa) = 25.03075 31.05178 28.04127
# Shear Modulus (GPa) = -16.42872 29.64220 6.60674
#
# Velocity S-wave (km/s) = -2.50135 3.35991 1.58623
# Velocity P-wave (km/s) = 1.09107 5.18439 3.74622
#
# Compressibility (1/GPa) = 0.03995086
#
# Stress axis : x y z
#
# Youngs Moduli (GPa) = 64.02817 55.57954 141.02072
#
# Poissons Ratio (x) = -0.05490 -0.09634
# Poissons Ratio (y) = -0.06325 0.28857
# Poissons Ratio (z) = -0.04374 0.11373
#
# Static dielectric constant tensor:
#      x y z
#    x 1.981300 0.000000 0.000000 
#    y 0.000000 2.111780 0.000000 
#    z 0.000000 0.000000 2.117330 
# 
# From -- ./inp_files/11114.got.cif
#   From: 2010.05.17/outbox.cif.g08.bks.cpg/sg36_6_cif.got.tgz:11114.got - 2010.06.03 17:41:39.
