data_PCOD9351095
_publ_section_title
;
Structure prediction by ZEFSAII (Michael W. Deem and Ramdas Pophale) SiO2 
 PCOD9351095
Probable space group: C M C 21
;
_chemical_formula_sum "Si O2"
_cell_formula_units_Z 64
_cell_length_a 8.378503
_cell_length_b 23.668008
_cell_length_c 16.322112
_cell_angle_alpha 90.000000
_cell_angle_beta 90.000000
_cell_angle_gamma 90.000000
_cell_volume 3236.715224
_symmetry_space_group_name_H-M "C M C 21"
_symmetry_group_IT_number 36
_symmetry_cell_setting 'orthorhombic'
loop_
_space_group_symop_operation_xyz
x,y,z
-x,-y,1/2+z
x,-y,1/2+z
-x,y,z
1/2+x,1/2+y,z
1/2-x,1/2-y,1/2+z
1/2+x,1/2-y,1/2+z
1/2-x,1/2+y,z
loop_
_atom_site_type_symbol
_atom_site_label
_atom_site_fract_x
_atom_site_fract_y
_atom_site_fract_z
Si Si1 0.310562 0.840244 0.222410
Si Si2 0.684720 0.609281 0.557446
Si Si3 0.321305 0.300678 0.917742
Si Si4 0.314203 0.694720 0.985220
Si Si5 0.693055 0.903859 0.388871
Si Si6 0.693551 0.966159 0.908990
Si Si7 0.181516 0.626268 0.287367
Si Si8 0.807386 0.281146 0.664650
O O1 0.500000 0.832150 0.228475
O O2 0.273615 0.878404 0.142170
O O3 0.255803 0.873221 0.304211
O O4 0.235137 0.778199 0.208048
O O5 0.500000 0.597162 0.575354
O O6 0.690539 0.667276 0.504456
O O7 0.749592 0.562151 0.494132
O O8 0.500000 0.311793 0.885438
O O9 0.189429 0.328268 0.860693
O O10 0.290914 0.235090 0.927594
O O11 0.500000 0.704006 0.969278
O O12 0.271721 0.713761 0.076348
O O13 0.264886 0.631465 0.963780
O O14 0.500000 0.901846 0.392173
O O15 0.740699 0.969206 0.396160
O O16 0.500000 0.962577 0.908670
O O17 0.754477 0.928318 0.832054
O O18 0.250803 0.663120 0.213830
O O19 0.000000 0.611886 0.264750
O O20 0.000000 0.283432 0.657459
#
# Coordination Sequence:
#
# PCOD9351095 Si02
#       8
#     8   8   8   8   8   8   8   8
#     4  11  22  37  60  90 120 155 201 248 298 357
#     4  10  20  35  59  88 119 155 194 243 294 347
#     4  10  19  33  56  84 116 150 187 233 291 350
#     4  12  24  37  57  83 118 157 195 241 296 356
#     4  10  23  42  62  86 119 159 203 249 297 351
#     4   9  19  40  64  85 114 154 202 246 288 349
#     4   9  19  35  59  87 114 148 192 238 288 346
#     4  11  22  37  57  87 122 154 192 242 302 358
#
# _framework density 19.773132
#
# number of rings (size 3 to 8) (size 9 to 14) (size 15 to 20)
#    0.000    1.750    1.250    3.375    0.000    5.500 
#    2.250    0.000    0.000    0.000    0.000    0.000 
#    0.000    0.000    0.000    0.000    0.000    0.000 
#
# Total GULP energy -178523.064521 kJ/mol
# GULP energy per Si atom -5578.845766 kJ/mol
# Density = 1.972813 g / cm^3
# Si number density = 19.773132 Si / 1000 Ang^3
#
#
#
# Elastic Constant Matrix: (Units=GPa)
#
#
# Indices 1 2 3 4 5 6 
#
# 1 42.1171 16.8784 6.1018 0.0000 0.0000 0.0000
# 2 16.8784 137.2841 31.2076 0.0000 0.0000 0.0000
# 3 6.1018 31.2076 45.4475 0.0000 0.0000 0.0000
# 4 0.0000 0.0000 0.0000 28.0280 0.0000 0.0000
# 5 0.0000 0.0000 0.0000 0.0000 21.6629 0.0000
# 6 0.0000 0.0000 0.0000 0.0000 0.0000 20.4606
#
#
#
# Elastic Compliance Matrix: (Units=1/GPa)
#
#
# Indices 1 2 3 4 5 6 
#
# 1 0.025057 -0.002744 -0.001480 0.000000 0.000000 0.000000
# 2 -0.002744 0.008932 -0.005765 0.000000 0.000000 0.000000
# 3 -0.001480 -0.005765 0.026161 0.000000 0.000000 0.000000
# 4 0.000000 0.000000 0.000000 0.035679 0.000000 0.000000
# 5 0.000000 0.000000 0.000000 0.000000 0.046162 0.000000
# 6 0.000000 0.000000 0.000000 0.000000 0.000000 0.048874
#
#
# Mechanical properties :
#
#
# Convention : Reuss Voigt Hill
#
# Bulk Modulus (GPa) = 24.89286 37.02494 30.95890
# Shear Modulus (GPa) = 22.29814 25.40769 23.85291
#
# Velocity S-wave (km/s) = 3.36177 3.58852 3.47699
# Velocity P-wave (km/s) = 5.26167 5.99462 5.64007
#
# Compressibility (1/GPa) = 0.04017216
#
# Stress axis : x y z
#
# Youngs Moduli (GPa) = 39.90822 111.95625 38.22526
#
# Poissons Ratio (x) = 0.30724 0.05657
# Poissons Ratio (y) = 0.10952 0.22037
# Poissons Ratio (z) = 0.05906 0.64542
#
# Static dielectric constant tensor:
#      x y z
#    x 1.696150 0.000000 0.000000 
#    y 0.000000 1.690740 0.000000 
#    z 0.000000 0.000000 1.720990 
# 
# From -- ./inp_files/11042.got.cif
#   From: 2010.05.17/outbox.cif.g08.bks.cpg/sg36_6_cif.got.tgz:11042.got - 2010.06.03 17:41:39.
