data_PCOD9351248
_publ_section_title
;
Structure prediction by ZEFSAII (Michael W. Deem and Ramdas Pophale) SiO2 
 PCOD9351248
Probable space group: C M C 21
;
_chemical_formula_sum "Si O2"
_cell_formula_units_Z 64
_cell_length_a 17.432201
_cell_length_b 6.949746
_cell_length_c 24.138555
_cell_angle_alpha 90.000000
_cell_angle_beta 90.000000
_cell_angle_gamma 90.000000
_cell_volume 2924.370711
_symmetry_space_group_name_H-M "C M C 21"
_symmetry_group_IT_number 36
_symmetry_cell_setting 'orthorhombic'
loop_
_space_group_symop_operation_xyz
x,y,z
-x,-y,1/2+z
x,-y,1/2+z
-x,y,z
1/2+x,1/2+y,z
1/2-x,1/2-y,1/2+z
1/2+x,1/2-y,1/2+z
1/2-x,1/2+y,z
loop_
_atom_site_type_symbol
_atom_site_label
_atom_site_fract_x
_atom_site_fract_y
_atom_site_fract_z
Si Si1 0.356225 0.638556 0.279260
Si Si2 0.588116 0.071675 0.693639
Si Si3 0.908652 0.893380 0.471966
Si Si4 0.343068 0.137751 0.399108
Si Si5 0.091066 0.388758 0.473142
Si Si6 0.840511 0.144394 0.404389
Si Si7 0.406742 0.855225 0.068810
Si Si8 0.674707 0.204177 0.272906
O O1 0.407253 0.753021 0.236556
O O2 0.378524 0.653401 0.343329
O O3 0.354587 0.417159 0.264404
O O4 0.267098 0.707911 0.276930
O O5 0.500000 0.002000 0.689803
O O6 0.615093 0.133184 0.632635
O O7 0.644191 0.920809 0.722577
O O8 0.855988 0.894418 0.412565
O O9 0.880716 0.832957 0.534009
O O10 0.000000 0.917198 0.466592
O O11 0.885574 0.140512 0.467619
O O12 0.251279 0.141880 0.407553
O O13 0.357117 0.133290 0.332790
O O14 0.405421 0.142864 0.452540
O O15 0.145984 0.390545 0.415930
O O16 0.116667 0.451553 0.534934
O O17 0.000000 0.366055 0.466901
O O18 0.500000 0.849479 0.066994
#
# Coordination Sequence:
#
# PCOD9351248 Si02
#       8
#     8   8   8   8   8   8   8   8
#     4  11  23  41  65  94 127 166 208 249 322 382
#     4  11  24  43  65  90 123 164 217 270 303 358
#     4  10  19  35  57  81 116 153 185 237 300 359
#     4  10  20  35  56  83 119 153 186 234 306 367
#     4  10  20  36  59  84 115 157 198 241 301 367
#     4  11  21  34  57  92 122 147 192 252 303 371
#     4   8  19  41  60  79 117 163 199 244 313 365
#     4  11  22  41  65  89 124 171 203 247 317 383
#
# _framework density 21.88505
#
# number of rings (size 3 to 8) (size 9 to 14) (size 15 to 20)
#    0.000    1.750    2.500    3.000    3.500    3.500 
#    2.250    5.000    0.000    0.000    0.000    0.000 
#    0.000    0.000    0.000    0.000    0.000    0.000 
#
# Total GULP energy -178242.309767 kJ/mol
# GULP energy per Si atom -5570.072180 kJ/mol
# Density = 2.183524 g / cm^3
# Si number density = 21.885050 Si / 1000 Ang^3
#
#
#
# Elastic Constant Matrix: (Units=GPa)
#
#
# Indices 1 2 3 4 5 6 
#
# 1 28.9991 6.0789 37.9969 0.0000 0.0000 0.0000
# 2 6.0789 155.3191 53.1917 0.0000 0.0000 0.0000
# 3 37.9969 53.1917 157.0493 0.0000 0.0000 0.0000
# 4 0.0000 0.0000 0.0000 35.1299 0.0000 0.0000
# 5 0.0000 0.0000 0.0000 0.0000 31.6429 0.0000
# 6 0.0000 0.0000 0.0000 0.0000 0.0000 42.7447
#
#
#
# Elastic Compliance Matrix: (Units=1/GPa)
#
#
# Indices 1 2 3 4 5 6 
#
# 1 0.051361 0.002540 -0.013287 0.000000 0.000000 0.000000
# 2 0.002540 0.007409 -0.003124 0.000000 0.000000 0.000000
# 3 -0.013287 -0.003124 0.010640 0.000000 0.000000 0.000000
# 4 0.000000 0.000000 0.000000 0.028466 0.000000 0.000000
# 5 0.000000 0.000000 0.000000 0.000000 0.031603 0.000000
# 6 0.000000 0.000000 0.000000 0.000000 0.000000 0.023395
#
#
# Mechanical properties :
#
#
# Convention : Reuss Voigt Hill
#
# Bulk Modulus (GPa) = 23.99892 59.54474 41.77183
# Shear Modulus (GPa) = 25.70657 38.17683 31.94170
#
# Velocity S-wave (km/s) = 3.43099 4.18116 3.82451
# Velocity P-wave (km/s) = 5.16578 7.11172 6.21538
#
# Compressibility (1/GPa) = 0.04166855
#
# Stress axis : x y z
#
# Youngs Moduli (GPa) = 19.47020 134.97538 93.98448
#
# Poissons Ratio (x) = -0.34285 1.24874
# Poissons Ratio (y) = -0.04946 0.29359
# Poissons Ratio (z) = 0.25869 0.42164
#
# Static dielectric constant tensor:
#      x y z
#    x 1.658760 0.000000 0.000000 
#    y 0.000000 2.313270 0.000000 
#    z 0.000000 0.000000 1.752000 
# 
# From -- ./inp_files/16982.got.cif
#   From: 2010.05.17/outbox.cif.g08.bks.cpg/sg36_9_cif.got.tgz:16982.got - 2010.06.03 17:41:39.
