data_PCOD9351788
_publ_section_title
;
Structure prediction by ZEFSAII (Michael W. Deem and Ramdas Pophale) SiO2 
 PCOD9351788
Probable space group: C M C 21
;
_chemical_formula_sum "Si O2"
_cell_formula_units_Z 48
_cell_length_a 25.879798
_cell_length_b 7.479211
_cell_length_c 10.645963
_cell_angle_alpha 90.000000
_cell_angle_beta 90.000000
_cell_angle_gamma 90.000000
_cell_volume 2060.637601
_symmetry_space_group_name_H-M "C M C 21"
_symmetry_group_IT_number 36
_symmetry_cell_setting 'orthorhombic'
loop_
_space_group_symop_operation_xyz
x,y,z
-x,-y,1/2+z
x,-y,1/2+z
-x,y,z
1/2+x,1/2+y,z
1/2-x,1/2-y,1/2+z
1/2+x,1/2-y,1/2+z
1/2-x,1/2+y,z
loop_
_atom_site_type_symbol
_atom_site_label
_atom_site_fract_x
_atom_site_fract_y
_atom_site_fract_z
Si Si1 0.804437 0.093117 0.217050
Si Si2 0.723831 0.918495 0.347157
Si Si3 0.826435 0.246345 0.962390
Si Si4 0.439870 0.905983 0.629116
Si Si5 0.062639 0.679145 0.844814
Si Si6 0.097534 0.083822 0.787715
O O1 0.803776 0.229558 0.333900
O O2 0.747450 0.007343 0.219245
O O3 0.847943 0.943607 0.216201
O O4 0.820489 0.225251 0.108107
O O5 0.778414 0.877666 0.414823
O O6 0.687747 0.061045 0.410897
O O7 0.881827 0.178614 0.914261
O O8 0.500000 0.952827 0.613607
O O9 0.419571 0.881258 0.485812
O O10 0.435483 0.717264 0.703450
O O11 0.418278 0.052881 0.728996
O O12 0.000000 0.665787 0.846649
O O13 0.075990 0.887102 0.816834
#
# Coordination Sequence:
#
# PCOD9351788 Si02
#       6
#     8   8   8   8   8   8
#     4  10  20  36  57  83 119 159 204 256 306 362
#     4   9  20  36  55  82 114 160 211 248 304 363
#     4  10  20  36  57  83 119 159 204 256 306 362
#     4  10  23  44  68  94 127 168 212 260 319 385
#     4  10  23  44  68  94 127 168 212 260 319 385
#     4  11  23  38  61  98 126 160 205 258 317 377
#
# _framework density 23.293762999999998
#
# number of rings (size 3 to 8) (size 9 to 14) (size 15 to 20)
#    0.000    2.000    0.000    2.500    2.333    2.667 
#    0.000    6.667    0.000    0.000    0.000    0.000 
#    0.000    0.000    0.000    0.000    0.000    0.000 
#
# Total GULP energy -133843.331716 kJ/mol
# GULP energy per Si atom -5576.805488 kJ/mol
# Density = 2.324075 g / cm^3
# Si number density = 23.293763 Si / 1000 Ang^3
#
#
#
# Elastic Constant Matrix: (Units=GPa)
#
#
# Indices 1 2 3 4 5 6 
#
# 1 41.1939 2.2948 13.8515 0.0000 0.0000 0.0000
# 2 2.2948 116.2524 20.5815 0.0000 0.0000 0.0000
# 3 13.8515 20.5815 66.2995 0.0000 0.0000 0.0000
# 4 0.0000 0.0000 0.0000 -7.0770 0.0000 0.0000
# 5 0.0000 0.0000 0.0000 0.0000 17.7150 0.0000
# 6 0.0000 0.0000 0.0000 0.0000 0.0000 45.3705
#
#
#
# Elastic Compliance Matrix: (Units=1/GPa)
#
#
# Indices 1 2 3 4 5 6 
#
# 1 0.026135 0.000477 -0.005608 0.000000 0.000000 0.000000
# 2 0.000477 0.009111 -0.002928 0.000000 0.000000 0.000000
# 3 -0.005608 -0.002928 0.017164 0.000000 0.000000 0.000000
# 4 0.000000 0.000000 0.000000 -0.141303 0.000000 0.000000
# 5 0.000000 0.000000 0.000000 0.000000 0.056449 0.000000
# 6 0.000000 0.000000 0.000000 0.000000 0.000000 0.022041
#
#
# Mechanical properties :
#
#
# Convention : Reuss Voigt Hill
#
# Bulk Modulus (GPa) = 27.55512 33.02237 30.28875
# Shear Modulus (GPa) = 280.72127 23.66957 152.19542
#
# Velocity S-wave (km/s) = 10.98977 3.19114 8.09193
# Velocity P-wave (km/s) = 13.14871 5.27116 10.01683
#
# Compressibility (1/GPa) = 0.03629089
#
# Stress axis : x y z
#
# Youngs Moduli (GPa) = 38.26341 109.75826 58.26250
#
# Poissons Ratio (x) = -0.05235 0.32675
# Poissons Ratio (y) = -0.01825 0.17059
# Poissons Ratio (z) = 0.21459 0.32137
#
# Static dielectric constant tensor:
#      x y z
#    x 1.896280 0.000000 0.000000 
#    y 0.000000 1.952560 0.000000 
#    z 0.000000 0.000000 2.005910 
# 
# From -- ./inp_files/5980.got.cif
#   From: 2010.05.17/outbox.cif.g08.bks.cpg/sg36_3_cif.got.tgz:5980.got - 2010.06.03 17:41:39.
