data_PCOD9351644
_publ_section_title
;
Structure prediction by ZEFSAII (Michael W. Deem and Ramdas Pophale) SiO2 
 PCOD9351644
Probable space group: C M C 21
;
_chemical_formula_sum "Si O2"
_cell_formula_units_Z 40
_cell_length_a 26.460062
_cell_length_b 9.033844
_cell_length_c 7.877017
_cell_angle_alpha 90.000000
_cell_angle_beta 90.000000
_cell_angle_gamma 90.000000
_cell_volume 1882.891205
_symmetry_space_group_name_H-M "C M C 21"
_symmetry_group_IT_number 36
_symmetry_cell_setting 'orthorhombic'
loop_
_space_group_symop_operation_xyz
x,y,z
-x,-y,1/2+z
x,-y,1/2+z
-x,y,z
1/2+x,1/2+y,z
1/2-x,1/2-y,1/2+z
1/2+x,1/2-y,1/2+z
1/2-x,1/2+y,z
loop_
_atom_site_type_symbol
_atom_site_label
_atom_site_fract_x
_atom_site_fract_y
_atom_site_fract_z
Si Si1 0.206256 0.420846 0.756240
Si Si2 0.000000 0.920433 0.999333
Si Si3 0.000000 0.769017 0.371484
Si Si4 0.591357 0.769052 0.395836
Si Si5 0.295043 0.231359 0.887972
Si Si6 0.407940 0.917761 0.768329
O O1 0.251661 0.349925 0.861229
O O2 0.207897 0.347384 0.571093
O O3 0.212178 0.597318 0.755139
O O4 0.149778 0.395134 0.830236
O O5 0.049302 0.856297 0.904249
O O6 0.000000 0.096925 0.002420
O O7 0.000000 0.851271 0.187550
O O8 0.950423 0.667317 0.374123
O O9 0.647923 0.709049 0.367799
O O10 0.590251 0.851104 0.579344
O O11 0.581646 0.906620 0.270424
#
# Coordination Sequence:
#
# PCOD9351644 Si02
#       6
#     8   4   4   8   8   8
#     4  10  20  35  54  78 106 138 174 214 258 307
#     4  10  21  36  52  76 106 134 167 210 256 304
#     4  10  21  36  52  76 106 134 167 210 256 304
#     4   9  19  35  55  77 102 133 172 211 252 304
#     4  10  20  35  54  78 106 138 174 214 258 307
#     4   9  19  35  55  77 102 133 172 211 252 304
#
# _framework density 21.243925999999998
#
# number of rings (size 3 to 8) (size 9 to 14) (size 15 to 20)
#    0.000    2.400    0.000    1.800    0.000    4.800 
#    0.000    4.000    0.000    0.000    0.000    0.000 
#    0.000    0.000    0.000    0.000    0.000    0.000 
#
# Total GULP energy -111727.579106 kJ/mol
# GULP energy per Si atom -5586.378955 kJ/mol
# Density = 2.119557 g / cm^3
# Si number density = 21.243926 Si / 1000 Ang^3
#
#
#
# Elastic Constant Matrix: (Units=GPa)
#
#
# Indices 1 2 3 4 5 6 
#
# 1 104.7341 33.7055 27.8370 0.0000 0.0000 0.0000
# 2 33.7055 25.5046 2.8856 0.0000 0.0000 0.0000
# 3 27.8370 2.8856 39.8014 0.0000 0.0000 0.0000
# 4 0.0000 0.0000 0.0000 30.8056 0.0000 0.0000
# 5 0.0000 0.0000 0.0000 0.0000 22.7759 0.0000
# 6 0.0000 0.0000 0.0000 0.0000 0.0000 38.3102
#
#
#
# Elastic Compliance Matrix: (Units=1/GPa)
#
#
# Indices 1 2 3 4 5 6 
#
# 1 0.021944 -0.027489 -0.013355 0.000000 0.000000 0.000000
# 2 -0.027489 0.073968 0.013863 0.000000 0.000000 0.000000
# 3 -0.013355 0.013863 0.033460 0.000000 0.000000 0.000000
# 4 0.000000 0.000000 0.000000 0.032462 0.000000 0.000000
# 5 0.000000 0.000000 0.000000 0.000000 0.043906 0.000000
# 6 0.000000 0.000000 0.000000 0.000000 0.000000 0.026103
#
#
# Mechanical properties :
#
#
# Convention : Reuss Voigt Hill
#
# Bulk Modulus (GPa) = 13.26069 33.21069 23.23569
# Shear Modulus (GPa) = 16.08027 25.41916 20.74971
#
# Velocity S-wave (km/s) = 2.75423 3.46285 3.12867
# Velocity P-wave (km/s) = 4.04599 5.62632 4.90028
#
# Compressibility (1/GPa) = 0.07541088
#
# Stress axis : x y z
#
# Youngs Moduli (GPa) = 45.57061 13.51937 29.88649
#
# Poissons Ratio (x) = 0.37163 0.39912
# Poissons Ratio (y) = 1.25269 -0.41432
# Poissons Ratio (z) = 0.60858 -0.18742
#
# Static dielectric constant tensor:
#      x y z
#    x 1.751540 0.000000 0.000000 
#    y 0.000000 1.715690 0.000000 
#    z 0.000000 0.000000 1.825460 
# 
# From -- ./inp_files/5474.got.cif
#   From: 2010.05.17/outbox.cif.g08.bks.cpg/sg36_3_cif.got.tgz:5474.got - 2010.06.03 17:41:39.
