data_PCOD9351995
_publ_section_title
;
Structure prediction by ZEFSAII (Michael W. Deem and Ramdas Pophale) SiO2 
 PCOD9351995
Probable space group: C M C 21
;
_chemical_formula_sum "Si O2"
_cell_formula_units_Z 64
_cell_length_a 20.081388
_cell_length_b 14.736908
_cell_length_c 12.032064
_cell_angle_alpha 90.000000
_cell_angle_beta 90.000000
_cell_angle_gamma 90.000000
_cell_volume 3560.739752
_symmetry_space_group_name_H-M "C M C 21"
_symmetry_group_IT_number 36
_symmetry_cell_setting 'orthorhombic'
loop_
_space_group_symop_operation_xyz
x,y,z
-x,-y,1/2+z
x,-y,1/2+z
-x,y,z
1/2+x,1/2+y,z
1/2-x,1/2-y,1/2+z
1/2+x,1/2-y,1/2+z
1/2-x,1/2+y,z
loop_
_atom_site_type_symbol
_atom_site_label
_atom_site_fract_x
_atom_site_fract_y
_atom_site_fract_z
Si Si1 0.328390 0.242124 0.589200
Si Si2 0.701239 0.418266 0.934818
Si Si3 0.853951 0.391759 0.904224
Si Si4 0.648558 0.765130 0.344238
Si Si5 0.680489 0.325634 0.147234
Si Si6 0.421622 0.175046 0.178357
Si Si7 0.923571 0.575954 0.957361
Si Si8 0.210281 0.131233 0.894332
O O1 0.364886 0.163432 0.518346
O O2 0.358444 0.245581 0.711709
O O3 0.250406 0.222602 0.616949
O O4 0.324496 0.324993 0.502323
O O5 0.774261 0.384614 0.895410
O O6 0.654225 0.338100 0.888172
O O7 0.703925 0.523094 0.903022
O O8 0.686233 0.411996 0.066772
O O9 0.889675 0.350763 0.796584
O O10 0.876482 0.495153 0.917478
O O11 0.592157 0.830185 0.394287
O O12 0.716209 0.821869 0.380001
O O13 0.619212 0.258825 0.126677
O O14 0.677113 0.345612 0.276932
O O15 0.500000 0.193900 0.189485
O O16 0.413431 0.094776 0.088398
O O17 0.000000 0.549211 0.938481
#
# Coordination Sequence:
#
# PCOD9351995 Si02
#       8
#     8   8   8   8   8   8   8   8
#     4  10  21  36  59  86 122 155 189 260 308 357
#     4  11  22  34  62  89 117 159 190 256 306 364
#     4  11  21  37  56  90 120 150 203 243 302 357
#     4  11  21  39  55  87 122 157 201 240 311 361
#     4  10  20  38  56  85 117 153 200 242 309 352
#     4  11  22  39  62  80 118 169 204 244 290 371
#     4  11  24  39  59  86 124 167 203 244 294 372
#     4  11  20  36  57  89 121 148 194 255 310 358
#
# _framework density 17.973794000000002
#
# number of rings (size 3 to 8) (size 9 to 14) (size 15 to 20)
#    0.000    1.250    6.250    1.125    3.500    1.000 
#    0.000    0.625    0.000    1.500    0.000    0.000 
#    0.000    0.000    0.000    0.000    0.000    0.000 
#
# Total GULP energy -178183.420679 kJ/mol
# GULP energy per Si atom -5568.231896 kJ/mol
# Density = 1.793288 g / cm^3
# Si number density = 17.973794 Si / 1000 Ang^3
#
#
#
# Elastic Constant Matrix: (Units=GPa)
#
#
# Indices 1 2 3 4 5 6 
#
# 1 44.3512 11.3522 20.7980 0.0000 0.0000 0.0000
# 2 11.3522 93.7004 32.9920 0.0000 0.0000 0.0000
# 3 20.7980 32.9920 122.3518 0.0000 0.0000 0.0000
# 4 0.0000 0.0000 0.0000 16.0411 0.0000 0.0000
# 5 0.0000 0.0000 0.0000 0.0000 17.7209 0.0000
# 6 0.0000 0.0000 0.0000 0.0000 0.0000 10.2733
#
#
#
# Elastic Compliance Matrix: (Units=1/GPa)
#
#
# Indices 1 2 3 4 5 6 
#
# 1 0.024736 -0.001675 -0.003753 0.000000 0.000000 0.000000
# 2 -0.001675 0.011905 -0.002925 0.000000 0.000000 0.000000
# 3 -0.003753 -0.002925 0.009600 0.000000 0.000000 0.000000
# 4 0.000000 0.000000 0.000000 0.062340 0.000000 0.000000
# 5 0.000000 0.000000 0.000000 0.000000 0.056430 0.000000
# 6 0.000000 0.000000 0.000000 0.000000 0.000000 0.097340
#
#
# Mechanical properties :
#
#
# Convention : Reuss Voigt Hill
#
# Bulk Modulus (GPa) = 33.85975 43.40974 38.63475
# Shear Modulus (GPa) = 17.30679 21.82447 19.56563
#
# Velocity S-wave (km/s) = 3.10641 3.48837 3.30292
# Velocity P-wave (km/s) = 5.63433 6.35839 6.00728
#
# Compressibility (1/GPa) = 0.02953359
#
# Stress axis : x y z
#
# Youngs Moduli (GPa) = 40.42683 83.99578 104.16716
#
# Poissons Ratio (x) = 0.14073 0.39094
# Poissons Ratio (y) = 0.06773 0.30474
# Poissons Ratio (z) = 0.15172 0.24573
#
# Static dielectric constant tensor:
#      x y z
#    x 1.600850 0.000000 0.000000 
#    y 0.000000 1.746370 0.000000 
#    z 0.000000 0.000000 1.638550 
# 
# From -- ./inp_files/9020.got.cif
#   From: 2010.05.17/outbox.cif.g08.bks.cpg/sg36_5_cif.got.tgz:9020.got - 2010.06.03 17:41:39.
