data_PCOD9351166
_publ_section_title
;
Structure prediction by ZEFSAII (Michael W. Deem and Ramdas Pophale) SiO2 
 PCOD9351166
Probable space group: C M C 21
;
_chemical_formula_sum "Si O2"
_cell_formula_units_Z 64
_cell_length_a 7.470409
_cell_length_b 16.380608
_cell_length_c 19.562413
_cell_angle_alpha 90.000000
_cell_angle_beta 90.000000
_cell_angle_gamma 90.000000
_cell_volume 2393.849377
_symmetry_space_group_name_H-M "C M C 21"
_symmetry_group_IT_number 36
_symmetry_cell_setting 'orthorhombic'
loop_
_space_group_symop_operation_xyz
x,y,z
-x,-y,1/2+z
x,-y,1/2+z
-x,y,z
1/2+x,1/2+y,z
1/2-x,1/2-y,1/2+z
1/2+x,1/2-y,1/2+z
1/2-x,1/2+y,z
loop_
_atom_site_type_symbol
_atom_site_label
_atom_site_fract_x
_atom_site_fract_y
_atom_site_fract_z
Si Si1 0.704660 0.899510 0.869680
Si Si2 0.209568 0.655412 0.911788
Si Si3 0.295965 0.757162 0.285183
Si Si4 0.719002 0.347567 0.664095
Si Si5 0.719108 0.001281 0.994749
Si Si6 0.710058 0.503308 0.748962
Si Si7 0.784900 0.407249 0.121313
Si Si8 0.283968 0.252548 0.539331
O O1 0.500000 0.871918 0.876061
O O2 0.801947 0.827819 0.828987
O O3 0.768356 0.927121 0.943802
O O4 0.706806 0.981439 0.821985
O O5 0.287895 0.678298 0.837891
O O6 0.287339 0.581553 0.956116
O O7 0.000000 0.638850 0.900782
O O8 0.221540 0.732470 0.962856
O O9 0.500000 0.783164 0.271221
O O10 0.219085 0.726013 0.213837
O O11 0.500000 0.347575 0.665332
O O12 0.779979 0.430501 0.699370
O O13 0.775365 0.328080 0.587483
O O14 0.500000 0.004560 0.995845
O O15 0.779728 0.980391 0.071186
O O16 0.500000 0.493389 0.759776
O O17 0.735113 0.581345 0.700451
O O18 0.725142 0.326673 0.081215
O O19 0.000000 0.406514 0.120280
O O20 0.500000 0.250249 0.536927
#
# Coordination Sequence:
#
# PCOD9351166 Si02
#       8
#     8   8   8   8   8   8   8   8
#     4  10  19  34  57  80 104 136 171 210 258 309
#     4  10  20  34  53  75 102 136 170 208 255 306
#     4   9  18  33  52  74 101 133 169 209 253 304
#     4   8  16  32  52  72  96 130 170 209 251 301
#     4   9  19  34  52  77 106 135 171 214 258 306
#     4  10  20  35  54  77 106 137 172 214 257 307
#     4  10  20  34  53  77 105 137 174 216 259 306
#     4  10  20  34  53  76 102 134 173 216 259 305
#
# _framework density 26.735181000000001
#
# number of rings (size 3 to 8) (size 9 to 14) (size 15 to 20)
#    0.000    2.500    0.000    3.000    0.000    3.000 
#    0.000    8.750    0.000    3.000    0.000    0.000 
#    0.000    0.000    0.000    0.000    0.000    0.000 
#
# Total GULP energy -178980.792252 kJ/mol
# GULP energy per Si atom -5593.149758 kJ/mol
# Density = 2.667433 g / cm^3
# Si number density = 26.735181 Si / 1000 Ang^3
#
#
#
# Elastic Constant Matrix: (Units=GPa)
#
#
# Indices 1 2 3 4 5 6 
#
# 1 88.6233 -3.7595 -4.8071 0.0000 0.0000 0.0000
# 2 -3.7595 70.4722 4.2317 0.0000 0.0000 0.0000
# 3 -4.8071 4.2317 161.9128 0.0000 0.0000 0.0000
# 4 0.0000 0.0000 0.0000 52.4095 0.0000 0.0000
# 5 0.0000 0.0000 0.0000 0.0000 12.2622 0.0000
# 6 0.0000 0.0000 0.0000 0.0000 0.0000 6.9807
#
#
#
# Elastic Compliance Matrix: (Units=1/GPa)
#
#
# Indices 1 2 3 4 5 6 
#
# 1 0.011326 0.000585 0.000321 0.000000 0.000000 0.000000
# 2 0.000585 0.014243 -0.000355 0.000000 0.000000 0.000000
# 3 0.000321 -0.000355 0.006195 0.000000 0.000000 0.000000
# 4 0.000000 0.000000 0.000000 0.019080 0.000000 0.000000
# 5 0.000000 0.000000 0.000000 0.000000 0.081552 0.000000
# 6 0.000000 0.000000 0.000000 0.000000 0.000000 0.143253
#
#
# Mechanical properties :
#
#
# Convention : Reuss Voigt Hill
#
# Bulk Modulus (GPa) = 30.42704 34.70426 32.56565
# Shear Modulus (GPa) = 17.51305 36.02003 26.76654
#
# Velocity S-wave (km/s) = 2.56218 3.67453 3.16756
# Velocity P-wave (km/s) = 4.48984 5.56882 5.05818
#
# Compressibility (1/GPa) = 0.03286550
#
# Stress axis : x y z
#
# Youngs Moduli (GPa) = 88.29288 70.21239 161.42130
#
# Poissons Ratio (x) = -0.04107 -0.05181
# Poissons Ratio (y) = -0.05165 0.05728
# Poissons Ratio (z) = -0.02834 0.02492
#
# Static dielectric constant tensor:
#      x y z
#    x 2.009890 0.000000 0.000000 
#    y 0.000000 2.223950 0.000000 
#    z 0.000000 0.000000 2.022300 
# 
# From -- ./inp_files/15675.got.cif
#   From: 2010.05.17/outbox.cif.g08.bks.cpg/sg36_8_cif.got.tgz:15675.got - 2010.06.03 17:41:39.
