data_PCOD9351443
_publ_section_title
;
Structure prediction by ZEFSAII (Michael W. Deem and Ramdas Pophale) SiO2 
 PCOD9351443
Probable space group: C M C 21
;
_chemical_formula_sum "Si O2"
_cell_formula_units_Z 64
_cell_length_a 18.368210
_cell_length_b 22.454091
_cell_length_c 8.660697
_cell_angle_alpha 90.000000
_cell_angle_beta 90.000000
_cell_angle_gamma 90.000000
_cell_volume 3572.030505
_symmetry_space_group_name_H-M "C M C 21"
_symmetry_group_IT_number 36
_symmetry_cell_setting 'orthorhombic'
loop_
_space_group_symop_operation_xyz
x,y,z
-x,-y,1/2+z
x,-y,1/2+z
-x,y,z
1/2+x,1/2+y,z
1/2-x,1/2-y,1/2+z
1/2+x,1/2-y,1/2+z
1/2-x,1/2+y,z
loop_
_atom_site_type_symbol
_atom_site_label
_atom_site_fract_x
_atom_site_fract_y
_atom_site_fract_z
Si Si1 0.675039 0.390252 0.212360
Si Si2 0.774198 0.587588 0.243062
Si Si3 0.917779 0.965926 0.984152
Si Si4 0.688850 0.285187 0.994721
Si Si5 0.580673 0.690024 0.933424
Si Si6 0.668843 0.210694 0.298487
Si Si7 0.885648 0.141617 0.264762
Si Si8 0.264228 0.476344 0.435369
O O1 0.708356 0.345974 0.086417
O O2 0.638122 0.350053 0.341976
O O3 0.734165 0.432283 0.289984
O O4 0.611327 0.428270 0.130293
O O5 0.831301 0.639427 0.280655
O O6 0.697553 0.622834 0.231041
O O7 0.766591 0.539243 0.378698
O O8 0.776071 0.552049 0.081198
O O9 0.917701 0.918297 0.842298
O O10 0.000000 0.989284 0.003206
O O11 0.851537 0.012722 0.965385
O O12 0.671074 0.237473 0.125465
O O13 0.756453 0.269595 0.885846
O O14 0.620449 0.306016 0.891748
O O15 0.500000 0.680783 0.869966
O O16 0.606138 0.757364 0.897781
O O17 0.582048 0.668215 0.109609
#
# Coordination Sequence:
#
# PCOD9351443 Si02
#       8
#     8   8   8   8   8   8   8   8
#     4  10  20  34  49  73 103 141 177 218 260 309
#     4  10  20  34  51  71 105 135 177 226 262 303
#     4  10  20  32  45  67 104 150 188 214 246 299
#     4   9  19  32  55  74 102 133 174 223 267 317
#     4  11  21  34  54  79 108 142 176 214 267 329
#     4  10  20  34  53  80 103 136 178 223 275 313
#     4   9  18  34  49  73 102 139 176 219 264 307
#     4  11  20  34  48  71 103 140 182 223 259 301
#
# _framework density 17.916979999999999
#
# number of rings (size 3 to 8) (size 9 to 14) (size 15 to 20)
#    0.000    2.000    2.500    3.000    1.750    1.000 
#    0.000    0.625    0.000    0.000    0.000    0.875 
#    0.000    0.000    0.000    0.000    0.000    0.000 
#
# Total GULP energy -178400.831599 kJ/mol
# GULP energy per Si atom -5575.025987 kJ/mol
# Density = 1.787620 g / cm^3
# Si number density = 17.916980 Si / 1000 Ang^3
#
#
#
# Elastic Constant Matrix: (Units=GPa)
#
#
# Indices 1 2 3 4 5 6 
#
# 1 7.0911 6.1404 0.2788 0.0000 0.0000 0.0000
# 2 6.1404 85.0472 29.5322 0.0000 0.0000 0.0000
# 3 0.2788 29.5322 82.1072 0.0000 0.0000 0.0000
# 4 0.0000 0.0000 0.0000 33.2845 0.0000 0.0000
# 5 0.0000 0.0000 0.0000 0.0000 5.6616 0.0000
# 6 0.0000 0.0000 0.0000 0.0000 0.0000 7.5735
#
#
#
# Elastic Compliance Matrix: (Units=1/GPa)
#
#
# Indices 1 2 3 4 5 6 
#
# 1 0.151516 -0.012297 0.003908 0.000000 0.000000 0.000000
# 2 -0.012297 0.014434 -0.005150 0.000000 0.000000 0.000000
# 3 0.003908 -0.005150 0.014018 0.000000 0.000000 0.000000
# 4 0.000000 0.000000 0.000000 0.030044 0.000000 0.000000
# 5 0.000000 0.000000 0.000000 0.000000 0.176628 0.000000
# 6 0.000000 0.000000 0.000000 0.000000 0.000000 0.132039
#
#
# Mechanical properties :
#
#
# Convention : Reuss Voigt Hill
#
# Bulk Modulus (GPa) = 6.54058 27.34982 16.94520
# Shear Modulus (GPa) = 8.37915 18.52353 13.45134
#
# Velocity S-wave (km/s) = 2.16490 3.21885 2.74297
# Velocity P-wave (km/s) = 3.14762 5.39560 4.41701
#
# Compressibility (1/GPa) = 0.15289161
#
# Stress axis : x y z
#
# Youngs Moduli (GPa) = 6.59998 69.27954 71.33557
#
# Poissons Ratio (x) = 0.85190 -0.27880
# Poissons Ratio (y) = 0.08116 0.36737
# Poissons Ratio (z) = -0.02579 0.35679
#
# Static dielectric constant tensor:
#      x y z
#    x 1.600530 0.000000 0.000000 
#    y 0.000000 1.674770 0.000000 
#    z 0.000000 0.000000 1.675490 
# 
# From -- ./inp_files/5414.got.cif
#   From: 2010.05.17/outbox.cif.g08.bks.cpg/sg36_3_cif.got.tgz:5414.got - 2010.06.03 17:41:39.
