data_PCOD9351280
_publ_section_title
;
Structure prediction by ZEFSAII (Michael W. Deem and Ramdas Pophale) SiO2 
 PCOD9351280
Probable space group: C M C 21
;
_chemical_formula_sum "Si O2"
_cell_formula_units_Z 64
_cell_length_a 8.391446
_cell_length_b 14.758916
_cell_length_c 23.300585
_cell_angle_alpha 90.000000
_cell_angle_beta 90.000000
_cell_angle_gamma 90.000000
_cell_volume 2885.745918
_symmetry_space_group_name_H-M "C M C 21"
_symmetry_group_IT_number 36
_symmetry_cell_setting 'orthorhombic'
loop_
_space_group_symop_operation_xyz
x,y,z
-x,-y,1/2+z
x,-y,1/2+z
-x,y,z
1/2+x,1/2+y,z
1/2-x,1/2-y,1/2+z
1/2+x,1/2-y,1/2+z
1/2-x,1/2+y,z
loop_
_atom_site_type_symbol
_atom_site_label
_atom_site_fract_x
_atom_site_fract_y
_atom_site_fract_z
Si Si1 0.184376 0.814458 0.214320
Si Si2 0.188302 0.706049 0.396622
Si Si3 0.310092 0.433239 0.804541
Si Si4 0.691291 0.579755 0.055217
Si Si5 0.815810 0.630138 0.831653
Si Si6 0.691346 0.230490 0.595903
Si Si7 0.811816 0.025321 0.180335
Si Si8 0.191601 0.408436 0.005006
O O1 0.284903 0.813811 0.272525
O O2 0.239615 0.757542 0.159414
O O3 0.199921 0.918275 0.192043
O O4 0.000000 0.797214 0.228302
O O5 0.221313 0.637799 0.344217
O O6 0.266064 0.802384 0.382295
O O7 0.250070 0.651181 0.451891
O O8 0.000000 0.720973 0.403383
O O9 0.500000 0.415843 0.805616
O O10 0.281218 0.536469 0.826171
O O11 0.249400 0.429174 0.738653
O O12 0.500000 0.570217 0.054193
O O13 0.728531 0.685734 0.054021
O O14 0.754871 0.549921 0.118306
O O15 0.757793 0.512454 0.007697
O O16 0.000000 0.605723 0.835933
O O17 0.500000 0.226361 0.602315
O O18 0.748382 0.140720 0.563346
O O19 0.000000 0.048392 0.177896
O O20 0.000000 0.405029 0.004123
#
# Coordination Sequence:
#
# PCOD9351280 Si02
#       8
#     8   8   8   8   8   8   8   8
#     4  10  19  35  59  88 123 159 196 249 308 361
#     4  11  24  42  62  87 124 167 212 257 303 362
#     4  10  21  39  62  91 125 159 203 254 311 367
#     4  10  20  36  59  87 117 154 200 245 297 365
#     4  11  23  40  62  91 124 162 206 252 307 370
#     4  10  21  36  58  88 119 157 200 247 303 361
#     4   8  16  32  55  84 119 151 184 240 302 358
#     4  10  23  42  59  84 123 159 199 252 301 352
#
# _framework density 22.177975
#
# number of rings (size 3 to 8) (size 9 to 14) (size 15 to 20)
#    0.000    2.000    1.250    3.000    1.750    2.500 
#    0.000    1.875    0.000    0.000    0.000    0.000 
#    0.000    0.000    0.000    0.000    0.000    0.000 
#
# Total GULP energy -178780.933106 kJ/mol
# GULP energy per Si atom -5586.904160 kJ/mol
# Density = 2.212750 g / cm^3
# Si number density = 22.177975 Si / 1000 Ang^3
#
#
#
# Elastic Constant Matrix: (Units=GPa)
#
#
# Indices 1 2 3 4 5 6 
#
# 1 23.5335 -6.5198 -6.7831 0.0000 0.0000 0.0000
# 2 -6.5198 47.9969 -4.3615 0.0000 0.0000 0.0000
# 3 -6.7831 -4.3615 23.5238 0.0000 0.0000 0.0000
# 4 0.0000 0.0000 0.0000 27.7719 0.0000 0.0000
# 5 0.0000 0.0000 0.0000 0.0000 24.1392 0.0000
# 6 0.0000 0.0000 0.0000 0.0000 0.0000 24.0197
#
#
#
# Elastic Compliance Matrix: (Units=1/GPa)
#
#
# Indices 1 2 3 4 5 6 
#
# 1 0.049271 0.008121 0.015713 0.000000 0.000000 0.000000
# 2 0.008121 0.022530 0.006519 0.000000 0.000000 0.000000
# 3 0.015713 0.006519 0.048250 0.000000 0.000000 0.000000
# 4 0.000000 0.000000 0.000000 0.036008 0.000000 0.000000
# 5 0.000000 0.000000 0.000000 0.000000 0.041426 0.000000
# 6 0.000000 0.000000 0.000000 0.000000 0.000000 0.041632
#
#
# Mechanical properties :
#
#
# Convention : Reuss Voigt Hill
#
# Bulk Modulus (GPa) = 5.53229 6.63615 6.08422
# Shear Modulus (GPa) = 20.94991 22.70073 21.82532
#
# Velocity S-wave (km/s) = 3.07681 3.20280 3.14044
# Velocity P-wave (km/s) = 3.88874 4.08362 3.98737
#
# Compressibility (1/GPa) = 0.18075700
#
# Stress axis : x y z
#
# Youngs Moduli (GPa) = 20.29576 44.38492 20.72550
#
# Poissons Ratio (x) = -0.36044 -0.32566
# Poissons Ratio (y) = -0.16482 -0.13511
# Poissons Ratio (z) = -0.31891 -0.28934
#
# Static dielectric constant tensor:
#      x y z
#    x 1.760180 0.000000 0.000000 
#    y 0.000000 1.838680 0.000000 
#    z 0.000000 0.000000 1.842840 
# 
# From -- ./inp_files/16626.got.cif
#   From: 2010.05.17/outbox.cif.g08.bks.cpg/sg36_9_cif.got.tgz:16626.got - 2010.06.03 17:41:39.
