data_PCOD9351997
_publ_section_title
;
Structure prediction by ZEFSAII (Michael W. Deem and Ramdas Pophale) SiO2 
 PCOD9351997
Probable space group: C M C 21
;
_chemical_formula_sum "Si O2"
_cell_formula_units_Z 52
_cell_length_a 7.576528
_cell_length_b 14.384912
_cell_length_c 27.005869
_cell_angle_alpha 90.000000
_cell_angle_beta 90.000000
_cell_angle_gamma 90.000000
_cell_volume 2943.307239
_symmetry_space_group_name_H-M "C M C 21"
_symmetry_group_IT_number 36
_symmetry_cell_setting 'orthorhombic'
loop_
_space_group_symop_operation_xyz
x,y,z
-x,-y,1/2+z
x,-y,1/2+z
-x,y,z
1/2+x,1/2+y,z
1/2-x,1/2-y,1/2+z
1/2+x,1/2-y,1/2+z
1/2-x,1/2+y,z
loop_
_atom_site_type_symbol
_atom_site_label
_atom_site_fract_x
_atom_site_fract_y
_atom_site_fract_z
Si Si1 0.000000 0.016971 0.418320
Si Si2 0.798532 0.853593 0.461244
Si Si3 0.214975 0.262797 0.157948
Si Si4 0.000000 0.771541 0.914561
Si Si5 0.710789 0.622803 0.073085
Si Si6 0.794646 0.385912 0.737357
Si Si7 0.211209 0.526631 0.651614
Si Si8 0.500000 0.615831 0.319667
O O1 0.000000 0.031313 0.359185
O O2 0.000000 0.123423 0.437591
O O3 0.165240 0.954991 0.436815
O O4 0.669585 0.787205 0.431166
O O5 0.727103 0.867124 0.516950
O O6 0.000000 0.813978 0.463342
O O7 0.275644 0.202372 0.110693
O O8 0.278062 0.210283 0.207041
O O9 0.276370 0.368469 0.154288
O O10 0.000000 0.261101 0.158531
O O11 0.000000 0.794816 0.856059
O O12 0.500000 0.631204 0.070403
O O13 0.748077 0.525997 0.100578
O O14 0.728478 0.462780 0.697459
O O15 0.670244 0.385735 0.784749
O O16 0.000000 0.402885 0.749189
O O17 0.000000 0.529511 0.655667
#
# Coordination Sequence:
#
# PCOD9351997 Si02
#       8
#     4   8   8   4   8   8   8   4
#     4   8  22  44  58  90 122 148 213 259 296 372
#     4   9  20  42  60  89 124 155 205 257 300 372
#     4   9  17  34  54  84 122 152 190 236 283 365
#     4  10  22  42  65  84 117 164 198 263 317 341
#     4   9  18  32  56  79 119 156 183 238 297 338
#     4  10  20  38  57  81 115 155 191 243 302 349
#     4   9  19  32  52  85 119 151 194 230 285 368
#     4  10  22  44  57  82 117 152 201 262 305 351
#
# _framework density 17.667202
#
# number of rings (size 3 to 8) (size 9 to 14) (size 15 to 20)
#    0.923    1.846    0.769    0.000    2.154    2.462 
#    5.538    0.000    0.000    0.000    0.000    0.000 
#    0.000    0.000    0.000    0.000    0.000    0.000 
#
# Total GULP energy -144741.160889 kJ/mol
# GULP energy per Si atom -5566.967726 kJ/mol
# Density = 1.762699 g / cm^3
# Si number density = 17.667202 Si / 1000 Ang^3
#
#
#
# Elastic Constant Matrix: (Units=GPa)
#
#
# Indices 1 2 3 4 5 6 
#
# 1 75.4690 27.2304 38.8569 0.0000 0.0000 0.0000
# 2 27.2304 118.4777 42.7084 0.0000 0.0000 0.0000
# 3 38.8569 42.7084 133.0302 0.0000 0.0000 0.0000
# 4 0.0000 0.0000 0.0000 13.4339 0.0000 0.0000
# 5 0.0000 0.0000 0.0000 0.0000 20.7729 0.0000
# 6 0.0000 0.0000 0.0000 0.0000 0.0000 14.6309
#
#
#
# Elastic Compliance Matrix: (Units=1/GPa)
#
#
# Indices 1 2 3 4 5 6 
#
# 1 0.016118 -0.002270 -0.003979 0.000000 0.000000 0.000000
# 2 -0.002270 0.009865 -0.002504 0.000000 0.000000 0.000000
# 3 -0.003979 -0.002504 0.009483 0.000000 0.000000 0.000000
# 4 0.000000 0.000000 0.000000 0.074439 0.000000 0.000000
# 5 0.000000 0.000000 0.000000 0.000000 0.048140 0.000000
# 6 0.000000 0.000000 0.000000 0.000000 0.000000 0.068348
#
#
# Mechanical properties :
#
#
# Convention : Reuss Voigt Hill
#
# Bulk Modulus (GPa) = 55.67991 60.50760 58.09375
# Shear Modulus (GPa) = 20.00909 24.31294 22.16101
#
# Velocity S-wave (km/s) = 3.36900 3.71369 3.54554
# Velocity P-wave (km/s) = 6.83505 7.26027 7.05087
#
# Compressibility (1/GPa) = 0.01795980
#
# Stress axis : x y z
#
# Youngs Moduli (GPa) = 62.04098 101.37080 105.44910
#
# Poissons Ratio (x) = 0.23013 0.41960
# Poissons Ratio (y) = 0.14084 0.26404
# Poissons Ratio (z) = 0.24687 0.25382
#
# Static dielectric constant tensor:
#      x y z
#    x 1.624330 0.000000 0.000000 
#    y 0.000000 1.603110 0.000000 
#    z 0.000000 0.000000 1.591570 
# 
# From -- ./inp_files/16497.got.cif
#   From: 2010.05.17/outbox.cif.g08.bks.cpg/sg36_9_cif.got.tgz:16497.got - 2010.06.03 17:41:39.
