data_PCOD9351617
_publ_section_title
;
Structure prediction by ZEFSAII (Michael W. Deem and Ramdas Pophale) SiO2 
 PCOD9351617
Probable space group: C M C 21
;
_chemical_formula_sum "Si O2"
_cell_formula_units_Z 56
_cell_length_a 20.664664
_cell_length_b 11.377521
_cell_length_c 11.684485
_cell_angle_alpha 90.000000
_cell_angle_beta 90.000000
_cell_angle_gamma 90.000000
_cell_volume 2747.170216
_symmetry_space_group_name_H-M "C M C 21"
_symmetry_group_IT_number 36
_symmetry_cell_setting 'orthorhombic'
loop_
_space_group_symop_operation_xyz
x,y,z
-x,-y,1/2+z
x,-y,1/2+z
-x,y,z
1/2+x,1/2+y,z
1/2-x,1/2-y,1/2+z
1/2+x,1/2-y,1/2+z
1/2-x,1/2+y,z
loop_
_atom_site_type_symbol
_atom_site_label
_atom_site_fract_x
_atom_site_fract_y
_atom_site_fract_z
Si Si1 0.174281 0.178286 0.011380
Si Si2 0.075888 0.043611 0.843427
Si Si3 0.857556 0.818936 0.145673
Si Si4 0.228900 0.313940 0.813650
Si Si5 0.575016 0.725718 0.409019
Si Si6 0.743799 0.997389 0.648158
Si Si7 0.650133 0.174457 0.719863
O O1 0.137566 0.230848 0.120565
O O2 0.235052 0.103309 0.059273
O O3 0.125617 0.103126 0.933370
O O4 0.202574 0.286033 0.937777
O O5 0.093470 0.101083 0.720765
O O6 0.000000 0.066256 0.869846
O O7 0.085648 0.903227 0.851600
O O8 0.829774 0.716794 0.226999
O O9 0.796159 0.902457 0.123888
O O10 0.885873 0.774171 0.027186
O O11 0.254075 0.440505 0.774888
O O12 0.286379 0.223251 0.786624
O O13 0.500000 0.736627 0.436258
O O14 0.596261 0.822762 0.316564
O O15 0.673502 0.055801 0.658067
#
# Coordination Sequence:
#
# PCOD9351617 Si02
#       7
#     8   8   8   8   8   8   8
#     4  10  20  37  57  87 122 153 203 252 306 375
#     4  10  20  34  59  86 118 161 201 252 315 367
#     4  10  20  38  56  87 124 156 202 250 310 375
#     4   9  21  35  58  89 117 156 197 256 306 365
#     4  11  23  37  58  86 122 160 204 255 306 374
#     4  10  20  38  58  89 121 161 196 251 313 373
#     4  10  23  35  56  86 119 157 199 248 310 361
#
# _framework density 20.384611
#
# number of rings (size 3 to 8) (size 9 to 14) (size 15 to 20)
#    0.000    2.000    1.429    2.143    6.000    4.000 
#    0.000    0.000    0.000    4.286    0.000    0.000 
#    0.000    0.000    0.000    0.000    0.000    0.000 
#
# Total GULP energy -156235.582455 kJ/mol
# GULP energy per Si atom -5579.842231 kJ/mol
# Density = 2.033821 g / cm^3
# Si number density = 20.384611 Si / 1000 Ang^3
#
#
#
# Elastic Constant Matrix: (Units=GPa)
#
#
# Indices 1 2 3 4 5 6 
#
# 1 69.1288 19.4769 34.3541 0.0000 0.0000 0.0000
# 2 19.4769 46.6700 27.2107 0.0000 0.0000 0.0000
# 3 34.3541 27.2107 121.1228 0.0000 0.0000 0.0000
# 4 0.0000 0.0000 0.0000 22.9127 0.0000 0.0000
# 5 0.0000 0.0000 0.0000 0.0000 27.8995 0.0000
# 6 0.0000 0.0000 0.0000 0.0000 0.0000 22.4228
#
#
#
# Elastic Compliance Matrix: (Units=1/GPa)
#
#
# Indices 1 2 3 4 5 6 
#
# 1 0.017865 -0.005180 -0.003903 0.000000 0.000000 0.000000
# 2 -0.005180 0.026159 -0.004407 0.000000 0.000000 0.000000
# 3 -0.003903 -0.004407 0.010353 0.000000 0.000000 0.000000
# 4 0.000000 0.000000 0.000000 0.043644 0.000000 0.000000
# 5 0.000000 0.000000 0.000000 0.000000 0.035843 0.000000
# 6 0.000000 0.000000 0.000000 0.000000 0.000000 0.044597
#
#
# Mechanical properties :
#
#
# Convention : Reuss Voigt Hill
#
# Bulk Modulus (GPa) = 36.50227 44.33389 40.41808
# Shear Modulus (GPa) = 23.30195 25.03898 24.17047
#
# Velocity S-wave (km/s) = 3.38467 3.50855 3.44717
# Velocity P-wave (km/s) = 5.76370 6.18136 5.97618
#
# Compressibility (1/GPa) = 0.02739556
#
# Stress axis : x y z
#
# Youngs Moduli (GPa) = 55.97548 38.22848 96.58697
#
# Poissons Ratio (x) = 0.19801 0.37702
# Poissons Ratio (y) = 0.28994 0.42570
# Poissons Ratio (z) = 0.21849 0.16849
#
# Static dielectric constant tensor:
#      x y z
#    x 1.715830 0.000000 0.000000 
#    y 0.000000 1.780850 0.000000 
#    z 0.000000 0.000000 1.738820 
# 
# From -- ./inp_files/9221.got.cif
#   From: 2010.05.17/outbox.cif.g08.bks.cpg/sg36_5_cif.got.tgz:9221.got - 2010.06.03 17:41:39.
