data_PCOD9351240
_publ_section_title
;
Structure prediction by ZEFSAII (Michael W. Deem and Ramdas Pophale) SiO2 
 PCOD9351240
Probable space group: C M C 21
;
_chemical_formula_sum "Si O2"
_cell_formula_units_Z 64
_cell_length_a 7.839035
_cell_length_b 23.517115
_cell_length_c 16.706501
_cell_angle_alpha 90.000000
_cell_angle_beta 90.000000
_cell_angle_gamma 90.000000
_cell_volume 3079.868312
_symmetry_space_group_name_H-M "C M C 21"
_symmetry_group_IT_number 36
_symmetry_cell_setting 'orthorhombic'
loop_
_space_group_symop_operation_xyz
x,y,z
-x,-y,1/2+z
x,-y,1/2+z
-x,y,z
1/2+x,1/2+y,z
1/2-x,1/2-y,1/2+z
1/2+x,1/2-y,1/2+z
1/2-x,1/2+y,z
loop_
_atom_site_type_symbol
_atom_site_label
_atom_site_fract_x
_atom_site_fract_y
_atom_site_fract_z
Si Si1 0.194380 0.460027 0.660100
Si Si2 0.205967 0.236978 0.037199
Si Si3 0.793765 0.781607 0.860039
Si Si4 0.296276 0.423215 0.217491
Si Si5 0.793092 0.089459 0.332189
Si Si6 0.208216 0.973556 0.390008
Si Si7 0.693776 0.389244 0.519963
Si Si8 0.704349 0.791307 0.204878
O O1 0.226340 0.527640 0.659497
O O2 0.232074 0.434722 0.747426
O O3 0.310706 0.425177 0.600352
O O4 0.000000 0.448566 0.638453
O O5 0.271861 0.172209 0.034201
O O6 0.269025 0.266590 0.119450
O O7 0.000000 0.236779 0.044372
O O8 0.246538 0.263187 0.950206
O O9 0.733804 0.846577 0.846981
O O10 0.732958 0.741228 0.785975
O O11 0.000000 0.781276 0.856471
O O12 0.500000 0.425353 0.212210
O O13 0.245548 0.445703 0.305301
O O14 0.240698 0.358518 0.206904
O O15 0.000000 0.090744 0.331140
O O16 0.738440 0.039491 0.393346
O O17 0.277267 0.931222 0.456375
O O18 0.000000 0.974607 0.394774
O O19 0.500000 0.377952 0.491375
O O20 0.500000 0.783771 0.205459
#
# Coordination Sequence:
#
# PCOD9351240 Si02
#       8
#     8   8   8   8   8   8   8   8
#     4  11  22  35  54  83 113 141 177 229 281 329
#     4  10  22  38  57  82 116 154 194 236 282 337
#     4  10  21  37  59  84 116 155 193 234 283 334
#     4  10  20  37  59  81 105 140 184 228 277 340
#     4   9  18  36  57  79 109 147 187 225 272 334
#     4   8  16  31  55  81 102 131 180 230 268 319
#     4  10  19  35  56  78 108 148 187 224 272 332
#     4  10  21  37  55  80 115 154 190 234 287 335
#
# _framework density 20.780107999999998
#
# number of rings (size 3 to 8) (size 9 to 14) (size 15 to 20)
#    0.000    2.250    0.000    3.750    0.000    6.000 
#    0.000    5.625    0.000    0.000    0.000    0.000 
#    0.000    0.000    0.000    0.000    0.000    0.000 
#
# Total GULP energy -178436.039895 kJ/mol
# GULP energy per Si atom -5576.126247 kJ/mol
# Density = 2.073281 g / cm^3
# Si number density = 20.780108 Si / 1000 Ang^3
#
#
#
# Elastic Constant Matrix: (Units=GPa)
#
#
# Indices 1 2 3 4 5 6 
#
# 1 31.6869 10.0743 6.3931 0.0000 0.0000 0.0000
# 2 10.0743 191.2837 69.9876 0.0000 0.0000 0.0000
# 3 6.3931 69.9876 97.4390 0.0000 0.0000 0.0000
# 4 0.0000 0.0000 0.0000 32.3511 0.0000 0.0000
# 5 0.0000 0.0000 0.0000 0.0000 18.8665 0.0000
# 6 0.0000 0.0000 0.0000 0.0000 0.0000 -6.8629
#
#
#
# Elastic Compliance Matrix: (Units=1/GPa)
#
#
# Indices 1 2 3 4 5 6 
#
# 1 0.032202 -0.001252 -0.001214 0.000000 0.000000 0.000000
# 2 -0.001252 0.007140 -0.005046 0.000000 0.000000 0.000000
# 3 -0.001214 -0.005046 0.013967 0.000000 0.000000 0.000000
# 4 0.000000 0.000000 0.000000 0.030911 0.000000 0.000000
# 5 0.000000 0.000000 0.000000 0.000000 0.053004 0.000000
# 6 0.000000 0.000000 0.000000 0.000000 0.000000 -0.145710
#
#
# Mechanical properties :
#
#
# Convention : Reuss Voigt Hill
#
# Bulk Modulus (GPa) = 26.11983 54.81332 40.46658
# Shear Modulus (GPa) = 259.07960 24.46791 141.77376
#
# Velocity S-wave (km/s) = 11.17799 3.43515 8.26885
# Velocity P-wave (km/s) = 13.38632 6.49374 10.52051
#
# Compressibility (1/GPa) = 0.03828508
#
# Stress axis : x y z
#
# Youngs Moduli (GPa) = 31.05432 140.05235 71.59645
#
# Poissons Ratio (x) = 0.17534 0.08689
# Poissons Ratio (y) = 0.03888 0.36131
# Poissons Ratio (z) = 0.03769 0.70677
#
# Static dielectric constant tensor:
#      x y z
#    x 1.708190 0.000000 0.000000 
#    y 0.000000 1.744410 0.000000 
#    z 0.000000 0.000000 1.750640 
# 
# From -- ./inp_files/11037.got.cif
#   From: 2010.05.17/outbox.cif.g08.bks.cpg/sg36_6_cif.got.tgz:11037.got - 2010.06.03 17:41:39.
