data_PCOD9351494
_publ_section_title
;
Structure prediction by ZEFSAII (Michael W. Deem and Ramdas Pophale) SiO2 
 PCOD9351494
Probable space group: C M C 21
;
_chemical_formula_sum "Si O2"
_cell_formula_units_Z 64
_cell_length_a 7.362086
_cell_length_b 33.854138
_cell_length_c 10.602790
_cell_angle_alpha 90.000000
_cell_angle_beta 90.000000
_cell_angle_gamma 90.000000
_cell_volume 2642.608371
_symmetry_space_group_name_H-M "C M C 21"
_symmetry_group_IT_number 36
_symmetry_cell_setting 'orthorhombic'
loop_
_space_group_symop_operation_xyz
x,y,z
-x,-y,1/2+z
x,-y,1/2+z
-x,y,z
1/2+x,1/2+y,z
1/2-x,1/2-y,1/2+z
1/2+x,1/2-y,1/2+z
1/2-x,1/2+y,z
loop_
_atom_site_type_symbol
_atom_site_label
_atom_site_fract_x
_atom_site_fract_y
_atom_site_fract_z
Si Si1 0.794261 0.995614 0.539430
Si Si2 0.723805 0.458951 0.797544
Si Si3 0.787739 0.666143 0.033261
Si Si4 0.279351 0.913731 0.411823
Si Si5 0.286831 0.207891 0.763980
Si Si6 0.297301 0.705187 0.284963
Si Si7 0.789045 0.876128 0.871482
Si Si8 0.219728 0.626969 0.654277
O O1 0.715778 0.985163 0.677595
O O2 0.795766 0.954074 0.464987
O O3 0.000000 0.009502 0.562482
O O4 0.713798 0.024386 0.433156
O O5 0.500000 0.459548 0.796423
O O6 0.782815 0.413121 0.791668
O O7 0.690850 0.688479 0.144139
O O8 0.000000 0.663744 0.067924
O O9 0.722772 0.622324 0.001802
O O10 0.776263 0.689994 0.903584
O O11 0.500000 0.915832 0.413270
O O12 0.224128 0.900989 0.270403
O O13 0.500000 0.212600 0.728210
O O14 0.208594 0.251846 0.771487
O O15 0.214719 0.172110 0.677995
O O16 0.500000 0.711809 0.340676
O O17 0.209224 0.667847 0.356167
O O18 0.778296 0.887173 0.018001
O O19 0.000000 0.871900 0.835398
O O20 0.000000 0.628033 0.658692
#
# Coordination Sequence:
#
# PCOD9351494 Si02
#       8
#     8   8   8   8   8   8   8   8
#     4  10  20  36  60  84 109 146 185 223 271 332
#     4   9  20  36  55  83 116 145 180 227 280 330
#     4   9  18  34  54  73 100 138 176 214 265 329
#     4   9  19  36  56  79 107 140 178 224 274 321
#     4   8  17  34  52  73 105 142 175 217 272 322
#     4  10  20  33  52  77 107 140 175 224 273 314
#     4  10  21  35  53  80 113 143 179 228 280 324
#     4   9  19  36  56  77 107 146 184 221 271 330
#
# _framework density 24.218494
#
# number of rings (size 3 to 8) (size 9 to 14) (size 15 to 20)
#    0.000    2.750    0.000    2.250    3.500    2.500 
#    0.000    4.375    0.000    0.000    0.000    0.000 
#    0.000    0.000    0.000    0.000    0.000    0.000 
#
# Total GULP energy -178662.859532 kJ/mol
# GULP energy per Si atom -5583.214360 kJ/mol
# Density = 2.416337 g / cm^3
# Si number density = 24.218494 Si / 1000 Ang^3
#
#
#
# Elastic Constant Matrix: (Units=GPa)
#
#
# Indices 1 2 3 4 5 6 
#
# 1 88.4894 0.9999 0.0610 0.0000 0.0000 0.0000
# 2 0.9999 95.7831 24.3560 0.0000 0.0000 0.0000
# 3 0.0610 24.3560 98.6009 0.0000 0.0000 0.0000
# 4 0.0000 0.0000 0.0000 9.0631 0.0000 0.0000
# 5 0.0000 0.0000 0.0000 0.0000 29.2996 0.0000
# 6 0.0000 0.0000 0.0000 0.0000 0.0000 -0.8495
#
#
#
# Elastic Compliance Matrix: (Units=1/GPa)
#
#
# Indices 1 2 3 4 5 6 
#
# 1 0.011302 -0.000124 0.000024 0.000000 0.000000 0.000000
# 2 -0.000124 0.011141 -0.002752 0.000000 0.000000 0.000000
# 3 0.000024 -0.002752 0.010822 0.000000 0.000000 0.000000
# 4 0.000000 0.000000 0.000000 0.110337 0.000000 0.000000
# 5 0.000000 0.000000 0.000000 0.000000 0.034130 0.000000
# 6 0.000000 0.000000 0.000000 0.000000 0.000000 -1.177132
#
#
# Mechanical properties :
#
#
# Convention : Reuss Voigt Hill
#
# Bulk Modulus (GPa) = 36.28388 37.07857 36.68122
# Shear Modulus (GPa) = -5.07868 24.66641 9.79387
#
# Velocity S-wave (km/s) = -1.44968 3.19485 2.01314
# Velocity P-wave (km/s) = 3.49461 5.38077 4.53679
#
# Compressibility (1/GPa) = 0.02756045
#
# Stress axis : x y z
#
# Youngs Moduli (GPa) = 88.47851 89.75577 92.40718
#
# Poissons Ratio (x) = 0.01113 -0.00218
# Poissons Ratio (y) = 0.01097 0.25431
# Poissons Ratio (z) = -0.00209 0.24701
#
# Static dielectric constant tensor:
#      x y z
#    x 1.926260 0.000000 0.000000 
#    y 0.000000 1.963310 0.000000 
#    z 0.000000 0.000000 1.900080 
# 
# From -- ./inp_files/3580.got.cif
#   From: 2010.05.17/outbox.cif.g08.bks.cpg/sg36_2_cif.got.tgz:3580.got - 2010.06.03 17:41:39.
