data_PCOD9351230
_publ_section_title
;
Structure prediction by ZEFSAII (Michael W. Deem and Ramdas Pophale) SiO2 
 PCOD9351230
Probable space group: C M C 21
;
_chemical_formula_sum "Si O2"
_cell_formula_units_Z 32
_cell_length_a 13.973783
_cell_length_b 26.516341
_cell_length_c 5.211225
_cell_angle_alpha 90.000000
_cell_angle_beta 90.000000
_cell_angle_gamma 90.000000
_cell_volume 1930.933934
_symmetry_space_group_name_H-M "C M C 21"
_symmetry_group_IT_number 36
_symmetry_cell_setting 'orthorhombic'
loop_
_space_group_symop_operation_xyz
x,y,z
-x,-y,1/2+z
x,-y,1/2+z
-x,y,z
1/2+x,1/2+y,z
1/2-x,1/2-y,1/2+z
1/2+x,1/2-y,1/2+z
1/2-x,1/2+y,z
loop_
_atom_site_type_symbol
_atom_site_label
_atom_site_fract_x
_atom_site_fract_y
_atom_site_fract_z
Si Si1 0.715015 0.138721 0.221420
Si Si2 0.607443 0.227922 0.993822
Si Si3 0.613132 0.033227 0.142505
Si Si4 0.216646 0.185827 0.733225
O O1 0.629137 0.178824 0.168666
O O2 0.675412 0.083074 0.181229
O O3 0.757394 0.149100 0.500031
O O4 0.789355 0.155219 0.998043
O O5 0.500000 0.227226 0.895149
O O6 0.630717 0.278045 0.153672
O O7 0.690517 0.222472 0.778936
O O8 0.500000 0.046594 0.153497
O O9 0.631213 0.993676 0.371307
#
# Coordination Sequence:
#
# PCOD9351230 Si02
#       4
#     8   8   8   8
#     4  10  19  35  49  69 105 135 168 204 250 294
#     4  10  20  34  53  73 105 142 166 208 256 294
#     4  10  20  32  47  71  98 129 173 209 242 302
#     4  10  20  35  47  77 102 132 179 207 232 318
#
# _framework density 16.572292999999998
#
# number of rings (size 3 to 8) (size 9 to 14) (size 15 to 20)
#    1.500    0.500    2.500    2.250    0.000    2.000 
#    0.000    0.000    0.000    0.000    0.000    0.000 
#    0.000   20.000    0.000    0.000    0.000    0.000 
#
# Total GULP energy -89080.541782 kJ/mol
# GULP energy per Si atom -5567.533861 kJ/mol
# Density = 1.653457 g / cm^3
# Si number density = 16.572293 Si / 1000 Ang^3
#
#
#
# Elastic Constant Matrix: (Units=GPa)
#
#
# Indices 1 2 3 4 5 6 
#
# 1 22.4934 -0.7583 -6.7804 0.0000 0.0000 0.0000
# 2 -0.7583 59.6556 -8.6115 0.0000 0.0000 0.0000
# 3 -6.7804 -8.6115 67.3612 0.0000 0.0000 0.0000
# 4 0.0000 0.0000 0.0000 18.7995 0.0000 0.0000
# 5 0.0000 0.0000 0.0000 0.0000 10.5099 0.0000
# 6 0.0000 0.0000 0.0000 0.0000 0.0000 18.4205
#
#
#
# Elastic Compliance Matrix: (Units=1/GPa)
#
#
# Indices 1 2 3 4 5 6 
#
# 1 0.045944 0.001275 0.004788 0.000000 0.000000 0.000000
# 2 0.001275 0.017113 0.002316 0.000000 0.000000 0.000000
# 3 0.004788 0.002316 0.015623 0.000000 0.000000 0.000000
# 4 0.000000 0.000000 0.000000 0.053193 0.000000 0.000000
# 5 0.000000 0.000000 0.000000 0.000000 0.095149 0.000000
# 6 0.000000 0.000000 0.000000 0.000000 0.000000 0.054287
#
#
# Mechanical properties :
#
#
# Convention : Reuss Voigt Hill
#
# Bulk Modulus (GPa) = 10.47799 13.02331 11.75065
# Shear Modulus (GPa) = 16.87111 20.58998 18.73054
#
# Velocity S-wave (km/s) = 3.19412 3.52864 3.36554
# Velocity P-wave (km/s) = 4.46537 4.94745 4.71258
#
# Compressibility (1/GPa) = 0.09543814
#
# Stress axis : x y z
#
# Youngs Moduli (GPa) = 21.76576 58.43360 64.00679
#
# Poissons Ratio (x) = -0.07451 -0.30644
# Poissons Ratio (y) = -0.02775 -0.14825
# Poissons Ratio (z) = -0.10421 -0.13534
#
# Static dielectric constant tensor:
#      x y z
#    x 1.534300 0.000000 0.000000 
#    y 0.000000 1.546550 0.000000 
#    z 0.000000 0.000000 1.583890 
# 
# From -- ./inp_files/437.got.cif
#   From: 2010.05.17/outbox.cif.g08.bks.cpg/sg36_1_cif.got.tgz:437.got - 2010.06.03 17:41:39.
