data_PCOD9351509
_publ_section_title
;
Structure prediction by ZEFSAII (Michael W. Deem and Ramdas Pophale) SiO2 
 PCOD9351509
Probable space group: C M C 21
;
_chemical_formula_sum "Si O2"
_cell_formula_units_Z 64
_cell_length_a 7.400012
_cell_length_b 20.432161
_cell_length_c 19.084855
_cell_angle_alpha 90.000000
_cell_angle_beta 90.000000
_cell_angle_gamma 90.000000
_cell_volume 2885.596421
_symmetry_space_group_name_H-M "C M C 21"
_symmetry_group_IT_number 36
_symmetry_cell_setting 'orthorhombic'
loop_
_space_group_symop_operation_xyz
x,y,z
-x,-y,1/2+z
x,-y,1/2+z
-x,y,z
1/2+x,1/2+y,z
1/2-x,1/2-y,1/2+z
1/2+x,1/2-y,1/2+z
1/2-x,1/2+y,z
loop_
_atom_site_type_symbol
_atom_site_label
_atom_site_fract_x
_atom_site_fract_y
_atom_site_fract_z
Si Si1 0.720744 0.633459 0.681590
Si Si2 0.778714 0.973076 0.292822
Si Si3 0.220303 0.818338 0.908555
Si Si4 0.220043 0.079954 0.530561
Si Si5 0.283383 0.804903 0.491263
Si Si6 0.715100 0.776106 0.647182
Si Si7 0.783780 0.118644 0.263804
Si Si8 0.714846 0.453938 0.451623
O O1 0.500000 0.633059 0.683224
O O2 0.780730 0.587290 0.744857
O O3 0.777936 0.602802 0.607168
O O4 0.781533 0.708900 0.682508
O O5 0.717263 0.966260 0.372989
O O6 0.000000 0.972241 0.292812
O O7 0.720630 0.043624 0.263184
O O8 0.280955 0.746444 0.932681
O O9 0.283902 0.843979 0.833380
O O10 0.000000 0.818315 0.906064
O O11 0.271772 0.868730 0.970096
O O12 0.000000 0.080403 0.532879
O O13 0.282234 0.008325 0.506168
O O14 0.500000 0.798076 0.493225
O O15 0.214094 0.785616 0.568408
O O16 0.244764 0.879827 0.474345
O O17 0.500000 0.768146 0.640371
O O18 0.745835 0.838799 0.695464
O O19 0.000000 0.115142 0.270461
O O20 0.500000 0.464360 0.447984
#
# Coordination Sequence:
#
# PCOD9351509 Si02
#       8
#     8   8   8   8   8   8   8   8
#     4   9  17  30  50  74 102 137 174 210 254 310
#     4   9  18  32  50  77 108 134 166 213 264 309
#     4   9  16  32  54  73  97 135 177 211 248 307
#     4   9  15  29  53  76  96 130 179 217 248 298
#     4  10  21  36  53  74 105 143 178 209 253 315
#     4  10  21  36  53  75 105 142 178 210 251 315
#     4  10  20  34  55  80 106 134 170 219 268 308
#     4  10  20  33  54  83 107 129 170 227 268 296
#
# _framework density 22.179123000000001
#
# number of rings (size 3 to 8) (size 9 to 14) (size 15 to 20)
#    0.000    2.500    2.500    0.000    3.500    0.500 
#    0.000    0.625    0.000    2.250    0.000    0.000 
#    0.000    0.000    0.000    0.000    0.000    0.000 
#
# Total GULP energy -178792.462902 kJ/mol
# GULP energy per Si atom -5587.264466 kJ/mol
# Density = 2.212864 g / cm^3
# Si number density = 22.179123 Si / 1000 Ang^3
#
#
#
# Elastic Constant Matrix: (Units=GPa)
#
#
# Indices 1 2 3 4 5 6 
#
# 1 71.5139 -4.3003 0.2066 0.0000 0.0000 0.0000
# 2 -4.3003 156.1656 21.2786 0.0000 0.0000 0.0000
# 3 0.2066 21.2786 49.1023 0.0000 0.0000 0.0000
# 4 0.0000 0.0000 0.0000 45.4892 0.0000 0.0000
# 5 0.0000 0.0000 0.0000 0.0000 -3.4928 0.0000
# 6 0.0000 0.0000 0.0000 0.0000 0.0000 16.9904
#
#
#
# Elastic Compliance Matrix: (Units=1/GPa)
#
#
# Indices 1 2 3 4 5 6 
#
# 1 0.014009 0.000419 -0.000240 0.000000 0.000000 0.000000
# 2 0.000419 0.006818 -0.002956 0.000000 0.000000 0.000000
# 3 -0.000240 -0.002956 0.021648 0.000000 0.000000 0.000000
# 4 0.000000 0.000000 0.000000 0.021983 0.000000 0.000000
# 5 0.000000 0.000000 0.000000 0.000000 -0.286306 0.000000
# 6 0.000000 0.000000 0.000000 0.000000 0.000000 0.058857
#
#
# Mechanical properties :
#
#
# Convention : Reuss Voigt Hill
#
# Bulk Modulus (GPa) = 27.08661 34.57240 30.82950
# Shear Modulus (GPa) = -34.45217 29.10383 -2.67417
#
# Velocity S-wave (km/s) = -3.94555 3.62638 -1.09924
# Velocity P-wave (km/s) = 2.91843 5.75811 3.50989
#
# Compressibility (1/GPa) = 0.03691861
#
# Stress axis : x y z
#
# Youngs Moduli (GPa) = 71.38186 146.67494 46.19412
#
# Poissons Ratio (x) = -0.06138 0.01110
# Poissons Ratio (y) = -0.02987 0.13656
# Poissons Ratio (z) = 0.01715 0.43361
#
# Static dielectric constant tensor:
#      x y z
#    x 1.891330 0.000000 0.000000 
#    y 0.000000 1.789640 0.000000 
#    z 0.000000 0.000000 1.767480 
# 
# From -- ./inp_files/14451.got.cif
#   From: 2010.05.17/outbox.cif.g08.bks.cpg/sg36_8_cif.got.tgz:14451.got - 2010.06.03 17:41:39.
