data_PCOD9351195
_publ_section_title
;
Structure prediction by ZEFSAII (Michael W. Deem and Ramdas Pophale) SiO2 
 PCOD9351195
Probable space group: C M C 21
;
_chemical_formula_sum "Si O2"
_cell_formula_units_Z 64
_cell_length_a 9.127347
_cell_length_b 15.886196
_cell_length_c 19.661253
_cell_angle_alpha 90.000000
_cell_angle_beta 90.000000
_cell_angle_gamma 90.000000
_cell_volume 2850.858552
_symmetry_space_group_name_H-M "C M C 21"
_symmetry_group_IT_number 36
_symmetry_cell_setting 'orthorhombic'
loop_
_space_group_symop_operation_xyz
x,y,z
-x,-y,1/2+z
x,-y,1/2+z
-x,y,z
1/2+x,1/2+y,z
1/2-x,1/2-y,1/2+z
1/2+x,1/2-y,1/2+z
1/2-x,1/2+y,z
loop_
_atom_site_type_symbol
_atom_site_label
_atom_site_fract_x
_atom_site_fract_y
_atom_site_fract_z
Si Si1 0.322553 0.223156 0.568690
Si Si2 0.342925 0.882250 0.893275
Si Si3 0.336484 0.364040 0.677444
Si Si4 0.831918 0.881303 0.339748
Si Si5 0.831718 0.537674 0.540785
Si Si6 0.822226 0.633611 0.984458
Si Si7 0.662198 0.009245 0.254533
Si Si8 0.156946 0.228659 0.319804
O O1 0.500000 0.220312 0.559183
O O2 0.292649 0.282960 0.633302
O O3 0.272210 0.125208 0.573453
O O4 0.247619 0.278499 0.509408
O O5 0.500000 0.835298 0.898629
O O6 0.349978 0.934240 0.823168
O O7 0.197648 0.827812 0.884239
O O8 0.334733 0.937202 0.960571
O O9 0.500000 0.392283 0.655278
O O10 0.221537 0.438794 0.690114
O O11 0.351898 0.328124 0.753704
O O12 0.737022 0.886939 0.408985
O O13 0.794117 0.789152 0.312718
O O14 0.000000 0.896150 0.355800
O O15 0.777219 0.941077 0.279656
O O16 0.770734 0.442280 0.535636
O O17 0.000000 0.529978 0.564640
O O18 0.000000 0.635880 0.985141
O O19 0.500000 0.974535 0.240821
O O20 0.000000 0.272712 0.328076
#
# Coordination Sequence:
#
# PCOD9351195 Si02
#       8
#     8   8   8   8   8   8   8   8
#     4  10  21  40  63  87 120 164 204 247 301 362
#     4   9  16  31  54  80 109 145 185 232 293 354
#     4   9  20  39  59  82 117 156 200 242 292 359
#     4  12  23  36  56  86 121 155 192 244 310 369
#     4   9  18  35  59  83 115 155 196 240 298 358
#     4  11  22  39  61  92 125 157 204 257 303 363
#     4  10  19  34  58  83 112 150 191 240 295 352
#     4  10  20  34  54  83 115 152 194 242 292 353
#
# _framework density 22.449376999999998
#
# number of rings (size 3 to 8) (size 9 to 14) (size 15 to 20)
#    0.000    2.000    1.250    3.000    0.000    2.500 
#    2.250    1.250    0.000    0.000    0.000    0.000 
#    0.000    0.000    0.000    0.000    0.000    0.000 
#
# Total GULP energy -178330.448390 kJ/mol
# GULP energy per Si atom -5572.826512 kJ/mol
# Density = 2.239828 g / cm^3
# Si number density = 22.449377 Si / 1000 Ang^3
#
#
#
# Elastic Constant Matrix: (Units=GPa)
#
#
# Indices 1 2 3 4 5 6 
#
# 1 66.0771 9.2589 -1.1748 0.0000 0.0000 0.0000
# 2 9.2589 50.1713 -28.6456 0.0000 0.0000 0.0000
# 3 -1.1748 -28.6456 31.9006 0.0000 0.0000 0.0000
# 4 0.0000 0.0000 0.0000 20.5105 0.0000 0.0000
# 5 0.0000 0.0000 0.0000 0.0000 17.2642 0.0000
# 6 0.0000 0.0000 0.0000 0.0000 0.0000 21.7590
#
#
#
# Elastic Compliance Matrix: (Units=1/GPa)
#
#
# Indices 1 2 3 4 5 6 
#
# 1 0.015803 -0.005303 -0.004180 0.000000 0.000000 0.000000
# 2 -0.005303 0.042682 0.038131 0.000000 0.000000 0.000000
# 3 -0.004180 0.038131 0.065434 0.000000 0.000000 0.000000
# 4 0.000000 0.000000 0.000000 0.048756 0.000000 0.000000
# 5 0.000000 0.000000 0.000000 0.000000 0.057923 0.000000
# 6 0.000000 0.000000 0.000000 0.000000 0.000000 0.045958
#
#
# Mechanical properties :
#
#
# Convention : Reuss Voigt Hill
#
# Bulk Modulus (GPa) = 5.51827 11.89175 8.70501
# Shear Modulus (GPa) = 17.87870 23.15411 20.51641
#
# Velocity S-wave (km/s) = 2.82512 3.21501 3.02635
# Velocity P-wave (km/s) = 3.62011 4.36926 4.01220
#
# Compressibility (1/GPa) = 0.18121615
#
# Stress axis : x y z
#
# Youngs Moduli (GPa) = 63.28096 23.42928 15.28259
#
# Poissons Ratio (x) = 0.12424 0.06388
# Poissons Ratio (y) = 0.33556 -0.58274
# Poissons Ratio (z) = 0.26449 -0.89339
#
# Static dielectric constant tensor:
#      x y z
#    x 1.865380 0.000000 0.000000 
#    y 0.000000 1.945560 0.000000 
#    z 0.000000 0.000000 1.848060 
# 
# From -- ./inp_files/15733.got.cif
#   From: 2010.05.17/outbox.cif.g08.bks.cpg/sg36_8_cif.got.tgz:15733.got - 2010.06.03 17:41:39.
