data_PCOD9351184
_publ_section_title
;
Structure prediction by ZEFSAII (Michael W. Deem and Ramdas Pophale) SiO2 
 PCOD9351184
Probable space group: C M C 21
;
_chemical_formula_sum "Si O2"
_cell_formula_units_Z 64
_cell_length_a 8.421691
_cell_length_b 22.244999
_cell_length_c 14.458442
_cell_angle_alpha 90.000000
_cell_angle_beta 90.000000
_cell_angle_gamma 90.000000
_cell_volume 2708.651867
_symmetry_space_group_name_H-M "C M C 21"
_symmetry_group_IT_number 36
_symmetry_cell_setting 'orthorhombic'
loop_
_space_group_symop_operation_xyz
x,y,z
-x,-y,1/2+z
x,-y,1/2+z
-x,y,z
1/2+x,1/2+y,z
1/2-x,1/2-y,1/2+z
1/2+x,1/2-y,1/2+z
1/2-x,1/2+y,z
loop_
_atom_site_type_symbol
_atom_site_label
_atom_site_fract_x
_atom_site_fract_y
_atom_site_fract_z
Si Si1 0.813842 0.534394 0.695180
Si Si2 0.311702 0.977020 0.875809
Si Si3 0.185361 0.718995 0.327156
Si Si4 0.186905 0.902359 0.026719
Si Si5 0.313353 0.407823 0.481664
Si Si6 0.692699 0.842776 0.645894
Si Si7 0.317053 0.841629 0.309695
Si Si8 0.811303 0.226998 0.533083
O O1 0.762918 0.483920 0.769013
O O2 0.720323 0.546476 0.602027
O O3 0.796324 0.596901 0.752684
O O4 0.000000 0.525792 0.672489
O O5 0.500000 0.989187 0.877605
O O6 0.225171 0.028394 0.935385
O O7 0.274763 0.916921 0.931186
O O8 0.241131 0.670611 0.251267
O O9 0.207451 0.785677 0.282880
O O10 0.275499 0.724228 0.423905
O O11 0.000000 0.708705 0.345812
O O12 0.000000 0.898834 0.008886
O O13 0.245415 0.838530 0.066484
O O14 0.500000 0.396292 0.476054
O O15 0.254426 0.398651 0.586228
O O16 0.221387 0.361027 0.415136
O O17 0.500000 0.845382 0.645886
O O18 0.752574 0.784493 0.587292
O O19 0.500000 0.822893 0.302005
O O20 0.000000 0.229961 0.546270
#
# Coordination Sequence:
#
# PCOD9351184 Si02
#       8
#     8   8   8   8   8   8   8   8
#     4   9  20  38  62  90 116 157 206 248 301 363
#     4  10  22  42  65  88 119 159 200 249 306 363
#     4  11  22  35  56  88 120 158 204 245 293 358
#     4  11  23  40  63  92 123 160 203 254 305 357
#     4  11  21  35  59  88 114 147 197 250 296 351
#     4  10  21  38  58  84 122 163 197 241 303 362
#     4  10  19  34  57  84 119 158 195 244 299 350
#     4  10  22  40  60  84 123 166 198 243 305 360
#
# _framework density 23.627991000000002
#
# number of rings (size 3 to 8) (size 9 to 14) (size 15 to 20)
#    0.000    1.750    1.250    4.125    0.000    6.000 
#    2.250    0.000    0.000    0.000    0.000    0.000 
#    0.000    0.000    0.000    0.000    0.000    0.000 
#
# Total GULP energy -178935.534245 kJ/mol
# GULP energy per Si atom -5591.735445 kJ/mol
# Density = 2.357421 g / cm^3
# Si number density = 23.627991 Si / 1000 Ang^3
#
#
#
# Elastic Constant Matrix: (Units=GPa)
#
#
# Indices 1 2 3 4 5 6 
#
# 1 24.5005 -1.9594 5.5167 0.0000 0.0000 0.0000
# 2 -1.9594 44.4348 8.7597 0.0000 0.0000 0.0000
# 3 5.5167 8.7597 101.4363 0.0000 0.0000 0.0000
# 4 0.0000 0.0000 0.0000 41.4700 0.0000 0.0000
# 5 0.0000 0.0000 0.0000 0.0000 22.5851 0.0000
# 6 0.0000 0.0000 0.0000 0.0000 0.0000 22.8038
#
#
#
# Elastic Compliance Matrix: (Units=1/GPa)
#
#
# Indices 1 2 3 4 5 6 
#
# 1 0.041555 0.002317 -0.002460 0.000000 0.000000 0.000000
# 2 0.002317 0.023024 -0.002114 0.000000 0.000000 0.000000
# 3 -0.002460 -0.002114 0.010175 0.000000 0.000000 0.000000
# 4 0.000000 0.000000 0.000000 0.024114 0.000000 0.000000
# 5 0.000000 0.000000 0.000000 0.000000 0.044277 0.000000
# 6 0.000000 0.000000 0.000000 0.000000 0.000000 0.043852
#
#
# Mechanical properties :
#
#
# Convention : Reuss Voigt Hill
#
# Bulk Modulus (GPa) = 14.23702 21.66728 17.95215
# Shear Modulus (GPa) = 23.26407 27.90876 25.58641
#
# Velocity S-wave (km/s) = 3.14123 3.44055 3.29429
# Velocity P-wave (km/s) = 4.38121 4.99732 4.69938
#
# Compressibility (1/GPa) = 0.07023940
#
# Stress axis : x y z
#
# Youngs Moduli (GPa) = 24.06463 43.43315 98.28224
#
# Poissons Ratio (x) = -0.10065 0.24178
# Poissons Ratio (y) = -0.05577 0.20780
# Poissons Ratio (z) = 0.05920 0.09183
#
# Static dielectric constant tensor:
#      x y z
#    x 1.802490 0.000000 0.000000 
#    y 0.000000 1.985550 0.000000 
#    z 0.000000 0.000000 1.914650 
# 
# From -- ./inp_files/11108.got.cif
#   From: 2010.05.17/outbox.cif.g08.bks.cpg/sg36_6_cif.got.tgz:11108.got - 2010.06.03 17:41:39.
