data_PCOD9351596
_publ_section_title
;
Structure prediction by ZEFSAII (Michael W. Deem and Ramdas Pophale) SiO2 
 PCOD9351596
Probable space group: C M C 21
;
_chemical_formula_sum "Si O2"
_cell_formula_units_Z 48
_cell_length_a 7.880767
_cell_length_b 29.099383
_cell_length_c 8.190091
_cell_angle_alpha 90.000000
_cell_angle_beta 90.000000
_cell_angle_gamma 90.000000
_cell_volume 1878.196364
_symmetry_space_group_name_H-M "C M C 21"
_symmetry_group_IT_number 36
_symmetry_cell_setting 'orthorhombic'
loop_
_space_group_symop_operation_xyz
x,y,z
-x,-y,1/2+z
x,-y,1/2+z
-x,y,z
1/2+x,1/2+y,z
1/2-x,1/2-y,1/2+z
1/2+x,1/2-y,1/2+z
1/2-x,1/2+y,z
loop_
_atom_site_type_symbol
_atom_site_label
_atom_site_fract_x
_atom_site_fract_y
_atom_site_fract_z
Si Si1 0.705556 0.596037 0.613400
Si Si2 0.810306 0.491888 0.944943
Si Si3 0.197586 0.180573 0.420321
Si Si4 0.798671 0.733701 0.741282
Si Si5 0.794433 0.150199 0.941444
Si Si6 0.193211 0.068544 0.145811
O O1 0.500000 0.593202 0.607355
O O2 0.780471 0.546258 0.585214
O O3 0.765799 0.630758 0.469587
O O4 0.752725 0.620297 0.781636
O O5 0.781159 0.461874 0.783406
O O6 0.000000 0.509800 0.948959
O O7 0.694066 0.535332 0.986184
O O8 0.268658 0.215769 0.287165
O O9 0.208627 0.208845 0.590960
O O10 0.000000 0.174465 0.378569
O O11 0.773394 0.700446 0.898474
O O12 0.000000 0.736239 0.705420
O O13 0.000000 0.153228 0.949738
O O14 0.739025 0.118475 0.092927
O O15 0.000000 0.074590 0.201061
#
# Coordination Sequence:
#
# PCOD9351596 Si02
#       6
#     8   8   8   8   8   8
#     4   9  18  37  60  80 109 150 192 229 273 337
#     4  12  25  39  58  88 119 144 181 238 290 325
#     4   9  20  37  55  79 112 149 188 228 272 330
#     4  10  20  34  56  84 112 145 185 231 281 327
#     4   9  20  38  60  83 109 145 188 231 274 329
#     4  11  23  41  63  84 111 153 194 223 270 344
#
# _framework density 25.556433999999999
#
# number of rings (size 3 to 8) (size 9 to 14) (size 15 to 20)
#    0.000    2.000    0.000    4.500    0.000    8.000 
#    0.000    5.000    0.000    0.000    0.000    0.000 
#    0.000    0.000    0.000    0.000    0.000    0.000 
#
# Total GULP energy -134279.400118 kJ/mol
# GULP energy per Si atom -5594.975005 kJ/mol
# Density = 2.549827 g / cm^3
# Si number density = 25.556434 Si / 1000 Ang^3
#
#
#
# Elastic Constant Matrix: (Units=GPa)
#
#
# Indices 1 2 3 4 5 6 
#
# 1 43.5483 2.0210 -0.3691 0.0000 0.0000 0.0000
# 2 2.0210 142.8874 7.3756 0.0000 0.0000 0.0000
# 3 -0.3691 7.3756 78.3742 0.0000 0.0000 0.0000
# 4 0.0000 0.0000 0.0000 53.6694 0.0000 0.0000
# 5 0.0000 0.0000 0.0000 0.0000 21.4684 0.0000
# 6 0.0000 0.0000 0.0000 0.0000 0.0000 13.9427
#
#
#
# Elastic Compliance Matrix: (Units=1/GPa)
#
#
# Indices 1 2 3 4 5 6 
#
# 1 0.022980 -0.000332 0.000139 0.000000 0.000000 0.000000
# 2 -0.000332 0.007037 -0.000664 0.000000 0.000000 0.000000
# 3 0.000139 -0.000664 0.012822 0.000000 0.000000 0.000000
# 4 0.000000 0.000000 0.000000 0.018633 0.000000 0.000000
# 5 0.000000 0.000000 0.000000 0.000000 0.046580 0.000000
# 6 0.000000 0.000000 0.000000 0.000000 0.000000 0.071722
#
#
# Mechanical properties :
#
#
# Convention : Reuss Voigt Hill
#
# Bulk Modulus (GPa) = 24.31529 31.42942 27.87236
# Shear Modulus (GPa) = 25.61525 34.86826 30.24175
#
# Velocity S-wave (km/s) = 3.16935 3.69774 3.44369
# Velocity P-wave (km/s) = 4.78832 5.52773 5.17126
#
# Compressibility (1/GPa) = 0.04112638
#
# Stress axis : x y z
#
# Youngs Moduli (GPa) = 43.51681 142.09622 77.98833
#
# Poissons Ratio (x) = 0.04721 -0.01088
# Poissons Ratio (y) = 0.01446 0.05177
# Poissons Ratio (z) = -0.00607 0.09433
#
# Static dielectric constant tensor:
#      x y z
#    x 1.933800 0.000000 0.000000 
#    y 0.000000 1.980370 0.000000 
#    z 0.000000 0.000000 2.133460 
# 
# From -- ./inp_files/2662.got.cif
#   From: 2010.05.17/outbox.cif.g08.bks.cpg/sg36_2_cif.got.tgz:2662.got - 2010.06.03 17:41:39.
