data_PCOD9351877
_publ_section_title
;
Structure prediction by ZEFSAII (Michael W. Deem and Ramdas Pophale) SiO2 
 PCOD9351877
Probable space group: C M C 21
;
_chemical_formula_sum "Si O2"
_cell_formula_units_Z 52
_cell_length_a 13.501676
_cell_length_b 7.982091
_cell_length_c 21.470892
_cell_angle_alpha 90.000000
_cell_angle_beta 90.000000
_cell_angle_gamma 90.000000
_cell_volume 2313.952523
_symmetry_space_group_name_H-M "C M C 21"
_symmetry_group_IT_number 36
_symmetry_cell_setting 'orthorhombic'
loop_
_space_group_symop_operation_xyz
x,y,z
-x,-y,1/2+z
x,-y,1/2+z
-x,y,z
1/2+x,1/2+y,z
1/2-x,1/2-y,1/2+z
1/2+x,1/2-y,1/2+z
1/2-x,1/2+y,z
loop_
_atom_site_type_symbol
_atom_site_label
_atom_site_fract_x
_atom_site_fract_y
_atom_site_fract_z
Si Si1 0.120073 0.579294 0.222260
Si Si2 0.674070 0.818919 0.588370
Si Si3 0.500000 0.293627 0.934706
Si Si4 0.190159 0.835642 0.883713
Si Si5 0.683703 0.120911 0.501095
Si Si6 0.000000 0.165614 0.972715
Si Si7 0.204359 0.111474 0.792646
Si Si8 0.000000 0.900329 0.070485
O O1 0.168412 0.583350 0.153356
O O2 0.140577 0.766250 0.249643
O O3 0.192077 0.452227 0.261052
O O4 0.000000 0.545750 0.221727
O O5 0.769311 0.734753 0.556298
O O6 0.599522 0.663244 0.601407
O O7 0.647113 0.955940 0.535912
O O8 0.597640 0.225239 0.904427
O O9 0.500000 0.500419 0.928965
O O10 0.500000 0.287262 0.007993
O O11 0.271800 0.721678 0.853051
O O12 0.156982 0.950371 0.825528
O O13 0.232457 0.913752 0.948159
O O14 0.596036 0.221096 0.468457
O O15 0.000000 0.085027 0.042891
#
# Coordination Sequence:
#
# PCOD9351877 Si02
#       8
#     8   8   4   8   8   4   8   4
#     4  11  25  47  71  94 136 183 241 278 338 400
#     4  12  22  41  68  94 133 171 216 281 335 405
#     4  10  20  36  62  89 131 160 207 265 337 411
#     4  11  22  40  67  92 134 164 220 276 343 399
#     4  12  23  40  66 101 135 172 213 280 350 416
#     4  10  23  37  56  95 138 173 214 245 338 429
#     4  10  25  45  63  99 127 183 228 283 326 401
#     4  10  21  39  58  96 133 163 213 264 337 408
#
# _framework density 22.472370999999999
#
# number of rings (size 3 to 8) (size 9 to 14) (size 15 to 20)
#    0.462    0.615    2.308    5.077    2.154    0.000 
#    5.538    0.000    0.000    0.000    0.000    0.000 
#    0.000    0.000    0.000    0.000    0.000    0.000 
#
# Total GULP energy -144821.764516 kJ/mol
# GULP energy per Si atom -5570.067866 kJ/mol
# Density = 2.242122 g / cm^3
# Si number density = 22.472371 Si / 1000 Ang^3
#
#
#
# Elastic Constant Matrix: (Units=GPa)
#
#
# Indices 1 2 3 4 5 6 
#
# 1 88.7332 2.4246 30.0105 0.0000 0.0000 0.0000
# 2 2.4246 56.2650 9.3095 0.0000 0.0000 0.0000
# 3 30.0105 9.3095 111.4644 0.0000 0.0000 0.0000
# 4 0.0000 0.0000 0.0000 35.3724 0.0000 0.0000
# 5 0.0000 0.0000 0.0000 0.0000 21.1295 0.0000
# 6 0.0000 0.0000 0.0000 0.0000 0.0000 21.5572
#
#
#
# Elastic Compliance Matrix: (Units=1/GPa)
#
#
# Indices 1 2 3 4 5 6 
#
# 1 0.012399 0.000018 -0.003340 0.000000 0.000000 0.000000
# 2 0.000018 0.018022 -0.001510 0.000000 0.000000 0.000000
# 3 -0.003340 -0.001510 0.009997 0.000000 0.000000 0.000000
# 4 0.000000 0.000000 0.000000 0.028271 0.000000 0.000000
# 5 0.000000 0.000000 0.000000 0.000000 0.047327 0.000000
# 6 0.000000 0.000000 0.000000 0.000000 0.000000 0.046388
#
#
# Mechanical properties :
#
#
# Convention : Reuss Voigt Hill
#
# Bulk Modulus (GPa) = 32.51558 37.77244 35.14401
# Shear Modulus (GPa) = 27.42451 29.92632 28.67542
#
# Velocity S-wave (km/s) = 3.49716 3.65320 3.57603
# Velocity P-wave (km/s) = 5.55044 5.88552 5.72044
#
# Compressibility (1/GPa) = 0.03075448
#
# Stress axis : x y z
#
# Youngs Moduli (GPa) = 80.65304 55.48737 100.03206
#
# Poissons Ratio (x) = -0.00101 0.33408
# Poissons Ratio (y) = -0.00147 0.15106
# Poissons Ratio (z) = 0.26936 0.08379
#
# Static dielectric constant tensor:
#      x y z
#    x 1.861690 0.000000 0.000000 
#    y 0.000000 1.859580 0.000000 
#    z 0.000000 0.000000 1.824470 
# 
# From -- ./inp_files/16124.got.cif
#   From: 2010.05.17/outbox.cif.g08.bks.cpg/sg36_9_cif.got.tgz:16124.got - 2010.06.03 17:41:39.
