data_PCOD9351562
_publ_section_title
;
Structure prediction by ZEFSAII (Michael W. Deem and Ramdas Pophale) SiO2 
 PCOD9351562
Probable space group: C M C 21
;
_chemical_formula_sum "Si O2"
_cell_formula_units_Z 64
_cell_length_a 8.817199
_cell_length_b 21.371497
_cell_length_c 18.474199
_cell_angle_alpha 90.000000
_cell_angle_beta 90.000000
_cell_angle_gamma 90.000000
_cell_volume 3481.217870
_symmetry_space_group_name_H-M "C M C 21"
_symmetry_group_IT_number 36
_symmetry_cell_setting 'orthorhombic'
loop_
_space_group_symop_operation_xyz
x,y,z
-x,-y,1/2+z
x,-y,1/2+z
-x,y,z
1/2+x,1/2+y,z
1/2-x,1/2-y,1/2+z
1/2+x,1/2-y,1/2+z
1/2-x,1/2+y,z
loop_
_atom_site_type_symbol
_atom_site_label
_atom_site_fract_x
_atom_site_fract_y
_atom_site_fract_z
Si Si1 0.179992 0.617164 0.258250
Si Si2 0.817819 0.997502 0.187406
Si Si3 0.318541 0.389703 0.295006
Si Si4 0.320394 0.262886 0.943560
Si Si5 0.680305 0.748532 0.786296
Si Si6 0.318082 0.502823 0.023896
Si Si7 0.819654 0.392591 0.930146
Si Si8 0.317897 0.875602 0.455098
O O1 0.266442 0.565717 0.212708
O O2 0.214602 0.689776 0.239987
O O3 0.215353 0.608680 0.343944
O O4 0.000000 0.607559 0.249159
O O5 0.762280 0.945538 0.244361
O O6 0.000000 0.994536 0.188543
O O7 0.769216 0.985251 0.105247
O O8 0.500000 0.396922 0.306861
O O9 0.296382 0.321522 0.257999
O O10 0.239945 0.388044 0.373191
O O11 0.500000 0.270925 0.952661
O O12 0.278282 0.253850 0.859010
O O13 0.237694 0.327076 0.964156
O O14 0.274639 0.195709 0.976856
O O15 0.500000 0.753806 0.806036
O O16 0.500000 0.504606 0.020408
O O17 0.257485 0.451467 0.967931
O O18 0.253118 0.570724 0.004111
O O19 0.000000 0.396849 0.937246
O O20 0.500000 0.879312 0.456124
#
# Coordination Sequence:
#
# PCOD9351562 Si02
#       8
#     8   8   8   8   8   8   8   8
#     4   9  18  32  52  77 102 129 163 205 252 304
#     4  10  22  36  50  72 102 136 173 212 253 302
#     4   9  17  33  56  77 100 133 170 210 258 306
#     4   9  17  30  51  79 107 132 163 209 259 305
#     4   8  15  29  50  76 102 129 165 207 252 303
#     4  11  23  37  51  71 104 143 180 216 256 303
#     4  10  20  35  56  81 106 133 170 213 257 309
#     4  10  20  34  54  81 107 133 172 216 257 306
#
# _framework density 18.384371000000002
#
# number of rings (size 3 to 8) (size 9 to 14) (size 15 to 20)
#    0.000    2.500    0.000    3.000    0.000    7.500 
#    0.000    1.250    0.000    3.000    0.000    0.000 
#    0.000    0.000    0.000    0.000    0.000    0.000 
#
# Total GULP energy -178375.954182 kJ/mol
# GULP energy per Si atom -5574.248568 kJ/mol
# Density = 1.834253 g / cm^3
# Si number density = 18.384371 Si / 1000 Ang^3
#
#
#
# Elastic Constant Matrix: (Units=GPa)
#
#
# Indices 1 2 3 4 5 6 
#
# 1 25.1649 10.0173 7.0420 0.0000 0.0000 0.0000
# 2 10.0173 52.8863 -8.6764 0.0000 0.0000 0.0000
# 3 7.0420 -8.6764 15.1553 0.0000 0.0000 0.0000
# 4 0.0000 0.0000 0.0000 -0.3392 0.0000 0.0000
# 5 0.0000 0.0000 0.0000 0.0000 11.4223 0.0000
# 6 0.0000 0.0000 0.0000 0.0000 0.0000 33.3240
#
#
#
# Elastic Compliance Matrix: (Units=1/GPa)
#
#
# Indices 1 2 3 4 5 6 
#
# 1 0.056262 -0.016495 -0.035586 0.000000 0.000000 0.000000
# 2 -0.016495 0.025704 0.022380 0.000000 0.000000 0.000000
# 3 -0.035586 0.022380 0.095331 0.000000 0.000000 0.000000
# 4 0.000000 0.000000 0.000000 -2.948334 0.000000 0.000000
# 5 0.000000 0.000000 0.000000 0.000000 0.087548 0.000000
# 6 0.000000 0.000000 0.000000 0.000000 0.000000 0.030008
#
#
# Mechanical properties :
#
#
# Convention : Reuss Voigt Hill
#
# Bulk Modulus (GPa) = 8.48197 12.21915 10.35056
# Shear Modulus (GPa) = -1.95712 14.53633 6.28961
#
# Velocity S-wave (km/s) = -1.03289 2.81497 1.85165
# Velocity P-wave (km/s) = 1.78919 4.15046 3.19590
#
# Compressibility (1/GPa) = 0.11789707
#
# Stress axis : x y z
#
# Youngs Moduli (GPa) = 17.77399 38.90370 10.48973
#
# Poissons Ratio (x) = 0.64171 0.37329
# Poissons Ratio (y) = 0.29318 -0.23476
# Poissons Ratio (z) = 0.63250 -0.87068
#
# Static dielectric constant tensor:
#      x y z
#    x 1.617950 0.000000 0.000000 
#    y 0.000000 1.667720 0.000000 
#    z 0.000000 0.000000 1.610230 
# 
# From -- ./inp_files/13813.got.cif
#   From: 2010.05.17/outbox.cif.g08.bks.cpg/sg36_7_cif.got.tgz:13813.got - 2010.06.03 17:41:39.
