data_PCOD9351444
_publ_section_title
;
Structure prediction by ZEFSAII (Michael W. Deem and Ramdas Pophale) SiO2 
 PCOD9351444
Probable space group: C M C 21
;
_chemical_formula_sum "Si O2"
_cell_formula_units_Z 40
_cell_length_a 13.264103
_cell_length_b 20.919607
_cell_length_c 7.068653
_cell_angle_alpha 90.000000
_cell_angle_beta 90.000000
_cell_angle_gamma 90.000000
_cell_volume 1961.408576
_symmetry_space_group_name_H-M "C M C 21"
_symmetry_group_IT_number 36
_symmetry_cell_setting 'orthorhombic'
loop_
_space_group_symop_operation_xyz
x,y,z
-x,-y,1/2+z
x,-y,1/2+z
-x,y,z
1/2+x,1/2+y,z
1/2-x,1/2-y,1/2+z
1/2+x,1/2-y,1/2+z
1/2-x,1/2+y,z
loop_
_atom_site_type_symbol
_atom_site_label
_atom_site_fract_x
_atom_site_fract_y
_atom_site_fract_z
Si Si1 0.611277 0.778722 0.478240
Si Si2 0.820361 0.135708 0.558501
Si Si3 0.000000 0.052740 0.627096
Si Si4 0.679705 0.674928 0.985942
Si Si5 0.387830 0.815296 0.031419
Si Si6 0.000000 0.093801 0.065647
O O1 0.500000 0.794540 0.552057
O O2 0.630164 0.703092 0.497018
O O3 0.709072 0.812702 0.567706
O O4 0.613655 0.798273 0.256749
O O5 0.899267 0.079026 0.525071
O O6 0.808794 0.140055 0.786107
O O7 0.705103 0.137743 0.487457
O O8 0.000000 0.083257 0.837165
O O9 0.000000 0.976992 0.645710
O O10 0.599768 0.635166 0.107256
O O11 0.633942 0.745213 0.944413
O O12 0.500000 0.838073 0.985028
#
# Coordination Sequence:
#
# PCOD9351444 Si02
#       6
#     8   8   4   8   8   4
#     4   9  16  26  44  68  91 113 139 176 219 265
#     4   9  17  29  43  63  90 117 144 176 219 261
#     4  10  20  32  46  62  86 120 153 184 215 254
#     4   9  17  29  43  63  90 117 144 176 219 261
#     4   9  16  26  44  68  91 113 139 176 219 265
#     4  10  20  32  46  62  86 120 153 184 215 254
#
# _framework density 20.393505999999999
#
# number of rings (size 3 to 8) (size 9 to 14) (size 15 to 20)
#    0.000    2.800    2.000    0.000    0.000    1.600 
#    0.000    0.000    0.000    1.200    0.000    0.000 
#    0.000    0.000    0.000    0.000    0.000    0.000 
#
# Total GULP energy -111575.878466 kJ/mol
# GULP energy per Si atom -5578.793923 kJ/mol
# Density = 2.034709 g / cm^3
# Si number density = 20.393506 Si / 1000 Ang^3
#
#
#
# Elastic Constant Matrix: (Units=GPa)
#
#
# Indices 1 2 3 4 5 6 
#
# 1 235.5146 74.9239 1.4962 0.0000 0.0000 0.0000
# 2 74.9239 83.3635 -0.0061 0.0000 0.0000 0.0000
# 3 1.4962 -0.0061 55.4599 0.0000 0.0000 0.0000
# 4 0.0000 0.0000 0.0000 16.7756 0.0000 0.0000
# 5 0.0000 0.0000 0.0000 0.0000 6.3524 0.0000
# 6 0.0000 0.0000 0.0000 0.0000 0.0000 23.9357
#
#
#
# Elastic Compliance Matrix: (Units=1/GPa)
#
#
# Indices 1 2 3 4 5 6 
#
# 1 0.005948 -0.005345 -0.000161 0.000000 0.000000 0.000000
# 2 -0.005345 0.016800 0.000146 0.000000 0.000000 0.000000
# 3 -0.000161 0.000146 0.018035 0.000000 0.000000 0.000000
# 4 0.000000 0.000000 0.000000 0.059611 0.000000 0.000000
# 5 0.000000 0.000000 0.000000 0.000000 0.157422 0.000000
# 6 0.000000 0.000000 0.000000 0.000000 0.000000 0.041779
#
#
# Mechanical properties :
#
#
# Convention : Reuss Voigt Hill
#
# Bulk Modulus (GPa) = 33.26456 58.57401 45.91929
# Shear Modulus (GPa) = 15.60863 29.27433 22.44148
#
# Velocity S-wave (km/s) = 2.76954 3.79287 3.32086
# Velocity P-wave (km/s) = 5.15499 6.92571 6.10489
#
# Compressibility (1/GPa) = 0.03006202
#
# Stress axis : x y z
#
# Youngs Moduli (GPa) = 168.13515 59.52388 55.44653
#
# Poissons Ratio (x) = 0.31818 0.00893
# Poissons Ratio (y) = 0.89876 -0.00810
# Poissons Ratio (z) = 0.02708 -0.00869
#
# Static dielectric constant tensor:
#      x y z
#    x 1.785490 0.000000 0.000000 
#    y 0.000000 1.651060 0.000000 
#    z 0.000000 0.000000 1.808330 
# 
# From -- ./inp_files/3833.got.cif
#   From: 2010.05.17/outbox.cif.g08.bks.cpg/sg36_2_cif.got.tgz:3833.got - 2010.06.03 17:41:39.
