data_PCOD9351144
_publ_section_title
;
Structure prediction by ZEFSAII (Michael W. Deem and Ramdas Pophale) SiO2 
 PCOD9351144
Probable space group: C M C 21
;
_chemical_formula_sum "Si O2"
_cell_formula_units_Z 64
_cell_length_a 21.965958
_cell_length_b 12.554445
_cell_length_c 12.044796
_cell_angle_alpha 90.000000
_cell_angle_beta 90.000000
_cell_angle_gamma 90.000000
_cell_volume 3321.598350
_symmetry_space_group_name_H-M "C M C 21"
_symmetry_group_IT_number 36
_symmetry_cell_setting 'orthorhombic'
loop_
_space_group_symop_operation_xyz
x,y,z
-x,-y,1/2+z
x,-y,1/2+z
-x,y,z
1/2+x,1/2+y,z
1/2-x,1/2-y,1/2+z
1/2+x,1/2-y,1/2+z
1/2-x,1/2+y,z
loop_
_atom_site_type_symbol
_atom_site_label
_atom_site_fract_x
_atom_site_fract_y
_atom_site_fract_z
Si Si1 0.140312 0.299726 0.040900
Si Si2 0.426420 0.058414 0.711455
Si Si3 0.932275 0.768888 0.849908
Si Si4 0.833452 0.382163 0.798486
Si Si5 0.137628 0.915480 0.009273
Si Si6 0.390577 0.589486 0.155983
Si Si7 0.730287 0.300209 0.167326
Si Si8 0.289016 0.493733 0.314253
O O1 0.099705 0.393822 0.095936
O O2 0.112389 0.184683 0.067661
O O3 0.203270 0.293737 0.112348
O O4 0.147383 0.320382 0.910376
O O5 0.500000 0.042311 0.707623
O O6 0.413267 0.156902 0.796217
O O7 0.387482 0.956501 0.750765
O O8 0.891531 0.817633 0.944892
O O9 0.930202 0.859159 0.753608
O O10 0.000000 0.755049 0.891996
O O11 0.805037 0.306051 0.703431
O O12 0.775276 0.451417 0.835344
O O13 0.167716 0.995992 0.920599
O O14 0.191183 0.864800 0.079258
O O15 0.093540 0.981852 0.090501
O O16 0.326656 0.557883 0.217904
O O17 0.727496 0.375439 0.275692
#
# Coordination Sequence:
#
# PCOD9351144 Si02
#       8
#     8   8   8   8   8   8   8   8
#     4  11  21  37  62  88 122 164 203 251 311 372
#     4  10  24  45  63  85 123 170 217 256 304 370
#     4   9  20  40  63  84 115 165 212 249 297 372
#     4  12  23  37  62  91 121 163 205 257 304 372
#     4  10  20  36  58  89 126 155 193 258 313 366
#     4   9  19  35  55  85 125 151 193 250 304 367
#     4  11  22  36  56  93 124 156 198 252 312 369
#     4  10  19  34  55  85 124 156 193 243 309 374
#
# _framework density 19.267831999999999
#
# number of rings (size 3 to 8) (size 9 to 14) (size 15 to 20)
#    0.000    1.750    3.750    0.750    0.000    2.000 
#    4.500    1.875    0.000    7.500    0.000    0.000 
#    0.000    0.000    0.000    0.000    0.000    0.000 
#
# Total GULP energy -178295.976063 kJ/mol
# GULP energy per Si atom -5571.749252 kJ/mol
# Density = 1.922398 g / cm^3
# Si number density = 19.267832 Si / 1000 Ang^3
#
#
#
# Elastic Constant Matrix: (Units=GPa)
#
#
# Indices 1 2 3 4 5 6 
#
# 1 44.8278 10.0843 8.7163 0.0000 0.0000 0.0000
# 2 10.0843 39.2993 4.5439 0.0000 0.0000 0.0000
# 3 8.7163 4.5439 53.7697 0.0000 0.0000 0.0000
# 4 0.0000 0.0000 0.0000 23.7260 0.0000 0.0000
# 5 0.0000 0.0000 0.0000 0.0000 5.6692 0.0000
# 6 0.0000 0.0000 0.0000 0.0000 0.0000 21.2779
#
#
#
# Elastic Compliance Matrix: (Units=1/GPa)
#
#
# Indices 1 2 3 4 5 6 
#
# 1 0.024290 -0.005835 -0.003444 0.000000 0.000000 0.000000
# 2 -0.005835 0.027098 -0.001344 0.000000 0.000000 0.000000
# 3 -0.003444 -0.001344 0.019270 0.000000 0.000000 0.000000
# 4 0.000000 0.000000 0.000000 0.042148 0.000000 0.000000
# 5 0.000000 0.000000 0.000000 0.000000 0.176392 0.000000
# 6 0.000000 0.000000 0.000000 0.000000 0.000000 0.046997
#
#
# Mechanical properties :
#
#
# Convention : Reuss Voigt Hill
#
# Bulk Modulus (GPa) = 20.23815 20.50952 20.37384
# Shear Modulus (GPa) = 13.37213 17.77143 15.57178
#
# Velocity S-wave (km/s) = 2.63727 3.04029 2.84593
# Velocity P-wave (km/s) = 4.44972 4.79500 4.62558
#
# Compressibility (1/GPa) = 0.04941162
#
# Stress axis : x y z
#
# Youngs Moduli (GPa) = 41.16945 36.90266 51.89476
#
# Poissons Ratio (x) = 0.21531 0.17875
# Poissons Ratio (y) = 0.24021 0.06976
# Poissons Ratio (z) = 0.14181 0.04960
#
# Static dielectric constant tensor:
#      x y z
#    x 1.665780 0.000000 0.000000 
#    y 0.000000 1.690070 0.000000 
#    z 0.000000 0.000000 1.694340 
# 
# From -- ./inp_files/9514.got.cif
#   From: 2010.05.17/outbox.cif.g08.bks.cpg/sg36_5_cif.got.tgz:9514.got - 2010.06.03 17:41:39.
