data_PCOD9351124
_publ_section_title
;
Structure prediction by ZEFSAII (Michael W. Deem and Ramdas Pophale) SiO2 
 PCOD9351124
Probable space group: C M C 21
;
_chemical_formula_sum "Si O2"
_cell_formula_units_Z 64
_cell_length_a 8.929538
_cell_length_b 29.554589
_cell_length_c 12.344321
_cell_angle_alpha 90.000000
_cell_angle_beta 90.000000
_cell_angle_gamma 90.000000
_cell_volume 3257.775257
_symmetry_space_group_name_H-M "C M C 21"
_symmetry_group_IT_number 36
_symmetry_cell_setting 'orthorhombic'
loop_
_space_group_symop_operation_xyz
x,y,z
-x,-y,1/2+z
x,-y,1/2+z
-x,y,z
1/2+x,1/2+y,z
1/2-x,1/2-y,1/2+z
1/2+x,1/2-y,1/2+z
1/2-x,1/2+y,z
loop_
_atom_site_type_symbol
_atom_site_label
_atom_site_fract_x
_atom_site_fract_y
_atom_site_fract_z
Si Si1 0.179585 0.336059 0.110830
Si Si2 0.824395 0.066188 0.651632
Si Si3 0.670796 0.977839 0.591020
Si Si4 0.329487 0.926994 0.363810
Si Si5 0.321055 0.224512 0.817753
Si Si6 0.820284 0.108458 0.194725
Si Si7 0.821452 0.841929 0.471055
Si Si8 0.179335 0.824236 0.878547
O O1 0.242431 0.386447 0.130234
O O2 0.226028 0.302838 0.209757
O O3 0.000000 0.336709 0.108797
O O4 0.241901 0.321450 0.994240
O O5 0.779456 0.053249 0.774094
O O6 0.000000 0.072092 0.637432
O O7 0.762319 0.024053 0.584976
O O8 0.500000 0.986987 0.625694
O O9 0.669052 0.956222 0.472019
O O10 0.742823 0.939143 0.667294
O O11 0.500000 0.922721 0.323101
O O12 0.264469 0.878571 0.397768
O O13 0.500000 0.217796 0.830688
O O14 0.238510 0.205020 0.924037
O O15 0.293247 0.278019 0.812272
O O16 0.773343 0.132881 0.305656
O O17 0.000000 0.101758 0.196797
O O18 0.789458 0.143116 0.094548
O O19 0.000000 0.845021 0.455833
O O20 0.000000 0.827814 0.895211
#
# Coordination Sequence:
#
# PCOD9351124 Si02
#       8
#     8   8   8   8   8   8   8   8
#     4  11  24  42  64  91 126 163 206 257 313 368
#     4  12  24  39  63  91 122 161 206 255 308 367
#     4  10  22  39  62  90 122 161 206 254 309 371
#     4  10  20  37  59  85 118 155 198 251 308 364
#     4  10  22  39  61  87 121 162 202 254 311 364
#     4   9  20  39  61  87 122 161 203 255 309 363
#     4  10  19  33  60  89 115 152 202 254 303 361
#     4  10  23  42  62  88 126 169 209 254 313 372
#
# _framework density 19.645308
#
# number of rings (size 3 to 8) (size 9 to 14) (size 15 to 20)
#    0.000    1.750    1.250    2.625    1.750    4.500 
#    0.000    0.000    0.000    0.000    0.000    0.000 
#    0.000    0.000    0.000    0.000    0.000    0.000 
#
# Total GULP energy -178684.864978 kJ/mol
# GULP energy per Si atom -5583.902031 kJ/mol
# Density = 1.960059 g / cm^3
# Si number density = 19.645308 Si / 1000 Ang^3
#
#
#
# Elastic Constant Matrix: (Units=GPa)
#
#
# Indices 1 2 3 4 5 6 
#
# 1 60.9775 36.2936 26.1445 0.0000 0.0000 0.0000
# 2 36.2936 90.4364 31.7581 0.0000 0.0000 0.0000
# 3 26.1445 31.7581 67.7685 0.0000 0.0000 0.0000
# 4 0.0000 0.0000 0.0000 21.6220 0.0000 0.0000
# 5 0.0000 0.0000 0.0000 0.0000 29.8950 0.0000
# 6 0.0000 0.0000 0.0000 0.0000 0.0000 28.9816
#
#
#
# Elastic Compliance Matrix: (Units=1/GPa)
#
#
# Indices 1 2 3 4 5 6 
#
# 1 0.023126 -0.007359 -0.005473 0.000000 0.000000 0.000000
# 2 -0.007359 0.015577 -0.004461 0.000000 0.000000 0.000000
# 3 -0.005473 -0.004461 0.018958 0.000000 0.000000 0.000000
# 4 0.000000 0.000000 0.000000 0.046249 0.000000 0.000000
# 5 0.000000 0.000000 0.000000 0.000000 0.033450 0.000000
# 6 0.000000 0.000000 0.000000 0.000000 0.000000 0.034505
#
#
# Mechanical properties :
#
#
# Convention : Reuss Voigt Hill
#
# Bulk Modulus (GPa) = 43.33621 45.28608 44.31114
# Shear Modulus (GPa) = 23.34877 24.43213 23.89045
#
# Velocity S-wave (km/s) = 3.45123 3.53039 3.49103
# Velocity P-wave (km/s) = 6.16348 6.30239 6.23332
#
# Compressibility (1/GPa) = 0.02307539
#
# Stress axis : x y z
#
# Youngs Moduli (GPa) = 43.24098 64.19621 52.74763
#
# Poissons Ratio (x) = 0.47241 0.28871
# Poissons Ratio (y) = 0.31820 0.23530
# Poissons Ratio (z) = 0.23667 0.28637
#
# Static dielectric constant tensor:
#      x y z
#    x 1.662520 0.000000 0.000000 
#    y 0.000000 1.699500 0.000000 
#    z 0.000000 0.000000 1.712550 
# 
# From -- ./inp_files/7181.got.cif
#   From: 2010.05.17/outbox.cif.g08.bks.cpg/sg36_4_cif.got.tgz:7181.got - 2010.06.03 17:41:39.
