data_PCOD9351314
_publ_section_title
;
Structure prediction by ZEFSAII (Michael W. Deem and Ramdas Pophale) SiO2 
 PCOD9351314
Probable space group: C M C 21
;
_chemical_formula_sum "Si O2"
_cell_formula_units_Z 48
_cell_length_a 13.874831
_cell_length_b 27.064783
_cell_length_c 5.717323
_cell_angle_alpha 90.000000
_cell_angle_beta 90.000000
_cell_angle_gamma 90.000000
_cell_volume 2146.965075
_symmetry_space_group_name_H-M "C M C 21"
_symmetry_group_IT_number 36
_symmetry_cell_setting 'orthorhombic'
loop_
_space_group_symop_operation_xyz
x,y,z
-x,-y,1/2+z
x,-y,1/2+z
-x,y,z
1/2+x,1/2+y,z
1/2-x,1/2-y,1/2+z
1/2+x,1/2-y,1/2+z
1/2-x,1/2+y,z
loop_
_atom_site_type_symbol
_atom_site_label
_atom_site_fract_x
_atom_site_fract_y
_atom_site_fract_z
Si Si1 0.215767 0.697053 0.585890
Si Si2 0.353884 0.485218 0.444530
Si Si3 0.608756 0.118850 0.296497
Si Si4 0.136729 0.521353 0.514924
Si Si5 0.385151 0.295202 0.764045
Si Si6 0.720414 0.378918 0.475843
O O1 0.153800 0.669807 0.386469
O O2 0.325375 0.706110 0.504786
O O3 0.159945 0.747230 0.638630
O O4 0.230141 0.658439 0.794502
O O5 0.397027 0.491255 0.707236
O O6 0.251164 0.512309 0.491210
O O7 0.336917 0.427046 0.392145
O O8 0.500000 0.123964 0.208698
O O9 0.611259 0.078950 0.503610
O O10 0.688117 0.099378 0.115974
O O11 0.102211 0.500380 0.763923
O O12 0.500000 0.292914 0.784153
O O13 0.349640 0.344882 0.633347
#
# Coordination Sequence:
#
# PCOD9351314 Si02
#       6
#     8   8   8   8   8   8
#     4  11  23  46  65  99 134 180 225 285 355 422
#     4  10  19  36  64  94 130 185 231 291 358 424
#     4  11  24  37  60  94 135 182 231 283 342 421
#     4  10  19  36  55  89 132 186 231 286 344 419
#     4  11  25  45  71 102 137 179 232 291 352 427
#     4  11  23  42  67  94 135 180 235 282 357 425
#
# _framework density 22.357140000000001
#
# number of rings (size 3 to 8) (size 9 to 14) (size 15 to 20)
#    0.000    1.333    5.000    2.500    2.333    2.667 
#    0.000    0.000    0.000    1.000    0.000    0.000 
#    0.000    0.000    0.000    0.000    0.000    0.000 
#
# Total GULP energy -133908.495549 kJ/mol
# GULP energy per Si atom -5579.520648 kJ/mol
# Density = 2.230625 g / cm^3
# Si number density = 22.357140 Si / 1000 Ang^3
#
#
#
# Elastic Constant Matrix: (Units=GPa)
#
#
# Indices 1 2 3 4 5 6 
#
# 1 172.1551 34.3978 24.8279 0.0000 0.0000 0.0000
# 2 34.3978 109.3114 19.5648 0.0000 0.0000 0.0000
# 3 24.8279 19.5648 101.5769 0.0000 0.0000 0.0000
# 4 0.0000 0.0000 0.0000 36.6507 0.0000 0.0000
# 5 0.0000 0.0000 0.0000 0.0000 -7.3438 0.0000
# 6 0.0000 0.0000 0.0000 0.0000 0.0000 -7.7393
#
#
#
# Elastic Compliance Matrix: (Units=1/GPa)
#
#
# Indices 1 2 3 4 5 6 
#
# 1 0.006338 -0.001778 -0.001207 0.000000 0.000000 0.000000
# 2 -0.001778 0.009974 -0.001486 0.000000 0.000000 0.000000
# 3 -0.001207 -0.001486 0.010426 0.000000 0.000000 0.000000
# 4 0.000000 0.000000 0.000000 0.027285 0.000000 0.000000
# 5 0.000000 0.000000 0.000000 0.000000 -0.136168 0.000000
# 6 0.000000 0.000000 0.000000 0.000000 0.000000 -0.129211
#
#
# Mechanical properties :
#
#
# Convention : Reuss Voigt Hill
#
# Bulk Modulus (GPa) = 56.19568 60.06936 58.13252
# Shear Modulus (GPa) = -25.44756 24.59704 -0.42526
#
# Velocity S-wave (km/s) = -3.37743 3.32051 -0.43660
# Velocity P-wave (km/s) = 3.15922 6.45193 5.07977
#
# Compressibility (1/GPa) = 0.01779496
#
# Stress axis : x y z
#
# Youngs Moduli (GPa) = 157.77628 100.26207 95.91427
#
# Poissons Ratio (x) = 0.17831 0.11573
# Poissons Ratio (y) = 0.28060 0.14256
# Poissons Ratio (z) = 0.19038 0.14903
#
# Static dielectric constant tensor:
#      x y z
#    x 1.782920 0.000000 0.000000 
#    y 0.000000 1.853730 0.000000 
#    z 0.000000 0.000000 1.931440 
# 
# From -- ./inp_files/827.got.cif
#   From: 2010.05.17/outbox.cif.g08.bks.cpg/sg36_1_cif.got.tgz:827.got - 2010.06.03 17:41:39.
