data_PCOD9351221
_publ_section_title
;
Structure prediction by ZEFSAII (Michael W. Deem and Ramdas Pophale) SiO2 
 PCOD9351221
Probable space group: C M C 21
;
_chemical_formula_sum "Si O2"
_cell_formula_units_Z 64
_cell_length_a 8.796245
_cell_length_b 32.012802
_cell_length_c 11.334302
_cell_angle_alpha 90.000000
_cell_angle_beta 90.000000
_cell_angle_gamma 90.000000
_cell_volume 3191.653864
_symmetry_space_group_name_H-M "C M C 21"
_symmetry_group_IT_number 36
_symmetry_cell_setting 'orthorhombic'
loop_
_space_group_symop_operation_xyz
x,y,z
-x,-y,1/2+z
x,-y,1/2+z
-x,y,z
1/2+x,1/2+y,z
1/2-x,1/2-y,1/2+z
1/2+x,1/2-y,1/2+z
1/2-x,1/2+y,z
loop_
_atom_site_type_symbol
_atom_site_label
_atom_site_fract_x
_atom_site_fract_y
_atom_site_fract_z
Si Si1 0.322813 0.862594 0.156480
Si Si2 0.820794 0.080703 0.484492
Si Si3 0.320648 0.365158 0.524943
Si Si4 0.823708 0.928991 0.326011
Si Si5 0.822204 0.487553 0.154718
Si Si6 0.180215 0.073699 0.208518
Si Si7 0.819734 0.264722 0.205581
Si Si8 0.318574 0.777655 0.471147
O O1 0.500000 0.872575 0.179692
O O2 0.216371 0.890442 0.239801
O O3 0.300764 0.813980 0.178513
O O4 0.274784 0.879416 0.028717
O O5 0.767198 0.040785 0.560298
O O6 0.796063 0.073112 0.347626
O O7 0.000000 0.087733 0.504714
O O8 0.500000 0.354375 0.517225
O O9 0.296742 0.407682 0.451051
O O10 0.280883 0.380811 0.655611
O O11 0.227159 0.326495 0.475862
O O12 0.722333 0.967061 0.281245
O O13 0.000000 0.941141 0.316264
O O14 0.770905 0.535111 0.154629
O O15 0.000000 0.483152 0.133921
O O16 0.000000 0.067390 0.184668
O O17 0.745342 0.241444 0.093578
O O18 0.765905 0.259063 0.342824
O O19 0.000000 0.254888 0.203724
O O20 0.500000 0.773669 0.471771
#
# Coordination Sequence:
#
# PCOD9351221 Si02
#       8
#     8   8   8   8   8   8   8   8
#     4  10  19  36  61  85 116 151 191 245 301 353
#     4  10  21  38  59  83 116 154 201 248 296 366
#     4  10  22  40  63  89 120 158 201 251 306 365
#     4  10  19  34  60  88 114 150 196 240 289 356
#     4  11  23  37  57  86 119 154 197 250 301 354
#     4  10  23  41  59  83 118 160 202 249 302 363
#     4  10  23  42  63  93 130 166 208 260 314 378
#     4  11  24  42  66  95 129 167 212 263 319 381
#
# _framework density 20.052301
#
# number of rings (size 3 to 8) (size 9 to 14) (size 15 to 20)
#    0.000    1.750    1.250    4.125    1.750    5.000 
#    0.000    3.750    0.000    0.000    0.000    0.000 
#    0.000    0.000    0.000    0.000    0.000    0.000 
#
# Total GULP energy -178562.011344 kJ/mol
# GULP energy per Si atom -5580.062855 kJ/mol
# Density = 2.000666 g / cm^3
# Si number density = 20.052301 Si / 1000 Ang^3
#
#
#
# Elastic Constant Matrix: (Units=GPa)
#
#
# Indices 1 2 3 4 5 6 
#
# 1 31.9555 14.4099 36.5119 0.0000 0.0000 0.0000
# 2 14.4099 42.2538 34.0900 0.0000 0.0000 0.0000
# 3 36.5119 34.0900 109.3622 0.0000 0.0000 0.0000
# 4 0.0000 0.0000 0.0000 24.0348 0.0000 0.0000
# 5 0.0000 0.0000 0.0000 0.0000 14.9902 0.0000
# 6 0.0000 0.0000 0.0000 0.0000 0.0000 32.1677
#
#
#
# Elastic Compliance Matrix: (Units=1/GPa)
#
#
# Indices 1 2 3 4 5 6 
#
# 1 0.051347 -0.004917 -0.015610 0.000000 0.000000 0.000000
# 2 -0.004917 0.032089 -0.008361 0.000000 0.000000 0.000000
# 3 -0.015610 -0.008361 0.016962 0.000000 0.000000 0.000000
# 4 0.000000 0.000000 0.000000 0.041606 0.000000 0.000000
# 5 0.000000 0.000000 0.000000 0.000000 0.066710 0.000000
# 6 0.000000 0.000000 0.000000 0.000000 0.000000 0.031087
#
#
# Mechanical properties :
#
#
# Convention : Reuss Voigt Hill
#
# Bulk Modulus (GPa) = 23.46236 39.28834 31.37535
# Shear Modulus (GPa) = 16.03673 20.80918 18.42296
#
# Velocity S-wave (km/s) = 2.83104 3.22490 3.03437
# Velocity P-wave (km/s) = 4.73417 5.78810 5.28746
#
# Compressibility (1/GPa) = 0.04262146
#
# Stress axis : x y z
#
# Youngs Moduli (GPa) = 19.47551 31.16336 58.95593
#
# Poissons Ratio (x) = 0.15322 0.92030
# Poissons Ratio (y) = 0.09576 0.49294
# Poissons Ratio (z) = 0.30401 0.26056
#
# Static dielectric constant tensor:
#      x y z
#    x 1.679490 0.000000 0.000000 
#    y 0.000000 1.689270 0.000000 
#    z 0.000000 0.000000 1.802250 
# 
# From -- ./inp_files/7193.got.cif
#   From: 2010.05.17/outbox.cif.g08.bks.cpg/sg36_4_cif.got.tgz:7193.got - 2010.06.03 17:41:39.
