data_PCOD9351689
_publ_section_title
;
Structure prediction by ZEFSAII (Michael W. Deem and Ramdas Pophale) SiO2 
 PCOD9351689
Probable space group: C M C 21
;
_chemical_formula_sum "Si O2"
_cell_formula_units_Z 48
_cell_length_a 8.729945
_cell_length_b 31.759501
_cell_length_c 9.529590
_cell_angle_alpha 90.000000
_cell_angle_beta 90.000000
_cell_angle_gamma 90.000000
_cell_volume 2642.161706
_symmetry_space_group_name_H-M "C M C 21"
_symmetry_group_IT_number 36
_symmetry_cell_setting 'orthorhombic'
loop_
_space_group_symop_operation_xyz
x,y,z
-x,-y,1/2+z
x,-y,1/2+z
-x,y,z
1/2+x,1/2+y,z
1/2-x,1/2-y,1/2+z
1/2+x,1/2-y,1/2+z
1/2-x,1/2+y,z
loop_
_atom_site_type_symbol
_atom_site_label
_atom_site_fract_x
_atom_site_fract_y
_atom_site_fract_z
Si Si1 0.316651 0.210803 0.987700
Si Si2 0.815313 0.539028 0.498088
Si Si3 0.183925 0.115785 0.674175
Si Si4 0.816449 0.120662 0.002272
Si Si5 0.685508 0.957008 0.673642
Si Si6 0.815141 0.210531 0.678014
O O1 0.500000 0.207485 0.991151
O O2 0.259390 0.216434 0.829390
O O3 0.245568 0.166911 0.040182
O O4 0.269908 0.251504 0.077117
O O5 0.758194 0.580116 0.579593
O O6 0.765285 0.538623 0.335725
O O7 0.764787 0.497441 0.582507
O O8 0.000000 0.539099 0.498659
O O9 0.225874 0.163348 0.628048
O O10 0.000000 0.111792 0.666502
O O11 0.227947 0.112021 0.838994
O O12 0.749826 0.084850 0.101894
O O13 0.000000 0.120956 0.008539
O O14 0.500000 0.955407 0.670949
O O15 0.000000 0.211010 0.693828
#
# Coordination Sequence:
#
# PCOD9351689 Si02
#       6
#     8   8   8   8   8   8
#     4  10  20  35  57  82 109 144 183 223 268 317
#     4  10  21  36  56  81 108 139 177 221 266 318
#     4   9  19  36  55  76 106 141 177 218 265 318
#     4  10  21  37  56  79 108 142 180 223 270 319
#     4  10  21  37  56  80 108 139 177 219 266 320
#     4   9  20  37  54  78 111 143 180 224 267 318
#
# _framework density 18.166943
#
# number of rings (size 3 to 8) (size 9 to 14) (size 15 to 20)
#    0.000    2.333    0.000    3.000    0.000    8.667 
#    0.000    3.333    0.000    0.000    0.000    0.000 
#    0.000    0.000    0.000    0.000    0.000    0.000 
#
# Total GULP energy -133962.836217 kJ/mol
# GULP energy per Si atom -5581.784842 kJ/mol
# Density = 1.812559 g / cm^3
# Si number density = 18.166943 Si / 1000 Ang^3
#
#
#
# Elastic Constant Matrix: (Units=GPa)
#
#
# Indices 1 2 3 4 5 6 
#
# 1 26.7651 92.1021 77.8474 0.0000 0.0000 0.0000
# 2 92.1021 392.3248 291.9292 0.0000 0.0000 0.0000
# 3 77.8474 291.9292 275.5583 0.0000 0.0000 0.0000
# 4 0.0000 0.0000 0.0000 41.1396 0.0000 0.0000
# 5 0.0000 0.0000 0.0000 0.0000 29.2834 0.0000
# 6 0.0000 0.0000 0.0000 0.0000 0.0000 33.6314
#
#
#
# Elastic Compliance Matrix: (Units=1/GPa)
#
#
# Indices 1 2 3 4 5 6 
#
# 1 0.273521 -0.031714 -0.043673 0.000000 0.000000 0.000000
# 2 -0.031714 0.015718 -0.007692 0.000000 0.000000 0.000000
# 3 -0.043673 -0.007692 0.024116 0.000000 0.000000 0.000000
# 4 0.000000 0.000000 0.000000 0.024307 0.000000 0.000000
# 5 0.000000 0.000000 0.000000 0.000000 0.034149 0.000000
# 6 0.000000 0.000000 0.000000 0.000000 0.000000 0.029734
#
#
# Mechanical properties :
#
#
# Convention : Reuss Voigt Hill
#
# Bulk Modulus (GPa) = 6.79368 179.82286 93.30827
# Shear Modulus (GPa) = 8.10673 36.32885 22.21779
#
# Velocity S-wave (km/s) = 2.11472 4.47668 3.50091
# Velocity P-wave (km/s) = 3.11616 11.22138 8.23498
#
# Compressibility (1/GPa) = 0.14719563
#
# Stress axis : x y z
#
# Youngs Moduli (GPa) = 3.65602 63.62179 41.46594
#
# Poissons Ratio (x) = 2.01773 1.81096
# Poissons Ratio (y) = 0.11595 0.31896
# Poissons Ratio (z) = 0.15967 0.48939
#
# Static dielectric constant tensor:
#      x y z
#    x 1.614360 0.000000 0.000000 
#    y 0.000000 1.609450 0.000000 
#    z 0.000000 0.000000 1.602900 
# 
# From -- ./inp_files/2649.got.cif
#   From: 2010.05.17/outbox.cif.g08.bks.cpg/sg36_2_cif.got.tgz:2649.got - 2010.06.03 17:41:39.
