data_PCOD9351036
_publ_section_title
;
Structure prediction by ZEFSAII (Michael W. Deem and Ramdas Pophale) SiO2 
 PCOD9351036
Probable space group: C M C 21
;
_chemical_formula_sum "Si O2"
_cell_formula_units_Z 56
_cell_length_a 19.337964
_cell_length_b 9.645674
_cell_length_c 17.356177
_cell_angle_alpha 90.000000
_cell_angle_beta 90.000000
_cell_angle_gamma 90.000000
_cell_volume 3237.407717
_symmetry_space_group_name_H-M "C M C 21"
_symmetry_group_IT_number 36
_symmetry_cell_setting 'orthorhombic'
loop_
_space_group_symop_operation_xyz
x,y,z
-x,-y,1/2+z
x,-y,1/2+z
-x,y,z
1/2+x,1/2+y,z
1/2-x,1/2-y,1/2+z
1/2+x,1/2-y,1/2+z
1/2-x,1/2+y,z
loop_
_atom_site_type_symbol
_atom_site_label
_atom_site_fract_x
_atom_site_fract_y
_atom_site_fract_z
Si Si1 0.195750 0.585855 0.565470
Si Si2 0.417062 0.805470 0.332235
Si Si3 0.641454 0.774626 0.758829
Si Si4 0.844760 0.971352 0.802543
Si Si5 0.423335 0.022150 0.677497
Si Si6 0.696875 0.020766 0.386714
Si Si7 0.728650 0.647027 0.154890
O O1 0.125450 0.532806 0.604380
O O2 0.201552 0.563669 0.475193
O O3 0.250947 0.491113 0.609773
O O4 0.202699 0.742898 0.593261
O O5 0.500000 0.824802 0.349960
O O6 0.394446 0.644732 0.339662
O O7 0.407114 0.866280 0.245029
O O8 0.358629 0.894998 0.377846
O O9 0.622477 0.618995 0.780835
O O10 0.585399 0.873224 0.718574
O O11 0.666039 0.855137 0.835215
O O12 0.706298 0.783497 0.699781
O O13 0.773780 0.003762 0.850708
O O14 0.821302 0.898919 0.723146
O O15 0.500000 0.046774 0.651630
#
# Coordination Sequence:
#
# PCOD9351036 Si02
#       7
#     8   8   8   8   8   8   8
#     4  11  21  33  55  84 113 142 181 241 286 330
#     4  10  21  38  57  81 113 151 187 230 285 346
#     4   9  19  34  53  79 108 146 182 236 274 328
#     4  11  19  35  57  83 114 147 190 241 279 337
#     4   9  19  37  57  77 105 145 191 224 278 349
#     4  10  22  34  55  83 116 151 193 228 284 347
#     4  10  19  33  52  81 110 140 184 234 283 323
#
# _framework density 17.297789999999999
#
# number of rings (size 3 to 8) (size 9 to 14) (size 15 to 20)
#    0.000    2.000    2.857    2.571    4.000    1.143 
#    0.000    0.000    0.000    0.000    0.000    1.000 
#    0.000    0.000    0.000    0.000    0.000    0.000 
#
# Total GULP energy -155932.481456 kJ/mol
# GULP energy per Si atom -5569.017195 kJ/mol
# Density = 1.725842 g / cm^3
# Si number density = 17.297790 Si / 1000 Ang^3
#
#
#
# Elastic Constant Matrix: (Units=GPa)
#
#
# Indices 1 2 3 4 5 6 
#
# 1 45.3960 13.4442 13.3918 0.0000 0.0000 0.0000
# 2 13.4442 90.9487 -12.2660 0.0000 0.0000 0.0000
# 3 13.3918 -12.2660 51.2703 0.0000 0.0000 0.0000
# 4 0.0000 0.0000 0.0000 13.2394 0.0000 0.0000
# 5 0.0000 0.0000 0.0000 0.0000 7.3663 0.0000
# 6 0.0000 0.0000 0.0000 0.0000 0.0000 9.7285
#
#
#
# Elastic Compliance Matrix: (Units=1/GPa)
#
#
# Indices 1 2 3 4 5 6 
#
# 1 0.025807 -0.004881 -0.007909 0.000000 0.000000 0.000000
# 2 -0.004881 0.012285 0.004214 0.000000 0.000000 0.000000
# 3 -0.007909 0.004214 0.022578 0.000000 0.000000 0.000000
# 4 0.000000 0.000000 0.000000 0.075532 0.000000 0.000000
# 5 0.000000 0.000000 0.000000 0.000000 0.135753 0.000000
# 6 0.000000 0.000000 0.000000 0.000000 0.000000 0.102791
#
#
# Mechanical properties :
#
#
# Convention : Reuss Voigt Hill
#
# Bulk Modulus (GPa) = 22.97864 24.08390 23.53127
# Shear Modulus (GPa) = 12.30301 17.60318 14.95310
#
# Velocity S-wave (km/s) = 2.66982 3.19353 2.94334
# Velocity P-wave (km/s) = 4.77670 5.24895 5.01839
#
# Compressibility (1/GPa) = 0.04351868
#
# Stress axis : x y z
#
# Youngs Moduli (GPa) = 38.74904 81.39909 44.29015
#
# Poissons Ratio (x) = 0.39735 0.35027
# Poissons Ratio (y) = 0.18915 -0.18665
# Poissons Ratio (z) = 0.30645 -0.34303
#
# Static dielectric constant tensor:
#      x y z
#    x 1.604080 0.000000 0.000000 
#    y 0.000000 1.607120 0.000000 
#    z 0.000000 0.000000 1.555640 
# 
# From -- ./inp_files/12818.got.cif
#   From: 2010.05.17/outbox.cif.g08.bks.cpg/sg36_7_cif.got.tgz:12818.got - 2010.06.03 17:41:39.
