data_PCOD9351389
_publ_section_title
;
Structure prediction by ZEFSAII (Michael W. Deem and Ramdas Pophale) SiO2 
 PCOD9351389
Probable space group: C M C 21
;
_chemical_formula_sum "Si O2"
_cell_formula_units_Z 48
_cell_length_a 17.424270
_cell_length_b 8.586959
_cell_length_c 16.041615
_cell_angle_alpha 90.000000
_cell_angle_beta 90.000000
_cell_angle_gamma 90.000000
_cell_volume 2400.170372
_symmetry_space_group_name_H-M "C M C 21"
_symmetry_group_IT_number 36
_symmetry_cell_setting 'orthorhombic'
loop_
_space_group_symop_operation_xyz
x,y,z
-x,-y,1/2+z
x,-y,1/2+z
-x,y,z
1/2+x,1/2+y,z
1/2-x,1/2-y,1/2+z
1/2+x,1/2-y,1/2+z
1/2-x,1/2+y,z
loop_
_atom_site_type_symbol
_atom_site_label
_atom_site_fract_x
_atom_site_fract_y
_atom_site_fract_z
Si Si1 0.129034 0.658146 0.849780
Si Si2 0.798458 0.123444 0.474639
Si Si3 0.914044 0.882447 0.712418
Si Si4 0.292807 0.577939 0.805656
Si Si5 0.851734 0.201610 0.041853
Si Si6 0.582684 0.808398 0.874815
O O1 0.150195 0.734792 0.939180
O O2 0.081348 0.778243 0.795425
O O3 0.206675 0.635303 0.794289
O O4 0.091585 0.491641 0.863006
O O5 0.725908 0.200404 0.521313
O O6 0.781969 0.034346 0.386665
O O7 0.835293 0.983368 0.527467
O O8 0.887947 0.783608 0.632481
O O9 0.000000 0.949067 0.697260
O O10 0.842490 0.996268 0.734125
O O11 0.346653 0.720629 0.832422
O O12 0.909564 0.260187 0.970989
O O13 0.500000 0.755166 0.842141
#
# Coordination Sequence:
#
# PCOD9351389 Si02
#       6
#     8   8   8   8   8   8
#     4  11  20  41  64  91 113 157 211 250 287 357
#     4  10  19  37  64  87 111 153 208 256 282 356
#     4  11  25  39  56  89 130 162 194 247 315 365
#     4  10  20  39  61  86 115 157 205 248 293 359
#     4  11  21  38  59  89 126 153 200 251 312 354
#     4  11  20  36  64  88 118 158 200 250 298 353
#
# _framework density 19.998581000000001
#
# number of rings (size 3 to 8) (size 9 to 14) (size 15 to 20)
#    0.000    1.333    5.000    2.500    2.333    0.000 
#    0.000    2.500    0.000    0.000    0.000    0.000 
#    0.000    0.000    0.000    0.000    0.000    0.000 
#
# Total GULP energy -133763.288908 kJ/mol
# GULP energy per Si atom -5573.470371 kJ/mol
# Density = 1.995306 g / cm^3
# Si number density = 19.998581 Si / 1000 Ang^3
#
#
#
# Elastic Constant Matrix: (Units=GPa)
#
#
# Indices 1 2 3 4 5 6 
#
# 1 118.0131 12.3328 15.4541 0.0000 0.0000 0.0000
# 2 12.3328 68.0613 -2.8549 0.0000 0.0000 0.0000
# 3 15.4541 -2.8549 39.6963 0.0000 0.0000 0.0000
# 4 0.0000 0.0000 0.0000 13.3895 0.0000 0.0000
# 5 0.0000 0.0000 0.0000 0.0000 14.1296 0.0000
# 6 0.0000 0.0000 0.0000 0.0000 0.0000 11.6010
#
#
#
# Elastic Compliance Matrix: (Units=1/GPa)
#
#
# Indices 1 2 3 4 5 6 
#
# 1 0.009146 -0.001812 -0.003691 0.000000 0.000000 0.000000
# 2 -0.001812 0.015096 0.001791 0.000000 0.000000 0.000000
# 3 -0.003691 0.001791 0.026757 0.000000 0.000000 0.000000
# 4 0.000000 0.000000 0.000000 0.074685 0.000000 0.000000
# 5 0.000000 0.000000 0.000000 0.000000 0.070773 0.000000
# 6 0.000000 0.000000 0.000000 0.000000 0.000000 0.086200
#
#
# Mechanical properties :
#
#
# Convention : Reuss Voigt Hill
#
# Bulk Modulus (GPa) = 22.94871 30.62609 26.78740
# Shear Modulus (GPa) = 16.41459 21.21327 18.81393
#
# Velocity S-wave (km/s) = 2.86805 3.26043 3.07051
# Velocity P-wave (km/s) = 4.74001 5.43335 5.09848
#
# Compressibility (1/GPa) = 0.04357543
#
# Stress axis : x y z
#
# Youngs Moduli (GPa) = 109.33302 66.24212 37.37328
#
# Poissons Ratio (x) = 0.12004 0.13795
# Poissons Ratio (y) = 0.19813 -0.06694
# Poissons Ratio (z) = 0.40356 -0.11865
#
# Static dielectric constant tensor:
#      x y z
#    x 1.758240 0.000000 0.000000 
#    y 0.000000 1.745650 0.000000 
#    z 0.000000 0.000000 1.694750 
# 
# From -- ./inp_files/12498.got.cif
#   From: 2010.05.17/outbox.cif.g08.bks.cpg/sg36_7_cif.got.tgz:12498.got - 2010.06.03 17:41:39.
