data_PCOD9351482
_publ_section_title
;
Structure prediction by ZEFSAII (Michael W. Deem and Ramdas Pophale) SiO2 
 PCOD9351482
Probable space group: C M C 21
;
_chemical_formula_sum "Si O2"
_cell_formula_units_Z 64
_cell_length_a 7.420196
_cell_length_b 23.128231
_cell_length_c 17.024570
_cell_angle_alpha 90.000000
_cell_angle_beta 90.000000
_cell_angle_gamma 90.000000
_cell_volume 2921.688727
_symmetry_space_group_name_H-M "C M C 21"
_symmetry_group_IT_number 36
_symmetry_cell_setting 'orthorhombic'
loop_
_space_group_symop_operation_xyz
x,y,z
-x,-y,1/2+z
x,-y,1/2+z
-x,y,z
1/2+x,1/2+y,z
1/2-x,1/2-y,1/2+z
1/2+x,1/2-y,1/2+z
1/2-x,1/2+y,z
loop_
_atom_site_type_symbol
_atom_site_label
_atom_site_fract_x
_atom_site_fract_y
_atom_site_fract_z
Si Si1 0.720689 0.968277 0.838890
Si Si2 0.718649 0.163577 0.313536
Si Si3 0.217168 0.834571 0.196569
Si Si4 0.792335 0.467885 0.179766
Si Si5 0.794232 0.134323 0.000430
Si Si6 0.718088 0.785889 0.643796
Si Si7 0.796167 0.494884 0.511562
Si Si8 0.280631 0.283082 0.366364
O O1 0.500000 0.972024 0.839243
O O2 0.776892 0.901469 0.829389
O O3 0.780801 0.004792 0.761607
O O4 0.781014 0.989205 0.925521
O O5 0.500000 0.162192 0.316170
O O6 0.768917 0.185642 0.226892
O O7 0.778310 0.216268 0.369630
O O8 0.288376 0.898528 0.183831
O O9 0.274037 0.781414 0.140718
O O10 0.265267 0.811080 0.282853
O O11 0.000000 0.838554 0.192770
O O12 0.711449 0.485539 0.094851
O O13 0.000000 0.488596 0.176923
O O14 0.713640 0.174122 0.932579
O O15 0.000000 0.119283 0.979247
O O16 0.792601 0.174314 0.076310
O O17 0.697960 0.074243 0.014211
O O18 0.500000 0.786850 0.640143
O O19 0.000000 0.519544 0.511309
O O20 0.500000 0.281932 0.371080
#
# Coordination Sequence:
#
# PCOD9351482 Si02
#       8
#     8   8   8   8   8   8   8   8
#     4   9  17  30  50  74  99 131 169 209 251 293
#     4   8  14  29  52  73  95 126 167 208 245 294
#     4   9  18  34  54  74  99 134 170 201 247 306
#     4  10  20  33  51  76 103 132 170 214 253 293
#     4  11  21  32  50  76 103 129 163 209 256 297
#     4   9  18  33  53  74  98 131 167 203 246 302
#     4  10  21  35  51  73 101 135 174 210 250 304
#     4   8  16  30  49  74 100 128 162 202 250 303
#
# _framework density 21.905138999999998
#
# number of rings (size 3 to 8) (size 9 to 14) (size 15 to 20)
#    0.000    2.750    0.000    3.375    0.000    4.000 
#    0.000    3.125    0.000    2.250    0.000    1.750 
#    0.000    0.000    0.000    0.000    0.000    0.000 
#
# Total GULP energy -178491.220841 kJ/mol
# GULP energy per Si atom -5577.850651 kJ/mol
# Density = 2.185528 g / cm^3
# Si number density = 21.905139 Si / 1000 Ang^3
#
#
#
# Elastic Constant Matrix: (Units=GPa)
#
#
# Indices 1 2 3 4 5 6 
#
# 1 69.2898 -3.4622 5.4986 0.0000 0.0000 0.0000
# 2 -3.4622 182.5759 85.7716 0.0000 0.0000 0.0000
# 3 5.4986 85.7716 139.6627 0.0000 0.0000 0.0000
# 4 0.0000 0.0000 0.0000 35.7283 0.0000 0.0000
# 5 0.0000 0.0000 0.0000 0.0000 -6.5233 0.0000
# 6 0.0000 0.0000 0.0000 0.0000 0.0000 16.1273
#
#
#
# Elastic Compliance Matrix: (Units=1/GPa)
#
#
# Indices 1 2 3 4 5 6 
#
# 1 0.014553 0.000766 -0.001044 0.000000 0.000000 0.000000
# 2 0.000766 0.007739 -0.004783 0.000000 0.000000 0.000000
# 3 -0.001044 -0.004783 0.010138 0.000000 0.000000 0.000000
# 4 0.000000 0.000000 0.000000 0.027989 0.000000 0.000000
# 5 0.000000 0.000000 0.000000 0.000000 -0.153295 0.000000
# 6 0.000000 0.000000 0.000000 0.000000 0.000000 0.062007
#
#
# Mechanical properties :
#
#
# Convention : Reuss Voigt Hill
#
# Bulk Modulus (GPa) = 44.82257 63.01606 53.91931
# Shear Modulus (GPa) = -375.57680 29.31447 -173.13117
#
# Velocity S-wave (km/s) = -13.10833 3.66217 -8.89991
# Velocity P-wave (km/s) = 14.44291 6.83463 8.99682
#
# Compressibility (1/GPa) = 0.02231019
#
# Stress axis : x y z
#
# Youngs Moduli (GPa) = 68.71328 129.22345 98.63499
#
# Poissons Ratio (x) = -0.09901 0.10293
# Poissons Ratio (y) = -0.05265 0.47174
# Poissons Ratio (z) = 0.07170 0.61803
#
# Static dielectric constant tensor:
#      x y z
#    x 1.850860 0.000000 0.000000 
#    y 0.000000 1.754420 0.000000 
#    z 0.000000 0.000000 1.799440 
# 
# From -- ./inp_files/13790.got.cif
#   From: 2010.05.17/outbox.cif.g08.bks.cpg/sg36_7_cif.got.tgz:13790.got - 2010.06.03 17:41:39.
