data_PCOD9351986
_publ_section_title
;
Structure prediction by ZEFSAII (Michael W. Deem and Ramdas Pophale) SiO2 
 PCOD9351986
Probable space group: C M C 21
;
_chemical_formula_sum "Si O2"
_cell_formula_units_Z 64
_cell_length_a 23.110278
_cell_length_b 8.144966
_cell_length_c 15.198307
_cell_angle_alpha 90.000000
_cell_angle_beta 90.000000
_cell_angle_gamma 90.000000
_cell_volume 2860.814237
_symmetry_space_group_name_H-M "C M C 21"
_symmetry_group_IT_number 36
_symmetry_cell_setting 'orthorhombic'
loop_
_space_group_symop_operation_xyz
x,y,z
-x,-y,1/2+z
x,-y,1/2+z
-x,y,z
1/2+x,1/2+y,z
1/2-x,1/2-y,1/2+z
1/2+x,1/2-y,1/2+z
1/2-x,1/2+y,z
loop_
_atom_site_type_symbol
_atom_site_label
_atom_site_fract_x
_atom_site_fract_y
_atom_site_fract_z
Si Si1 0.592218 0.914257 0.398220
Si Si2 0.209464 0.594398 0.812945
Si Si3 0.566818 0.699264 0.241719
Si Si4 0.432970 0.616260 0.056684
Si Si5 0.152786 0.295378 0.714159
Si Si6 0.933737 0.228945 0.876968
Si Si7 0.563565 0.235553 0.075891
Si Si8 0.820373 0.035392 0.275566
O O1 0.661715 0.914149 0.389792
O O2 0.570927 0.859178 0.301864
O O3 0.570678 0.792530 0.472565
O O4 0.566638 0.089611 0.420098
O O5 0.191514 0.447826 0.745952
O O6 0.274705 0.550095 0.842309
O O7 0.201966 0.775277 0.770318
O O8 0.500000 0.646116 0.239408
O O9 0.588295 0.718262 0.141107
O O10 0.611354 0.573452 0.287957
O O11 0.500000 0.663680 0.043031
O O12 0.432520 0.430103 0.090733
O O13 0.407998 0.625038 0.958624
O O14 0.107631 0.259493 0.793868
O O15 0.115507 0.342552 0.629777
O O16 0.181662 0.113163 0.703221
O O17 0.000000 0.182348 0.853224
O O18 0.500000 0.177315 0.104520
#
# Coordination Sequence:
#
# PCOD9351986 Si02
#       8
#     8   8   8   8   8   8   8   8
#     4  10  23  39  63  93 132 176 220 283 339 411
#     4  10  23  42  69  94 125 176 228 275 344 393
#     4  10  20  37  64  97 127 173 225 278 351 408
#     4   9  20  34  56  91 131 170 219 267 328 413
#     4  11  23  40  66  96 131 175 229 279 337 408
#     4  10  21  37  58  95 135 174 216 269 340 413
#     4  11  22  39  63  96 138 180 222 282 348 410
#     4  11  21  40  69  92 128 172 218 283 329 400
#
# _framework density 22.371251999999998
#
# number of rings (size 3 to 8) (size 9 to 14) (size 15 to 20)
#    0.000    1.750    2.500    1.500    3.500    3.500 
#    0.000    5.625    8.250    0.000    0.000    0.000 
#    0.000    0.000    0.000    0.000    0.000    0.000 
#
# Total GULP energy -178148.848758 kJ/mol
# GULP energy per Si atom -5567.151524 kJ/mol
# Density = 2.232033 g / cm^3
# Si number density = 22.371252 Si / 1000 Ang^3
#
#
#
# Elastic Constant Matrix: (Units=GPa)
#
#
# Indices 1 2 3 4 5 6 
#
# 1 109.0171 12.0596 6.4535 0.0000 0.0000 0.0000
# 2 12.0596 99.2911 -6.9982 0.0000 0.0000 0.0000
# 3 6.4535 -6.9982 72.6890 0.0000 0.0000 0.0000
# 4 0.0000 0.0000 0.0000 23.0956 0.0000 0.0000
# 5 0.0000 0.0000 0.0000 0.0000 20.6467 0.0000
# 6 0.0000 0.0000 0.0000 0.0000 0.0000 23.5310
#
#
#
# Elastic Compliance Matrix: (Units=1/GPa)
#
#
# Indices 1 2 3 4 5 6 
#
# 1 0.009362 -0.001204 -0.000947 0.000000 0.000000 0.000000
# 2 -0.001204 0.010295 0.001098 0.000000 0.000000 0.000000
# 3 -0.000947 0.001098 0.013947 0.000000 0.000000 0.000000
# 4 0.000000 0.000000 0.000000 0.043298 0.000000 0.000000
# 5 0.000000 0.000000 0.000000 0.000000 0.048434 0.000000
# 6 0.000000 0.000000 0.000000 0.000000 0.000000 0.042497
#
#
# Mechanical properties :
#
#
# Convention : Reuss Voigt Hill
#
# Bulk Modulus (GPa) = 31.74769 33.78079 32.76424
# Shear Modulus (GPa) = 27.71024 31.42015 29.56519
#
# Velocity S-wave (km/s) = 3.52327 3.75172 3.63929
# Velocity P-wave (km/s) = 5.54737 5.82237 5.68654
#
# Compressibility (1/GPa) = 0.03149835
#
# Stress axis : x y z
#
# Youngs Moduli (GPa) = 106.81359 97.13453 71.69981
#
# Poissons Ratio (x) = 0.11694 0.06791
# Poissons Ratio (y) = 0.12859 -0.07873
# Poissons Ratio (z) = 0.10116 -0.10666
#
# Static dielectric constant tensor:
#      x y z
#    x 1.927790 0.000000 0.000000 
#    y 0.000000 1.885400 0.000000 
#    z 0.000000 0.000000 1.815650 
# 
# From -- ./inp_files/12994.got.cif
#   From: 2010.05.17/outbox.cif.g08.bks.cpg/sg36_7_cif.got.tgz:12994.got - 2010.06.03 17:41:39.
