data_PCOD9351899
_publ_section_title
;
Structure prediction by ZEFSAII (Michael W. Deem and Ramdas Pophale) SiO2 
 PCOD9351899
Probable space group: C M C 21
;
_chemical_formula_sum "Si O2"
_cell_formula_units_Z 52
_cell_length_a 22.683825
_cell_length_b 13.925891
_cell_length_c 8.211132
_cell_angle_alpha 90.000000
_cell_angle_beta 90.000000
_cell_angle_gamma 90.000000
_cell_volume 2593.834805
_symmetry_space_group_name_H-M "C M C 21"
_symmetry_group_IT_number 36
_symmetry_cell_setting 'orthorhombic'
loop_
_space_group_symop_operation_xyz
x,y,z
-x,-y,1/2+z
x,-y,1/2+z
-x,y,z
1/2+x,1/2+y,z
1/2-x,1/2-y,1/2+z
1/2+x,1/2-y,1/2+z
1/2-x,1/2+y,z
loop_
_atom_site_type_symbol
_atom_site_label
_atom_site_fract_x
_atom_site_fract_y
_atom_site_fract_z
Si Si1 0.500000 0.786337 0.178950
Si Si2 0.774958 0.038722 0.121800
Si Si3 0.105029 0.646027 0.897941
Si Si4 0.137801 0.545224 0.214399
Si Si5 0.383761 0.783424 0.955710
Si Si6 0.311019 0.641956 0.787755
Si Si7 0.198435 0.232031 0.259397
O O1 0.448982 0.797003 0.322586
O O2 0.447355 0.782452 0.038910
O O3 0.704871 0.032421 0.152492
O O4 0.798910 0.117815 0.249973
O O5 0.806454 0.937136 0.147732
O O6 0.788075 0.083032 0.945753
O O7 0.116137 0.558219 0.772480
O O8 0.161268 0.717193 0.901482
O O9 0.099838 0.593669 0.070822
O O10 0.131584 0.617788 0.365323
O O11 0.371690 0.695130 0.830885
O O12 0.335496 0.765750 0.096774
O O13 0.263610 0.725474 0.757150
#
# Coordination Sequence:
#
# PCOD9351899 Si02
#       7
#     4   8   8   8   8   8   8
#     4  10  24  46  60  80 120 168 216 266 298 372
#     4  11  22  33  57  89 131 159 202 258 323 394
#     4  11  23  37  59  86 123 169 215 259 318 379
#     4  12  21  35  58  92 124 167 205 259 322 389
#     4  10  24  40  63  87 128 172 215 262 318 385
#     4  11  22  36  59  91 127 170 203 256 326 389
#     4  10  20  37  56  89 125 168 202 256 324 385
#
# _framework density 20.047537999999999
#
# number of rings (size 3 to 8) (size 9 to 14) (size 15 to 20)
#    0.000    1.231    4.615    1.846    2.154    4.308 
#    0.000    0.000    0.000    8.308    0.000    0.000 
#    0.000    0.000    0.000    0.000    0.000    0.000 
#
# Total GULP energy -144747.272260 kJ/mol
# GULP energy per Si atom -5567.202779 kJ/mol
# Density = 2.000191 g / cm^3
# Si number density = 20.047538 Si / 1000 Ang^3
#
#
#
# Elastic Constant Matrix: (Units=GPa)
#
#
# Indices 1 2 3 4 5 6 
#
# 1 84.6420 12.7039 23.4291 0.0000 0.0000 0.0000
# 2 12.7039 53.0590 -4.5186 0.0000 0.0000 0.0000
# 3 23.4291 -4.5186 48.3785 0.0000 0.0000 0.0000
# 4 0.0000 0.0000 0.0000 32.7840 0.0000 0.0000
# 5 0.0000 0.0000 0.0000 0.0000 22.6177 0.0000
# 6 0.0000 0.0000 0.0000 0.0000 0.0000 2.0850
#
#
#
# Elastic Compliance Matrix: (Units=1/GPa)
#
#
# Indices 1 2 3 4 5 6 
#
# 1 0.014476 -0.004095 -0.007393 0.000000 0.000000 0.000000
# 2 -0.004095 0.020157 0.003866 0.000000 0.000000 0.000000
# 3 -0.007393 0.003866 0.024612 0.000000 0.000000 0.000000
# 4 0.000000 0.000000 0.000000 0.030503 0.000000 0.000000
# 5 0.000000 0.000000 0.000000 0.000000 0.044213 0.000000
# 6 0.000000 0.000000 0.000000 0.000000 0.000000 0.479619
#
#
# Mechanical properties :
#
#
# Convention : Reuss Voigt Hill
#
# Bulk Modulus (GPa) = 22.72752 27.70090 25.21421
# Shear Modulus (GPa) = 7.77014 21.79501 14.78257
#
# Velocity S-wave (km/s) = 1.97086 3.30080 2.71841
# Velocity P-wave (km/s) = 4.06700 5.32678 4.73894
#
# Compressibility (1/GPa) = 0.04399953
#
# Stress axis : x y z
#
# Youngs Moduli (GPa) = 69.08222 49.61111 40.63107
#
# Poissons Ratio (x) = 0.20318 0.30038
# Poissons Ratio (y) = 0.28292 -0.15708
# Poissons Ratio (z) = 0.51071 -0.19180
#
# Static dielectric constant tensor:
#      x y z
#    x 1.658660 0.000000 0.000000 
#    y 0.000000 1.734230 0.000000 
#    z 0.000000 0.000000 1.810020 
# 
# From -- ./inp_files/5164.got.cif
#   From: 2010.05.17/outbox.cif.g08.bks.cpg/sg36_3_cif.got.tgz:5164.got - 2010.06.03 17:41:39.
