data_PCOD9351675
_publ_section_title
;
Structure prediction by ZEFSAII (Michael W. Deem and Ramdas Pophale) SiO2 
 PCOD9351675
Probable space group: C M C 21
;
_chemical_formula_sum "Si O2"
_cell_formula_units_Z 64
_cell_length_a 7.467366
_cell_length_b 20.333995
_cell_length_c 17.550312
_cell_angle_alpha 90.000000
_cell_angle_beta 90.000000
_cell_angle_gamma 90.000000
_cell_volume 2664.863645
_symmetry_space_group_name_H-M "C M C 21"
_symmetry_group_IT_number 36
_symmetry_cell_setting 'orthorhombic'
loop_
_space_group_symop_operation_xyz
x,y,z
-x,-y,1/2+z
x,-y,1/2+z
-x,y,z
1/2+x,1/2+y,z
1/2-x,1/2-y,1/2+z
1/2+x,1/2-y,1/2+z
1/2-x,1/2+y,z
loop_
_atom_site_type_symbol
_atom_site_label
_atom_site_fract_x
_atom_site_fract_y
_atom_site_fract_z
Si Si1 0.282845 0.878680 0.713650
Si Si2 0.794050 0.892011 0.889207
Si Si3 0.721387 0.251251 0.929497
Si Si4 0.295239 0.850051 0.310885
Si Si5 0.215781 0.513414 0.092506
Si Si6 0.791815 0.725201 0.091948
Si Si7 0.791414 0.964420 0.423564
Si Si8 0.282739 0.871734 0.141591
O O1 0.500000 0.877011 0.720632
O O2 0.210472 0.880385 0.798692
O O3 0.219526 0.817079 0.662264
O O4 0.231807 0.943326 0.665396
O O5 0.716882 0.826588 0.927203
O O6 0.000000 0.895755 0.915236
O O7 0.713297 0.962883 0.907654
O O8 0.500000 0.251100 0.929078
O O9 0.784829 0.212072 0.855173
O O10 0.781850 0.215944 0.006957
O O11 0.500000 0.831506 0.294108
O O12 0.294712 0.909211 0.371193
O O13 0.220397 0.871693 0.229746
O O14 0.279165 0.438205 0.100225
O O15 0.000000 0.513140 0.091337
O O16 0.275288 0.545972 0.013718
O O17 0.778570 0.802702 0.107639
O O18 0.000000 0.705694 0.087708
O O19 0.000000 0.964266 0.401780
O O20 0.500000 0.873113 0.138718
#
# Coordination Sequence:
#
# PCOD9351675 Si02
#       8
#     8   8   8   8   8   8   8   8
#     4  10  21  37  58  83 109 143 187 227 268 322
#     4  10  21  37  57  81 110 144 181 224 274 325
#     4   9  18  35  58  80 105 144 187 220 264 327
#     4  10  20  37  60  81 107 145 184 223 268 322
#     4  10  21  38  58  80 109 146 187 226 267 322
#     4  10  20  35  56  81 111 145 180 225 277 324
#     4  11  23  37  56  84 113 142 180 226 278 329
#     4  10  21  36  57  84 110 143 186 227 270 323
#
# _framework density 24.016238000000001
#
# number of rings (size 3 to 8) (size 9 to 14) (size 15 to 20)
#    0.000    2.000    0.000    3.375    0.000    8.000 
#    0.000    3.125    0.000    0.000    0.000    0.000 
#    0.000    0.000    0.000    0.000    0.000    0.000 
#
# Total GULP energy -178969.299505 kJ/mol
# GULP energy per Si atom -5592.790610 kJ/mol
# Density = 2.396158 g / cm^3
# Si number density = 24.016238 Si / 1000 Ang^3
#
#
#
# Elastic Constant Matrix: (Units=GPa)
#
#
# Indices 1 2 3 4 5 6 
#
# 1 73.1740 -8.7863 -13.1959 0.0000 0.0000 0.0000
# 2 -8.7863 70.8810 -24.0536 0.0000 0.0000 0.0000
# 3 -13.1959 -24.0536 72.3501 0.0000 0.0000 0.0000
# 4 0.0000 0.0000 0.0000 23.5680 0.0000 0.0000
# 5 0.0000 0.0000 0.0000 0.0000 12.7598 0.0000
# 6 0.0000 0.0000 0.0000 0.0000 0.0000 16.1670
#
#
#
# Elastic Compliance Matrix: (Units=1/GPa)
#
#
# Indices 1 2 3 4 5 6 
#
# 1 0.014704 0.003080 0.003706 0.000000 0.000000 0.000000
# 2 0.003080 0.016548 0.006063 0.000000 0.000000 0.000000
# 3 0.003706 0.006063 0.016513 0.000000 0.000000 0.000000
# 4 0.000000 0.000000 0.000000 0.042430 0.000000 0.000000
# 5 0.000000 0.000000 0.000000 0.000000 0.078371 0.000000
# 6 0.000000 0.000000 0.000000 0.000000 0.000000 0.061855
#
#
# Mechanical properties :
#
#
# Convention : Reuss Voigt Hill
#
# Bulk Modulus (GPa) = 13.61201 13.81481 13.71341
# Shear Modulus (GPa) = 21.81402 27.99501 24.90451
#
# Velocity S-wave (km/s) = 3.01708 3.41789 3.22372
# Velocity P-wave (km/s) = 4.22103 4.61961 4.42481
#
# Compressibility (1/GPa) = 0.07346455
#
# Stress axis : x y z
#
# Youngs Moduli (GPa) = 68.00750 60.43182 60.55678
#
# Poissons Ratio (x) = -0.18615 -0.22442
# Poissons Ratio (y) = -0.20949 -0.36717
# Poissons Ratio (z) = -0.25204 -0.36641
#
# Static dielectric constant tensor:
#      x y z
#    x 1.947170 0.000000 0.000000 
#    y 0.000000 1.905890 0.000000 
#    z 0.000000 0.000000 1.872470 
# 
# From -- ./inp_files/13791.got.cif
#   From: 2010.05.17/outbox.cif.g08.bks.cpg/sg36_7_cif.got.tgz:13791.got - 2010.06.03 17:41:39.
