data_PCOD9351754
_publ_section_title
;
Structure prediction by ZEFSAII (Michael W. Deem and Ramdas Pophale) SiO2 
 PCOD9351754
Probable space group: C M C 21
;
_chemical_formula_sum "Si O2"
_cell_formula_units_Z 64
_cell_length_a 15.054781
_cell_length_b 11.449257
_cell_length_c 14.991393
_cell_angle_alpha 90.000000
_cell_angle_beta 90.000000
_cell_angle_gamma 90.000000
_cell_volume 2584.007297
_symmetry_space_group_name_H-M "C M C 21"
_symmetry_group_IT_number 36
_symmetry_cell_setting 'orthorhombic'
loop_
_space_group_symop_operation_xyz
x,y,z
-x,-y,1/2+z
x,-y,1/2+z
-x,y,z
1/2+x,1/2+y,z
1/2-x,1/2-y,1/2+z
1/2+x,1/2-y,1/2+z
1/2-x,1/2+y,z
loop_
_atom_site_type_symbol
_atom_site_label
_atom_site_fract_x
_atom_site_fract_y
_atom_site_fract_z
Si Si1 0.741054 0.426964 0.304350
Si Si2 0.299660 0.905809 0.615680
Si Si3 0.307796 0.242092 0.944005
Si Si4 0.401536 0.623250 0.112119
Si Si5 0.099693 0.210981 0.721646
Si Si6 0.356369 0.129871 0.531542
Si Si7 0.596332 0.534854 0.436824
Si Si8 0.405031 0.083649 0.340697
O O1 0.784981 0.311482 0.348339
O O2 0.676644 0.384298 0.225293
O O3 0.672041 0.484041 0.373711
O O4 0.821785 0.517890 0.297336
O O5 0.301350 0.864863 0.512131
O O6 0.198920 0.886302 0.652795
O O7 0.368189 0.814866 0.658253
O O8 0.334470 0.037569 0.608379
O O9 0.234110 0.328574 0.984159
O O10 0.392576 0.325535 0.943549
O O11 0.500000 0.610215 0.157108
O O12 0.400250 0.753179 0.069449
O O13 0.398400 0.527278 0.032889
O O14 0.098812 0.278652 0.816837
O O15 0.000000 0.171252 0.700740
O O16 0.405180 0.073217 0.447111
O O17 0.500000 0.504754 0.398401
O O18 0.500000 0.040307 0.304940
#
# Coordination Sequence:
#
# PCOD9351754 Si02
#       8
#     8   8   8   8   8   8   8   8
#     4  12  20  42  63  92 127 169 213 265 322 380
#     4  11  23  40  64  93 134 167 212 269 331 382
#     4  11  19  37  63  94 128 163 211 261 325 377
#     4  10  20  35  60  92 123 165 210 256 311 377
#     4  11  26  44  64  92 128 174 218 265 331 399
#     4  11  18  38  64  95 127 165 212 270 316 372
#     4  11  20  34  61  93 124 160 208 258 309 381
#     4  11  22  38  65  95 123 165 218 268 319 384
#
# _framework density 24.767733
#
# number of rings (size 3 to 8) (size 9 to 14) (size 15 to 20)
#    0.000    1.000    7.500    0.750    0.000    6.000 
#    0.000    1.875    0.000    0.750    0.000    0.000 
#    0.000    0.000    0.000    0.000    0.000    0.000 
#
# Total GULP energy -178853.072204 kJ/mol
# GULP energy per Si atom -5589.158506 kJ/mol
# Density = 2.471136 g / cm^3
# Si number density = 24.767733 Si / 1000 Ang^3
#
#
#
# Elastic Constant Matrix: (Units=GPa)
#
#
# Indices 1 2 3 4 5 6 
#
# 1 179.9430 53.0295 20.1450 0.0000 0.0000 0.0000
# 2 53.0295 113.8618 15.1020 0.0000 0.0000 0.0000
# 3 20.1450 15.1020 35.8259 0.0000 0.0000 0.0000
# 4 0.0000 0.0000 0.0000 38.8011 0.0000 0.0000
# 5 0.0000 0.0000 0.0000 0.0000 16.8433 0.0000
# 6 0.0000 0.0000 0.0000 0.0000 0.0000 5.8060
#
#
#
# Elastic Compliance Matrix: (Units=1/GPa)
#
#
# Indices 1 2 3 4 5 6 
#
# 1 0.006659 -0.002759 -0.002582 0.000000 0.000000 0.000000
# 2 -0.002759 0.010446 -0.002852 0.000000 0.000000 0.000000
# 3 -0.002582 -0.002852 0.030567 0.000000 0.000000 0.000000
# 4 0.000000 0.000000 0.000000 0.025772 0.000000 0.000000
# 5 0.000000 0.000000 0.000000 0.000000 0.059371 0.000000
# 6 0.000000 0.000000 0.000000 0.000000 0.000000 0.172237
#
#
# Mechanical properties :
#
#
# Convention : Reuss Voigt Hill
#
# Bulk Modulus (GPa) = 31.96239 56.24263 44.10251
# Shear Modulus (GPa) = 15.06632 28.38035 21.72334
#
# Velocity S-wave (km/s) = 2.46906 3.38873 2.96477
# Velocity P-wave (km/s) = 4.58925 6.16998 5.43736
#
# Compressibility (1/GPa) = 0.03128678
#
# Stress axis : x y z
#
# Youngs Moduli (GPa) = 150.16266 95.73168 32.71548
#
# Poissons Ratio (x) = 0.26414 0.08446
# Poissons Ratio (y) = 0.41432 0.09330
# Poissons Ratio (z) = 0.38765 0.27302
#
# Static dielectric constant tensor:
#      x y z
#    x 2.009440 0.000000 0.000000 
#    y 0.000000 1.952320 0.000000 
#    z 0.000000 0.000000 2.006560 
# 
# From -- ./inp_files/14704.got.cif
#   From: 2010.05.17/outbox.cif.g08.bks.cpg/sg36_8_cif.got.tgz:14704.got - 2010.06.03 17:41:39.
