data_PCOD9351302
_publ_section_title
;
Structure prediction by ZEFSAII (Michael W. Deem and Ramdas Pophale) SiO2 
 PCOD9351302
Probable space group: C M C 21
;
_chemical_formula_sum "Si O2"
_cell_formula_units_Z 64
_cell_length_a 8.458179
_cell_length_b 15.798822
_cell_length_c 24.220583
_cell_angle_alpha 90.000000
_cell_angle_beta 90.000000
_cell_angle_gamma 90.000000
_cell_volume 3236.578691
_symmetry_space_group_name_H-M "C M C 21"
_symmetry_group_IT_number 36
_symmetry_cell_setting 'orthorhombic'
loop_
_space_group_symop_operation_xyz
x,y,z
-x,-y,1/2+z
x,-y,1/2+z
-x,y,z
1/2+x,1/2+y,z
1/2-x,1/2-y,1/2+z
1/2+x,1/2-y,1/2+z
1/2-x,1/2+y,z
loop_
_atom_site_type_symbol
_atom_site_label
_atom_site_fract_x
_atom_site_fract_y
_atom_site_fract_z
Si Si1 0.309363 0.149718 0.362310
Si Si2 0.188370 0.911949 0.473067
Si Si3 0.307804 0.653983 0.855977
Si Si4 0.311399 0.092056 0.483544
Si Si5 0.808426 0.094834 0.734212
Si Si6 0.809635 0.093123 0.245316
Si Si7 0.813634 0.743826 0.043609
Si Si8 0.310534 0.253537 0.667116
O O1 0.500000 0.148069 0.360505
O O2 0.258484 0.248063 0.360500
O O3 0.258613 0.109460 0.420252
O O4 0.245671 0.104064 0.308124
O O5 0.246334 0.896258 0.410144
O O6 0.228027 0.828141 0.507549
O O7 0.000000 0.923428 0.471975
O O8 0.265041 0.996365 0.497551
O O9 0.500000 0.652855 0.857114
O O10 0.259236 0.616711 0.797132
O O11 0.500000 0.102482 0.486120
O O12 0.234837 0.163800 0.521369
O O13 0.737091 0.164246 0.693784
O O14 0.000000 0.100648 0.731496
O O15 0.760412 0.998368 0.722461
O O16 0.754591 0.171850 0.208349
O O17 0.000000 0.094519 0.245576
O O18 0.763835 0.736110 0.107108
O O19 0.000000 0.732406 0.037488
O O20 0.500000 0.258598 0.662434
#
# Coordination Sequence:
#
# PCOD9351302 Si02
#       8
#     8   8   8   8   8   8   8   8
#     4  10  19  35  61  91 124 162 199 245 303 361
#     4  11  22  41  66  94 128 165 205 253 308 368
#     4   9  17  33  60  90 123 162 197 242 303 361
#     4  11  23  41  63  93 129 164 205 254 309 370
#     4  10  20  38  62  88 121 160 203 244 295 368
#     4  10  22  38  60  91 123 157 199 249 304 365
#     4  12  26  44  65  89 118 163 214 261 314 367
#     4  11  24  42  61  86 120 157 202 260 314 362
#
# _framework density 19.773966999999999
#
# number of rings (size 3 to 8) (size 9 to 14) (size 15 to 20)
#    0.000    1.500    2.500    3.000    0.000    4.000 
#    0.000    5.000    0.000    0.000    0.000    0.000 
#    0.000    0.000    0.000    0.000    0.000    0.000 
#
# Total GULP energy -178882.759993 kJ/mol
# GULP energy per Si atom -5590.086250 kJ/mol
# Density = 1.972896 g / cm^3
# Si number density = 19.773967 Si / 1000 Ang^3
#
#
#
# Elastic Constant Matrix: (Units=GPa)
#
#
# Indices 1 2 3 4 5 6 
#
# 1 21.7063 -2.4508 1.4566 0.0000 0.0000 0.0000
# 2 -2.4508 70.7804 -19.6524 0.0000 0.0000 0.0000
# 3 1.4566 -19.6524 56.5761 0.0000 0.0000 0.0000
# 4 0.0000 0.0000 0.0000 2.8250 0.0000 0.0000
# 5 0.0000 0.0000 0.0000 0.0000 28.6792 0.0000
# 6 0.0000 0.0000 0.0000 0.0000 0.0000 22.2652
#
#
#
# Elastic Compliance Matrix: (Units=1/GPa)
#
#
# Indices 1 2 3 4 5 6 
#
# 1 0.046276 0.001407 -0.000703 0.000000 0.000000 0.000000
# 2 0.001407 0.015679 0.005410 0.000000 0.000000 0.000000
# 3 -0.000703 0.005410 0.019573 0.000000 0.000000 0.000000
# 4 0.000000 0.000000 0.000000 0.353985 0.000000 0.000000
# 5 0.000000 0.000000 0.000000 0.000000 0.034868 0.000000
# 6 0.000000 0.000000 0.000000 0.000000 0.000000 0.044913
#
#
# Mechanical properties :
#
#
# Convention : Reuss Voigt Hill
#
# Bulk Modulus (GPa) = 10.66587 11.97438 11.32013
# Shear Modulus (GPa) = 9.35775 22.06784 15.71280
#
# Velocity S-wave (km/s) = 2.17776 3.34429 2.82196
# Velocity P-wave (km/s) = 3.42478 4.58052 4.04415
#
# Compressibility (1/GPa) = 0.09375697
#
# Stress axis : x y z
#
# Youngs Moduli (GPa) = 21.60963 63.77927 51.09163
#
# Poissons Ratio (x) = -0.08975 0.03590
# Poissons Ratio (y) = -0.03041 -0.27641
# Poissons Ratio (z) = 0.01518 -0.34505
#
# Static dielectric constant tensor:
#      x y z
#    x 1.671320 0.000000 0.000000 
#    y 0.000000 1.687120 0.000000 
#    z 0.000000 0.000000 1.668530 
# 
# From -- ./inp_files/16629.got.cif
#   From: 2010.05.17/outbox.cif.g08.bks.cpg/sg36_9_cif.got.tgz:16629.got - 2010.06.03 17:41:39.
