data_PCOD9351843
_publ_section_title
;
Structure prediction by ZEFSAII (Michael W. Deem and Ramdas Pophale) SiO2 
 PCOD9351843
Probable space group: C M C 21
;
_chemical_formula_sum "Si O2"
_cell_formula_units_Z 64
_cell_length_a 7.754665
_cell_length_b 15.389944
_cell_length_c 23.447557
_cell_angle_alpha 90.000000
_cell_angle_beta 90.000000
_cell_angle_gamma 90.000000
_cell_volume 2798.321962
_symmetry_space_group_name_H-M "C M C 21"
_symmetry_group_IT_number 36
_symmetry_cell_setting 'orthorhombic'
loop_
_space_group_symop_operation_xyz
x,y,z
-x,-y,1/2+z
x,-y,1/2+z
-x,y,z
1/2+x,1/2+y,z
1/2-x,1/2-y,1/2+z
1/2+x,1/2-y,1/2+z
1/2-x,1/2+y,z
loop_
_atom_site_type_symbol
_atom_site_label
_atom_site_fract_x
_atom_site_fract_y
_atom_site_fract_z
Si Si1 0.207301 0.802696 0.217970
Si Si2 0.295501 0.678391 0.410720
Si Si3 0.289451 0.462497 0.818952
Si Si4 0.703709 0.576961 0.074760
Si Si5 0.707813 0.660364 0.842032
Si Si6 0.703260 0.242328 0.598302
Si Si7 0.790340 0.002707 0.194423
Si Si8 0.198475 0.409176 0.026576
O O1 0.267987 0.793171 0.282996
O O2 0.276625 0.745748 0.166064
O O3 0.255998 0.901751 0.201955
O O4 0.000000 0.795543 0.217236
O O5 0.500000 0.666532 0.416286
O O6 0.231711 0.614107 0.360421
O O7 0.260451 0.777702 0.393550
O O8 0.213942 0.645018 0.468998
O O9 0.500000 0.462489 0.818834
O O10 0.235812 0.559369 0.840146
O O11 0.233538 0.451455 0.753137
O O12 0.500000 0.588828 0.083468
O O13 0.775303 0.673336 0.066327
O O14 0.774348 0.539366 0.134606
O O15 0.721777 0.504620 0.026569
O O16 0.500000 0.657936 0.840256
O O17 0.500000 0.234445 0.585806
O O18 0.780855 0.152415 0.575319
O O19 0.000000 0.005855 0.193610
O O20 0.000000 0.426705 0.039536
#
# Coordination Sequence:
#
# PCOD9351843 Si02
#       8
#     8   8   8   8   8   8   8   8
#     4   9  17  32  57  85 116 150 182 223 280 342
#     4  11  23  38  61  86 109 148 200 241 275 332
#     4   8  17  34  56  83 113 147 185 226 279 337
#     4  10  20  36  60  85 109 145 193 234 275 335
#     4   9  19  37  58  83 116 151 182 224 287 342
#     4  10  22  36  56  85 114 149 189 234 285 334
#     4   8  14  29  55  83 111 143 177 223 276 330
#     4  11  24  42  57  78 118 155 188 237 293 338
#
# _framework density 22.870850000000001
#
# number of rings (size 3 to 8) (size 9 to 14) (size 15 to 20)
#    0.000    2.500    1.250    2.250    1.750    2.500 
#    0.000    6.250    0.000    1.500    0.000    0.000 
#    0.000    0.000    0.000    0.000    0.000    0.000 
#
# Total GULP energy -178620.774321 kJ/mol
# GULP energy per Si atom -5581.899198 kJ/mol
# Density = 2.281879 g / cm^3
# Si number density = 22.870850 Si / 1000 Ang^3
#
#
#
# Elastic Constant Matrix: (Units=GPa)
#
#
# Indices 1 2 3 4 5 6 
#
# 1 31.3774 8.9953 -3.5031 0.0000 0.0000 0.0000
# 2 8.9953 48.1164 -18.9011 0.0000 0.0000 0.0000
# 3 -3.5031 -18.9011 30.0486 0.0000 0.0000 0.0000
# 4 0.0000 0.0000 0.0000 31.1292 0.0000 0.0000
# 5 0.0000 0.0000 0.0000 0.0000 17.9854 0.0000
# 6 0.0000 0.0000 0.0000 0.0000 0.0000 8.5990
#
#
#
# Elastic Compliance Matrix: (Units=1/GPa)
#
#
# Indices 1 2 3 4 5 6 
#
# 1 0.033675 -0.006313 -0.000045 0.000000 0.000000 0.000000
# 2 -0.006313 0.028787 0.017372 0.000000 0.000000 0.000000
# 3 -0.000045 0.017372 0.044201 0.000000 0.000000 0.000000
# 4 0.000000 0.000000 0.000000 0.032124 0.000000 0.000000
# 5 0.000000 0.000000 0.000000 0.000000 0.055601 0.000000
# 6 0.000000 0.000000 0.000000 0.000000 0.000000 0.116292
#
#
# Mechanical properties :
#
#
# Convention : Reuss Voigt Hill
#
# Bulk Modulus (GPa) = 7.77067 9.19163 8.48115
# Shear Modulus (GPa) = 15.08066 19.73949 17.41007
#
# Velocity S-wave (km/s) = 2.57063 2.94102 2.76204
# Velocity P-wave (km/s) = 3.49512 3.94467 3.72668
#
# Compressibility (1/GPa) = 0.12868903
#
# Stress axis : x y z
#
# Youngs Moduli (GPa) = 29.69574 34.73780 22.62383
#
# Poissons Ratio (x) = 0.21931 0.00103
# Poissons Ratio (y) = 0.18748 -0.39301
# Poissons Ratio (z) = 0.00135 -0.60345
#
# Static dielectric constant tensor:
#      x y z
#    x 1.863700 0.000000 0.000000 
#    y 0.000000 1.890490 0.000000 
#    z 0.000000 0.000000 1.866410 
# 
# From -- ./inp_files/16688.got.cif
#   From: 2010.05.17/outbox.cif.g08.bks.cpg/sg36_9_cif.got.tgz:16688.got - 2010.06.03 17:41:39.
