data_PCOD9351383
_publ_section_title
;
Structure prediction by ZEFSAII (Michael W. Deem and Ramdas Pophale) SiO2 
 PCOD9351383
Probable space group: C M C 21
;
_chemical_formula_sum "Si O2"
_cell_formula_units_Z 48
_cell_length_a 14.398706
_cell_length_b 10.799265
_cell_length_c 15.259387
_cell_angle_alpha 90.000000
_cell_angle_beta 90.000000
_cell_angle_gamma 90.000000
_cell_volume 2372.765122
_symmetry_space_group_name_H-M "C M C 21"
_symmetry_group_IT_number 36
_symmetry_cell_setting 'orthorhombic'
loop_
_space_group_symop_operation_xyz
x,y,z
-x,-y,1/2+z
x,-y,1/2+z
-x,y,z
1/2+x,1/2+y,z
1/2-x,1/2-y,1/2+z
1/2+x,1/2-y,1/2+z
1/2-x,1/2+y,z
loop_
_atom_site_type_symbol
_atom_site_label
_atom_site_fract_x
_atom_site_fract_y
_atom_site_fract_z
Si Si1 0.395332 0.335016 0.501680
Si Si2 0.700934 0.894806 0.910475
Si Si3 0.895102 0.875681 0.191932
Si Si4 0.248309 0.985028 0.587603
Si Si5 0.602471 0.554906 0.359145
Si Si6 0.392759 0.912500 0.734159
O O1 0.500000 0.308767 0.532352
O O2 0.354478 0.223144 0.445515
O O3 0.323027 0.370456 0.577542
O O4 0.399590 0.453764 0.437369
O O5 0.805903 0.865036 0.877625
O O6 0.647475 0.951258 0.827948
O O7 0.709725 0.986172 0.992806
O O8 0.887210 0.737617 0.229578
O O9 0.000000 0.889348 0.155503
O O10 0.817553 0.903313 0.120036
O O11 0.884823 0.975736 0.269955
O O12 0.328219 0.963051 0.657381
O O13 0.500000 0.615002 0.356335
O O14 0.500000 0.947634 0.723737
#
# Coordination Sequence:
#
# PCOD9351383 Si02
#       6
#     8   8   8   8   8   8
#     4  10  20  37  60  86 114 153 196 236 292 355
#     4  11  21  37  61  87 121 156 195 241 295 358
#     4  10  19  37  62  85 113 150 196 247 295 346
#     4  11  23  38  59  92 118 150 196 258 293 345
#     4   9  18  34  60  87 110 145 197 243 285 343
#     4  11  23  39  60  85 118 162 202 239 298 363
#
# _framework density 20.229562000000001
#
# number of rings (size 3 to 8) (size 9 to 14) (size 15 to 20)
#    0.000    1.667    3.333    2.000    0.000    2.000 
#    0.000    0.833    0.000    7.000    0.000    0.000 
#    0.000    0.000    0.000    0.000    0.000    0.000 
#
# Total GULP energy -133998.227870 kJ/mol
# GULP energy per Si atom -5583.259495 kJ/mol
# Density = 2.018352 g / cm^3
# Si number density = 20.229562 Si / 1000 Ang^3
#
#
#
# Elastic Constant Matrix: (Units=GPa)
#
#
# Indices 1 2 3 4 5 6 
#
# 1 178.2160 32.6033 77.3715 0.0000 0.0000 0.0000
# 2 32.6033 14.2949 17.5118 0.0000 0.0000 0.0000
# 3 77.3715 17.5118 108.9008 0.0000 0.0000 0.0000
# 4 0.0000 0.0000 0.0000 13.4821 0.0000 0.0000
# 5 0.0000 0.0000 0.0000 0.0000 8.8711 0.0000
# 6 0.0000 0.0000 0.0000 0.0000 0.0000 20.8618
#
#
#
# Elastic Compliance Matrix: (Units=1/GPa)
#
#
# Indices 1 2 3 4 5 6 
#
# 1 0.011385 -0.019997 -0.004873 0.000000 0.000000 0.000000
# 2 -0.019997 0.122239 -0.005449 0.000000 0.000000 0.000000
# 3 -0.004873 -0.005449 0.013521 0.000000 0.000000 0.000000
# 4 0.000000 0.000000 0.000000 0.074172 0.000000 0.000000
# 5 0.000000 0.000000 0.000000 0.000000 0.112726 0.000000
# 6 0.000000 0.000000 0.000000 0.000000 0.000000 0.047935
#
#
# Mechanical properties :
#
#
# Convention : Reuss Voigt Hill
#
# Bulk Modulus (GPa) = 11.55987 61.82055 36.69021
# Shear Modulus (GPa) = 10.60554 20.23801 15.42177
#
# Velocity S-wave (km/s) = 2.29216 3.16637 2.76404
# Velocity P-wave (km/s) = 3.56820 6.63278 5.32568
#
# Compressibility (1/GPa) = 0.08650616
#
# Stress axis : x y z
#
# Youngs Moduli (GPa) = 87.83375 8.18072 73.95738
#
# Poissons Ratio (x) = 0.16359 0.36042
# Poissons Ratio (y) = 1.75640 0.40302
# Poissons Ratio (z) = 0.42804 0.04458
#
# Static dielectric constant tensor:
#      x y z
#    x 1.750060 0.000000 0.000000 
#    y 0.000000 1.716380 0.000000 
#    z 0.000000 0.000000 1.725400 
# 
# From -- ./inp_files/12076.got.cif
#   From: 2010.05.17/outbox.cif.g08.bks.cpg/sg36_7_cif.got.tgz:12076.got - 2010.06.03 17:41:39.
