data_PCOD9351344
_publ_section_title
;
Structure prediction by ZEFSAII (Michael W. Deem and Ramdas Pophale) SiO2 
 PCOD9351344
Probable space group: C M C 21
;
_chemical_formula_sum "Si O2"
_cell_formula_units_Z 64
_cell_length_a 7.862461
_cell_length_b 15.735180
_cell_length_c 24.294132
_cell_angle_alpha 90.000000
_cell_angle_beta 90.000000
_cell_angle_gamma 90.000000
_cell_volume 3005.602937
_symmetry_space_group_name_H-M "C M C 21"
_symmetry_group_IT_number 36
_symmetry_cell_setting 'orthorhombic'
loop_
_space_group_symop_operation_xyz
x,y,z
-x,-y,1/2+z
x,-y,1/2+z
-x,y,z
1/2+x,1/2+y,z
1/2-x,1/2-y,1/2+z
1/2+x,1/2-y,1/2+z
1/2-x,1/2+y,z
loop_
_atom_site_type_symbol
_atom_site_label
_atom_site_fract_x
_atom_site_fract_y
_atom_site_fract_z
Si Si1 0.207127 0.139117 0.337960
Si Si2 0.198187 0.888971 0.457984
Si Si3 0.205569 0.662017 0.838448
Si Si4 0.208909 0.076833 0.457831
Si Si5 0.698286 0.114246 0.717458
Si Si6 0.801062 0.068717 0.222118
Si Si7 0.801586 0.766976 0.029349
Si Si8 0.802524 0.273889 0.648921
O O1 0.253568 0.238489 0.336868
O O2 0.263259 0.098508 0.395482
O O3 0.268960 0.093024 0.282713
O O4 0.000000 0.136479 0.336736
O O5 0.216844 0.880180 0.392330
O O6 0.290462 0.811360 0.487388
O O7 0.000000 0.882192 0.472691
O O8 0.262063 0.982274 0.474067
O O9 0.258297 0.620550 0.780847
O O10 0.000000 0.656812 0.843316
O O11 0.270028 0.150021 0.499029
O O12 0.000000 0.078029 0.457160
O O13 0.500000 0.138449 0.717226
O O14 0.789518 0.184765 0.681006
O O15 0.718340 0.017085 0.699305
O O16 0.781458 0.150962 0.183784
O O17 0.000000 0.049751 0.227885
O O18 0.726973 0.740501 0.088112
O O19 0.000000 0.786391 0.039939
O O20 0.000000 0.298475 0.643733
#
# Coordination Sequence:
#
# PCOD9351344 Si02
#       8
#     8   8   8   8   8   8   8   8
#     4   9  16  32  60  86 112 154 196 233 291 359
#     4  11  22  35  58  93 121 149 195 248 296 351
#     4  10  19  36  61  86 118 160 196 236 299 364
#     4   9  18  35  59  83 113 150 190 233 285 353
#     4  11  23  40  62  91 124 161 203 250 305 365
#     4  11  22  39  63  91 122 160 202 249 308 365
#     4  10  22  42  63  81 112 160 203 243 298 359
#     4  11  24  41  62  89 118 158 211 260 308 360
#
# _framework density 21.293564
#
# number of rings (size 3 to 8) (size 9 to 14) (size 15 to 20)
#    0.000    1.750    2.500    2.250    0.000    4.000 
#    0.000    2.500    0.000    0.000    0.000    0.000 
#    0.000    0.000    0.000    0.000    0.000    0.000 
#
# Total GULP energy -178836.922867 kJ/mol
# GULP energy per Si atom -5588.653840 kJ/mol
# Density = 2.124510 g / cm^3
# Si number density = 21.293564 Si / 1000 Ang^3
#
#
#
# Elastic Constant Matrix: (Units=GPa)
#
#
# Indices 1 2 3 4 5 6 
#
# 1 26.9389 -10.0259 -6.7868 0.0000 0.0000 0.0000
# 2 -10.0259 109.4464 6.1991 0.0000 0.0000 0.0000
# 3 -6.7868 6.1991 77.9497 0.0000 0.0000 0.0000
# 4 0.0000 0.0000 0.0000 -4.6822 0.0000 0.0000
# 5 0.0000 0.0000 0.0000 0.0000 17.5499 0.0000
# 6 0.0000 0.0000 0.0000 0.0000 0.0000 17.7275
#
#
#
# Elastic Compliance Matrix: (Units=1/GPa)
#
#
# Indices 1 2 3 4 5 6 
#
# 1 0.039182 0.003411 0.003140 0.000000 0.000000 0.000000
# 2 0.003411 0.009475 -0.000457 0.000000 0.000000 0.000000
# 3 0.003140 -0.000457 0.013138 0.000000 0.000000 0.000000
# 4 0.000000 0.000000 0.000000 -0.213577 0.000000 0.000000
# 5 0.000000 0.000000 0.000000 0.000000 0.056980 0.000000
# 6 0.000000 0.000000 0.000000 0.000000 0.000000 0.056410
#
#
# Mechanical properties :
#
#
# Convention : Reuss Voigt Hill
#
# Bulk Modulus (GPa) = 13.51617 21.45644 17.48631
# Shear Modulus (GPa) = -192.90156 21.11564 -85.89296
#
# Velocity S-wave (km/s) = -9.52828 3.15245 -6.35807
# Velocity P-wave (km/s) = 10.70932 4.83208 6.75798
#
# Compressibility (1/GPa) = 0.07398543
#
# Stress axis : x y z
#
# Youngs Moduli (GPa) = 25.52209 105.53811 76.11230
#
# Poissons Ratio (x) = -0.36003 -0.23900
# Poissons Ratio (y) = -0.08707 0.03475
# Poissons Ratio (z) = -0.08014 0.04818
#
# Static dielectric constant tensor:
#      x y z
#    x 1.778780 0.000000 0.000000 
#    y 0.000000 1.741640 0.000000 
#    z 0.000000 0.000000 1.758750 
# 
# From -- ./inp_files/16630.got.cif
#   From: 2010.05.17/outbox.cif.g08.bks.cpg/sg36_9_cif.got.tgz:16630.got - 2010.06.03 17:41:39.
