data_PCOD9351540
_publ_section_title
;
Structure prediction by ZEFSAII (Michael W. Deem and Ramdas Pophale) SiO2 
 PCOD9351540
Probable space group: C M C 21
;
_chemical_formula_sum "Si O2"
_cell_formula_units_Z 48
_cell_length_a 21.212388
_cell_length_b 12.837845
_cell_length_c 8.747225
_cell_angle_alpha 90.000000
_cell_angle_beta 90.000000
_cell_angle_gamma 90.000000
_cell_volume 2382.056114
_symmetry_space_group_name_H-M "C M C 21"
_symmetry_group_IT_number 36
_symmetry_cell_setting 'orthorhombic'
loop_
_space_group_symop_operation_xyz
x,y,z
-x,-y,1/2+z
x,-y,1/2+z
-x,y,z
1/2+x,1/2+y,z
1/2-x,1/2-y,1/2+z
1/2+x,1/2-y,1/2+z
1/2-x,1/2+y,z
loop_
_atom_site_type_symbol
_atom_site_label
_atom_site_fract_x
_atom_site_fract_y
_atom_site_fract_z
Si Si1 0.712123 0.465338 0.330020
Si Si2 0.126266 0.920429 0.045117
Si Si3 0.071086 0.742389 0.220518
Si Si4 0.196919 0.363638 0.806866
Si Si5 0.298745 0.281974 0.579308
Si Si6 0.069539 0.854703 0.550847
O O1 0.677725 0.424981 0.180402
O O2 0.666727 0.557408 0.394384
O O3 0.778690 0.518586 0.297295
O O4 0.713345 0.377296 0.459458
O O5 0.254105 0.204742 0.206203
O O6 0.081320 0.021529 0.057990
O O7 0.126769 0.659861 0.247873
O O8 0.072565 0.816388 0.373182
O O9 0.000000 0.701338 0.208282
O O10 0.088616 0.815259 0.076461
O O11 0.203079 0.322205 0.979781
O O12 0.371042 0.299402 0.629866
O O13 0.000000 0.829595 0.610031
#
# Coordination Sequence:
#
# PCOD9351540 Si02
#       6
#     8   8   8   8   8   8
#     4  11  20  33  54  81 109 141 182 218 269 317
#     4  11  17  34  50  78 110 139 175 212 265 325
#     4  10  20  34  52  78 108 143 181 219 273 324
#     4  11  20  35  56  76 111 142 179 230 263 318
#     4  10  21  34  52  80 107 142 182 223 266 321
#     4   9  17  30  48  73 108 141 167 208 265 325
#
# _framework density 20.150659000000001
#
# number of rings (size 3 to 8) (size 9 to 14) (size 15 to 20)
#    0.000    1.667    8.333    1.500    0.000    0.000 
#    0.000    0.000    0.000    1.000    0.000    0.000 
#    0.000    0.000    0.000    0.000    0.000    0.000 
#
# Total GULP energy -133947.349106 kJ/mol
# GULP energy per Si atom -5581.139546 kJ/mol
# Density = 2.010479 g / cm^3
# Si number density = 20.150659 Si / 1000 Ang^3
#
#
#
# Elastic Constant Matrix: (Units=GPa)
#
#
# Indices 1 2 3 4 5 6 
#
# 1 170.2499 37.3121 13.7171 0.0000 0.0000 0.0000
# 2 37.3121 25.7468 -3.9310 0.0000 0.0000 0.0000
# 3 13.7171 -3.9310 33.6003 0.0000 0.0000 0.0000
# 4 0.0000 0.0000 0.0000 23.8878 0.0000 0.0000
# 5 0.0000 0.0000 0.0000 0.0000 19.6273 0.0000
# 6 0.0000 0.0000 0.0000 0.0000 0.0000 32.8088
#
#
#
# Elastic Compliance Matrix: (Units=1/GPa)
#
#
# Indices 1 2 3 4 5 6 
#
# 1 0.009546 -0.014691 -0.005616 0.000000 0.000000 0.000000
# 2 -0.014691 0.062157 0.013270 0.000000 0.000000 0.000000
# 3 -0.005616 0.013270 0.033607 0.000000 0.000000 0.000000
# 4 0.000000 0.000000 0.000000 0.041862 0.000000 0.000000
# 5 0.000000 0.000000 0.000000 0.000000 0.050949 0.000000
# 6 0.000000 0.000000 0.000000 0.000000 0.000000 0.030480
#
#
# Mechanical properties :
#
#
# Convention : Reuss Voigt Hill
#
# Bulk Modulus (GPa) = 10.96083 35.97704 23.46894
# Shear Modulus (GPa) = 18.30915 27.43137 22.87026
#
# Velocity S-wave (km/s) = 3.01759 3.69360 3.37258
# Velocity P-wave (km/s) = 4.19433 6.00692 5.18051
#
# Compressibility (1/GPa) = 0.09123397
#
# Stress axis : x y z
#
# Youngs Moduli (GPa) = 104.75608 16.08839 29.75594
#
# Poissons Ratio (x) = 0.23636 0.16711
# Poissons Ratio (y) = 1.53902 -0.39485
# Poissons Ratio (z) = 0.58830 -0.21349
#
# Static dielectric constant tensor:
#      x y z
#    x 1.751730 0.000000 0.000000 
#    y 0.000000 1.739590 0.000000 
#    z 0.000000 0.000000 1.746100 
# 
# From -- ./inp_files/5593.got.cif
#   From: 2010.05.17/outbox.cif.g08.bks.cpg/sg36_3_cif.got.tgz:5593.got - 2010.06.03 17:41:39.
