data_PCOD9351296
_publ_section_title
;
Structure prediction by ZEFSAII (Michael W. Deem and Ramdas Pophale) SiO2 
 PCOD9351296
Probable space group: C M C 21
;
_chemical_formula_sum "Si O2"
_cell_formula_units_Z 64
_cell_length_a 7.513287
_cell_length_b 26.936307
_cell_length_c 13.424711
_cell_angle_alpha 90.000000
_cell_angle_beta 90.000000
_cell_angle_gamma 90.000000
_cell_volume 2716.895767
_symmetry_space_group_name_H-M "C M C 21"
_symmetry_group_IT_number 36
_symmetry_cell_setting 'orthorhombic'
loop_
_space_group_symop_operation_xyz
x,y,z
-x,-y,1/2+z
x,-y,1/2+z
-x,y,z
1/2+x,1/2+y,z
1/2-x,1/2-y,1/2+z
1/2+x,1/2-y,1/2+z
1/2-x,1/2+y,z
loop_
_atom_site_type_symbol
_atom_site_label
_atom_site_fract_x
_atom_site_fract_y
_atom_site_fract_z
Si Si1 0.302807 0.058483 0.722810
Si Si2 0.209539 0.305716 0.926836
Si Si3 0.215732 0.471717 0.841128
Si Si4 0.701927 0.496153 0.547702
Si Si5 0.717513 0.129880 0.240122
Si Si6 0.713424 0.881300 0.518850
Si Si7 0.785313 0.303302 0.356781
Si Si8 0.218154 0.336912 0.144673
O O1 0.500000 0.073318 0.760242
O O2 0.224014 0.107577 0.675341
O O3 0.212793 0.025322 0.806600
O O4 0.317632 0.017758 0.636120
O O5 0.282056 0.321173 0.035351
O O6 0.000000 0.318296 0.929423
O O7 0.280275 0.333856 0.828400
O O8 0.230192 0.247378 0.909375
O O9 0.271129 0.425618 0.773806
O O10 0.000000 0.473726 0.838165
O O11 0.271437 0.467308 0.954700
O O12 0.500000 0.498020 0.582007
O O13 0.746374 0.439791 0.519262
O O14 0.500000 0.131245 0.238338
O O15 0.776776 0.139370 0.126690
O O16 0.500000 0.876813 0.518117
O O17 0.778036 0.850013 0.423613
O O18 0.726963 0.304941 0.241253
O O19 0.000000 0.304790 0.355151
O O20 0.000000 0.336199 0.140378
#
# Coordination Sequence:
#
# PCOD9351296 Si02
#       8
#     8   8   8   8   8   8   8   8
#     4  10  19  37  64  86 108 152 205 244 281 333
#     4  10  21  37  59  85 118 153 189 238 301 358
#     4  10  19  35  61  86 112 154 206 244 277 334
#     4  12  24  35  53  87 129 160 185 231 299 356
#     4   9  18  35  60  88 111 146 200 252 287 335
#     4  10  20  39  62  84 112 151 207 251 283 340
#     4  10  22  39  62  88 113 148 197 249 294 342
#     4   9  19  37  59  86 117 150 193 243 290 344
#
# _framework density 23.556296
#
# number of rings (size 3 to 8) (size 9 to 14) (size 15 to 20)
#    0.000    2.000    1.250    2.625    1.750    5.000 
#    0.000    3.750    0.000    0.000    0.000    0.000 
#    0.000    0.000    0.000    0.000    0.000    0.000 
#
# Total GULP energy -178747.721057 kJ/mol
# GULP energy per Si atom -5585.866283 kJ/mol
# Density = 2.350268 g / cm^3
# Si number density = 23.556296 Si / 1000 Ang^3
#
#
#
# Elastic Constant Matrix: (Units=GPa)
#
#
# Indices 1 2 3 4 5 6 
#
# 1 69.0262 -6.7070 9.1340 0.0000 0.0000 0.0000
# 2 -6.7070 67.1776 13.5578 0.0000 0.0000 0.0000
# 3 9.1340 13.5578 137.9578 0.0000 0.0000 0.0000
# 4 0.0000 0.0000 0.0000 42.3428 0.0000 0.0000
# 5 0.0000 0.0000 0.0000 0.0000 -950.4388 0.0000
# 6 0.0000 0.0000 0.0000 0.0000 0.0000 11.3329
#
#
#
# Elastic Compliance Matrix: (Units=1/GPa)
#
#
# Indices 1 2 3 4 5 6 
#
# 1 0.014805 0.001710 -0.001148 0.000000 0.000000 0.000000
# 2 0.001710 0.015385 -0.001625 0.000000 0.000000 0.000000
# 3 -0.001148 -0.001625 0.007484 0.000000 0.000000 0.000000
# 4 0.000000 0.000000 0.000000 0.023617 0.000000 0.000000
# 5 0.000000 0.000000 0.000000 0.000000 -0.001052 0.000000
# 6 0.000000 0.000000 0.000000 0.000000 0.000000 0.088239
#
#
# Mechanical properties :
#
#
# Convention : Reuss Voigt Hill
#
# Bulk Modulus (GPa) = 28.13155 34.01459 31.07307
# Shear Modulus (GPa) = 30.77800 -162.14085 -65.68142
#
# Velocity S-wave (km/s) = 3.61857 -8.30546 -5.28614
# Velocity P-wave (km/s) = 5.42466 8.80359 4.90286
#
# Compressibility (1/GPa) = 0.03554728
#
# Stress axis : x y z
#
# Youngs Moduli (GPa) = 67.54319 64.99997 133.61248
#
# Poissons Ratio (x) = -0.11114 0.15343
# Poissons Ratio (y) = -0.11549 0.21714
# Poissons Ratio (z) = 0.07756 0.10563
#
# Static dielectric constant tensor:
#      x y z
#    x 2.435270 0.000000 0.000000 
#    y 0.000000 1.857490 0.000000 
#    z 0.000000 0.000000 1.892300 
# 
# From -- ./inp_files/7117.got.cif
#   From: 2010.05.17/outbox.cif.g08.bks.cpg/sg36_4_cif.got.tgz:7117.got - 2010.06.03 17:41:39.
