data_PCOD9351106
_publ_section_title
;
Structure prediction by ZEFSAII (Michael W. Deem and Ramdas Pophale) SiO2 
 PCOD9351106
Probable space group: C M C 21
;
_chemical_formula_sum "Si O2"
_cell_formula_units_Z 64
_cell_length_a 9.295887
_cell_length_b 24.934974
_cell_length_c 14.173390
_cell_angle_alpha 90.000000
_cell_angle_beta 90.000000
_cell_angle_gamma 90.000000
_cell_volume 3285.288345
_symmetry_space_group_name_H-M "C M C 21"
_symmetry_group_IT_number 36
_symmetry_cell_setting 'orthorhombic'
loop_
_space_group_symop_operation_xyz
x,y,z
-x,-y,1/2+z
x,-y,1/2+z
-x,y,z
1/2+x,1/2+y,z
1/2-x,1/2-y,1/2+z
1/2+x,1/2-y,1/2+z
1/2-x,1/2+y,z
loop_
_atom_site_type_symbol
_atom_site_label
_atom_site_fract_x
_atom_site_fract_y
_atom_site_fract_z
Si Si1 0.335321 0.327383 0.101330
Si Si2 0.829308 0.538376 0.133054
Si Si3 0.174086 0.914022 0.817748
Si Si4 0.168356 0.052953 0.524367
Si Si5 0.165451 0.789529 0.812398
Si Si6 0.331361 0.867610 0.483413
Si Si7 0.336221 0.725458 0.085819
Si Si8 0.168745 0.818412 0.324544
O O1 0.500000 0.308643 0.085424
O O2 0.223845 0.284129 0.063299
O O3 0.312839 0.329788 0.213815
O O4 0.320516 0.385534 0.057097
O O5 0.750770 0.561062 0.226357
O O6 0.000000 0.533549 0.150790
O O7 0.761563 0.483897 0.092869
O O8 0.807744 0.580591 0.047716
O O9 0.209061 0.946373 0.913564
O O10 0.212851 0.850791 0.831328
O O11 0.000000 0.914892 0.805028
O O12 0.000000 0.037066 0.531599
O O13 0.165375 0.782879 0.698770
O O14 0.260765 0.739669 0.847096
O O15 0.000000 0.783639 0.845870
O O16 0.500000 0.861562 0.465735
O O17 0.268767 0.818145 0.542502
O O18 0.245675 0.863850 0.385940
O O19 0.500000 0.718045 0.054079
O O20 0.000000 0.817017 0.343838
#
# Coordination Sequence:
#
# PCOD9351106 Si02
#       8
#     8   8   8   8   8   8   8   8
#     4   9  20  39  59  86 124 161 197 243 302 366
#     4  11  25  43  63  89 123 163 207 261 313 357
#     4  10  21  40  65  91 120 159 204 252 304 371
#     4  10  23  42  66  92 119 161 209 251 306 368
#     4   9  18  34  57  87 123 159 197 243 300 363
#     4  11  23  38  57  83 118 162 206 249 305 362
#     4  10  19  33  57  88 120 156 196 245 300 356
#     4  10  21  35  56  88 125 163 204 248 300 363
#
# _framework density 19.480786999999999
#
# number of rings (size 3 to 8) (size 9 to 14) (size 15 to 20)
#    0.000    2.000    1.250    1.500    1.750    5.000 
#    0.000    3.750    0.000    0.000    0.000    0.000 
#    0.000    0.000    0.000    0.000    0.000    0.000 
#
# Total GULP energy -178730.359579 kJ/mol
# GULP energy per Si atom -5585.323737 kJ/mol
# Density = 1.943645 g / cm^3
# Si number density = 19.480787 Si / 1000 Ang^3
#
#
#
# Elastic Constant Matrix: (Units=GPa)
#
#
# Indices 1 2 3 4 5 6 
#
# 1 37.8241 18.9346 25.7595 0.0000 0.0000 0.0000
# 2 18.9346 41.6688 14.3690 0.0000 0.0000 0.0000
# 3 25.7595 14.3690 78.5583 0.0000 0.0000 0.0000
# 4 0.0000 0.0000 0.0000 18.4272 0.0000 0.0000
# 5 0.0000 0.0000 0.0000 0.0000 24.2295 0.0000
# 6 0.0000 0.0000 0.0000 0.0000 0.0000 28.0958
#
#
#
# Elastic Compliance Matrix: (Units=1/GPa)
#
#
# Indices 1 2 3 4 5 6 
#
# 1 0.041329 -0.015057 -0.010798 0.000000 0.000000 0.000000
# 2 -0.015057 0.031100 -0.000751 0.000000 0.000000 0.000000
# 3 -0.010798 -0.000751 0.016408 0.000000 0.000000 0.000000
# 4 0.000000 0.000000 0.000000 0.054268 0.000000 0.000000
# 5 0.000000 0.000000 0.000000 0.000000 0.041272 0.000000
# 6 0.000000 0.000000 0.000000 0.000000 0.000000 0.035593
#
#
# Mechanical properties :
#
#
# Convention : Reuss Voigt Hill
#
# Bulk Modulus (GPa) = 28.07055 30.68639 29.37847
# Shear Modulus (GPa) = 17.54043 20.74970 19.14506
#
# Velocity S-wave (km/s) = 3.00392 3.26718 3.13831
# Velocity P-wave (km/s) = 5.14509 5.47896 5.31465
#
# Compressibility (1/GPa) = 0.03562453
#
# Stress axis : x y z
#
# Youngs Moduli (GPa) = 24.19589 32.15460 60.94762
#
# Poissons Ratio (x) = 0.48414 0.65811
# Poissons Ratio (y) = 0.36431 0.04579
# Poissons Ratio (z) = 0.26127 0.02416
#
# Static dielectric constant tensor:
#      x y z
#    x 1.657540 0.000000 0.000000 
#    y 0.000000 1.654050 0.000000 
#    z 0.000000 0.000000 1.719060 
# 
# From -- ./inp_files/11100.got.cif
#   From: 2010.05.17/outbox.cif.g08.bks.cpg/sg36_6_cif.got.tgz:11100.got - 2010.06.03 17:41:39.
