data_PCOD9351285
_publ_section_title
;
Structure prediction by ZEFSAII (Michael W. Deem and Ramdas Pophale) SiO2 
 PCOD9351285
Probable space group: C M C 21
;
_chemical_formula_sum "Si O2"
_cell_formula_units_Z 56
_cell_length_a 15.980818
_cell_length_b 15.650910
_cell_length_c 11.208745
_cell_angle_alpha 90.000000
_cell_angle_beta 90.000000
_cell_angle_gamma 90.000000
_cell_volume 2803.467905
_symmetry_space_group_name_H-M "C M C 21"
_symmetry_group_IT_number 36
_symmetry_cell_setting 'orthorhombic'
loop_
_space_group_symop_operation_xyz
x,y,z
-x,-y,1/2+z
x,-y,1/2+z
-x,y,z
1/2+x,1/2+y,z
1/2-x,1/2-y,1/2+z
1/2+x,1/2-y,1/2+z
1/2-x,1/2+y,z
loop_
_atom_site_type_symbol
_atom_site_label
_atom_site_fract_x
_atom_site_fract_y
_atom_site_fract_z
Si Si1 0.405570 0.008053 0.568200
Si Si2 0.595012 0.266853 0.800211
Si Si3 0.091933 0.846037 0.053852
Si Si4 0.238238 0.944524 0.184525
Si Si5 0.761900 0.144925 0.172234
Si Si6 0.910935 0.673102 0.209761
Si Si7 0.311151 0.112505 0.914461
O O1 0.500000 0.042407 0.556410
O O2 0.413093 0.918847 0.642885
O O3 0.362745 0.973588 0.446840
O O4 0.332969 0.062766 0.631260
O O5 0.500000 0.262457 0.758416
O O6 0.659847 0.296913 0.701229
O O7 0.624033 0.178217 0.857873
O O8 0.600257 0.331570 0.912681
O O9 0.169274 0.898084 0.105539
O O10 0.089235 0.753257 0.118748
O O11 0.000000 0.885600 0.077495
O O12 0.241595 0.906865 0.316584
O O13 0.219655 0.045231 0.191043
O O14 0.683843 0.172555 0.257844
O O15 0.730752 0.148987 0.034933
O O16 0.000000 0.679163 0.277818
#
# Coordination Sequence:
#
# PCOD9351285 Si02
#       7
#     8   8   8   8   8   8   8
#     4   9  18  34  55  85 117 145 187 237 290 354
#     4  11  22  37  62  85 114 156 203 244 286 349
#     4  10  19  35  60  83 107 152 205 240 282 347
#     4  10  22  35  58  84 119 153 191 239 298 353
#     4  10  22  36  58  88 119 148 195 244 293 351
#     4   8  14  32  56  79 103 140 189 235 275 332
#     4  10  20  37  60  86 117 158 191 241 301 354
#
# _framework density 19.975259999999999
#
# number of rings (size 3 to 8) (size 9 to 14) (size 15 to 20)
#    0.000    2.571    2.857    1.286    4.000    1.714 
#    0.000    0.714    0.000    0.857    0.000    0.000 
#    0.000    0.000    0.000    0.000    0.000    0.000 
#
# Total GULP energy -155957.065735 kJ/mol
# GULP energy per Si atom -5569.895205 kJ/mol
# Density = 1.992980 g / cm^3
# Si number density = 19.975260 Si / 1000 Ang^3
#
#
#
# Elastic Constant Matrix: (Units=GPa)
#
#
# Indices 1 2 3 4 5 6 
#
# 1 147.6101 41.6275 48.0823 0.0000 0.0000 0.0000
# 2 41.6275 38.4841 14.4715 0.0000 0.0000 0.0000
# 3 48.0823 14.4715 42.9059 0.0000 0.0000 0.0000
# 4 0.0000 0.0000 0.0000 18.0432 0.0000 0.0000
# 5 0.0000 0.0000 0.0000 0.0000 22.6661 0.0000
# 6 0.0000 0.0000 0.0000 0.0000 0.0000 6.9164
#
#
#
# Elastic Compliance Matrix: (Units=1/GPa)
#
#
# Indices 1 2 3 4 5 6 
#
# 1 0.013421 -0.010148 -0.011617 0.000000 0.000000 0.000000
# 2 -0.010148 0.037433 -0.001253 0.000000 0.000000 0.000000
# 3 -0.011617 -0.001253 0.036748 0.000000 0.000000 0.000000
# 4 0.000000 0.000000 0.000000 0.055422 0.000000 0.000000
# 5 0.000000 0.000000 0.000000 0.000000 0.044119 0.000000
# 6 0.000000 0.000000 0.000000 0.000000 0.000000 0.144584
#
#
# Mechanical properties :
#
#
# Convention : Reuss Voigt Hill
#
# Bulk Modulus (GPa) = 24.05847 48.59585 36.32716
# Shear Modulus (GPa) = 12.76754 17.84641 15.30698
#
# Velocity S-wave (km/s) = 2.53092 2.99227 2.77121
# Velocity P-wave (km/s) = 4.53994 6.02653 5.33526
#
# Compressibility (1/GPa) = 0.04156540
#
# Stress axis : x y z
#
# Youngs Moduli (GPa) = 74.51219 26.71418 27.21256
#
# Poissons Ratio (x) = 0.27111 0.31612
# Poissons Ratio (y) = 0.75618 0.03409
# Poissons Ratio (z) = 0.86560 0.03347
#
# Static dielectric constant tensor:
#      x y z
#    x 1.757030 0.000000 0.000000 
#    y 0.000000 1.712250 0.000000 
#    z 0.000000 0.000000 1.728050 
# 
# From -- ./inp_files/8495.got.cif
#   From: 2010.05.17/outbox.cif.g08.bks.cpg/sg36_5_cif.got.tgz:8495.got - 2010.06.03 17:41:39.
