data_PCOD9351975
_publ_section_title
;
Structure prediction by ZEFSAII (Michael W. Deem and Ramdas Pophale) SiO2 
 PCOD9351975
Probable space group: C M C 21
;
_chemical_formula_sum "Si O2"
_cell_formula_units_Z 64
_cell_length_a 20.411601
_cell_length_b 8.085947
_cell_length_c 16.830584
_cell_angle_alpha 90.000000
_cell_angle_beta 90.000000
_cell_angle_gamma 90.000000
_cell_volume 2777.839482
_symmetry_space_group_name_H-M "C M C 21"
_symmetry_group_IT_number 36
_symmetry_cell_setting 'orthorhombic'
loop_
_space_group_symop_operation_xyz
x,y,z
-x,-y,1/2+z
x,-y,1/2+z
-x,y,z
1/2+x,1/2+y,z
1/2-x,1/2-y,1/2+z
1/2+x,1/2-y,1/2+z
1/2-x,1/2+y,z
loop_
_atom_site_type_symbol
_atom_site_label
_atom_site_fract_x
_atom_site_fract_y
_atom_site_fract_z
Si Si1 0.425716 0.627486 0.400640
Si Si2 0.070031 0.383434 0.004873
Si Si3 0.302628 0.059597 0.752296
Si Si4 0.298488 0.431650 0.397118
Si Si5 0.791819 0.634460 0.506869
Si Si6 0.802304 0.128996 0.153126
Si Si7 0.070964 0.498587 0.331842
Si Si8 0.072644 0.007860 0.073202
O O1 0.500000 0.571522 0.380214
O O2 0.365644 0.516641 0.370427
O O3 0.418792 0.813989 0.368966
O O4 0.420984 0.611075 0.496729
O O5 0.140417 0.461291 0.026948
O O6 0.067407 0.389074 0.909754
O O7 0.000000 0.457518 0.032366
O O8 0.072431 0.196036 0.037449
O O9 0.255853 0.074994 0.828893
O O10 0.323001 0.238650 0.719800
O O11 0.368162 0.964203 0.776173
O O12 0.258755 0.970435 0.686746
O O13 0.267833 0.531488 0.472141
O O14 0.309003 0.251277 0.432098
O O15 0.779441 0.756728 0.579624
O O16 0.863714 0.014073 0.128941
O O17 0.000000 0.501125 0.291219
O O18 0.000000 0.981585 0.109269
#
# Coordination Sequence:
#
# PCOD9351975 Si02
#       8
#     8   8   8   8   8   8   8   8
#     4  10  20  37  63  95 121 153 212 272 310 359
#     4   9  17  34  59  90 120 152 206 265 308 358
#     4  12  25  41  59  91 133 165 203 260 318 382
#     4  12  22  38  63  90 123 159 212 262 312 368
#     4  11  22  38  62  90 116 165 213 258 309 375
#     4  11  24  41  59  89 131 168 203 257 321 380
#     4  10  21  38  62  91 125 163 203 259 320 375
#     4   9  19  39  65  90 119 161 212 261 310 371
#
# _framework density 23.039489
#
# number of rings (size 3 to 8) (size 9 to 14) (size 15 to 20)
#    0.000    1.500    3.750    3.000    0.000    0.500 
#    0.000    0.625    0.000    1.500    0.000    0.000 
#    0.000    0.000    0.000    0.000    0.000    0.000 
#
# Total GULP energy -178724.490985 kJ/mol
# GULP energy per Si atom -5585.140343 kJ/mol
# Density = 2.298705 g / cm^3
# Si number density = 23.039489 Si / 1000 Ang^3
#
#
#
# Elastic Constant Matrix: (Units=GPa)
#
#
# Indices 1 2 3 4 5 6 
#
# 1 170.1356 14.1971 48.8830 0.0000 0.0000 0.0000
# 2 14.1971 16.7988 6.7501 0.0000 0.0000 0.0000
# 3 48.8830 6.7501 68.8521 0.0000 0.0000 0.0000
# 4 0.0000 0.0000 0.0000 35.4563 0.0000 0.0000
# 5 0.0000 0.0000 0.0000 0.0000 34.7018 0.0000
# 6 0.0000 0.0000 0.0000 0.0000 0.0000 21.8465
#
#
#
# Elastic Compliance Matrix: (Units=1/GPa)
#
#
# Indices 1 2 3 4 5 6 
#
# 1 0.007695 -0.004485 -0.005024 0.000000 0.000000 0.000000
# 2 -0.004485 0.064583 -0.003147 0.000000 0.000000 0.000000
# 3 -0.005024 -0.003147 0.018399 0.000000 0.000000 0.000000
# 4 0.000000 0.000000 0.000000 0.028204 0.000000 0.000000
# 5 0.000000 0.000000 0.000000 0.000000 0.028817 0.000000
# 6 0.000000 0.000000 0.000000 0.000000 0.000000 0.045774
#
#
# Mechanical properties :
#
#
# Convention : Reuss Voigt Hill
#
# Bulk Modulus (GPa) = 15.29859 43.93856 29.61857
# Shear Modulus (GPa) = 20.78371 30.79801 25.79086
#
# Velocity S-wave (km/s) = 3.00674 3.66012 3.34940
# Velocity P-wave (km/s) = 4.32534 6.08066 5.27650
#
# Compressibility (1/GPa) = 0.06536552
#
# Stress axis : x y z
#
# Youngs Moduli (GPa) = 129.94887 15.48391 54.35025
#
# Poissons Ratio (x) = 0.06944 0.27304
# Poissons Ratio (y) = 0.58281 0.17106
# Poissons Ratio (z) = 0.65283 0.04873
#
# Static dielectric constant tensor:
#      x y z
#    x 1.965070 0.000000 0.000000 
#    y 0.000000 1.885450 0.000000 
#    z 0.000000 0.000000 1.878280 
# 
# From -- ./inp_files/15050.got.cif
#   From: 2010.05.17/outbox.cif.g08.bks.cpg/sg36_8_cif.got.tgz:15050.got - 2010.06.03 17:41:39.
