data_PCOD9351375
_publ_section_title
;
Structure prediction by ZEFSAII (Michael W. Deem and Ramdas Pophale) SiO2 
 PCOD9351375
Probable space group: C M C 21
;
_chemical_formula_sum "Si O2"
_cell_formula_units_Z 64
_cell_length_a 21.306950
_cell_length_b 8.795384
_cell_length_c 16.323353
_cell_angle_alpha 90.000000
_cell_angle_beta 90.000000
_cell_angle_gamma 90.000000
_cell_volume 3059.042174
_symmetry_space_group_name_H-M "C M C 21"
_symmetry_group_IT_number 36
_symmetry_cell_setting 'orthorhombic'
loop_
_space_group_symop_operation_xyz
x,y,z
-x,-y,1/2+z
x,-y,1/2+z
-x,y,z
1/2+x,1/2+y,z
1/2-x,1/2-y,1/2+z
1/2+x,1/2-y,1/2+z
1/2-x,1/2+y,z
loop_
_atom_site_type_symbol
_atom_site_label
_atom_site_fract_x
_atom_site_fract_y
_atom_site_fract_z
Si Si1 0.881895 0.510196 0.830020
Si Si2 0.927125 0.608078 0.002329
Si Si3 0.634836 0.343937 0.793220
Si Si4 0.739229 0.115272 0.395433
Si Si5 0.156408 0.407766 0.668132
Si Si6 0.429291 0.544028 0.436849
Si Si7 0.282889 0.240942 0.656719
Si Si8 0.190716 0.116192 0.986423
O O1 0.897571 0.679447 0.799735
O O2 0.807569 0.492629 0.846812
O O3 0.889175 0.406773 0.748573
O O4 0.910197 0.502093 0.922569
O O5 0.881854 0.595661 0.081899
O O6 0.000000 0.580755 0.024443
O O7 0.922025 0.781755 0.968599
O O8 0.696274 0.348646 0.850887
O O9 0.588787 0.457989 0.840028
O O10 0.667667 0.349076 0.705711
O O11 0.702452 0.269774 0.411365
O O12 0.761662 0.023432 0.475186
O O13 0.210422 0.279054 0.677480
O O14 0.194631 0.568342 0.669790
O O15 0.500000 0.495416 0.449757
O O16 0.379305 0.443774 0.484496
O O17 0.291776 0.289157 0.564306
#
# Coordination Sequence:
#
# PCOD9351375 Si02
#       8
#     8   8   8   8   8   8   8   8
#     4  10  19  37  59  88 121 153 199 243 299 349
#     4  10  22  42  63  85 118 164 210 247 291 355
#     4   9  19  35  58  84 119 154 191 239 294 359
#     4  11  19  35  54  88 116 153 189 239 303 353
#     4  11  24  37  61  97 125 157 198 247 305 364
#     4   9  21  41  62  82 111 161 209 239 287 359
#     4  11  22  36  54  96 126 149 189 246 315 355
#     4  11  22  33  59  84 120 153 193 242 300 358
#
# _framework density 20.921582999999998
#
# number of rings (size 3 to 8) (size 9 to 14) (size 15 to 20)
#    0.000    1.750    2.500    2.250    5.250    0.500 
#    0.000    5.000    0.000    1.500    0.000    0.000 
#    0.000    0.000    0.000    0.000    0.000    0.000 
#
# Total GULP energy -178268.737101 kJ/mol
# GULP energy per Si atom -5570.898034 kJ/mol
# Density = 2.087396 g / cm^3
# Si number density = 20.921583 Si / 1000 Ang^3
#
#
#
# Elastic Constant Matrix: (Units=GPa)
#
#
# Indices 1 2 3 4 5 6 
#
# 1 75.6365 24.0213 25.6132 0.0000 0.0000 0.0000
# 2 24.0213 49.5641 5.2459 0.0000 0.0000 0.0000
# 3 25.6132 5.2459 81.9688 0.0000 0.0000 0.0000
# 4 0.0000 0.0000 0.0000 2.2411 0.0000 0.0000
# 5 0.0000 0.0000 0.0000 0.0000 13.1693 0.0000
# 6 0.0000 0.0000 0.0000 0.0000 0.0000 10.4268
#
#
#
# Elastic Compliance Matrix: (Units=1/GPa)
#
#
# Indices 1 2 3 4 5 6 
#
# 1 0.017404 -0.007913 -0.004932 0.000000 0.000000 0.000000
# 2 -0.007913 0.023911 0.000942 0.000000 0.000000 0.000000
# 3 -0.004932 0.000942 0.013681 0.000000 0.000000 0.000000
# 4 0.000000 0.000000 0.000000 0.446215 0.000000 0.000000
# 5 0.000000 0.000000 0.000000 0.000000 0.075934 0.000000
# 6 0.000000 0.000000 0.000000 0.000000 0.000000 0.095906
#
#
# Mechanical properties :
#
#
# Convention : Reuss Voigt Hill
#
# Bulk Modulus (GPa) = 32.06078 35.21446 33.63762
# Shear Modulus (GPa) = 7.06960 15.32004 11.19482
#
# Velocity S-wave (km/s) = 1.84023 2.70897 2.31570
# Velocity P-wave (km/s) = 4.45789 5.16264 4.82315
#
# Compressibility (1/GPa) = 0.03119075
#
# Stress axis : x y z
#
# Youngs Moduli (GPa) = 57.45685 41.82139 73.09634
#
# Poissons Ratio (x) = 0.33093 0.36051
# Poissons Ratio (y) = 0.45466 -0.06888
# Poissons Ratio (z) = 0.28338 -0.03941
#
# Static dielectric constant tensor:
#      x y z
#    x 1.728760 0.000000 0.000000 
#    y 0.000000 1.847150 0.000000 
#    z 0.000000 0.000000 1.851980 
# 
# From -- ./inp_files/15021.got.cif
#   From: 2010.05.17/outbox.cif.g08.bks.cpg/sg36_8_cif.got.tgz:15021.got - 2010.06.03 17:41:39.
