data_PCOD9351999
_publ_section_title
;
Structure prediction by ZEFSAII (Michael W. Deem and Ramdas Pophale) SiO2 
 PCOD9351999
Probable space group: C M C 21
;
_chemical_formula_sum "Si O2"
_cell_formula_units_Z 56
_cell_length_a 10.259589
_cell_length_b 30.236109
_cell_length_c 8.447404
_cell_angle_alpha 90.000000
_cell_angle_beta 90.000000
_cell_angle_gamma 90.000000
_cell_volume 2620.469628
_symmetry_space_group_name_H-M "C M C 21"
_symmetry_group_IT_number 36
_symmetry_cell_setting 'orthorhombic'
loop_
_space_group_symop_operation_xyz
x,y,z
-x,-y,1/2+z
x,-y,1/2+z
-x,y,z
1/2+x,1/2+y,z
1/2-x,1/2-y,1/2+z
1/2+x,1/2-y,1/2+z
1/2-x,1/2+y,z
loop_
_atom_site_type_symbol
_atom_site_label
_atom_site_fract_x
_atom_site_fract_y
_atom_site_fract_z
Si Si1 0.218803 0.031160 0.346880
Si Si2 0.000000 0.432025 0.526427
Si Si3 0.654936 0.304175 0.784039
Si Si4 0.770800 0.890410 0.629737
Si Si5 0.852465 0.942805 0.185079
Si Si6 0.845287 0.765726 0.139297
Si Si7 0.150256 0.853306 0.298641
Si Si8 0.000000 0.487992 0.829362
O O1 0.179074 0.063666 0.204453
O O2 0.144093 0.041971 0.505084
O O3 0.370506 0.035999 0.390151
O O4 0.209822 0.981057 0.289050
O O5 0.126601 0.402997 0.566605
O O6 0.000000 0.474545 0.644609
O O7 0.000000 0.459496 0.363270
O O8 0.500000 0.303591 0.742223
O O9 0.710900 0.353832 0.766049
O O10 0.747356 0.274533 0.671793
O O11 0.665051 0.285338 0.962198
O O12 0.841548 0.868801 0.479500
O O13 0.790066 0.894574 0.203350
O O14 0.000000 0.939152 0.246133
O O15 0.798171 0.805054 0.257411
O O16 0.000000 0.754353 0.166476
O O17 0.000000 0.849110 0.246694
#
# Coordination Sequence:
#
# PCOD9351999 Si02
#       8
#     8   4   8   8   8   8   8   4
#     4  11  22  37  58  84 119 164 210 256 317 377
#     4  10  22  38  60  90 122 174 220 274 326 378
#     4  11  24  43  68  98 131 171 218 273 340 402
#     4  11  23  38  60  90 125 163 213 265 324 389
#     4  11  22  35  56  85 120 156 202 255 313 381
#     4  10  23  44  70  95 129 173 218 273 334 406
#     4  10  21  39  61  88 122 164 207 260 328 388
#     4  10  20  38  58  78 116 162 214 256 306 372
#
# _framework density 21.370215000000002
#
# number of rings (size 3 to 8) (size 9 to 14) (size 15 to 20)
#    0.000    1.429    0.000    6.000    1.000    6.286 
#    1.286    0.000    0.000    0.000    0.000    0.000 
#    0.000    0.000    0.000    0.000    0.000    0.000 
#
# Total GULP energy -156231.800901 kJ/mol
# GULP energy per Si atom -5579.707175 kJ/mol
# Density = 2.132158 g / cm^3
# Si number density = 21.370215 Si / 1000 Ang^3
#
#
#
# Elastic Constant Matrix: (Units=GPa)
#
#
# Indices 1 2 3 4 5 6 
#
# 1 74.8112 33.4171 17.0214 0.0000 0.0000 0.0000
# 2 33.4171 90.0389 -0.3042 0.0000 0.0000 0.0000
# 3 17.0214 -0.3042 51.2472 0.0000 0.0000 0.0000
# 4 0.0000 0.0000 0.0000 45.8709 0.0000 0.0000
# 5 0.0000 0.0000 0.0000 0.0000 20.0616 0.0000
# 6 0.0000 0.0000 0.0000 0.0000 0.0000 19.1923
#
#
#
# Elastic Compliance Matrix: (Units=1/GPa)
#
#
# Indices 1 2 3 4 5 6 
#
# 1 0.017643 -0.006568 -0.005899 0.000000 0.000000 0.000000
# 2 -0.006568 0.013552 0.002262 0.000000 0.000000 0.000000
# 3 -0.005899 0.002262 0.021486 0.000000 0.000000 0.000000
# 4 0.000000 0.000000 0.000000 0.021800 0.000000 0.000000
# 5 0.000000 0.000000 0.000000 0.000000 0.049846 0.000000
# 6 0.000000 0.000000 0.000000 0.000000 0.000000 0.052104
#
#
# Mechanical properties :
#
#
# Convention : Reuss Voigt Hill
#
# Bulk Modulus (GPa) = 30.98798 35.15175 33.06986
# Shear Modulus (GPa) = 24.08499 28.08918 26.08709
#
# Velocity S-wave (km/s) = 3.36078 3.62941 3.49767
# Velocity P-wave (km/s) = 5.43983 5.83508 5.64092
#
# Compressibility (1/GPa) = 0.03227058
#
# Stress axis : x y z
#
# Youngs Moduli (GPa) = 56.67989 73.79211 46.54201
#
# Poissons Ratio (x) = 0.48466 0.27455
# Poissons Ratio (y) = 0.37227 -0.10528
# Poissons Ratio (z) = 0.33435 -0.16691
#
# Static dielectric constant tensor:
#      x y z
#    x 1.788830 0.000000 0.000000 
#    y 0.000000 1.791130 0.000000 
#    z 0.000000 0.000000 1.814340 
# 
# From -- ./inp_files/3483.got.cif
#   From: 2010.05.17/outbox.cif.g08.bks.cpg/sg36_2_cif.got.tgz:3483.got - 2010.06.03 17:41:39.
