data_PCOD9351330
_publ_section_title
;
Structure prediction by ZEFSAII (Michael W. Deem and Ramdas Pophale) SiO2 
 PCOD9351330
Probable space group: C M C 21
;
_chemical_formula_sum "Si O2"
_cell_formula_units_Z 64
_cell_length_a 7.445798
_cell_length_b 19.948953
_cell_length_c 16.701612
_cell_angle_alpha 90.000000
_cell_angle_beta 90.000000
_cell_angle_gamma 90.000000
_cell_volume 2480.788541
_symmetry_space_group_name_H-M "C M C 21"
_symmetry_group_IT_number 36
_symmetry_cell_setting 'orthorhombic'
loop_
_space_group_symop_operation_xyz
x,y,z
-x,-y,1/2+z
x,-y,1/2+z
-x,y,z
1/2+x,1/2+y,z
1/2-x,1/2-y,1/2+z
1/2+x,1/2-y,1/2+z
1/2-x,1/2+y,z
loop_
_atom_site_type_symbol
_atom_site_label
_atom_site_fract_x
_atom_site_fract_y
_atom_site_fract_z
Si Si1 0.284923 0.665131 0.756920
Si Si2 0.781907 0.912714 0.096994
Si Si3 0.791171 0.959897 0.678625
Si Si4 0.284217 0.920128 0.417201
Si Si5 0.782186 0.791982 0.997734
Si Si6 0.705680 0.199952 0.322225
Si Si7 0.783900 0.659241 0.074194
Si Si8 0.203792 0.445225 0.852642
O O1 0.500000 0.671892 0.749045
O O2 0.225588 0.625952 0.678065
O O3 0.251538 0.622203 0.836881
O O4 0.214388 0.740888 0.768812
O O5 0.000000 0.912237 0.092379
O O6 0.724265 0.989293 0.109687
O O7 0.722496 0.866003 0.024107
O O8 0.773319 0.883661 0.650288
O O9 0.697468 0.973654 0.762243
O O10 0.000000 0.974795 0.692323
O O11 0.500000 0.925183 0.423728
O O12 0.219344 0.881264 0.495595
O O13 0.213238 0.996030 0.406031
O O14 0.705591 0.771222 0.912445
O O15 0.730305 0.736210 0.063094
O O16 0.000000 0.790701 0.991489
O O17 0.500000 0.187782 0.294641
O O18 0.792166 0.127221 0.337841
O O19 0.000000 0.658475 0.074670
O O20 0.000000 0.433523 0.880376
#
# Coordination Sequence:
#
# PCOD9351330 Si02
#       8
#     8   8   8   8   8   8   8   8
#     4  10  19  36  60  81 109 146 188 235 281 332
#     4   9  20  37  57  82 110 147 190 231 283 338
#     4  11  23  39  58  84 115 147 191 238 281 337
#     4  10  20  37  59  84 112 147 190 232 279 340
#     4  10  21  39  61  82 112 152 192 233 278 339
#     4  10  22  37  59  87 115 149 189 236 284 335
#     4  10  22  38  59  84 115 153 189 229 285 344
#     4  10  22  39  59  84 116 151 189 234 287 341
#
# _framework density 25.798248999999998
#
# number of rings (size 3 to 8) (size 9 to 14) (size 15 to 20)
#    0.000    2.000    2.500    0.375    3.500    1.500 
#    0.000    1.250    0.000    0.000    0.000    0.000 
#    0.000    0.000    0.000    0.000    0.000    0.000 
#
# Total GULP energy -178979.434848 kJ/mol
# GULP energy per Si atom -5593.107339 kJ/mol
# Density = 2.573953 g / cm^3
# Si number density = 25.798249 Si / 1000 Ang^3
#
#
#
# Elastic Constant Matrix: (Units=GPa)
#
#
# Indices 1 2 3 4 5 6 
#
# 1 91.6633 7.4543 -2.8380 0.0000 0.0000 0.0000
# 2 7.4543 136.6250 -10.9104 0.0000 0.0000 0.0000
# 3 -2.8380 -10.9104 60.8985 0.0000 0.0000 0.0000
# 4 0.0000 0.0000 0.0000 49.0840 0.0000 0.0000
# 5 0.0000 0.0000 0.0000 0.0000 14.9205 0.0000
# 6 0.0000 0.0000 0.0000 0.0000 0.0000 2.5583
#
#
#
# Elastic Compliance Matrix: (Units=1/GPa)
#
#
# Indices 1 2 3 4 5 6 
#
# 1 0.010968 -0.000566 0.000410 0.000000 0.000000 0.000000
# 2 -0.000566 0.007455 0.001309 0.000000 0.000000 0.000000
# 3 0.000410 0.001309 0.016674 0.000000 0.000000 0.000000
# 4 0.000000 0.000000 0.000000 0.020373 0.000000 0.000000
# 5 0.000000 0.000000 0.000000 0.000000 0.067022 0.000000
# 6 0.000000 0.000000 0.000000 0.000000 0.000000 0.390880
#
#
# Mechanical properties :
#
#
# Convention : Reuss Voigt Hill
#
# Bulk Modulus (GPa) = 26.73516 30.73316 28.73416
# Shear Modulus (GPa) = 9.55048 33.01129 21.28088
#
# Velocity S-wave (km/s) = 1.92614 3.58102 2.87522
# Velocity P-wave (km/s) = 3.91566 5.38860 4.71006
#
# Compressibility (1/GPa) = 0.03740393
#
# Stress axis : x y z
#
# Youngs Moduli (GPa) = 91.17277 134.14322 59.97208
#
# Poissons Ratio (x) = 0.07589 -0.02458
# Poissons Ratio (y) = 0.05158 -0.07852
# Poissons Ratio (z) = -0.03736 -0.17562
#
# Static dielectric constant tensor:
#      x y z
#    x 2.003120 0.000000 0.000000 
#    y 0.000000 2.060700 0.000000 
#    z 0.000000 0.000000 2.011520 
# 
# From -- ./inp_files/15658.got.cif
#   From: 2010.05.17/outbox.cif.g08.bks.cpg/sg36_8_cif.got.tgz:15658.got - 2010.06.03 17:41:39.
