data_PCOD9351258
_publ_section_title
;
Structure prediction by ZEFSAII (Michael W. Deem and Ramdas Pophale) SiO2 
 PCOD9351258
Probable space group: C M C 21
;
_chemical_formula_sum "Si O2"
_cell_formula_units_Z 64
_cell_length_a 27.072041
_cell_length_b 9.424463
_cell_length_c 13.169719
_cell_angle_alpha 90.000000
_cell_angle_beta 90.000000
_cell_angle_gamma 90.000000
_cell_volume 3360.114846
_symmetry_space_group_name_H-M "C M C 21"
_symmetry_group_IT_number 36
_symmetry_cell_setting 'orthorhombic'
loop_
_space_group_symop_operation_xyz
x,y,z
-x,-y,1/2+z
x,-y,1/2+z
-x,y,z
1/2+x,1/2+y,z
1/2-x,1/2-y,1/2+z
1/2+x,1/2-y,1/2+z
1/2-x,1/2+y,z
loop_
_atom_site_type_symbol
_atom_site_label
_atom_site_fract_x
_atom_site_fract_y
_atom_site_fract_z
Si Si1 0.942745 0.259186 0.907330
Si Si2 0.802623 0.830645 0.555314
Si Si3 0.373635 0.173457 0.928961
Si Si4 0.122401 0.999092 0.909418
Si Si5 0.707764 0.494616 0.761382
Si Si6 0.876583 0.418479 0.075084
Si Si7 0.765207 0.276311 0.367077
Si Si8 0.558486 0.981908 0.271609
O O1 0.935201 0.354162 0.806357
O O2 0.000000 0.268443 0.934287
O O3 0.925030 0.097990 0.897468
O O4 0.910116 0.334328 0.993497
O O5 0.788473 0.925775 0.651498
O O6 0.829228 0.683986 0.589527
O O7 0.758420 0.798961 0.477502
O O8 0.841562 0.920482 0.488036
O O9 0.384708 0.338979 0.947322
O O10 0.321772 0.172076 0.867745
O O11 0.418291 0.109502 0.863260
O O12 0.365401 0.071085 0.024968
O O13 0.151598 0.996633 0.802038
O O14 0.733094 0.644252 0.781919
O O15 0.734666 0.388854 0.840237
O O16 0.908921 0.443215 0.174723
O O17 0.500000 0.955542 0.257470
#
# Coordination Sequence:
#
# PCOD9351258 Si02
#       8
#     8   8   8   8   8   8   8   8
#     4   9  19  36  57  80 111 148 183 233 294 342
#     4  10  21  37  56  79 115 153 183 232 291 340
#     4  10  21  36  57  82 110 144 188 237 280 331
#     4   9  20  37  54  80 111 143 187 229 280 348
#     4  10  21  36  55  78 111 147 186 233 281 335
#     4  10  19  35  58  82 111 147 189 233 283 344
#     4  10  21  36  54  82 111 145 193 233 277 345
#     4  10  21  37  58  83 109 143 188 234 282 339
#
# _framework density 19.046968
#
# number of rings (size 3 to 8) (size 9 to 14) (size 15 to 20)
#    0.000    2.250    0.000    2.625    0.000    8.000 
#    0.000    0.000    0.000    3.750    0.000    0.000 
#    0.000    0.000    0.000    0.000    0.000    0.000 
#
# Total GULP energy -178529.707175 kJ/mol
# GULP energy per Si atom -5579.053349 kJ/mol
# Density = 1.900362 g / cm^3
# Si number density = 19.046968 Si / 1000 Ang^3
#
#
#
# Elastic Constant Matrix: (Units=GPa)
#
#
# Indices 1 2 3 4 5 6 
#
# 1 55.7663 22.8751 9.6544 0.0000 0.0000 0.0000
# 2 22.8751 91.6307 -2.3477 0.0000 0.0000 0.0000
# 3 9.6544 -2.3477 63.9559 0.0000 0.0000 0.0000
# 4 0.0000 0.0000 0.0000 15.1510 0.0000 0.0000
# 5 0.0000 0.0000 0.0000 0.0000 23.9607 0.0000
# 6 0.0000 0.0000 0.0000 0.0000 0.0000 31.5980
#
#
#
# Elastic Compliance Matrix: (Units=1/GPa)
#
#
# Indices 1 2 3 4 5 6 
#
# 1 0.020655 -0.005241 -0.003310 0.000000 0.000000 0.000000
# 2 -0.005241 0.012254 0.001241 0.000000 0.000000 0.000000
# 3 -0.003310 0.001241 0.016181 0.000000 0.000000 0.000000
# 4 0.000000 0.000000 0.000000 0.066002 0.000000 0.000000
# 5 0.000000 0.000000 0.000000 0.000000 0.041735 0.000000
# 6 0.000000 0.000000 0.000000 0.000000 0.000000 0.031648
#
#
# Mechanical properties :
#
#
# Convention : Reuss Voigt Hill
#
# Bulk Modulus (GPa) = 29.01202 30.19074 29.60138
# Shear Modulus (GPa) = 23.30077 26.22001 24.76039
#
# Velocity S-wave (km/s) = 3.50141 3.71428 3.60941
# Velocity P-wave (km/s) = 5.62240 5.85488 5.73982
#
# Compressibility (1/GPa) = 0.03446847
#
# Stress axis : x y z
#
# Youngs Moduli (GPa) = 48.41442 81.60857 61.80067
#
# Poissons Ratio (x) = 0.42773 0.20458
# Poissons Ratio (y) = 0.25375 -0.07669
# Poissons Ratio (z) = 0.16027 -0.10128
#
# Static dielectric constant tensor:
#      x y z
#    x 1.648130 0.000000 0.000000 
#    y 0.000000 1.663940 0.000000 
#    z 0.000000 0.000000 1.657250 
# 
# From -- ./inp_files/9743.got.cif
#   From: 2010.05.17/outbox.cif.g08.bks.cpg/sg36_5_cif.got.tgz:9743.got - 2010.06.03 17:41:39.
