data_PCOD9351964
_publ_section_title
;
Structure prediction by ZEFSAII (Michael W. Deem and Ramdas Pophale) SiO2 
 PCOD9351964
Probable space group: C M C 21
;
_chemical_formula_sum "Si O2"
_cell_formula_units_Z 64
_cell_length_a 8.505785
_cell_length_b 23.128512
_cell_length_c 16.469100
_cell_angle_alpha 90.000000
_cell_angle_beta 90.000000
_cell_angle_gamma 90.000000
_cell_volume 3239.902644
_symmetry_space_group_name_H-M "C M C 21"
_symmetry_group_IT_number 36
_symmetry_cell_setting 'orthorhombic'
loop_
_space_group_symop_operation_xyz
x,y,z
-x,-y,1/2+z
x,-y,1/2+z
-x,y,z
1/2+x,1/2+y,z
1/2-x,1/2-y,1/2+z
1/2+x,1/2-y,1/2+z
1/2-x,1/2+y,z
loop_
_atom_site_type_symbol
_atom_site_label
_atom_site_fract_x
_atom_site_fract_y
_atom_site_fract_z
Si Si1 0.178561 0.824248 0.466180
Si Si2 0.684569 0.779262 0.299593
Si Si3 0.686283 0.461466 0.055904
Si Si4 0.310833 0.651290 0.239676
Si Si5 0.819714 0.215207 0.517663
Si Si6 0.688653 0.885115 0.908508
Si Si7 0.317121 0.087834 0.079612
Si Si8 0.317503 0.861622 0.151414
O O1 0.222682 0.797425 0.379589
O O2 0.207335 0.769881 0.525054
O O3 0.289626 0.874363 0.498741
O O4 0.000000 0.844182 0.468569
O O5 0.500000 0.771449 0.319804
O O6 0.735996 0.718573 0.257931
O O7 0.695875 0.833879 0.239393
O O8 0.500000 0.451153 0.055157
O O9 0.724118 0.528348 0.068089
O O10 0.765905 0.426303 0.130307
O O11 0.756269 0.434828 0.971745
O O12 0.500000 0.649493 0.236149
O O13 0.250256 0.613377 0.316346
O O14 0.243493 0.625002 0.156526
O O15 0.763933 0.173654 0.444998
O O16 0.796414 0.176405 0.596023
O O17 0.000000 0.233098 0.507189
O O18 0.500000 0.881831 0.909600
O O19 0.500000 0.075070 0.090789
O O20 0.500000 0.854578 0.125156
#
# Coordination Sequence:
#
# PCOD9351964 Si02
#       8
#     8   8   8   8   8   8   8   8
#     4  12  24  39  61  89 126 165 206 255 317 381
#     4  10  22  39  62  93 130 164 203 254 314 378
#     4  11  23  43  66  90 123 165 215 262 314 376
#     4  11  22  40  66  97 132 166 209 261 319 379
#     4  11  20  34  58  89 124 161 203 250 309 370
#     4  11  21  37  63  95 126 164 210 258 313 371
#     4  12  26  45  66  91 126 167 215 266 322 380
#     4  10  20  37  62  92 123 160 205 254 310 369
#
# _framework density 19.753679999999999
#
# number of rings (size 3 to 8) (size 9 to 14) (size 15 to 20)
#    0.000    1.000    1.250    8.625    0.000    2.500 
#    2.250    0.000    0.000    0.000    0.000    0.000 
#    0.000    0.000    0.000    0.000    0.000    0.000 
#
# Total GULP energy -178760.862633 kJ/mol
# GULP energy per Si atom -5586.276957 kJ/mol
# Density = 1.970872 g / cm^3
# Si number density = 19.753680 Si / 1000 Ang^3
#
#
#
# Elastic Constant Matrix: (Units=GPa)
#
#
# Indices 1 2 3 4 5 6 
#
# 1 95.1773 0.8017 23.2893 0.0000 0.0000 0.0000
# 2 0.8017 91.9140 30.3402 0.0000 0.0000 0.0000
# 3 23.2893 30.3402 62.9483 0.0000 0.0000 0.0000
# 4 0.0000 0.0000 0.0000 23.1896 0.0000 0.0000
# 5 0.0000 0.0000 0.0000 0.0000 30.6869 0.0000
# 6 0.0000 0.0000 0.0000 0.0000 0.0000 25.9439
#
#
#
# Elastic Compliance Matrix: (Units=1/GPa)
#
#
# Indices 1 2 3 4 5 6 
#
# 1 0.011743 0.001584 -0.005108 0.000000 0.000000 0.000000
# 2 0.001584 0.013152 -0.006925 0.000000 0.000000 0.000000
# 3 -0.005108 -0.006925 0.021114 0.000000 0.000000 0.000000
# 4 0.000000 0.000000 0.000000 0.043123 0.000000 0.000000
# 5 0.000000 0.000000 0.000000 0.000000 0.032587 0.000000
# 6 0.000000 0.000000 0.000000 0.000000 0.000000 0.038545
#
#
# Mechanical properties :
#
#
# Convention : Reuss Voigt Hill
#
# Bulk Modulus (GPa) = 39.82449 39.87800 39.85124
# Shear Modulus (GPa) = 26.38079 29.00464 27.69272
#
# Velocity S-wave (km/s) = 3.65840 3.83602 3.74826
# Velocity P-wave (km/s) = 6.16842 6.31280 6.24103
#
# Compressibility (1/GPa) = 0.02511018
#
# Stress axis : x y z
#
# Youngs Moduli (GPa) = 85.15515 76.03531 47.36288
#
# Poissons Ratio (x) = -0.12042 0.24193
# Poissons Ratio (y) = -0.13486 0.32798
# Poissons Ratio (z) = 0.43497 0.52654
#
# Static dielectric constant tensor:
#      x y z
#    x 1.666380 0.000000 0.000000 
#    y 0.000000 1.705350 0.000000 
#    z 0.000000 0.000000 1.737430 
# 
# From -- ./inp_files/13924.got.cif
#   From: 2010.05.17/outbox.cif.g08.bks.cpg/sg36_7_cif.got.tgz:13924.got - 2010.06.03 17:41:39.
