data_PCOD9351669
_publ_section_title
;
Structure prediction by ZEFSAII (Michael W. Deem and Ramdas Pophale) SiO2 
 PCOD9351669
Probable space group: C M C 21
;
_chemical_formula_sum "Si O2"
_cell_formula_units_Z 64
_cell_length_a 7.563020
_cell_length_b 16.580591
_cell_length_c 19.383851
_cell_angle_alpha 90.000000
_cell_angle_beta 90.000000
_cell_angle_gamma 90.000000
_cell_volume 2430.722148
_symmetry_space_group_name_H-M "C M C 21"
_symmetry_group_IT_number 36
_symmetry_cell_setting 'orthorhombic'
loop_
_space_group_symop_operation_xyz
x,y,z
-x,-y,1/2+z
x,-y,1/2+z
-x,y,z
1/2+x,1/2+y,z
1/2-x,1/2-y,1/2+z
1/2+x,1/2-y,1/2+z
1/2-x,1/2+y,z
loop_
_atom_site_type_symbol
_atom_site_label
_atom_site_fract_x
_atom_site_fract_y
_atom_site_fract_z
Si Si1 0.715010 0.996684 0.621010
Si Si2 0.714712 0.512006 0.867232
Si Si3 0.291265 0.744833 0.411978
Si Si4 0.706552 0.104074 0.997129
Si Si5 0.713330 0.843909 0.040589
Si Si6 0.205087 0.094204 0.249372
Si Si7 0.297847 0.734954 0.157505
Si Si8 0.703631 0.331334 0.281650
O O1 0.500000 0.997005 0.624610
O O2 0.772753 0.076604 0.580743
O O3 0.775339 0.923481 0.570934
O O4 0.788205 0.981854 0.696987
O O5 0.500000 0.510499 0.868525
O O6 0.777868 0.528740 0.944316
O O7 0.777267 0.435991 0.822370
O O8 0.771624 0.591643 0.823952
O O9 0.500000 0.755538 0.402689
O O10 0.213711 0.819595 0.457346
O O11 0.265544 0.668397 0.461317
O O12 0.215359 0.756772 0.335945
O O13 0.500000 0.120886 0.006189
O O14 0.500000 0.843482 0.043049
O O15 0.781370 0.768533 0.086903
O O16 0.289449 0.164271 0.202665
O O17 0.000000 0.117367 0.261899
O O18 0.500000 0.711823 0.143101
O O19 0.300319 0.809252 0.211580
O O20 0.500000 0.345277 0.264656
#
# Coordination Sequence:
#
# PCOD9351669 Si02
#       8
#     8   8   8   8   8   8   8   8
#     4  10  21  36  54  78 107 138 176 219 261 310
#     4   9  19  35  54  77 104 135 173 215 258 308
#     4  10  20  35  56  79 105 138 175 216 262 314
#     4   9  19  35  54  77 104 135 173 215 258 308
#     4  10  21  36  54  78 109 142 176 218 266 315
#     4  10  21  36  54  78 107 138 176 219 261 310
#     4  10  21  36  54  78 109 142 176 218 266 315
#     4  10  20  35  56  79 105 138 175 216 262 314
#
# _framework density 26.329623999999999
#
# number of rings (size 3 to 8) (size 9 to 14) (size 15 to 20)
#    0.000    2.250    0.000    2.250    0.000    4.500 
#    0.000    2.500    0.000    0.000    0.000    0.000 
#    0.000    0.000    0.000    0.000    0.000    0.000 
#
# Total GULP energy -179036.821627 kJ/mol
# GULP energy per Si atom -5594.900676 kJ/mol
# Density = 2.626970 g / cm^3
# Si number density = 26.329624 Si / 1000 Ang^3
#
#
#
# Elastic Constant Matrix: (Units=GPa)
#
#
# Indices 1 2 3 4 5 6 
#
# 1 84.9059 3.2708 -4.9019 0.0000 0.0000 0.0000
# 2 3.2708 62.1572 8.8946 0.0000 0.0000 0.0000
# 3 -4.9019 8.8946 149.1173 0.0000 0.0000 0.0000
# 4 0.0000 0.0000 0.0000 54.4891 0.0000 0.0000
# 5 0.0000 0.0000 0.0000 0.0000 21.2544 0.0000
# 6 0.0000 0.0000 0.0000 0.0000 0.0000 8.4095
#
#
#
# Elastic Compliance Matrix: (Units=1/GPa)
#
#
# Indices 1 2 3 4 5 6 
#
# 1 0.011829 -0.000684 0.000430 0.000000 0.000000 0.000000
# 2 -0.000684 0.016266 -0.000993 0.000000 0.000000 0.000000
# 3 0.000430 -0.000993 0.006779 0.000000 0.000000 0.000000
# 4 0.000000 0.000000 0.000000 0.018352 0.000000 0.000000
# 5 0.000000 0.000000 0.000000 0.000000 0.047049 0.000000
# 6 0.000000 0.000000 0.000000 0.000000 0.000000 0.118914
#
#
# Mechanical properties :
#
#
# Convention : Reuss Voigt Hill
#
# Bulk Modulus (GPa) = 30.88270 34.52305 32.70287
# Shear Modulus (GPa) = 21.50748 36.09172 28.79960
#
# Velocity S-wave (km/s) = 2.86117 3.70640 3.31087
# Velocity P-wave (km/s) = 4.76128 5.60864 5.20224
#
# Compressibility (1/GPa) = 0.03238059
#
# Stress axis : x y z
#
# Youngs Moduli (GPa) = 84.53873 61.47688 147.50420
#
# Poissons Ratio (x) = 0.04205 -0.06337
# Poissons Ratio (y) = 0.05782 0.14643
# Poissons Ratio (z) = -0.03632 0.06103
#
# Static dielectric constant tensor:
#      x y z
#    x 1.954130 0.000000 0.000000 
#    y 0.000000 2.208950 0.000000 
#    z 0.000000 0.000000 2.001030 
# 
# From -- ./inp_files/15602.got.cif
#   From: 2010.05.17/outbox.cif.g08.bks.cpg/sg36_8_cif.got.tgz:15602.got - 2010.06.03 17:41:39.
