data_PCOD9351614
_publ_section_title
;
Structure prediction by ZEFSAII (Michael W. Deem and Ramdas Pophale) SiO2 
 PCOD9351614
Probable space group: C M C 21
;
_chemical_formula_sum "Si O2"
_cell_formula_units_Z 52
_cell_length_a 16.660859
_cell_length_b 9.215613
_cell_length_c 13.752821
_cell_angle_alpha 90.000000
_cell_angle_beta 90.000000
_cell_angle_gamma 90.000000
_cell_volume 2111.608532
_symmetry_space_group_name_H-M "C M C 21"
_symmetry_group_IT_number 36
_symmetry_cell_setting 'orthorhombic'
loop_
_space_group_symop_operation_xyz
x,y,z
-x,-y,1/2+z
x,-y,1/2+z
-x,y,z
1/2+x,1/2+y,z
1/2-x,1/2-y,1/2+z
1/2+x,1/2-y,1/2+z
1/2-x,1/2+y,z
loop_
_atom_site_type_symbol
_atom_site_label
_atom_site_fract_x
_atom_site_fract_y
_atom_site_fract_z
Si Si1 0.160726 0.749225 0.684360
Si Si2 0.500000 0.260087 0.174524
Si Si3 0.327881 0.097058 0.490251
Si Si4 0.093482 0.569636 0.836689
Si Si5 0.500000 0.416992 0.699344
Si Si6 0.000000 0.967656 0.996873
Si Si7 0.669174 0.833004 0.642727
Si Si8 0.346094 0.653475 0.458789
O O1 0.155936 0.724499 0.567792
O O2 0.148020 0.597214 0.741577
O O3 0.248594 0.814925 0.701798
O O4 0.084934 0.842504 0.721654
O O5 0.500000 0.414285 0.228563
O O6 0.500000 0.312985 0.059773
O O7 0.418560 0.172051 0.192011
O O8 0.392443 0.066611 0.407133
O O9 0.322500 0.959303 0.562988
O O10 0.243889 0.111220 0.433733
O O11 0.123495 0.704113 0.903932
O O12 0.000000 0.584628 0.813345
O O13 0.500000 0.417516 0.581725
O O14 0.916059 0.963264 0.942574
O O15 0.664187 0.686273 0.574620
#
# Coordination Sequence:
#
# PCOD9351614 Si02
#       8
#     8   4   8   8   4   4   8   8
#     4  11  23  38  60  98 129 167 219 274 328 375
#     4   8  18  35  59  89 113 162 210 247 317 383
#     4  10  23  38  64  94 130 168 213 265 328 389
#     4  11  23  40  62  90 127 177 219 261 326 393
#     4  10  20  34  58  92 119 153 213 265 304 385
#     4   8  14  29  61  79 108 141 187 254 301 360
#     4   9  19  36  63  91 121 160 213 260 317 391
#     4   9  17  36  58  89 113 156 208 255 311 376
#
# _framework density 24.625775999999998
#
# number of rings (size 3 to 8) (size 9 to 14) (size 15 to 20)
#    0.462    1.846    1.538    0.923    6.462    1.231 
#    0.000    0.000    0.000    0.000    0.000    0.000 
#    0.000    0.000    0.000    0.000    0.000    0.000 
#
# Total GULP energy -145025.711394 kJ/mol
# GULP energy per Si atom -5577.911977 kJ/mol
# Density = 2.456973 g / cm^3
# Si number density = 24.625776 Si / 1000 Ang^3
#
#
#
# Elastic Constant Matrix: (Units=GPa)
#
#
# Indices 1 2 3 4 5 6 
#
# 1 196.1743 36.7762 27.0997 0.0000 0.0000 0.0000
# 2 36.7762 40.7418 -4.1489 0.0000 0.0000 0.0000
# 3 27.0997 -4.1489 99.2098 0.0000 0.0000 0.0000
# 4 0.0000 0.0000 0.0000 33.8839 0.0000 0.0000
# 5 0.0000 0.0000 0.0000 0.0000 22.8963 0.0000
# 6 0.0000 0.0000 0.0000 0.0000 0.0000 31.7468
#
#
#
# Elastic Compliance Matrix: (Units=1/GPa)
#
#
# Indices 1 2 3 4 5 6 
#
# 1 0.006521 -0.006094 -0.002036 0.000000 0.000000 0.000000
# 2 -0.006094 0.030344 0.002934 0.000000 0.000000 0.000000
# 3 -0.002036 0.002934 0.010759 0.000000 0.000000 0.000000
# 4 0.000000 0.000000 0.000000 0.029513 0.000000 0.000000
# 5 0.000000 0.000000 0.000000 0.000000 0.043675 0.000000
# 6 0.000000 0.000000 0.000000 0.000000 0.000000 0.031499
#
#
# Mechanical properties :
#
#
# Convention : Reuss Voigt Hill
#
# Bulk Modulus (GPa) = 26.85928 50.61999 38.73963
# Shear Modulus (GPa) = 28.55285 36.13200 32.34243
#
# Velocity S-wave (km/s) = 3.40879 3.83462 3.62796
# Velocity P-wave (km/s) = 5.14041 6.34082 5.77191
#
# Compressibility (1/GPa) = 0.03723108
#
# Stress axis : x y z
#
# Youngs Moduli (GPa) = 153.34697 32.95528 92.94971
#
# Poissons Ratio (x) = 0.20082 0.18926
# Poissons Ratio (y) = 0.93446 -0.27267
# Poissons Ratio (z) = 0.31223 -0.09668
#
# Static dielectric constant tensor:
#      x y z
#    x 1.975020 0.000000 0.000000 
#    y 0.000000 2.043650 0.000000 
#    z 0.000000 0.000000 1.982010 
# 
# From -- ./inp_files/12593.got.cif
#   From: 2010.05.17/outbox.cif.g08.bks.cpg/sg36_7_cif.got.tgz:12593.got - 2010.06.03 17:41:39.
