data_PCOD9351994
_publ_section_title
;
Structure prediction by ZEFSAII (Michael W. Deem and Ramdas Pophale) SiO2 
 PCOD9351994
Probable space group: C M C 21
;
_chemical_formula_sum "Si O2"
_cell_formula_units_Z 44
_cell_length_a 13.343282
_cell_length_b 26.524955
_cell_length_c 5.039859
_cell_angle_alpha 90.000000
_cell_angle_beta 90.000000
_cell_angle_gamma 90.000000
_cell_volume 1783.757067
_symmetry_space_group_name_H-M "C M C 21"
_symmetry_group_IT_number 36
_symmetry_cell_setting 'orthorhombic'
loop_
_space_group_symop_operation_xyz
x,y,z
-x,-y,1/2+z
x,-y,1/2+z
-x,y,z
1/2+x,1/2+y,z
1/2-x,1/2-y,1/2+z
1/2+x,1/2-y,1/2+z
1/2-x,1/2+y,z
loop_
_atom_site_type_symbol
_atom_site_label
_atom_site_fract_x
_atom_site_fract_y
_atom_site_fract_z
Si Si1 0.182238 0.760253 0.088760
Si Si2 0.322352 0.923574 0.422045
Si Si3 0.344460 0.466449 0.720424
Si Si4 0.394901 0.840039 0.791113
Si Si5 0.500000 0.029553 0.602343
Si Si6 0.682974 0.370636 0.038599
O O1 0.273446 0.756208 0.303094
O O2 0.109619 0.716596 0.187033
O O3 0.134585 0.816203 0.089398
O O4 0.275379 0.959666 0.650525
O O5 0.383312 0.878313 0.549598
O O6 0.397714 0.945579 0.205925
O O7 0.219217 0.902534 0.291585
O O8 0.376326 0.495442 0.454326
O O9 0.367752 0.410227 0.836131
O O10 0.500000 0.849285 0.933795
O O11 0.291977 0.851314 0.939624
O O12 0.500000 0.021206 0.287534
#
# Coordination Sequence:
#
# PCOD9351994 Si02
#       6
#     8   8   8   8   4   8
#     4  10  20  38  56  81 105 140 184 231 281 331
#     4  11  21  35  50  71 103 142 189 219 261 309
#     4  11  21  34  52  73 101 138 179 225 268 309
#     4  10  21  35  55  81 109 143 184 231 277 330
#     4  12  28  34  46  68 104 144 184 220 252 292
#     4  10  22  35  57  75 108 144 187 227 274 324
#
# _framework density 24.667034999999998
#
# number of rings (size 3 to 8) (size 9 to 14) (size 15 to 20)
#    0.000    1.455    4.545    1.091    6.364    0.000 
#    0.000    0.000    0.000    0.000    0.000    0.000 
#    0.000    1.455    0.000    0.364    0.000    0.000 
#
# Total GULP energy -122687.891839 kJ/mol
# GULP energy per Si atom -5576.722356 kJ/mol
# Density = 2.461089 g / cm^3
# Si number density = 24.667035 Si / 1000 Ang^3
#
#
#
# Elastic Constant Matrix: (Units=GPa)
#
#
# Indices 1 2 3 4 5 6 
#
# 1 49.5504 14.7658 1.8682 0.0000 0.0000 0.0000
# 2 14.7658 149.9376 35.0368 0.0000 0.0000 0.0000
# 3 1.8682 35.0368 107.2791 0.0000 0.0000 0.0000
# 4 0.0000 0.0000 0.0000 42.3271 0.0000 0.0000
# 5 0.0000 0.0000 0.0000 0.0000 -0.7201 0.0000
# 6 0.0000 0.0000 0.0000 0.0000 0.0000 -1.0560
#
#
#
# Elastic Compliance Matrix: (Units=1/GPa)
#
#
# Indices 1 2 3 4 5 6 
#
# 1 0.020803 -0.002126 0.000332 0.000000 0.000000 0.000000
# 2 -0.002126 0.007438 -0.002392 0.000000 0.000000 0.000000
# 3 0.000332 -0.002392 0.010097 0.000000 0.000000 0.000000
# 4 0.000000 0.000000 0.000000 0.023626 0.000000 0.000000
# 5 0.000000 0.000000 0.000000 0.000000 -1.388609 0.000000
# 6 0.000000 0.000000 0.000000 0.000000 0.000000 -0.946933
#
#
# Mechanical properties :
#
#
# Convention : Reuss Voigt Hill
#
# Bulk Modulus (GPa) = 33.37235 45.56762 39.46999
# Shear Modulus (GPa) = -2.21708 25.11660 11.44976
#
# Velocity S-wave (km/s) = -0.94908 3.19443 2.15680
# Velocity P-wave (km/s) = 3.51532 5.66736 4.71574
#
# Compressibility (1/GPa) = 0.02996492
#
# Stress axis : x y z
#
# Youngs Moduli (GPa) = 48.07097 134.44804 99.03974
#
# Poissons Ratio (x) = 0.28587 -0.03290
# Poissons Ratio (y) = 0.10221 0.23692
# Poissons Ratio (z) = -0.01597 0.32162
#
# Static dielectric constant tensor:
#      x y z
#    x 1.988090 0.000000 0.000000 
#    y 0.000000 2.091010 0.000000 
#    z 0.000000 0.000000 2.028110 
# 
# From -- ./inp_files/802.got.cif
#   From: 2010.05.17/outbox.cif.g08.bks.cpg/sg36_1_cif.got.tgz:802.got - 2010.06.03 17:41:39.
