data_PCOD9351287
_publ_section_title
;
Structure prediction by ZEFSAII (Michael W. Deem and Ramdas Pophale) SiO2 
 PCOD9351287
Probable space group: C M C 21
;
_chemical_formula_sum "Si O2"
_cell_formula_units_Z 64
_cell_length_a 9.111298
_cell_length_b 29.408294
_cell_length_c 12.552653
_cell_angle_alpha 90.000000
_cell_angle_beta 90.000000
_cell_angle_gamma 90.000000
_cell_volume 3363.454881
_symmetry_space_group_name_H-M "C M C 21"
_symmetry_group_IT_number 36
_symmetry_cell_setting 'orthorhombic'
loop_
_space_group_symop_operation_xyz
x,y,z
-x,-y,1/2+z
x,-y,1/2+z
-x,y,z
1/2+x,1/2+y,z
1/2-x,1/2-y,1/2+z
1/2+x,1/2-y,1/2+z
1/2-x,1/2+y,z
loop_
_atom_site_type_symbol
_atom_site_label
_atom_site_fract_x
_atom_site_fract_y
_atom_site_fract_z
Si Si1 0.331350 0.833144 0.076010
Si Si2 0.662082 0.066499 0.483552
Si Si3 0.324685 0.315538 0.453123
Si Si4 0.824343 0.881005 0.270341
Si Si5 0.672543 0.475087 0.168203
Si Si6 0.330239 0.066501 0.231796
Si Si7 0.176005 0.224517 0.397019
Si Si8 0.823102 0.837333 0.693705
O O1 0.500000 0.818061 0.092566
O O2 0.333109 0.880012 0.008938
O O3 0.255475 0.847827 0.186234
O O4 0.242456 0.798072 0.003763
O O5 0.500000 0.050138 0.519639
O O6 0.788357 0.042935 0.550861
O O7 0.675748 0.059922 0.358965
O O8 0.500000 0.307060 0.447695
O O9 0.296113 0.362188 0.388470
O O10 0.240302 0.275039 0.394764
O O11 0.282535 0.318297 0.577150
O O12 0.779169 0.933024 0.245037
O O13 0.000000 0.878799 0.250983
O O14 0.500000 0.481945 0.182726
O O15 0.755769 0.521947 0.184343
O O16 0.500000 0.070170 0.199454
O O17 0.247377 0.113134 0.205868
O O18 0.219837 0.195189 0.292517
O O19 0.000000 0.224908 0.402058
O O20 0.000000 0.841496 0.696365
#
# Coordination Sequence:
#
# PCOD9351287 Si02
#       8
#     8   8   8   8   8   8   8   8
#     4  10  19  35  60  85 113 150 196 248 302 353
#     4   9  19  36  56  82 113 151 198 249 301 354
#     4  10  23  42  62  87 124 164 201 248 306 365
#     4   9  20  39  60  86 120 158 202 250 302 356
#     4  10  21  36  58  88 121 161 206 249 303 363
#     4  11  22  38  61  89 122 158 203 252 305 363
#     4  11  23  38  59  89 120 154 202 250 300 362
#     4  10  23  42  62  88 123 160 204 252 303 366
#
# _framework density 19.028054999999998
#
# number of rings (size 3 to 8) (size 9 to 14) (size 15 to 20)
#    0.000    2.000    1.250    1.500    1.750    4.500 
#    0.000    1.250    0.000    0.000    0.000    0.000 
#    0.000    0.000    0.000    0.000    0.000    0.000 
#
# Total GULP energy -178611.211588 kJ/mol
# GULP energy per Si atom -5581.600362 kJ/mol
# Density = 1.898475 g / cm^3
# Si number density = 19.028055 Si / 1000 Ang^3
#
#
#
# Elastic Constant Matrix: (Units=GPa)
#
#
# Indices 1 2 3 4 5 6 
#
# 1 42.3003 39.9915 24.5423 0.0000 0.0000 0.0000
# 2 39.9915 110.1025 37.6611 0.0000 0.0000 0.0000
# 3 24.5423 37.6611 52.1210 0.0000 0.0000 0.0000
# 4 0.0000 0.0000 0.0000 20.9211 0.0000 0.0000
# 5 0.0000 0.0000 0.0000 0.0000 22.8750 0.0000
# 6 0.0000 0.0000 0.0000 0.0000 0.0000 30.9516
#
#
#
# Elastic Compliance Matrix: (Units=1/GPa)
#
#
# Indices 1 2 3 4 5 6 
#
# 1 0.040376 -0.010842 -0.011178 0.000000 0.000000 0.000000
# 2 -0.010842 0.014976 -0.005716 0.000000 0.000000 0.000000
# 3 -0.011178 -0.005716 0.028579 0.000000 0.000000 0.000000
# 4 0.000000 0.000000 0.000000 0.047799 0.000000 0.000000
# 5 0.000000 0.000000 0.000000 0.000000 0.043716 0.000000
# 6 0.000000 0.000000 0.000000 0.000000 0.000000 0.032308
#
#
# Mechanical properties :
#
#
# Convention : Reuss Voigt Hill
#
# Bulk Modulus (GPa) = 35.13703 45.43485 40.28594
# Shear Modulus (GPa) = 18.33438 21.77147 20.05293
#
# Velocity S-wave (km/s) = 3.10747 3.38624 3.24984
# Velocity P-wave (km/s) = 5.60189 6.26247 5.94136
#
# Compressibility (1/GPa) = 0.02846000
#
# Stress axis : x y z
#
# Youngs Moduli (GPa) = 24.76718 66.77541 34.99019
#
# Poissons Ratio (x) = 0.72398 0.39111
# Poissons Ratio (y) = 0.26853 0.19999
# Poissons Ratio (z) = 0.27684 0.38167
#
# Static dielectric constant tensor:
#      x y z
#    x 1.656640 0.000000 0.000000 
#    y 0.000000 1.644850 0.000000 
#    z 0.000000 0.000000 1.655720 
# 
# From -- ./inp_files/7090.got.cif
#   From: 2010.05.17/outbox.cif.g08.bks.cpg/sg36_4_cif.got.tgz:7090.got - 2010.06.03 17:41:39.
