data_PCOD9351267
_publ_section_title
;
Structure prediction by ZEFSAII (Michael W. Deem and Ramdas Pophale) SiO2 
 PCOD9351267
Probable space group: C M C 21
;
_chemical_formula_sum "Si O2"
_cell_formula_units_Z 64
_cell_length_a 7.359254
_cell_length_b 20.014017
_cell_length_c 17.138548
_cell_angle_alpha 90.000000
_cell_angle_beta 90.000000
_cell_angle_gamma 90.000000
_cell_volume 2524.306480
_symmetry_space_group_name_H-M "C M C 21"
_symmetry_group_IT_number 36
_symmetry_cell_setting 'orthorhombic'
loop_
_space_group_symop_operation_xyz
x,y,z
-x,-y,1/2+z
x,-y,1/2+z
-x,y,z
1/2+x,1/2+y,z
1/2-x,1/2-y,1/2+z
1/2+x,1/2-y,1/2+z
1/2-x,1/2+y,z
loop_
_atom_site_type_symbol
_atom_site_label
_atom_site_fract_x
_atom_site_fract_y
_atom_site_fract_z
Si Si1 0.711496 0.469798 0.636400
Si Si2 0.786351 0.421299 0.374053
Si Si3 0.706808 0.408299 0.053984
Si Si4 0.219231 0.943964 0.803296
Si Si5 0.780155 0.790559 0.797785
Si Si6 0.278796 0.158492 0.719326
Si Si7 0.280662 0.852660 0.533033
Si Si8 0.778809 0.217731 0.471636
O O1 0.500000 0.488414 0.642611
O O2 0.792382 0.520207 0.573009
O O3 0.789161 0.475641 0.722265
O O4 0.720971 0.394502 0.607194
O O5 0.763908 0.501350 0.368422
O O6 0.718171 0.385403 0.294697
O O7 0.715083 0.390453 0.454615
O O8 0.000000 0.406259 0.374677
O O9 0.500000 0.419430 0.026065
O O10 0.707955 0.371274 0.138303
O O11 0.789835 0.355132 0.994904
O O12 0.283229 0.867334 0.800959
O O13 0.000000 0.940362 0.802018
O O14 0.721246 0.735341 0.735318
O O15 0.000000 0.792975 0.792085
O O16 0.734001 0.762817 0.883631
O O17 0.500000 0.156097 0.715482
O O18 0.500000 0.853198 0.533403
O O19 0.218843 0.776427 0.528634
O O20 0.000000 0.214833 0.475595
#
# Coordination Sequence:
#
# PCOD9351267 Si02
#       8
#     8   8   8   8   8   8   8   8
#     4  10  22  37  52  81 116 143 178 222 269 324
#     4  10  20  36  57  80 106 138 180 228 270 316
#     4  10  21  36  55  80 111 143 178 222 267 321
#     4  10  21  36  57  82 111 144 180 223 270 323
#     4   9  18  34  57  80 104 140 185 224 263 319
#     4  10  19  35  59  80 102 139 182 224 267 314
#     4  10  21  37  57  79 106 142 184 226 268 321
#     4   9  18  35  56  78 104 141 185 221 262 320
#
# _framework density 25.3535
#
# number of rings (size 3 to 8) (size 9 to 14) (size 15 to 20)
#    0.000    2.250    2.500    0.000    3.500    1.500 
#    0.000    0.625    0.000    1.500    0.000    0.000 
#    0.000    0.000    0.000    0.000    0.000    0.000 
#
# Total GULP energy -178886.629856 kJ/mol
# GULP energy per Si atom -5590.207183 kJ/mol
# Density = 2.529579 g / cm^3
# Si number density = 25.353500 Si / 1000 Ang^3
#
#
#
# Elastic Constant Matrix: (Units=GPa)
#
#
# Indices 1 2 3 4 5 6 
#
# 1 98.8992 -7.9045 -6.6674 0.0000 0.0000 0.0000
# 2 -7.9045 104.8691 -18.5245 0.0000 0.0000 0.0000
# 3 -6.6674 -18.5245 29.1620 0.0000 0.0000 0.0000
# 4 0.0000 0.0000 0.0000 47.6134 0.0000 0.0000
# 5 0.0000 0.0000 0.0000 0.0000 4.6488 0.0000
# 6 0.0000 0.0000 0.0000 0.0000 0.0000 -5.4193
#
#
#
# Elastic Compliance Matrix: (Units=1/GPa)
#
#
# Indices 1 2 3 4 5 6 
#
# 1 0.010439 0.001361 0.003251 0.000000 0.000000 0.000000
# 2 0.001361 0.010918 0.007247 0.000000 0.000000 0.000000
# 3 0.003251 0.007247 0.039638 0.000000 0.000000 0.000000
# 4 0.000000 0.000000 0.000000 0.021003 0.000000 0.000000
# 5 0.000000 0.000000 0.000000 0.000000 0.215109 0.000000
# 6 0.000000 0.000000 0.000000 0.000000 0.000000 -0.184527
#
#
# Mechanical properties :
#
#
# Convention : Reuss Voigt Hill
#
# Bulk Modulus (GPa) = 11.80432 18.52640 15.16536
# Shear Modulus (GPa) = 42.69872 27.10370 34.90121
#
# Velocity S-wave (km/s) = 4.10827 3.27315 3.71426
# Velocity P-wave (km/s) = 5.21247 4.64842 4.93851
#
# Compressibility (1/GPa) = 0.08471474
#
# Stress axis : x y z
#
# Youngs Moduli (GPa) = 95.79190 91.58840 25.22834
#
# Poissons Ratio (x) = -0.12467 -0.08203
# Poissons Ratio (y) = -0.13039 -0.18283
# Poissons Ratio (z) = -0.31146 -0.66373
#
# Static dielectric constant tensor:
#      x y z
#    x 1.980320 0.000000 0.000000 
#    y 0.000000 2.018120 0.000000 
#    z 0.000000 0.000000 1.968680 
# 
# From -- ./inp_files/11779.got.cif
#   From: 2010.05.17/outbox.cif.g08.bks.cpg/sg36_6_cif.got.tgz:11779.got - 2010.06.03 17:41:39.
