data_PCOD9351268
_publ_section_title
;
Structure prediction by ZEFSAII (Michael W. Deem and Ramdas Pophale) SiO2 
 PCOD9351268
Probable space group: C M C 21
;
_chemical_formula_sum "Si O2"
_cell_formula_units_Z 64
_cell_length_a 7.407841
_cell_length_b 24.566486
_cell_length_c 15.712711
_cell_angle_alpha 90.000000
_cell_angle_beta 90.000000
_cell_angle_gamma 90.000000
_cell_volume 2859.471775
_symmetry_space_group_name_H-M "C M C 21"
_symmetry_group_IT_number 36
_symmetry_cell_setting 'orthorhombic'
loop_
_space_group_symop_operation_xyz
x,y,z
-x,-y,1/2+z
x,-y,1/2+z
-x,y,z
1/2+x,1/2+y,z
1/2-x,1/2-y,1/2+z
1/2+x,1/2-y,1/2+z
1/2-x,1/2+y,z
loop_
_atom_site_type_symbol
_atom_site_label
_atom_site_fract_x
_atom_site_fract_y
_atom_site_fract_z
Si Si1 0.721289 0.919885 0.827890
Si Si2 0.221858 0.773919 0.167879
Si Si3 0.204652 0.110159 0.707595
Si Si4 0.283051 0.205612 0.332105
Si Si5 0.713117 0.778553 0.495262
Si Si6 0.781213 0.616681 0.899376
Si Si7 0.219772 0.500398 0.975702
Si Si8 0.295413 0.990469 0.667696
O O1 0.500000 0.921443 0.827481
O O2 0.778454 0.856993 0.826675
O O3 0.781906 0.953094 0.743422
O O4 0.778758 0.951288 0.914072
O O5 0.281590 0.836699 0.161956
O O6 0.280295 0.742985 0.253447
O O7 0.284373 0.741968 0.084872
O O8 0.000000 0.775871 0.169567
O O9 0.205903 0.126655 0.806158
O O10 0.300854 0.052615 0.699808
O O11 0.000000 0.100916 0.678266
O O12 0.500000 0.204102 0.326622
O O13 0.236131 0.234445 0.420702
O O14 0.500000 0.786373 0.508355
O O15 0.783467 0.836168 0.462068
O O16 0.000000 0.619087 0.893641
O O17 0.732761 0.556765 0.930110
O O18 0.285214 0.504943 0.072997
O O19 0.000000 0.496389 0.979597
O O20 0.500000 0.969651 0.655448
#
# Coordination Sequence:
#
# PCOD9351268 Si02
#       8
#     8   8   8   8   8   8   8   8
#     4   9  18  32  52  79 108 136 172 217 264 313
#     4   9  20  36  53  77 110 144 179 217 268 328
#     4  11  21  36  56  78 109 147 182 220 271 327
#     4  10  20  36  56  78 109 146 180 218 269 328
#     4  10  21  36  56  81 108 143 184 225 270 321
#     4  10  19  35  59  82 106 137 183 233 272 313
#     4   9  18  32  53  83 108 131 172 225 271 311
#     4  10  20  35  57  82 108 138 178 227 269 315
#
# _framework density 22.381757
#
# number of rings (size 3 to 8) (size 9 to 14) (size 15 to 20)
#    0.000    2.250    2.500    0.375    3.500    0.000 
#    0.000    2.500    0.000    0.000    0.000    0.000 
#    0.000    0.000    0.000    0.000    0.000    0.000 
#
# Total GULP energy -178734.149911 kJ/mol
# GULP energy per Si atom -5585.442185 kJ/mol
# Density = 2.233081 g / cm^3
# Si number density = 22.381757 Si / 1000 Ang^3
#
#
#
# Elastic Constant Matrix: (Units=GPa)
#
#
# Indices 1 2 3 4 5 6 
#
# 1 72.1429 -8.4043 -12.0733 0.0000 0.0000 0.0000
# 2 -8.4043 76.2459 -21.2913 0.0000 0.0000 0.0000
# 3 -12.0733 -21.2913 69.3017 0.0000 0.0000 0.0000
# 4 0.0000 0.0000 0.0000 34.4457 0.0000 0.0000
# 5 0.0000 0.0000 0.0000 0.0000 5.5484 0.0000
# 6 0.0000 0.0000 0.0000 0.0000 0.0000 0.0596
#
#
#
# Elastic Compliance Matrix: (Units=1/GPa)
#
#
# Indices 1 2 3 4 5 6 
#
# 1 0.014720 0.002558 0.003350 0.000000 0.000000 0.000000
# 2 0.002558 0.014791 0.004990 0.000000 0.000000 0.000000
# 3 0.003350 0.004990 0.016546 0.000000 0.000000 0.000000
# 4 0.000000 0.000000 0.000000 0.029031 0.000000 0.000000
# 5 0.000000 0.000000 0.000000 0.000000 0.180233 0.000000
# 6 0.000000 0.000000 0.000000 0.000000 0.000000 16.783678
#
#
# Mechanical properties :
#
#
# Convention : Reuss Voigt Hill
#
# Bulk Modulus (GPa) = 14.73760 14.90587 14.82174
# Shear Modulus (GPa) = 0.29343 25.30802 12.80072
#
# Velocity S-wave (km/s) = 0.36247 3.36630 2.39409
# Velocity P-wave (km/s) = 2.60272 4.66729 3.77874
#
# Compressibility (1/GPa) = 0.06785363
#
# Stress axis : x y z
#
# Youngs Moduli (GPa) = 67.93443 67.60967 60.43635
#
# Poissons Ratio (x) = -0.17295 -0.20248
# Poissons Ratio (y) = -0.17378 -0.30156
# Poissons Ratio (z) = -0.22760 -0.33736
#
# Static dielectric constant tensor:
#      x y z
#    x 1.875500 0.000000 0.000000 
#    y 0.000000 1.793590 0.000000 
#    z 0.000000 0.000000 1.802550 
# 
# From -- ./inp_files/10878.got.cif
#   From: 2010.05.17/outbox.cif.g08.bks.cpg/sg36_6_cif.got.tgz:10878.got - 2010.06.03 17:41:39.
