data_PCOD9351150
_publ_section_title
;
Structure prediction by ZEFSAII (Michael W. Deem and Ramdas Pophale) SiO2 
 PCOD9351150
Probable space group: C M C 21
;
_chemical_formula_sum "Si O2"
_cell_formula_units_Z 48
_cell_length_a 7.594752
_cell_length_b 29.176754
_cell_length_c 8.209359
_cell_angle_alpha 90.000000
_cell_angle_beta 90.000000
_cell_angle_gamma 90.000000
_cell_volume 1819.113591
_symmetry_space_group_name_H-M "C M C 21"
_symmetry_group_IT_number 36
_symmetry_cell_setting 'orthorhombic'
loop_
_space_group_symop_operation_xyz
x,y,z
-x,-y,1/2+z
x,-y,1/2+z
-x,y,z
1/2+x,1/2+y,z
1/2-x,1/2-y,1/2+z
1/2+x,1/2-y,1/2+z
1/2-x,1/2+y,z
loop_
_atom_site_type_symbol
_atom_site_label
_atom_site_fract_x
_atom_site_fract_y
_atom_site_fract_z
Si Si1 0.282176 0.430640 0.416330
Si Si2 0.705911 0.515980 0.602629
Si Si3 0.709095 0.319747 0.102145
Si Si4 0.798309 0.843782 0.583128
Si Si5 0.702581 0.901792 0.893833
Si Si6 0.211348 0.236908 0.291393
O O1 0.500000 0.428590 0.413307
O O2 0.219390 0.455554 0.253094
O O3 0.225721 0.465900 0.558083
O O4 0.220807 0.379185 0.452324
O O5 0.500000 0.510009 0.636792
O O6 0.723602 0.549203 0.446278
O O7 0.500000 0.325447 0.093002
O O8 0.783881 0.368719 0.052938
O O9 0.775658 0.286021 0.957571
O O10 0.746066 0.289779 0.261682
O O11 0.799618 0.875049 0.748820
O O12 0.716421 0.796394 0.647272
O O13 0.000000 0.834384 0.535784
O O14 0.500000 0.905827 0.848052
O O15 0.000000 0.232607 0.291280
#
# Coordination Sequence:
#
# PCOD9351150 Si02
#       6
#     8   8   8   8   8   8
#     4   9  18  33  58  85 108 139 180 222 263 318
#     4  10  19  34  56  82 109 141 181 222 267 318
#     4  10  21  37  57  80 108 144 182 220 266 321
#     4   9  18  36  58  81 109 141 178 219 265 320
#     4  11  22  36  54  78 108 143 182 225 271 316
#     4   9  19  34  53  80 112 142 177 222 266 313
#
# _framework density 26.386479000000001
#
# number of rings (size 3 to 8) (size 9 to 14) (size 15 to 20)
#    0.000    2.333    0.000    4.000    0.000    7.333 
#    0.000    5.833    0.000    0.000    0.000    0.000 
#    0.000    0.000    0.000    0.000    0.000    0.000 
#
# Total GULP energy -134262.588563 kJ/mol
# GULP energy per Si atom -5594.274523 kJ/mol
# Density = 2.632642 g / cm^3
# Si number density = 26.386479 Si / 1000 Ang^3
#
#
#
# Elastic Constant Matrix: (Units=GPa)
#
#
# Indices 1 2 3 4 5 6 
#
# 1 83.2242 -6.9827 -4.9451 0.0000 0.0000 0.0000
# 2 -6.9827 167.6339 17.5434 0.0000 0.0000 0.0000
# 3 -4.9451 17.5434 71.6189 0.0000 0.0000 0.0000
# 4 0.0000 0.0000 0.0000 52.6930 0.0000 0.0000
# 5 0.0000 0.0000 0.0000 0.0000 5.3765 0.0000
# 6 0.0000 0.0000 0.0000 0.0000 0.0000 11.8812
#
#
#
# Elastic Compliance Matrix: (Units=1/GPa)
#
#
# Indices 1 2 3 4 5 6 
#
# 1 0.012095 0.000427 0.000730 0.000000 0.000000 0.000000
# 2 0.000427 0.006137 -0.001474 0.000000 0.000000 0.000000
# 3 0.000730 -0.001474 0.014374 0.000000 0.000000 0.000000
# 4 0.000000 0.000000 0.000000 0.018978 0.000000 0.000000
# 5 0.000000 0.000000 0.000000 0.000000 0.185995 0.000000
# 6 0.000000 0.000000 0.000000 0.000000 0.000000 0.084167
#
#
# Mechanical properties :
#
#
# Convention : Reuss Voigt Hill
#
# Bulk Modulus (GPa) = 31.27491 37.07870 34.17681
# Shear Modulus (GPa) = 15.01337 35.11422 25.06380
#
# Velocity S-wave (km/s) = 2.38792 3.65192 3.08534
# Velocity P-wave (km/s) = 4.41375 5.64489 5.06685
#
# Compressibility (1/GPa) = 0.03197451
#
# Stress axis : x y z
#
# Youngs Moduli (GPa) = 82.67887 162.93468 69.56882
#
# Poissons Ratio (x) = -0.06963 -0.05082
# Poissons Ratio (y) = -0.03533 0.10254
# Poissons Ratio (z) = -0.06039 0.24015
#
# Static dielectric constant tensor:
#      x y z
#    x 1.962130 0.000000 0.000000 
#    y 0.000000 2.016450 0.000000 
#    z 0.000000 0.000000 2.191750 
# 
# From -- ./inp_files/2652.got.cif
#   From: 2010.05.17/outbox.cif.g08.bks.cpg/sg36_2_cif.got.tgz:2652.got - 2010.06.03 17:41:39.
