data_PCOD9351516
_publ_section_title
;
Structure prediction by ZEFSAII (Michael W. Deem and Ramdas Pophale) SiO2 
 PCOD9351516
Probable space group: C M C 21
;
_chemical_formula_sum "Si O2"
_cell_formula_units_Z 64
_cell_length_a 16.402217
_cell_length_b 11.761502
_cell_length_c 16.912942
_cell_angle_alpha 90.000000
_cell_angle_beta 90.000000
_cell_angle_gamma 90.000000
_cell_volume 3262.755268
_symmetry_space_group_name_H-M "C M C 21"
_symmetry_group_IT_number 36
_symmetry_cell_setting 'orthorhombic'
loop_
_space_group_symop_operation_xyz
x,y,z
-x,-y,1/2+z
x,-y,1/2+z
-x,y,z
1/2+x,1/2+y,z
1/2-x,1/2-y,1/2+z
1/2+x,1/2-y,1/2+z
1/2-x,1/2+y,z
loop_
_atom_site_type_symbol
_atom_site_label
_atom_site_fract_x
_atom_site_fract_y
_atom_site_fract_z
Si Si1 0.806266 0.766512 0.752080
Si Si2 0.901758 0.248755 0.420886
Si Si3 0.906520 0.084308 0.848902
Si Si4 0.653561 0.464055 0.006771
Si Si5 0.247274 0.011271 0.768788
Si Si6 0.403454 0.645027 0.108702
Si Si7 0.327690 0.012262 0.941617
Si Si8 0.596868 0.772922 0.952773
O O1 0.849230 0.770453 0.839495
O O2 0.774775 0.636349 0.735491
O O3 0.873388 0.794929 0.686671
O O4 0.746495 0.878338 0.740890
O O5 0.880197 0.375006 0.449236
O O6 0.000000 0.233130 0.409400
O O7 0.865437 0.165925 0.488166
O O8 0.897059 0.020387 0.933274
O O9 0.848722 0.026875 0.786056
O O10 0.872048 0.208299 0.874209
O O11 0.000000 0.086132 0.824343
O O12 0.747628 0.497814 0.995419
O O13 0.625012 0.517014 0.089106
O O14 0.291815 0.010269 0.853318
O O15 0.500000 0.646221 0.106764
O O16 0.370717 0.715115 0.032433
O O17 0.382508 0.902928 0.953087
O O18 0.500000 0.754925 0.950744
#
# Coordination Sequence:
#
# PCOD9351516 Si02
#       8
#     8   8   8   8   8   8   8   8
#     4  11  22  38  58  83 119 157 191 243 299 359
#     4  11  21  35  59  90 119 151 197 250 295 341
#     4   9  16  29  53  79 106 140 183 235 283 329
#     4  10  20  33  56  82 114 147 189 242 282 340
#     4  10  21  35  56  85 114 148 190 239 292 350
#     4  10  22  38  58  81 111 151 194 236 290 361
#     4  10  20  33  56  85 118 144 187 239 295 345
#     4   9  18  33  54  79 111 148 187 230 284 349
#
# _framework density 19.615324999999999
#
# number of rings (size 3 to 8) (size 9 to 14) (size 15 to 20)
#    0.000    2.000    2.500    3.375    5.250    1.500 
#    0.000    0.000    0.000    0.750    0.000    0.000 
#    0.000    0.000    0.000    0.000    0.000    0.000 
#
# Total GULP energy -178174.369130 kJ/mol
# GULP energy per Si atom -5567.949035 kJ/mol
# Density = 1.957068 g / cm^3
# Si number density = 19.615325 Si / 1000 Ang^3
#
#
#
# Elastic Constant Matrix: (Units=GPa)
#
#
# Indices 1 2 3 4 5 6 
#
# 1 35.2425 8.6663 -3.9995 0.0000 0.0000 0.0000
# 2 8.6663 135.8757 7.9717 0.0000 0.0000 0.0000
# 3 -3.9995 7.9717 12.6969 0.0000 0.0000 0.0000
# 4 0.0000 0.0000 0.0000 13.2890 0.0000 0.0000
# 5 0.0000 0.0000 0.0000 0.0000 5.3725 0.0000
# 6 0.0000 0.0000 0.0000 0.0000 0.0000 30.4319
#
#
#
# Elastic Compliance Matrix: (Units=1/GPa)
#
#
# Indices 1 2 3 4 5 6 
#
# 1 0.030277 -0.002586 0.011161 0.000000 0.000000 0.000000
# 2 -0.002586 0.007862 -0.005751 0.000000 0.000000 0.000000
# 3 0.011161 -0.005751 0.085886 0.000000 0.000000 0.000000
# 4 0.000000 0.000000 0.000000 0.075250 0.000000 0.000000
# 5 0.000000 0.000000 0.000000 0.000000 0.186134 0.000000
# 6 0.000000 0.000000 0.000000 0.000000 0.000000 0.032860
#
#
# Mechanical properties :
#
#
# Convention : Reuss Voigt Hill
#
# Bulk Modulus (GPa) = 7.71168 23.23246 15.47207
# Shear Modulus (GPa) = 10.96864 21.23046 16.09955
#
# Velocity S-wave (km/s) = 2.36728 3.29346 2.86801
# Velocity P-wave (km/s) = 3.37817 5.13150 4.34421
#
# Compressibility (1/GPa) = 0.12967349
#
# Stress axis : x y z
#
# Youngs Moduli (GPa) = 33.02799 127.19423 11.64338
#
# Poissons Ratio (x) = 0.32891 -0.12995
# Poissons Ratio (y) = 0.08541 0.06696
# Poissons Ratio (z) = -0.36862 0.73146
#
# Static dielectric constant tensor:
#      x y z
#    x 1.695540 0.000000 0.000000 
#    y 0.000000 1.804490 0.000000 
#    z 0.000000 0.000000 1.702730 
# 
# From -- ./inp_files/14934.got.cif
#   From: 2010.05.17/outbox.cif.g08.bks.cpg/sg36_8_cif.got.tgz:14934.got - 2010.06.03 17:41:39.
