data_PCOD9351553
_publ_section_title
;
Structure prediction by ZEFSAII (Michael W. Deem and Ramdas Pophale) SiO2 
 PCOD9351553
Probable space group: C M C 21
;
_chemical_formula_sum "Si O2"
_cell_formula_units_Z 40
_cell_length_a 7.606274
_cell_length_b 27.033432
_cell_length_c 7.937748
_cell_angle_alpha 90.000000
_cell_angle_beta 90.000000
_cell_angle_gamma 90.000000
_cell_volume 1632.189042
_symmetry_space_group_name_H-M "C M C 21"
_symmetry_group_IT_number 36
_symmetry_cell_setting 'orthorhombic'
loop_
_space_group_symop_operation_xyz
x,y,z
-x,-y,1/2+z
x,-y,1/2+z
-x,y,z
1/2+x,1/2+y,z
1/2-x,1/2-y,1/2+z
1/2+x,1/2-y,1/2+z
1/2-x,1/2+y,z
loop_
_atom_site_type_symbol
_atom_site_label
_atom_site_fract_x
_atom_site_fract_y
_atom_site_fract_z
Si Si1 0.500000 0.516861 0.660610
Si Si2 0.790387 0.673392 0.987714
Si Si3 0.202274 0.646284 0.455333
Si Si4 0.200836 0.581042 0.801387
Si Si5 0.000000 0.919206 0.815523
Si Si6 0.211134 0.264707 0.172574
O O1 0.328410 0.536329 0.759735
O O2 0.500000 0.457921 0.663969
O O3 0.500000 0.544946 0.481779
O O4 0.729723 0.618208 0.946355
O O5 0.717895 0.708567 0.838472
O O6 0.758231 0.707631 0.148280
O O7 0.000000 0.669722 0.968195
O O8 0.197847 0.614893 0.631787
O O9 0.331103 0.616062 0.334853
O O10 0.270368 0.699690 0.518892
O O11 0.000000 0.648498 0.395560
O O12 0.000000 0.565377 0.837270
O O13 0.000000 0.268108 0.174704
#
# Coordination Sequence:
#
# PCOD9351553 Si02
#       6
#     4   8   8   8   4   8
#     4  10  20  34  54  76  96 128 168 208 255 298
#     4   9  18  31  48  73 101 131 168 206 244 293
#     4   8  16  32  51  71  98 131 168 203 240 298
#     4   8  16  32  51  71  98 131 168 203 240 298
#     4  10  20  34  54  76  96 128 168 208 255 298
#     4   9  18  31  48  73 101 131 168 206 244 293
#
# _framework density 24.506967
#
# number of rings (size 3 to 8) (size 9 to 14) (size 15 to 20)
#    0.000    3.200    0.000    2.400    2.800    1.600 
#    0.000    2.000    0.000    2.400    0.000    0.000 
#    0.000    0.000    0.000    0.000    0.000    0.000 
#
# Total GULP energy -111792.418425 kJ/mol
# GULP energy per Si atom -5589.620921 kJ/mol
# Density = 2.445119 g / cm^3
# Si number density = 24.506967 Si / 1000 Ang^3
#
#
#
# Elastic Constant Matrix: (Units=GPa)
#
#
# Indices 1 2 3 4 5 6 
#
# 1 91.5844 46.1954 6.3040 0.0000 0.0000 0.0000
# 2 46.1954 131.9538 21.9255 0.0000 0.0000 0.0000
# 3 6.3040 21.9255 76.5867 0.0000 0.0000 0.0000
# 4 0.0000 0.0000 0.0000 46.3688 0.0000 0.0000
# 5 0.0000 0.0000 0.0000 0.0000 12.5342 0.0000
# 6 0.0000 0.0000 0.0000 0.0000 0.0000 38.1278
#
#
#
# Elastic Compliance Matrix: (Units=1/GPa)
#
#
# Indices 1 2 3 4 5 6 
#
# 1 0.013265 -0.004685 0.000249 0.000000 0.000000 0.000000
# 2 -0.004685 0.009612 -0.002366 0.000000 0.000000 0.000000
# 3 0.000249 -0.002366 0.013714 0.000000 0.000000 0.000000
# 4 0.000000 0.000000 0.000000 0.021566 0.000000 0.000000
# 5 0.000000 0.000000 0.000000 0.000000 0.079782 0.000000
# 6 0.000000 0.000000 0.000000 0.000000 0.000000 0.026228
#
#
# Mechanical properties :
#
#
# Convention : Reuss Voigt Hill
#
# Bulk Modulus (GPa) = 43.50304 49.88607 46.69456
# Shear Modulus (GPa) = 26.96399 34.45284 30.70842
#
# Velocity S-wave (km/s) = 3.32061 3.75352 3.54368
# Velocity P-wave (km/s) = 5.70016 6.25981 5.98653
#
# Compressibility (1/GPa) = 0.02298690
#
# Stress axis : x y z
#
# Youngs Moduli (GPa) = 75.38619 104.03826 72.91862
#
# Poissons Ratio (x) = 0.48746 -0.01819
# Poissons Ratio (y) = 0.35321 0.17253
# Poissons Ratio (z) = -0.01881 0.24616
#
# Static dielectric constant tensor:
#      x y z
#    x 1.849050 0.000000 0.000000 
#    y 0.000000 1.892200 0.000000 
#    z 0.000000 0.000000 2.078250 
# 
# From -- ./inp_files/2446.got.cif
#   From: 2010.05.17/outbox.cif.g08.bks.cpg/sg36_2_cif.got.tgz:2446.got - 2010.06.03 17:41:39.
