data_PCOD9351724
_publ_section_title
;
Structure prediction by ZEFSAII (Michael W. Deem and Ramdas Pophale) SiO2 
 PCOD9351724
Probable space group: C M C 21
;
_chemical_formula_sum "Si O2"
_cell_formula_units_Z 64
_cell_length_a 7.628895
_cell_length_b 15.061728
_cell_length_c 23.777555
_cell_angle_alpha 90.000000
_cell_angle_beta 90.000000
_cell_angle_gamma 90.000000
_cell_volume 2732.144298
_symmetry_space_group_name_H-M "C M C 21"
_symmetry_group_IT_number 36
_symmetry_cell_setting 'orthorhombic'
loop_
_space_group_symop_operation_xyz
x,y,z
-x,-y,1/2+z
x,-y,1/2+z
-x,y,z
1/2+x,1/2+y,z
1/2-x,1/2-y,1/2+z
1/2+x,1/2-y,1/2+z
1/2-x,1/2+y,z
loop_
_atom_site_type_symbol
_atom_site_label
_atom_site_fract_x
_atom_site_fract_y
_atom_site_fract_z
Si Si1 0.700675 0.608634 0.787780
Si Si2 0.288873 0.260191 0.635723
Si Si3 0.788768 0.651927 0.463337
Si Si4 0.210815 0.058016 0.346738
Si Si5 0.208725 0.555025 0.667689
Si Si6 0.287918 0.326683 0.514359
Si Si7 0.204947 0.805816 0.754685
Si Si8 0.793564 0.487586 0.050793
O O1 0.500000 0.629651 0.801848
O O2 0.776686 0.541473 0.834074
O O3 0.706666 0.553092 0.729044
O O4 0.786304 0.703891 0.776302
O O5 0.500000 0.270680 0.634732
O O6 0.260197 0.155672 0.645675
O O7 0.225125 0.292881 0.575679
O O8 0.217884 0.307892 0.691759
O O9 0.744650 0.600572 0.406917
O O10 0.729656 0.753854 0.469007
O O11 0.721148 0.596118 0.516828
O O12 0.000000 0.653162 0.467400
O O13 0.280927 0.126421 0.299772
O O14 0.000000 0.052176 0.340826
O O15 0.275513 0.498008 0.614405
O O16 0.000000 0.542281 0.676739
O O17 0.500000 0.328667 0.514014
O O18 0.227625 0.427328 0.511425
O O19 0.000000 0.827414 0.748995
O O20 0.000000 0.470820 0.059377
#
# Coordination Sequence:
#
# PCOD9351724 Si02
#       8
#     8   8   8   8   8   8   8   8
#     4  10  21  36  56  86 117 144 184 238 284 325
#     4   8  14  30  57  80 106 144 182 218 266 332
#     4  10  22  41  60  79 111 153 193 230 275 333
#     4  10  23  40  59  82 112 151 192 232 277 331
#     4   9  17  34  58  81 114 153 185 222 277 343
#     4  10  20  35  58  85 110 145 188 230 279 332
#     4   9  19  37  59  81 110 152 188 221 276 341
#     4  10  21  37  57  84 114 148 188 231 280 337
#
# _framework density 23.424824999999998
#
# number of rings (size 3 to 8) (size 9 to 14) (size 15 to 20)
#    0.000    2.500    1.250    1.125    1.750    4.000 
#    0.000    7.500    0.000    0.000    0.000    0.000 
#    0.000    0.000    0.000    0.000    0.000    0.000 
#
# Total GULP energy -178664.605038 kJ/mol
# GULP energy per Si atom -5583.268907 kJ/mol
# Density = 2.337151 g / cm^3
# Si number density = 23.424825 Si / 1000 Ang^3
#
#
#
# Elastic Constant Matrix: (Units=GPa)
#
#
# Indices 1 2 3 4 5 6 
#
# 1 45.5736 -5.6270 -4.8604 0.0000 0.0000 0.0000
# 2 -5.6270 53.4057 -7.5668 0.0000 0.0000 0.0000
# 3 -4.8604 -7.5668 27.1816 0.0000 0.0000 0.0000
# 4 0.0000 0.0000 0.0000 31.7071 0.0000 0.0000
# 5 0.0000 0.0000 0.0000 0.0000 17.8029 0.0000
# 6 0.0000 0.0000 0.0000 0.0000 0.0000 14.3316
#
#
#
# Elastic Compliance Matrix: (Units=1/GPa)
#
#
# Indices 1 2 3 4 5 6 
#
# 1 0.022855 0.003110 0.004952 0.000000 0.000000 0.000000
# 2 0.003110 0.019917 0.006100 0.000000 0.000000 0.000000
# 3 0.004952 0.006100 0.039373 0.000000 0.000000 0.000000
# 4 0.000000 0.000000 0.000000 0.031539 0.000000 0.000000
# 5 0.000000 0.000000 0.000000 0.000000 0.056171 0.000000
# 6 0.000000 0.000000 0.000000 0.000000 0.000000 0.069776
#
#
# Mechanical properties :
#
#
# Convention : Reuss Voigt Hill
#
# Bulk Modulus (GPa) = 9.05226 10.00583 9.52904
# Shear Modulus (GPa) = 20.15092 22.38267 21.26680
#
# Velocity S-wave (km/s) = 2.93616 3.09449 3.01636
# Velocity P-wave (km/s) = 3.92014 4.12899 4.02592
#
# Compressibility (1/GPa) = 0.11046965
#
# Stress axis : x y z
#
# Youngs Moduli (GPa) = 43.75476 50.20941 25.39789
#
# Poissons Ratio (x) = -0.15614 -0.12578
# Poissons Ratio (y) = -0.13607 -0.15494
# Poissons Ratio (z) = -0.21669 -0.30630
#
# Static dielectric constant tensor:
#      x y z
#    x 1.885940 0.000000 0.000000 
#    y 0.000000 1.907320 0.000000 
#    z 0.000000 0.000000 1.903100 
# 
# From -- ./inp_files/16569.got.cif
#   From: 2010.05.17/outbox.cif.g08.bks.cpg/sg36_9_cif.got.tgz:16569.got - 2010.06.03 17:41:39.
