data_PCOD9351384
_publ_section_title
;
Structure prediction by ZEFSAII (Michael W. Deem and Ramdas Pophale) SiO2 
 PCOD9351384
Probable space group: C M C 21
;
_chemical_formula_sum "Si O2"
_cell_formula_units_Z 48
_cell_length_a 8.585353
_cell_length_b 31.701788
_cell_length_c 9.152895
_cell_angle_alpha 90.000000
_cell_angle_beta 90.000000
_cell_angle_gamma 90.000000
_cell_volume 2491.152958
_symmetry_space_group_name_H-M "C M C 21"
_symmetry_group_IT_number 36
_symmetry_cell_setting 'orthorhombic'
loop_
_space_group_symop_operation_xyz
x,y,z
-x,-y,1/2+z
x,-y,1/2+z
-x,y,z
1/2+x,1/2+y,z
1/2-x,1/2-y,1/2+z
1/2+x,1/2-y,1/2+z
1/2-x,1/2+y,z
loop_
_atom_site_type_symbol
_atom_site_label
_atom_site_fract_x
_atom_site_fract_y
_atom_site_fract_z
Si Si1 0.310467 0.457518 0.204950
Si Si2 0.814259 0.625864 0.204221
Si Si3 0.187428 0.126765 0.875403
Si Si4 0.686959 0.792310 0.203486
Si Si5 0.810902 0.956716 0.866631
Si Si6 0.187046 0.792946 0.874786
O O1 0.500000 0.457583 0.205182
O O2 0.261040 0.415656 0.291020
O O3 0.261511 0.500135 0.286938
O O4 0.261579 0.456868 0.036058
O O5 0.754264 0.583712 0.283334
O O6 0.751351 0.666320 0.291391
O O7 0.000000 0.626615 0.203547
O O8 0.751845 0.627002 0.039107
O O9 0.245158 0.167534 0.788043
O O10 0.000000 0.126959 0.880735
O O11 0.500000 0.795035 0.202242
O O12 0.731806 0.749434 0.287708
O O13 0.748774 0.791377 0.038708
O O14 0.000000 0.954822 0.862534
O O15 0.000000 0.795389 0.879339
#
# Coordination Sequence:
#
# PCOD9351384 Si02
#       6
#     8   8   8   8   8   8
#     4   9  19  35  61  91 117 152 199 247 292 356
#     4  12  25  40  59  87 121 157 201 254 307 354
#     4  11  22  39  63  90 121 160 203 245 297 361
#     4  11  24  41  63  93 125 156 197 250 300 348
#     4  10  19  37  62  88 118 154 199 246 298 360
#     4  11  24  42  64  89 120 161 203 242 294 361
#
# _framework density 19.268187000000001
#
# number of rings (size 3 to 8) (size 9 to 14) (size 15 to 20)
#    0.000    1.333    0.000    6.000    0.000    9.333 
#    0.000    5.000    0.000    0.000    0.000    0.000 
#    0.000    0.000    0.000    0.000    0.000    0.000 
#
# Total GULP energy -134268.016069 kJ/mol
# GULP energy per Si atom -5594.500670 kJ/mol
# Density = 1.922433 g / cm^3
# Si number density = 19.268187 Si / 1000 Ang^3
#
#
#
# Elastic Constant Matrix: (Units=GPa)
#
#
# Indices 1 2 3 4 5 6 
#
# 1 56.1150 54.7541 49.3473 0.0000 0.0000 0.0000
# 2 54.7541 225.3078 133.4089 0.0000 0.0000 0.0000
# 3 49.3473 133.4089 229.6618 0.0000 0.0000 0.0000
# 4 0.0000 0.0000 0.0000 48.0606 0.0000 0.0000
# 5 0.0000 0.0000 0.0000 0.0000 30.2165 0.0000
# 6 0.0000 0.0000 0.0000 0.0000 0.0000 25.8331
#
#
#
# Elastic Compliance Matrix: (Units=1/GPa)
#
#
# Indices 1 2 3 4 5 6 
#
# 1 0.024446 -0.004315 -0.002746 0.000000 0.000000 0.000000
# 2 -0.004315 0.007527 -0.003445 0.000000 0.000000 0.000000
# 3 -0.002746 -0.003445 0.006946 0.000000 0.000000 0.000000
# 4 0.000000 0.000000 0.000000 0.020807 0.000000 0.000000
# 5 0.000000 0.000000 0.000000 0.000000 0.033095 0.000000
# 6 0.000000 0.000000 0.000000 0.000000 0.000000 0.038710
#
#
# Mechanical properties :
#
#
# Convention : Reuss Voigt Hill
#
# Bulk Modulus (GPa) = 55.84768 109.56725 82.70747
# Shear Modulus (GPa) = 31.54362 39.06032 35.30197
#
# Velocity S-wave (km/s) = 4.05048 4.50732 4.28499
# Velocity P-wave (km/s) = 7.13600 9.16928 8.21578
#
# Compressibility (1/GPa) = 0.01790585
#
# Stress axis : x y z
#
# Youngs Moduli (GPa) = 40.90714 132.85686 143.97528
#
# Poissons Ratio (x) = 0.57323 0.39540
# Poissons Ratio (y) = 0.17650 0.49603
# Poissons Ratio (z) = 0.11234 0.45772
#
# Static dielectric constant tensor:
#      x y z
#    x 1.656910 0.000000 0.000000 
#    y 0.000000 1.637540 0.000000 
#    z 0.000000 0.000000 1.630390 
# 
# From -- ./inp_files/2718.got.cif
#   From: 2010.05.17/outbox.cif.g08.bks.cpg/sg36_2_cif.got.tgz:2718.got - 2010.06.03 17:41:39.
