data_PCOD9351393
_publ_section_title
;
Structure prediction by ZEFSAII (Michael W. Deem and Ramdas Pophale) SiO2 
 PCOD9351393
Probable space group: C M C 21
;
_chemical_formula_sum "Si O2"
_cell_formula_units_Z 48
_cell_length_a 7.651064
_cell_length_b 20.244431
_cell_length_c 14.428602
_cell_angle_alpha 90.000000
_cell_angle_beta 90.000000
_cell_angle_gamma 90.000000
_cell_volume 2234.866901
_symmetry_space_group_name_H-M "C M C 21"
_symmetry_group_IT_number 36
_symmetry_cell_setting 'orthorhombic'
loop_
_space_group_symop_operation_xyz
x,y,z
-x,-y,1/2+z
x,-y,1/2+z
-x,y,z
1/2+x,1/2+y,z
1/2-x,1/2-y,1/2+z
1/2+x,1/2-y,1/2+z
1/2-x,1/2+y,z
loop_
_atom_site_type_symbol
_atom_site_label
_atom_site_fract_x
_atom_site_fract_y
_atom_site_fract_z
Si Si1 0.796666 0.315639 0.111280
Si Si2 0.786229 0.356916 0.312993
Si Si3 0.203661 0.959394 0.579438
Si Si4 0.212394 0.491106 0.790360
Si Si5 0.699343 0.916669 0.963671
Si Si6 0.705321 0.814577 0.511018
O O1 0.725855 0.327192 0.214685
O O2 0.000000 0.336471 0.118589
O O3 0.717031 0.362478 0.031327
O O4 0.788202 0.241435 0.074766
O O5 0.734446 0.434096 0.316180
O O6 0.726330 0.319076 0.405292
O O7 0.000000 0.355240 0.316039
O O8 0.228673 0.974132 0.687544
O O9 0.269427 0.886953 0.553777
O O10 0.000000 0.964174 0.555445
O O11 0.302055 0.015533 0.521836
O O12 0.277933 0.437970 0.865396
O O13 0.000000 0.490458 0.792427
O O14 0.500000 0.894698 0.944546
O O15 0.500000 0.799390 0.507656
#
# Coordination Sequence:
#
# PCOD9351393 Si02
#       6
#     8   8   8   8   8   8
#     4  10  21  39  61  90 122 155 193 249 310 359
#     4   9  18  36  64  87 114 156 202 246 300 359
#     4  12  24  37  58  91 125 156 197 251 301 354
#     4  10  19  37  64  91 118 158 204 247 298 362
#     4  10  20  38  65  90 118 156 201 246 299 363
#     4  11  23  41  62  87 119 163 207 247 298 365
#
# _framework density 21.477788
#
# number of rings (size 3 to 8) (size 9 to 14) (size 15 to 20)
#    0.000    1.667    3.333    2.000    0.000    2.667 
#    0.000    5.000    0.000    0.000    0.000    0.000 
#    0.000    0.000    0.000    0.000    0.000    0.000 
#
# Total GULP energy -134068.100052 kJ/mol
# GULP energy per Si atom -5586.170836 kJ/mol
# Density = 2.142890 g / cm^3
# Si number density = 21.477788 Si / 1000 Ang^3
#
#
#
# Elastic Constant Matrix: (Units=GPa)
#
#
# Indices 1 2 3 4 5 6 
#
# 1 51.6142 -16.5337 -5.5844 0.0000 0.0000 0.0000
# 2 -16.5337 62.8409 -6.6936 0.0000 0.0000 0.0000
# 3 -5.5844 -6.6936 87.4082 0.0000 0.0000 0.0000
# 4 0.0000 0.0000 0.0000 32.2049 0.0000 0.0000
# 5 0.0000 0.0000 0.0000 0.0000 1727.5893 0.0000
# 6 0.0000 0.0000 0.0000 0.0000 0.0000 15.6495
#
#
#
# Elastic Compliance Matrix: (Units=1/GPa)
#
#
# Indices 1 2 3 4 5 6 
#
# 1 0.021440 0.005834 0.001817 0.000000 0.000000 0.000000
# 2 0.005834 0.017632 0.001723 0.000000 0.000000 0.000000
# 3 0.001817 0.001723 0.011689 0.000000 0.000000 0.000000
# 4 0.000000 0.000000 0.000000 0.031051 0.000000 0.000000
# 5 0.000000 0.000000 0.000000 0.000000 0.000579 0.000000
# 6 0.000000 0.000000 0.000000 0.000000 0.000000 0.063900
#
#
# Mechanical properties :
#
#
# Convention : Reuss Voigt Hill
#
# Bulk Modulus (GPa) = 14.38674 16.02664 15.20669
# Shear Modulus (GPa) = 33.17589 370.46705 201.82147
#
# Velocity S-wave (km/s) = 3.93448 13.14773 9.70420
# Velocity P-wave (km/s) = 5.23002 15.42602 11.51771
#
# Compressibility (1/GPa) = 0.06950844
#
# Stress axis : x y z
#
# Youngs Moduli (GPa) = 46.64175 56.71567 85.55361
#
# Poissons Ratio (x) = -0.33091 -0.15541
# Poissons Ratio (y) = -0.27213 -0.14741
# Poissons Ratio (z) = -0.08473 -0.09772
#
# Static dielectric constant tensor:
#      x y z
#    x 0.159990 0.000000 0.000000 
#    y 0.000000 1.729930 0.000000 
#    z 0.000000 0.000000 1.783360 
# 
# From -- ./inp_files/10347.got.cif
#   From: 2010.05.17/outbox.cif.g08.bks.cpg/sg36_6_cif.got.tgz:10347.got - 2010.06.03 17:41:39.
