data_PCOD9351497
_publ_section_title
;
Structure prediction by ZEFSAII (Michael W. Deem and Ramdas Pophale) SiO2 
 PCOD9351497
Probable space group: C M C 21
;
_chemical_formula_sum "Si O2"
_cell_formula_units_Z 64
_cell_length_a 29.683658
_cell_length_b 13.883200
_cell_length_c 8.200024
_cell_angle_alpha 90.000000
_cell_angle_beta 90.000000
_cell_angle_gamma 90.000000
_cell_volume 3379.264009
_symmetry_space_group_name_H-M "C M C 21"
_symmetry_group_IT_number 36
_symmetry_cell_setting 'orthorhombic'
loop_
_space_group_symop_operation_xyz
x,y,z
-x,-y,1/2+z
x,-y,1/2+z
-x,y,z
1/2+x,1/2+y,z
1/2-x,1/2-y,1/2+z
1/2+x,1/2-y,1/2+z
1/2-x,1/2+y,z
loop_
_atom_site_type_symbol
_atom_site_label
_atom_site_fract_x
_atom_site_fract_y
_atom_site_fract_z
Si Si1 0.275516 0.034788 0.740770
Si Si2 0.051169 0.120096 0.030827
Si Si3 0.325582 0.466377 0.362921
Si Si4 0.706873 0.149499 0.403860
Si Si5 0.352286 0.704478 0.073719
Si Si6 0.449809 0.601231 0.638981
Si Si7 0.859351 0.855710 0.057273
Si Si8 0.298088 0.227497 0.889472
O O1 0.223421 0.021090 0.787358
O O2 0.280885 0.086068 0.566037
O O3 0.292908 0.114073 0.869944
O O4 0.297699 0.930764 0.764626
O O5 0.051427 0.114949 0.833752
O O6 0.000000 0.149711 0.080226
O O7 0.094491 0.183261 0.081637
O O8 0.058401 0.011414 0.097089
O O9 0.327896 0.393853 0.515749
O O10 0.345514 0.566827 0.420658
O O11 0.354019 0.412053 0.226480
O O12 0.663428 0.213917 0.444510
O O13 0.749373 0.221013 0.376257
O O14 0.329876 0.739590 0.240305
O O15 0.500000 0.623795 0.580456
O O16 0.412045 0.664764 0.550148
O O17 0.824200 0.768986 0.045459
#
# Coordination Sequence:
#
# PCOD9351497 Si02
#       8
#     8   8   8   8   8   8   8   8
#     4  11  23  38  52  78 109 148 184 224 267 315
#     4  10  21  37  55  80 112 147 187 229 276 331
#     4  12  20  31  53  74 110 145 185 216 262 315
#     4  11  24  38  55  77 110 146 187 227 269 324
#     4  11  23  37  54  82 108 149 187 224 272 331
#     4  10  20  33  52  78 110 144 181 223 270 324
#     4  12  21  33  50  79 107 151 179 218 267 322
#     4  11  24  35  54  80 110 146 187 221 269 332
#
# _framework density 18.939036000000002
#
# number of rings (size 3 to 8) (size 9 to 14) (size 15 to 20)
#    0.000    1.000    6.250    0.750    3.500    1.000 
#    0.000    0.000    0.000    0.000    0.000    4.375 
#    0.000    0.000    0.000    0.000    0.000    0.000 
#
# Total GULP energy -178848.191424 kJ/mol
# GULP energy per Si atom -5589.005982 kJ/mol
# Density = 1.889593 g / cm^3
# Si number density = 18.939036 Si / 1000 Ang^3
#
#
#
# Elastic Constant Matrix: (Units=GPa)
#
#
# Indices 1 2 3 4 5 6 
#
# 1 106.2197 28.5048 12.3041 0.0000 0.0000 0.0000
# 2 28.5048 70.8914 1.6035 0.0000 0.0000 0.0000
# 3 12.3041 1.6035 36.1145 0.0000 0.0000 0.0000
# 4 0.0000 0.0000 0.0000 22.0056 0.0000 0.0000
# 5 0.0000 0.0000 0.0000 0.0000 22.3673 0.0000
# 6 0.0000 0.0000 0.0000 0.0000 0.0000 26.6467
#
#
#
# Elastic Compliance Matrix: (Units=1/GPa)
#
#
# Indices 1 2 3 4 5 6 
#
# 1 0.010990 -0.004339 -0.003552 0.000000 0.000000 0.000000
# 2 -0.004339 0.015833 0.000775 0.000000 0.000000 0.000000
# 3 -0.003552 0.000775 0.028865 0.000000 0.000000 0.000000
# 4 0.000000 0.000000 0.000000 0.045443 0.000000 0.000000
# 5 0.000000 0.000000 0.000000 0.000000 0.044708 0.000000
# 6 0.000000 0.000000 0.000000 0.000000 0.000000 0.037528
#
#
# Mechanical properties :
#
#
# Convention : Reuss Voigt Hill
#
# Bulk Modulus (GPa) = 24.12068 33.11672 28.61870
# Shear Modulus (GPa) = 23.64985 25.59144 24.62065
#
# Velocity S-wave (km/s) = 3.53758 3.67993 3.60946
# Velocity P-wave (km/s) = 5.42674 5.96488 5.70216
#
# Compressibility (1/GPa) = 0.04145820
#
# Stress axis : x y z
#
# Youngs Moduli (GPa) = 90.99014 63.15874 34.64364
#
# Poissons Ratio (x) = 0.27403 0.12304
# Poissons Ratio (y) = 0.39478 -0.02686
# Poissons Ratio (z) = 0.32317 -0.04896
#
# Static dielectric constant tensor:
#      x y z
#    x 1.711460 0.000000 0.000000 
#    y 0.000000 1.653820 0.000000 
#    z 0.000000 0.000000 1.792950 
# 
# From -- ./inp_files/6127.got.cif
#   From: 2010.05.17/outbox.cif.g08.bks.cpg/sg36_4_cif.got.tgz:6127.got - 2010.06.03 17:41:39.
