data_PCOD9351029
_publ_section_title
;
Structure prediction by ZEFSAII (Michael W. Deem and Ramdas Pophale) SiO2 
 PCOD9351029
Probable space group: C M C 21
;
_chemical_formula_sum "Si O2"
_cell_formula_units_Z 48
_cell_length_a 8.118927
_cell_length_b 15.623560
_cell_length_c 14.328094
_cell_angle_alpha 90.000000
_cell_angle_beta 90.000000
_cell_angle_gamma 90.000000
_cell_volume 1817.469193
_symmetry_space_group_name_H-M "C M C 21"
_symmetry_group_IT_number 36
_symmetry_cell_setting 'orthorhombic'
loop_
_space_group_symop_operation_xyz
x,y,z
-x,-y,1/2+z
x,-y,1/2+z
-x,y,z
1/2+x,1/2+y,z
1/2-x,1/2-y,1/2+z
1/2+x,1/2-y,1/2+z
1/2-x,1/2+y,z
loop_
_atom_site_type_symbol
_atom_site_label
_atom_site_fract_x
_atom_site_fract_y
_atom_site_fract_z
Si Si1 0.307561 0.292499 0.430830
Si Si2 0.690133 0.844627 0.715236
Si Si3 0.690497 0.431344 0.891660
Si Si4 0.194874 0.592435 0.773578
Si Si5 0.307160 0.812504 0.099539
Si Si6 0.306927 0.952771 0.544855
O O1 0.500000 0.276963 0.411356
O O2 0.214671 0.323180 0.338698
O O3 0.237208 0.218970 0.499865
O O4 0.295199 0.378036 0.494936
O O5 0.500000 0.818868 0.703414
O O6 0.796564 0.773138 0.664076
O O7 0.712663 0.931882 0.654177
O O8 0.723814 0.863021 0.823417
O O9 0.500000 0.411958 0.900011
O O10 0.714197 0.518030 0.829563
O O11 0.762275 0.459465 0.992157
O O12 0.261784 0.617383 0.671520
O O13 0.000000 0.571536 0.767836
O O14 0.500000 0.832424 0.085042
O O15 0.500000 0.938569 0.523895
#
# Coordination Sequence:
#
# PCOD9351029 Si02
#       6
#     8   8   8   8   8   8
#     4   9  16  29  49  72  97 128 166 203 244 295
#     4  10  20  34  54  77 101 131 167 208 251 298
#     4  11  21  33  52  76 103 134 168 207 249 296
#     4  10  19  33  52  74 101 132 167 205 247 294
#     4   9  19  34  52  74 101 132 164 203 250 298
#     4   9  17  31  51  73  97 129 168 206 247 297
#
# _framework density 26.410350999999999
#
# number of rings (size 3 to 8) (size 9 to 14) (size 15 to 20)
#    0.000    2.333    0.000    5.500    0.000    4.000 
#    0.000    1.667    0.000    6.000    0.000    0.000 
#    0.000    0.000    0.000    0.000    0.000    0.000 
#
# Total GULP energy -134263.869312 kJ/mol
# GULP energy per Si atom -5594.327888 kJ/mol
# Density = 2.635024 g / cm^3
# Si number density = 26.410351 Si / 1000 Ang^3
#
#
#
# Elastic Constant Matrix: (Units=GPa)
#
#
# Indices 1 2 3 4 5 6 
#
# 1 101.3337 2.9780 13.8445 0.0000 0.0000 0.0000
# 2 2.9780 80.5178 -6.6227 0.0000 0.0000 0.0000
# 3 13.8445 -6.6227 191.9252 0.0000 0.0000 0.0000
# 4 0.0000 0.0000 0.0000 55.1793 0.0000 0.0000
# 5 0.0000 0.0000 0.0000 0.0000 23.2386 0.0000
# 6 0.0000 0.0000 0.0000 0.0000 0.0000 32.3404
#
#
#
# Elastic Compliance Matrix: (Units=1/GPa)
#
#
# Indices 1 2 3 4 5 6 
#
# 1 0.009981 -0.000430 -0.000735 0.000000 0.000000 0.000000
# 2 -0.000430 0.012473 0.000461 0.000000 0.000000 0.000000
# 3 -0.000735 0.000461 0.005279 0.000000 0.000000 0.000000
# 4 0.000000 0.000000 0.000000 0.018123 0.000000 0.000000
# 5 0.000000 0.000000 0.000000 0.000000 0.043032 0.000000
# 6 0.000000 0.000000 0.000000 0.000000 0.000000 0.030921
#
#
# Mechanical properties :
#
#
# Convention : Reuss Voigt Hill
#
# Bulk Modulus (GPa) = 37.98226 43.79736 40.88981
# Shear Modulus (GPa) = 38.46393 46.39011 42.42702
#
# Velocity S-wave (km/s) = 3.82042 4.19562 4.01241
# Velocity P-wave (km/s) = 5.82010 6.33170 6.08128
#
# Compressibility (1/GPa) = 0.02632808
#
# Stress axis : x y z
#
# Youngs Moduli (GPa) = 100.18632 80.17030 189.41934
#
# Poissons Ratio (x) = 0.03444 0.13919
# Poissons Ratio (y) = 0.04304 -0.08740
# Poissons Ratio (z) = 0.07362 -0.03699
#
# Static dielectric constant tensor:
#      x y z
#    x 1.895440 0.000000 0.000000 
#    y 0.000000 2.235290 0.000000 
#    z 0.000000 0.000000 2.117540 
# 
# From -- ./inp_files/6766.got.cif
#   From: 2010.05.17/outbox.cif.g08.bks.cpg/sg36_4_cif.got.tgz:6766.got - 2010.06.03 17:41:39.
