data_PCOD9351784
_publ_section_title
;
Structure prediction by ZEFSAII (Michael W. Deem and Ramdas Pophale) SiO2 
 PCOD9351784
Probable space group: C M C 21
;
_chemical_formula_sum "Si O2"
_cell_formula_units_Z 64
_cell_length_a 9.270526
_cell_length_b 22.934320
_cell_length_c 16.172592
_cell_angle_alpha 90.000000
_cell_angle_beta 90.000000
_cell_angle_gamma 90.000000
_cell_volume 3438.506697
_symmetry_space_group_name_H-M "C M C 21"
_symmetry_group_IT_number 36
_symmetry_cell_setting 'orthorhombic'
loop_
_space_group_symop_operation_xyz
x,y,z
-x,-y,1/2+z
x,-y,1/2+z
-x,y,z
1/2+x,1/2+y,z
1/2-x,1/2-y,1/2+z
1/2+x,1/2-y,1/2+z
1/2-x,1/2+y,z
loop_
_atom_site_type_symbol
_atom_site_label
_atom_site_fract_x
_atom_site_fract_y
_atom_site_fract_z
Si Si1 0.665815 0.218268 0.746060
Si Si2 0.830027 0.506075 0.598552
Si Si3 0.839000 0.356251 0.081207
Si Si4 0.166460 0.840433 0.785510
Si Si5 0.326134 0.535287 0.932295
Si Si6 0.664477 0.277421 0.963528
Si Si7 0.326532 0.037897 0.284256
Si Si8 0.329201 0.671504 0.903264
O O1 0.500000 0.219146 0.778597
O O2 0.665753 0.177713 0.667051
O O3 0.702572 0.285735 0.725900
O O4 0.768950 0.190691 0.814159
O O5 0.815331 0.575767 0.594736
O O6 0.737007 0.481450 0.522355
O O7 0.791912 0.485991 0.691808
O O8 0.000000 0.491520 0.585605
O O9 0.000000 0.348785 0.044495
O O10 0.723154 0.326000 0.024328
O O11 0.174637 0.808023 0.873869
O O12 0.269644 0.895686 0.785071
O O13 0.000000 0.859048 0.771344
O O14 0.500000 0.526441 0.929734
O O15 0.251131 0.497883 0.858518
O O16 0.294852 0.603926 0.918806
O O17 0.500000 0.262821 0.980865
O O18 0.756661 0.218327 0.964297
O O19 0.500000 0.034788 0.295636
O O20 0.500000 0.678321 0.906749
#
# Coordination Sequence:
#
# PCOD9351784 Si02
#       8
#     8   8   8   8   8   8   8   8
#     4   9  19  36  58  82 110 145 181 226 283 338
#     4  10  23  40  59  86 117 153 196 239 285 342
#     4  10  20  36  57  81 111 144 182 229 281 334
#     4   9  19  36  56  80 111 147 186 226 277 338
#     4  11  24  40  60  86 117 155 195 238 288 342
#     4  10  21  36  56  82 111 145 184 228 279 335
#     4  11  23  39  61  87 117 154 194 239 289 339
#     4  10  21  37  57  82 110 143 186 231 280 336
#
# _framework density 18.612729999999999
#
# number of rings (size 3 to 8) (size 9 to 14) (size 15 to 20)
#    0.000    2.000    0.000    3.750    0.000   10.500 
#    0.000    3.750    0.000    0.000    0.000    0.000 
#    0.000    0.000    0.000    0.000    0.000    0.000 
#
# Total GULP energy -178529.251326 kJ/mol
# GULP energy per Si atom -5579.039104 kJ/mol
# Density = 1.857037 g / cm^3
# Si number density = 18.612730 Si / 1000 Ang^3
#
#
#
# Elastic Constant Matrix: (Units=GPa)
#
#
# Indices 1 2 3 4 5 6 
#
# 1 82.5007 66.0141 44.7901 0.0000 0.0000 0.0000
# 2 66.0141 115.6886 34.7866 0.0000 0.0000 0.0000
# 3 44.7901 34.7866 72.8379 0.0000 0.0000 0.0000
# 4 0.0000 0.0000 0.0000 26.8172 0.0000 0.0000
# 5 0.0000 0.0000 0.0000 0.0000 6.2165 0.0000
# 6 0.0000 0.0000 0.0000 0.0000 0.0000 27.0302
#
#
#
# Elastic Compliance Matrix: (Units=1/GPa)
#
#
# Indices 1 2 3 4 5 6 
#
# 1 0.028686 -0.012920 -0.011469 0.000000 0.000000 0.000000
# 2 -0.012920 0.015913 0.000345 0.000000 0.000000 0.000000
# 3 -0.011469 0.000345 0.020617 0.000000 0.000000 0.000000
# 4 0.000000 0.000000 0.000000 0.037290 0.000000 0.000000
# 5 0.000000 0.000000 0.000000 0.000000 0.160863 0.000000
# 6 0.000000 0.000000 0.000000 0.000000 0.000000 0.036996
#
#
# Mechanical properties :
#
#
# Convention : Reuss Voigt Hill
#
# Bulk Modulus (GPa) = 58.38639 62.46764 60.42702
# Shear Modulus (GPa) = 14.11784 20.37520 17.24652
#
# Velocity S-wave (km/s) = 2.75708 3.31220 3.04731
# Velocity P-wave (km/s) = 6.44768 6.94710 6.70204
#
# Compressibility (1/GPa) = 0.01712728
#
# Stress axis : x y z
#
# Youngs Moduli (GPa) = 34.86007 62.84364 48.50345
#
# Poissons Ratio (x) = 0.81194 0.55631
# Poissons Ratio (y) = 0.45039 -0.01675
# Poissons Ratio (z) = 0.39982 -0.02170
#
# Static dielectric constant tensor:
#      x y z
#    x 1.658410 0.000000 0.000000 
#    y 0.000000 1.633740 0.000000 
#    z 0.000000 0.000000 1.668530 
# 
# From -- ./inp_files/13781.got.cif
#   From: 2010.05.17/outbox.cif.g08.bks.cpg/sg36_7_cif.got.tgz:13781.got - 2010.06.03 17:41:39.
