data_PCOD9351159
_publ_section_title
;
Structure prediction by ZEFSAII (Michael W. Deem and Ramdas Pophale) SiO2 
 PCOD9351159
Probable space group: C M C 21
;
_chemical_formula_sum "Si O2"
_cell_formula_units_Z 64
_cell_length_a 8.533392
_cell_length_b 20.706019
_cell_length_c 20.159495
_cell_angle_alpha 90.000000
_cell_angle_beta 90.000000
_cell_angle_gamma 90.000000
_cell_volume 3562.033120
_symmetry_space_group_name_H-M "C M C 21"
_symmetry_group_IT_number 36
_symmetry_cell_setting 'orthorhombic'
loop_
_space_group_symop_operation_xyz
x,y,z
-x,-y,1/2+z
x,-y,1/2+z
-x,y,z
1/2+x,1/2+y,z
1/2-x,1/2-y,1/2+z
1/2+x,1/2-y,1/2+z
1/2-x,1/2+y,z
loop_
_atom_site_type_symbol
_atom_site_label
_atom_site_fract_x
_atom_site_fract_y
_atom_site_fract_z
Si Si1 0.309929 0.528195 0.413680
Si Si2 0.687989 0.981840 0.271042
Si Si3 0.814156 0.155939 0.784198
Si Si4 0.686957 0.092753 0.167689
Si Si5 0.187806 0.688112 0.930161
Si Si6 0.309996 0.327904 0.894417
Si Si7 0.187292 0.211070 0.245565
Si Si8 0.812960 0.076637 0.021764
O O1 0.500000 0.526674 0.410216
O O2 0.245992 0.501341 0.344247
O O3 0.257935 0.602645 0.420477
O O4 0.261514 0.482141 0.473940
O O5 0.500000 0.978046 0.270960
O O6 0.757810 0.911801 0.254699
O O7 0.738080 0.036881 0.219073
O O8 0.732946 0.164333 0.856267
O O9 0.764148 0.218438 0.742026
O O10 0.000000 0.155159 0.793767
O O11 0.500000 0.098692 0.172374
O O12 0.761923 0.160333 0.190333
O O13 0.735448 0.075115 0.093503
O O14 0.239224 0.763187 0.932758
O O15 0.000000 0.684712 0.937270
O O16 0.267049 0.642108 0.983496
O O17 0.500000 0.327962 0.895355
O O18 0.263601 0.318459 0.817376
O O19 0.000000 0.218417 0.246320
O O20 0.000000 0.073359 0.029058
#
# Coordination Sequence:
#
# PCOD9351159 Si02
#       8
#     8   8   8   8   8   8   8   8
#     4  10  19  35  58  85 114 148 193 240 290 349
#     4  11  22  36  57  86 116 152 198 246 297 343
#     4  11  21  34  56  86 118 150 191 239 288 344
#     4  11  24  40  58  83 117 157 199 245 295 355
#     4  10  19  34  56  83 115 150 188 240 293 340
#     4   8  16  31  55  84 111 142 180 231 289 338
#     4  10  19  35  59  85 114 148 188 238 294 349
#     4  11  23  37  57  84 115 157 199 241 292 356
#
# _framework density 17.967267
#
# number of rings (size 3 to 8) (size 9 to 14) (size 15 to 20)
#    0.000    1.750    2.500    3.750    0.000    2.000 
#    0.000    1.875    0.000    4.500    0.000    0.000 
#    0.000    0.000    0.000    0.000    0.000    0.000 
#
# Total GULP energy -178678.825340 kJ/mol
# GULP energy per Si atom -5583.713292 kJ/mol
# Density = 1.792637 g / cm^3
# Si number density = 17.967267 Si / 1000 Ang^3
#
#
#
# Elastic Constant Matrix: (Units=GPa)
#
#
# Indices 1 2 3 4 5 6 
#
# 1 24.1732 7.2755 -4.9705 0.0000 0.0000 0.0000
# 2 7.2755 126.3568 22.5768 0.0000 0.0000 0.0000
# 3 -4.9705 22.5768 49.2916 0.0000 0.0000 0.0000
# 4 0.0000 0.0000 0.0000 24.7259 0.0000 0.0000
# 5 0.0000 0.0000 0.0000 0.0000 26.2074 0.0000
# 6 0.0000 0.0000 0.0000 0.0000 0.0000 26.2685
#
#
#
# Elastic Compliance Matrix: (Units=1/GPa)
#
#
# Indices 1 2 3 4 5 6 
#
# 1 0.043696 -0.003598 0.006054 0.000000 0.000000 0.000000
# 2 -0.003598 0.008916 -0.004446 0.000000 0.000000 0.000000
# 3 0.006054 -0.004446 0.022935 0.000000 0.000000 0.000000
# 4 0.000000 0.000000 0.000000 0.040443 0.000000 0.000000
# 5 0.000000 0.000000 0.000000 0.000000 0.038157 0.000000
# 6 0.000000 0.000000 0.000000 0.000000 0.000000 0.038068
#
#
# Mechanical properties :
#
#
# Convention : Reuss Voigt Hill
#
# Bulk Modulus (GPa) = 13.97313 27.73170 20.85241
# Shear Modulus (GPa) = 22.72208 27.10302 24.91255
#
# Velocity S-wave (km/s) = 3.56003 3.88811 3.72768
# Velocity P-wave (km/s) = 4.96914 5.96864 5.49167
#
# Compressibility (1/GPa) = 0.07156591
#
# Stress axis : x y z
#
# Youngs Moduli (GPa) = 22.88552 112.16158 43.60243
#
# Poissons Ratio (x) = 0.40352 -0.26397
# Poissons Ratio (y) = 0.08233 0.19387
# Poissons Ratio (z) = -0.13855 0.49872
#
# Static dielectric constant tensor:
#      x y z
#    x 1.606940 0.000000 0.000000 
#    y 0.000000 1.634560 0.000000 
#    z 0.000000 0.000000 1.579280 
# 
# From -- ./inp_files/13942.got.cif
#   From: 2010.05.17/outbox.cif.g08.bks.cpg/sg36_7_cif.got.tgz:13942.got - 2010.06.03 17:41:39.
