data_PCOD9351381
_publ_section_title
;
Structure prediction by ZEFSAII (Michael W. Deem and Ramdas Pophale) SiO2 
 PCOD9351381
Probable space group: C M C 21
;
_chemical_formula_sum "Si O2"
_cell_formula_units_Z 48
_cell_length_a 7.591839
_cell_length_b 28.403003
_cell_length_c 10.249411
_cell_angle_alpha 90.000000
_cell_angle_beta 90.000000
_cell_angle_gamma 90.000000
_cell_volume 2210.091009
_symmetry_space_group_name_H-M "C M C 21"
_symmetry_group_IT_number 36
_symmetry_cell_setting 'orthorhombic'
loop_
_space_group_symop_operation_xyz
x,y,z
-x,-y,1/2+z
x,-y,1/2+z
-x,y,z
1/2+x,1/2+y,z
1/2-x,1/2-y,1/2+z
1/2+x,1/2-y,1/2+z
1/2-x,1/2+y,z
loop_
_atom_site_type_symbol
_atom_site_label
_atom_site_fract_x
_atom_site_fract_y
_atom_site_fract_z
Si Si1 0.792444 0.896105 0.729180
Si Si2 0.712124 0.784960 0.087020
Si Si3 0.286932 0.929650 0.443156
Si Si4 0.783910 0.610782 0.666403
Si Si5 0.295398 0.964052 0.954177
Si Si6 0.289612 0.292151 0.790493
O O1 0.764123 0.904102 0.576376
O O2 0.712959 0.937950 0.815392
O O3 0.719873 0.845217 0.772167
O O4 0.000000 0.897218 0.757063
O O5 0.500000 0.785850 0.097853
O O6 0.775479 0.837142 0.125920
O O7 0.779320 0.744857 0.184661
O O8 0.756803 0.775443 0.937157
O O9 0.500000 0.930747 0.437106
O O10 0.228313 0.903770 0.311490
O O11 0.219915 0.983537 0.447815
O O12 0.721728 0.571773 0.562222
O O13 0.000000 0.611211 0.662782
O O14 0.500000 0.970278 0.990003
O O15 0.500000 0.295213 0.770958
#
# Coordination Sequence:
#
# PCOD9351381 Si02
#       6
#     8   8   8   8   8   8
#     4  11  23  38  55  83 123 155 183 226 287 351
#     4  10  21  39  61  83 111 148 192 237 282 337
#     4  10  21  36  59  88 114 146 193 241 277 324
#     4   9  18  34  57  84 110 142 187 237 282 325
#     4  10  19  37  62  85 111 147 195 241 280 325
#     4  10  23  40  58  85 117 148 186 236 286 338
#
# _framework density 21.718563
#
# number of rings (size 3 to 8) (size 9 to 14) (size 15 to 20)
#    0.000    2.000    1.667    1.500    2.333    4.667 
#    0.000    1.667    0.000    0.000    0.000    0.000 
#    0.000    0.000    0.000    0.000    0.000    0.000 
#
# Total GULP energy -134146.954777 kJ/mol
# GULP energy per Si atom -5589.456449 kJ/mol
# Density = 2.166913 g / cm^3
# Si number density = 21.718563 Si / 1000 Ang^3
#
#
#
# Elastic Constant Matrix: (Units=GPa)
#
#
# Indices 1 2 3 4 5 6 
#
# 1 45.0881 1.1765 -19.2489 0.0000 0.0000 0.0000
# 2 1.1765 97.3974 45.3797 0.0000 0.0000 0.0000
# 3 -19.2489 45.3797 143.7822 0.0000 0.0000 0.0000
# 4 0.0000 0.0000 0.0000 41.4428 0.0000 0.0000
# 5 0.0000 0.0000 0.0000 0.0000 13.4088 0.0000
# 6 0.0000 0.0000 0.0000 0.0000 0.0000 10.2520
#
#
#
# Elastic Compliance Matrix: (Units=1/GPa)
#
#
# Indices 1 2 3 4 5 6 
#
# 1 0.023879 -0.002084 0.003855 0.000000 0.000000 0.000000
# 2 -0.002084 0.012219 -0.004136 0.000000 0.000000 0.000000
# 3 0.003855 -0.004136 0.008776 0.000000 0.000000 0.000000
# 4 0.000000 0.000000 0.000000 0.024130 0.000000 0.000000
# 5 0.000000 0.000000 0.000000 0.000000 0.074578 0.000000
# 6 0.000000 0.000000 0.000000 0.000000 0.000000 0.097542
#
#
# Mechanical properties :
#
#
# Convention : Reuss Voigt Hill
#
# Bulk Modulus (GPa) = 24.91059 37.87582 31.39320
# Shear Modulus (GPa) = 19.28743 30.28474 24.78609
#
# Velocity S-wave (km/s) = 2.98327 3.73824 3.38189
# Velocity P-wave (km/s) = 4.83334 6.00915 5.45303
#
# Compressibility (1/GPa) = 0.04014357
#
# Stress axis : x y z
#
# Youngs Moduli (GPa) = 41.87815 81.83784 113.94354
#
# Poissons Ratio (x) = 0.17059 -0.43921
# Poissons Ratio (y) = 0.08729 0.47123
# Poissons Ratio (z) = -0.16143 0.33845
#
# Static dielectric constant tensor:
#      x y z
#    x 1.826170 0.000000 0.000000 
#    y 0.000000 1.761740 0.000000 
#    z 0.000000 0.000000 1.733610 
# 
# From -- ./inp_files/2658.got.cif
#   From: 2010.05.17/outbox.cif.g08.bks.cpg/sg36_2_cif.got.tgz:2658.got - 2010.06.03 17:41:39.
