data_PCOD9351527
_publ_section_title
;
Structure prediction by ZEFSAII (Michael W. Deem and Ramdas Pophale) SiO2 
 PCOD9351527
Probable space group: C M C 21
;
_chemical_formula_sum "Si O2"
_cell_formula_units_Z 40
_cell_length_a 13.835363
_cell_length_b 25.706143
_cell_length_c 5.080357
_cell_angle_alpha 90.000000
_cell_angle_beta 90.000000
_cell_angle_gamma 90.000000
_cell_volume 1806.848373
_symmetry_space_group_name_H-M "C M C 21"
_symmetry_group_IT_number 36
_symmetry_cell_setting 'orthorhombic'
loop_
_space_group_symop_operation_xyz
x,y,z
-x,-y,1/2+z
x,-y,1/2+z
-x,y,z
1/2+x,1/2+y,z
1/2-x,1/2-y,1/2+z
1/2+x,1/2-y,1/2+z
1/2-x,1/2+y,z
loop_
_atom_site_type_symbol
_atom_site_label
_atom_site_fract_x
_atom_site_fract_y
_atom_site_fract_z
Si Si1 0.616407 0.032367 0.095510
Si Si2 0.609796 0.878824 0.967371
Si Si3 0.388614 0.659386 0.321838
Si Si4 0.766142 0.144430 0.845026
Si Si5 0.892505 0.719074 0.753183
O O1 0.500000 0.029549 0.074534
O O2 0.632785 0.091222 0.200995
O O3 0.651450 0.996292 0.335838
O O4 0.500000 0.894706 0.042501
O O5 0.688881 0.891688 0.188960
O O6 0.611107 0.815848 0.984794
O O7 0.500000 0.642609 0.327485
O O8 0.325648 0.629501 0.102995
O O9 0.386222 0.719677 0.228845
O O10 0.342060 0.656983 0.610825
O O11 0.698393 0.194814 0.904791
O O12 0.000000 0.707299 0.867397
#
# Coordination Sequence:
#
# PCOD9351527 Si02
#       5
#     8   8   8   8   8
#     4   9  17  30  47  68  98 130 155 186 233 289
#     4   8  17  33  50  75 101 131 164 196 237 292
#     4  11  21  34  49  70  97 133 172 205 242 278
#     4  10  20  34  51  69  98 130 169 203 242 281
#     4   8  17  33  50  72 100 132 165 200 237 290
#
# _framework density 22.137996999999999
#
# number of rings (size 3 to 8) (size 9 to 14) (size 15 to 20)
#    1.200    1.600    0.000    1.800    0.000    1.600 
#    0.000    8.000    0.000    0.000    0.000    0.000 
#    0.000   16.000    0.000    0.000    0.000    0.000 
#
# Total GULP energy -111367.398258 kJ/mol
# GULP energy per Si atom -5568.369913 kJ/mol
# Density = 2.208761 g / cm^3
# Si number density = 22.137997 Si / 1000 Ang^3
#
#
#
# Elastic Constant Matrix: (Units=GPa)
#
#
# Indices 1 2 3 4 5 6 
#
# 1 161.6036 -6.4809 41.0433 0.0000 0.0000 0.0000
# 2 -6.4809 42.5476 4.6885 0.0000 0.0000 0.0000
# 3 41.0433 4.6885 108.7075 0.0000 0.0000 0.0000
# 4 0.0000 0.0000 0.0000 17.0280 0.0000 0.0000
# 5 0.0000 0.0000 0.0000 0.0000 13.1536 0.0000
# 6 0.0000 0.0000 0.0000 0.0000 0.0000 12.0618
#
#
#
# Elastic Compliance Matrix: (Units=1/GPa)
#
#
# Indices 1 2 3 4 5 6 
#
# 1 0.006920 0.001348 -0.002671 0.000000 0.000000 0.000000
# 2 0.001348 0.023878 -0.001539 0.000000 0.000000 0.000000
# 3 -0.002671 -0.001539 0.010274 0.000000 0.000000 0.000000
# 4 0.000000 0.000000 0.000000 0.058727 0.000000 0.000000
# 5 0.000000 0.000000 0.000000 0.000000 0.076025 0.000000
# 6 0.000000 0.000000 0.000000 0.000000 0.000000 0.082906
#
#
# Mechanical properties :
#
#
# Convention : Reuss Voigt Hill
#
# Bulk Modulus (GPa) = 28.28908 43.48447 35.88678
# Shear Modulus (GPa) = 18.10042 26.68918 22.39480
#
# Velocity S-wave (km/s) = 2.86250 3.47592 3.18402
# Velocity P-wave (km/s) = 4.87150 5.98284 5.45554
#
# Compressibility (1/GPa) = 0.03534933
#
# Stress axis : x y z
#
# Youngs Moduli (GPa) = 144.49960 41.87938 97.33460
#
# Poissons Ratio (x) = -0.05647 0.25998
# Poissons Ratio (y) = -0.19485 0.14980
# Poissons Ratio (z) = 0.38596 0.06445
#
# Static dielectric constant tensor:
#      x y z
#    x 1.847550 0.000000 0.000000 
#    y 0.000000 1.911450 0.000000 
#    z 0.000000 0.000000 1.873510 
# 
# From -- ./inp_files/508.got.cif
#   From: 2010.05.17/outbox.cif.g08.bks.cpg/sg36_1_cif.got.tgz:508.got - 2010.06.03 17:41:39.
