data_PCOD9351587
_publ_section_title
;
Structure prediction by ZEFSAII (Michael W. Deem and Ramdas Pophale) SiO2 
 PCOD9351587
Probable space group: C M C 21
;
_chemical_formula_sum "Si O2"
_cell_formula_units_Z 64
_cell_length_a 8.962980
_cell_length_b 20.770014
_cell_length_c 19.636444
_cell_angle_alpha 90.000000
_cell_angle_beta 90.000000
_cell_angle_gamma 90.000000
_cell_volume 3655.544373
_symmetry_space_group_name_H-M "C M C 21"
_symmetry_group_IT_number 36
_symmetry_cell_setting 'orthorhombic'
loop_
_space_group_symop_operation_xyz
x,y,z
-x,-y,1/2+z
x,-y,1/2+z
-x,y,z
1/2+x,1/2+y,z
1/2-x,1/2-y,1/2+z
1/2+x,1/2-y,1/2+z
1/2-x,1/2+y,z
loop_
_atom_site_type_symbol
_atom_site_label
_atom_site_fract_x
_atom_site_fract_y
_atom_site_fract_z
Si Si1 0.677201 0.109417 0.256870
Si Si2 0.678382 0.310547 0.111354
Si Si3 0.322001 0.067874 0.537609
Si Si4 0.676524 0.762844 0.400788
Si Si5 0.677677 0.310464 0.533895
Si Si6 0.321126 0.068465 0.108257
Si Si7 0.177494 0.890332 0.900565
Si Si8 0.175998 0.761685 0.259221
O O1 0.500000 0.100928 0.268377
O O2 0.720477 0.072235 0.188164
O O3 0.763492 0.091751 0.325640
O O4 0.702723 0.185822 0.243919
O O5 0.500000 0.308916 0.100761
O O6 0.745959 0.374937 0.080031
O O7 0.750679 0.249688 0.073772
O O8 0.708149 0.302030 0.191628
O O9 0.500000 0.077513 0.535796
O O10 0.257809 0.072104 0.461268
O O11 0.290867 0.000004 0.573840
O O12 0.500000 0.771719 0.409735
O O13 0.765737 0.802726 0.456710
O O14 0.709652 0.686328 0.410019
O O15 0.727523 0.779588 0.324621
O O16 0.500000 0.307335 0.537258
O O17 0.737897 0.375286 0.568082
O O18 0.500000 0.080704 0.105060
O O19 0.000000 0.898698 0.904641
O O20 0.000000 0.767827 0.275533
#
# Coordination Sequence:
#
# PCOD9351587 Si02
#       8
#     8   8   8   8   8   8   8   8
#     4   9  17  34  58  81 109 146 191 237 284 342
#     4  11  21  37  59  84 117 151 186 233 288 338
#     4  11  23  38  59  86 116 154 197 237 281 341
#     4  10  20  34  55  83 117 151 188 237 289 338
#     4  12  23  35  58  87 115 147 191 237 282 339
#     4  10  22  41  60  83 117 154 192 235 289 343
#     4  10  20  34  55  83 115 150 190 236 285 339
#     4   9  18  33  56  83 112 147 189 236 288 342
#
# _framework density 17.507652
#
# number of rings (size 3 to 8) (size 9 to 14) (size 15 to 20)
#    0.000    1.750    2.500    2.625    0.000    3.500 
#    0.000    1.250    0.000    4.500    0.000    0.000 
#    0.000    0.000    0.000    0.000    0.000    0.000 
#
# Total GULP energy -178723.205577 kJ/mol
# GULP energy per Si atom -5585.100174 kJ/mol
# Density = 1.746780 g / cm^3
# Si number density = 17.507652 Si / 1000 Ang^3
#
#
#
# Elastic Constant Matrix: (Units=GPa)
#
#
# Indices 1 2 3 4 5 6 
#
# 1 80.5310 66.9531 81.1223 0.0000 0.0000 0.0000
# 2 66.9531 90.5522 75.0666 0.0000 0.0000 0.0000
# 3 81.1223 75.0666 158.3858 0.0000 0.0000 0.0000
# 4 0.0000 0.0000 0.0000 25.8841 0.0000 0.0000
# 5 0.0000 0.0000 0.0000 0.0000 33.4138 0.0000
# 6 0.0000 0.0000 0.0000 0.0000 0.0000 24.4236
#
#
#
# Elastic Compliance Matrix: (Units=1/GPa)
#
#
# Indices 1 2 3 4 5 6 
#
# 1 0.041321 -0.021425 -0.011009 0.000000 0.000000 0.000000
# 2 -0.021425 0.029300 -0.002913 0.000000 0.000000 0.000000
# 3 -0.011009 -0.002913 0.013333 0.000000 0.000000 0.000000
# 4 0.000000 0.000000 0.000000 0.038634 0.000000 0.000000
# 5 0.000000 0.000000 0.000000 0.000000 0.029928 0.000000
# 6 0.000000 0.000000 0.000000 0.000000 0.000000 0.040944
#
#
# Mechanical properties :
#
#
# Convention : Reuss Voigt Hill
#
# Bulk Modulus (GPa) = 75.42371 86.19477 80.80924
# Shear Modulus (GPa) = 18.61693 23.83278 21.22486
#
# Velocity S-wave (km/s) = 3.26446 3.69355 3.48561
# Velocity P-wave (km/s) = 7.57515 8.21762 7.90292
#
# Compressibility (1/GPa) = 0.01325843
#
# Stress axis : x y z
#
# Youngs Moduli (GPa) = 24.20106 34.12998 75.00275
#
# Poissons Ratio (x) = 0.73125 0.82571
# Poissons Ratio (y) = 0.51852 0.21847
# Poissons Ratio (z) = 0.26643 0.09941
#
# Static dielectric constant tensor:
#      x y z
#    x 1.580510 0.000000 0.000000 
#    y 0.000000 1.566490 0.000000 
#    z 0.000000 0.000000 1.597370 
# 
# From -- ./inp_files/13843.got.cif
#   From: 2010.05.17/outbox.cif.g08.bks.cpg/sg36_7_cif.got.tgz:13843.got - 2010.06.03 17:41:39.
