data_PCOD9351320
_publ_section_title
;
Structure prediction by ZEFSAII (Michael W. Deem and Ramdas Pophale) SiO2 
 PCOD9351320
Probable space group: C M C 21
;
_chemical_formula_sum "Si O2"
_cell_formula_units_Z 64
_cell_length_a 8.416770
_cell_length_b 29.779500
_cell_length_c 12.677318
_cell_angle_alpha 90.000000
_cell_angle_beta 90.000000
_cell_angle_gamma 90.000000
_cell_volume 3177.534288
_symmetry_space_group_name_H-M "C M C 21"
_symmetry_group_IT_number 36
_symmetry_cell_setting 'orthorhombic'
loop_
_space_group_symop_operation_xyz
x,y,z
-x,-y,1/2+z
x,-y,1/2+z
-x,y,z
1/2+x,1/2+y,z
1/2-x,1/2-y,1/2+z
1/2+x,1/2-y,1/2+z
1/2-x,1/2+y,z
loop_
_atom_site_type_symbol
_atom_site_label
_atom_site_fract_x
_atom_site_fract_y
_atom_site_fract_z
Si Si1 0.307596 0.083064 0.375000
Si Si2 0.807590 0.568853 0.613098
Si Si3 0.189073 0.635205 0.785421
Si Si4 0.816392 0.086891 0.987218
Si Si5 0.317115 0.815864 0.828235
Si Si6 0.190580 0.974046 0.675292
Si Si7 0.321155 0.318625 0.608326
Si Si8 0.312150 0.776791 0.404947
O O1 0.500000 0.082119 0.370713
O O2 0.255475 0.067332 0.491197
O O3 0.257616 0.135045 0.362311
O O4 0.246398 0.053391 0.277790
O O5 0.751041 0.612916 0.677308
O O6 0.749078 0.524918 0.674083
O O7 0.000000 0.569111 0.613044
O O8 0.246239 0.684498 0.822637
O O9 0.000000 0.639089 0.774715
O O10 0.226614 0.600713 0.880998
O O11 0.751018 0.048851 0.065465
O O12 0.815956 0.131737 0.058765
O O13 0.000000 0.076524 0.959609
O O14 0.500000 0.811326 0.862081
O O15 0.301872 0.815178 0.702254
O O16 0.220815 0.773304 0.868419
O O17 0.000000 0.972134 0.672664
O O18 0.500000 0.310347 0.648095
O O19 0.278485 0.285799 0.513512
O O20 0.500000 0.784127 0.420933
#
# Coordination Sequence:
#
# PCOD9351320 Si02
#       8
#     8   8   8   8   8   8   8   8
#     4  10  23  42  63  88 122 162 205 249 298 366
#     4  10  23  42  61  86 120 161 205 247 300 360
#     4   9  20  38  60  85 117 157 202 248 295 356
#     4   9  19  35  57  83 113 148 190 245 302 353
#     4  11  22  37  60  90 121 158 203 251 305 365
#     4  11  23  39  60  89 120 153 197 250 307 361
#     4  10  19  36  58  82 114 155 198 250 304 355
#     4  10  21  37  59  89 121 160 206 252 305 364
#
# _framework density 20.141404000000001
#
# number of rings (size 3 to 8) (size 9 to 14) (size 15 to 20)
#    0.000    2.000    1.250    1.500    1.750    4.500 
#    0.000    2.500    0.000    0.000    0.000    0.000 
#    0.000    0.000    0.000    0.000    0.000    0.000 
#
# Total GULP energy -178609.802851 kJ/mol
# GULP energy per Si atom -5581.556339 kJ/mol
# Density = 2.009556 g / cm^3
# Si number density = 20.141404 Si / 1000 Ang^3
#
#
#
# Elastic Constant Matrix: (Units=GPa)
#
#
# Indices 1 2 3 4 5 6 
#
# 1 15.6790 8.8846 -0.9285 0.0000 0.0000 0.0000
# 2 8.8846 101.8532 41.8790 0.0000 0.0000 0.0000
# 3 -0.9285 41.8790 66.2846 0.0000 0.0000 0.0000
# 4 0.0000 0.0000 0.0000 18.3785 0.0000 0.0000
# 5 0.0000 0.0000 0.0000 0.0000 22.2855 0.0000
# 6 0.0000 0.0000 0.0000 0.0000 0.0000 20.1160
#
#
#
# Elastic Compliance Matrix: (Units=1/GPa)
#
#
# Indices 1 2 3 4 5 6 
#
# 1 0.069079 -0.008678 0.006450 0.000000 0.000000 0.000000
# 2 -0.008678 0.014354 -0.009190 0.000000 0.000000 0.000000
# 3 0.006450 -0.009190 0.020983 0.000000 0.000000 0.000000
# 4 0.000000 0.000000 0.000000 0.054411 0.000000 0.000000
# 5 0.000000 0.000000 0.000000 0.000000 0.044872 0.000000
# 6 0.000000 0.000000 0.000000 0.000000 0.000000 0.049712
#
#
# Mechanical properties :
#
#
# Convention : Reuss Voigt Hill
#
# Bulk Modulus (GPa) = 12.25784 31.49854 21.87819
# Shear Modulus (GPa) = 16.47767 21.08811 18.78289
#
# Velocity S-wave (km/s) = 2.86335 3.23925 3.05708
# Velocity P-wave (km/s) = 4.12684 5.44637 4.83186
#
# Compressibility (1/GPa) = 0.08158044
#
# Stress axis : x y z
#
# Youngs Moduli (GPa) = 14.47618 69.66772 47.65679
#
# Poissons Ratio (x) = 0.60457 -0.30741
# Poissons Ratio (y) = 0.12562 0.43799
# Poissons Ratio (z) = -0.09338 0.64027
#
# Static dielectric constant tensor:
#      x y z
#    x 1.690610 0.000000 0.000000 
#    y 0.000000 1.713900 0.000000 
#    z 0.000000 0.000000 1.709780 
# 
# From -- ./inp_files/7228.got.cif
#   From: 2010.05.17/outbox.cif.g08.bks.cpg/sg36_4_cif.got.tgz:7228.got - 2010.06.03 17:41:39.
