data_PCOD9351044
_publ_section_title
;
Structure prediction by ZEFSAII (Michael W. Deem and Ramdas Pophale) SiO2 
 PCOD9351044
Probable space group: C M C 21
;
_chemical_formula_sum "Si O2"
_cell_formula_units_Z 64
_cell_length_a 26.315421
_cell_length_b 5.520365
_cell_length_c 19.658345
_cell_angle_alpha 90.000000
_cell_angle_beta 90.000000
_cell_angle_gamma 90.000000
_cell_volume 2855.782110
_symmetry_space_group_name_H-M "C M C 21"
_symmetry_group_IT_number 36
_symmetry_cell_setting 'orthorhombic'
loop_
_space_group_symop_operation_xyz
x,y,z
-x,-y,1/2+z
x,-y,1/2+z
-x,y,z
1/2+x,1/2+y,z
1/2-x,1/2-y,1/2+z
1/2+x,1/2-y,1/2+z
1/2-x,1/2+y,z
loop_
_atom_site_type_symbol
_atom_site_label
_atom_site_fract_x
_atom_site_fract_y
_atom_site_fract_z
Si Si1 0.561471 0.549906 0.630950
Si Si2 0.877858 0.902917 0.894012
Si Si3 0.872419 0.809353 0.524234
Si Si4 0.060957 0.552550 0.702837
Si Si5 0.223366 0.330803 0.425488
Si Si6 0.057255 0.250578 0.828319
Si Si7 0.055383 0.543038 0.966259
Si Si8 0.261490 0.309923 0.580959
O O1 0.500000 0.544684 0.624274
O O2 0.589580 0.496322 0.560402
O O3 0.576565 0.809772 0.661653
O O4 0.577900 0.314461 0.676076
O O5 0.833195 0.705422 0.895626
O O6 0.927318 0.781115 0.927536
O O7 0.899488 0.046208 0.829544
O O8 0.857617 0.095372 0.949611
O O9 0.902806 0.560011 0.516915
O O10 0.820456 0.788415 0.563623
O O11 0.071710 0.475984 0.780518
O O12 0.000000 0.563189 0.697035
O O13 0.246102 0.588863 0.403958
O O14 0.228991 0.324463 0.509066
O O15 0.053067 0.345859 0.905311
O O16 0.000000 0.165786 0.807043
O O17 0.000000 0.563489 0.998522
O O18 0.254025 0.564480 0.617276
#
# Coordination Sequence:
#
# PCOD9351044 Si02
#       8
#     8   8   8   8   8   8   8   8
#     4  10  22  37  56  81 109 151 190 231 277 327
#     4  11  21  32  56  82 115 149 183 231 287 345
#     4  11  22  34  53  81 119 147 185 226 285 347
#     4   9  20  39  58  76 107 147 197 239 268 316
#     4  10  19  34  52  76 111 141 184 225 271 334
#     4   9  20  36  54  81 111 149 192 234 277 329
#     4  10  21  33  50  80 119 153 181 219 283 348
#     4  10  19  33  53  77 109 141 184 225 269 328
#
# _framework density 22.410675000000001
#
# number of rings (size 3 to 8) (size 9 to 14) (size 15 to 20)
#    0.000    2.000    2.500    2.250    5.250    1.500 
#    0.000    0.000    0.000    0.000    0.000    5.250 
#    0.000    0.000    0.000    0.000    0.000    0.000 
#
# Total GULP energy -178612.106921 kJ/mol
# GULP energy per Si atom -5581.628341 kJ/mol
# Density = 2.235967 g / cm^3
# Si number density = 22.410675 Si / 1000 Ang^3
#
#
#
# Elastic Constant Matrix: (Units=GPa)
#
#
# Indices 1 2 3 4 5 6 
#
# 1 64.4034 15.7067 2.5307 0.0000 0.0000 0.0000
# 2 15.7067 128.0956 13.2034 0.0000 0.0000 0.0000
# 3 2.5307 13.2034 40.7359 0.0000 0.0000 0.0000
# 4 0.0000 0.0000 0.0000 30.0649 0.0000 0.0000
# 5 0.0000 0.0000 0.0000 0.0000 6.8795 0.0000
# 6 0.0000 0.0000 0.0000 0.0000 0.0000 11.1889
#
#
#
# Elastic Compliance Matrix: (Units=1/GPa)
#
#
# Indices 1 2 3 4 5 6 
#
# 1 0.016011 -0.001925 -0.000371 0.000000 0.000000 0.000000
# 2 -0.001925 0.008308 -0.002573 0.000000 0.000000 0.000000
# 3 -0.000371 -0.002573 0.025405 0.000000 0.000000 0.000000
# 4 0.000000 0.000000 0.000000 0.033261 0.000000 0.000000
# 5 0.000000 0.000000 0.000000 0.000000 0.145360 0.000000
# 6 0.000000 0.000000 0.000000 0.000000 0.000000 0.089374
#
#
# Mechanical properties :
#
#
# Convention : Reuss Voigt Hill
#
# Bulk Modulus (GPa) = 25.00837 32.90184 28.95510
# Shear Modulus (GPa) = 14.67193 23.07961 18.87577
#
# Velocity S-wave (km/s) = 2.56146 3.21261 2.90533
# Velocity P-wave (km/s) = 4.46446 5.33613 4.91964
#
# Compressibility (1/GPa) = 0.03998662
#
# Stress axis : x y z
#
# Youngs Moduli (GPa) = 62.45636 120.36676 39.36170
#
# Poissons Ratio (x) = 0.23171 0.01459
# Poissons Ratio (y) = 0.12023 0.10129
# Poissons Ratio (z) = 0.02315 0.30973
#
# Static dielectric constant tensor:
#      x y z
#    x 1.831810 0.000000 0.000000 
#    y 0.000000 1.898120 0.000000 
#    z 0.000000 0.000000 1.870600 
# 
# From -- ./inp_files/16360.got.cif
#   From: 2010.05.17/outbox.cif.g08.bks.cpg/sg36_9_cif.got.tgz:16360.got - 2010.06.03 17:41:39.
