data_PCOD9351856
_publ_section_title
;
Structure prediction by ZEFSAII (Michael W. Deem and Ramdas Pophale) SiO2 
 PCOD9351856
Probable space group: C M C 21
;
_chemical_formula_sum "Si O2"
_cell_formula_units_Z 64
_cell_length_a 8.688144
_cell_length_b 15.142668
_cell_length_c 23.798346
_cell_angle_alpha 90.000000
_cell_angle_beta 90.000000
_cell_angle_gamma 90.000000
_cell_volume 3130.950384
_symmetry_space_group_name_H-M "C M C 21"
_symmetry_group_IT_number 36
_symmetry_cell_setting 'orthorhombic'
loop_
_space_group_symop_operation_xyz
x,y,z
-x,-y,1/2+z
x,-y,1/2+z
-x,y,z
1/2+x,1/2+y,z
1/2-x,1/2-y,1/2+z
1/2+x,1/2-y,1/2+z
1/2-x,1/2+y,z
loop_
_atom_site_type_symbol
_atom_site_label
_atom_site_fract_x
_atom_site_fract_y
_atom_site_fract_z
Si Si1 0.185600 0.537042 0.344800
Si Si2 0.314263 0.394480 0.050580
Si Si3 0.317454 0.751729 0.637990
Si Si4 0.186081 0.318386 0.935605
Si Si5 0.182947 0.155052 0.867144
Si Si6 0.679830 0.992181 0.721094
Si Si7 0.682314 0.428936 0.605676
Si Si8 0.822441 0.299808 0.251632
O O1 0.236198 0.613124 0.387070
O O2 0.240661 0.440996 0.365419
O O3 0.234863 0.549824 0.280011
O O4 0.000000 0.535489 0.343257
O O5 0.500000 0.392735 0.048564
O O6 0.266112 0.334608 0.103626
O O7 0.267267 0.495376 0.062136
O O8 0.249150 0.352227 0.994402
O O9 0.500000 0.747856 0.645503
O O10 0.270024 0.836872 0.602246
O O11 0.240534 0.754962 0.699147
O O12 0.233959 0.220046 0.917070
O O13 0.000000 0.319344 0.937241
O O14 0.225022 0.203681 0.808560
O O15 0.000000 0.143671 0.870128
O O16 0.500000 0.967906 0.710751
O O17 0.685138 0.097311 0.732221
O O18 0.779711 0.966410 0.667707
O O19 0.500000 0.414610 0.599888
O O20 0.000000 0.278623 0.263323
#
# Coordination Sequence:
#
# PCOD9351856 Si02
#       8
#     8   8   8   8   8   8   8   8
#     4   9  20  39  59  86 121 158 198 243 296 356
#     4  10  24  44  62  84 120 159 201 252 299 352
#     4  11  23  40  61  88 120 159 201 247 304 361
#     4  10  23  41  63  87 117 160 205 245 295 358
#     4  10  21  37  59  90 122 157 198 247 300 353
#     4   9  18  34  59  87 121 158 193 239 299 356
#     4  11  23  39  59  89 121 154 201 250 300 356
#     4  10  20  36  60  91 124 159 197 245 301 358
#
# _framework density 20.441078000000001
#
# number of rings (size 3 to 8) (size 9 to 14) (size 15 to 20)
#    0.000    2.000    1.250    2.250    1.750    6.500 
#    0.000    5.000    0.000    0.000    0.000    0.000 
#    0.000    0.000    0.000    0.000    0.000    0.000 
#
# Total GULP energy -178805.589777 kJ/mol
# GULP energy per Si atom -5587.674681 kJ/mol
# Density = 2.039455 g / cm^3
# Si number density = 20.441078 Si / 1000 Ang^3
#
#
#
# Elastic Constant Matrix: (Units=GPa)
#
#
# Indices 1 2 3 4 5 6 
#
# 1 2.0988 -5.9903 -4.9637 0.0000 0.0000 0.0000
# 2 -5.9903 45.6895 -10.5742 0.0000 0.0000 0.0000
# 3 -4.9637 -10.5742 29.9777 0.0000 0.0000 0.0000
# 4 0.0000 0.0000 0.0000 27.6623 0.0000 0.0000
# 5 0.0000 0.0000 0.0000 0.0000 33.6950 0.0000
# 6 0.0000 0.0000 0.0000 0.0000 0.0000 27.4230
#
#
#
# Elastic Compliance Matrix: (Units=1/GPa)
#
#
# Indices 1 2 3 4 5 6 
#
# 1 -6.609188 -1.219341 -1.524455 0.000000 0.000000 0.000000
# 2 -1.219341 -0.201126 -0.272843 0.000000 0.000000 0.000000
# 3 -1.524455 -0.272843 -0.315302 0.000000 0.000000 0.000000
# 4 0.000000 0.000000 0.000000 0.036150 0.000000 0.000000
# 5 0.000000 0.000000 0.000000 0.000000 0.029678 0.000000
# 6 0.000000 0.000000 0.000000 0.000000 0.000000 0.036466
#
#
# Mechanical properties :
#
#
# Convention : Reuss Voigt Hill
#
# Bulk Modulus (GPa) = -0.07599 3.85661 1.89031
# Shear Modulus (GPa) = -0.93000 24.37567 11.72283
#
# Velocity S-wave (km/s) = -0.67524 3.45698 2.39737
# Velocity P-wave (km/s) = 0.80324 4.22198 2.93086
#
# Compressibility (1/GPa) = -13.15889415
#
# Stress axis : x y z
#
# Youngs Moduli (GPa) = -0.15130 -4.97201 -3.17156
#
# Poissons Ratio (x) = -6.06257 -4.83490
# Poissons Ratio (y) = -0.18449 -0.86534
# Poissons Ratio (z) = -0.23066 -1.35658
#
# Static dielectric constant tensor:
#      x y z
#    x 1.687510 0.000000 0.000000 
#    y 0.000000 1.755850 0.000000 
#    z 0.000000 0.000000 1.710400 
# 
# From -- ./inp_files/16605.got.cif
#   From: 2010.05.17/outbox.cif.g08.bks.cpg/sg36_9_cif.got.tgz:16605.got - 2010.06.03 17:41:39.
