data_PCOD9351991
_publ_section_title
;
Structure prediction by ZEFSAII (Michael W. Deem and Ramdas Pophale) SiO2 
 PCOD9351991
Probable space group: C M C 21
;
_chemical_formula_sum "Si O2"
_cell_formula_units_Z 40
_cell_length_a 13.755549
_cell_length_b 10.119393
_cell_length_c 12.595818
_cell_angle_alpha 90.000000
_cell_angle_beta 90.000000
_cell_angle_gamma 90.000000
_cell_volume 1753.310234
_symmetry_space_group_name_H-M "C M C 21"
_symmetry_group_IT_number 36
_symmetry_cell_setting 'orthorhombic'
loop_
_space_group_symop_operation_xyz
x,y,z
-x,-y,1/2+z
x,-y,1/2+z
-x,y,z
1/2+x,1/2+y,z
1/2-x,1/2-y,1/2+z
1/2+x,1/2-y,1/2+z
1/2-x,1/2+y,z
loop_
_atom_site_type_symbol
_atom_site_label
_atom_site_fract_x
_atom_site_fract_y
_atom_site_fract_z
Si Si1 0.390663 0.785442 0.209490
Si Si2 0.888357 0.994471 0.190694
Si Si3 0.384051 0.035327 0.509399
Si Si4 0.615527 0.216757 0.119762
Si Si5 0.257253 0.864946 0.819962
O O1 0.500000 0.804391 0.249482
O O2 0.386248 0.644132 0.146005
O O3 0.369591 0.897145 0.124727
O O4 0.318932 0.755883 0.306204
O O5 0.864488 0.873504 0.113447
O O6 0.000000 0.973776 0.228154
O O7 0.811089 0.010701 0.285494
O O8 0.500000 0.046735 0.483958
O O9 0.316930 0.106642 0.424387
O O10 0.355979 0.882437 0.526674
O O11 0.500000 0.200872 0.130401
O O12 0.667021 0.166795 0.226191
#
# Coordination Sequence:
#
# PCOD9351991 Si02
#       5
#     8   8   8   8   8
#     4   8  18  38  66  96 133 174 221 281 339 396
#     4   8  18  39  65  92 128 173 214 274 336 387
#     4  10  21  40  68  99 130 178 233 279 336 401
#     4  10  21  38  64  95 133 169 217 281 337 395
#     4  10  20  37  69  92 132 176 225 271 330 407
#
# _framework density 22.813987999999998
#
# number of rings (size 3 to 8) (size 9 to 14) (size 15 to 20)
#    1.200    1.600    0.000    0.600    2.800    0.000 
#    3.600    0.000    4.400    8.400    0.000    0.000 
#    0.000    0.000    0.000    0.000    0.000    0.000 
#
# Total GULP energy -111449.767508 kJ/mol
# GULP energy per Si atom -5572.488375 kJ/mol
# Density = 2.276206 g / cm^3
# Si number density = 22.813988 Si / 1000 Ang^3
#
#
#
# Elastic Constant Matrix: (Units=GPa)
#
#
# Indices 1 2 3 4 5 6 
#
# 1 71.6779 25.0947 24.4002 0.0000 0.0000 0.0000
# 2 25.0947 110.1341 36.2627 0.0000 0.0000 0.0000
# 3 24.4002 36.2627 51.5126 0.0000 0.0000 0.0000
# 4 0.0000 0.0000 0.0000 25.7047 0.0000 0.0000
# 5 0.0000 0.0000 0.0000 0.0000 37.3025 0.0000
# 6 0.0000 0.0000 0.0000 0.0000 0.0000 25.7930
#
#
#
# Elastic Compliance Matrix: (Units=1/GPa)
#
#
# Indices 1 2 3 4 5 6 
#
# 1 0.016841 -0.001576 -0.006868 0.000000 0.000000 0.000000
# 2 -0.001576 0.011967 -0.007678 0.000000 0.000000 0.000000
# 3 -0.006868 -0.007678 0.028070 0.000000 0.000000 0.000000
# 4 0.000000 0.000000 0.000000 0.038903 0.000000 0.000000
# 5 0.000000 0.000000 0.000000 0.000000 0.026808 0.000000
# 6 0.000000 0.000000 0.000000 0.000000 0.000000 0.038770
#
#
# Mechanical properties :
#
#
# Convention : Reuss Voigt Hill
#
# Bulk Modulus (GPa) = 40.59164 44.98220 42.78692
# Shear Modulus (GPa) = 24.77526 27.59783 26.18655
#
# Velocity S-wave (km/s) = 3.29898 3.48183 3.39164
# Velocity P-wave (km/s) = 5.68701 5.99366 5.84235
#
# Compressibility (1/GPa) = 0.02463562
#
# Stress axis : x y z
#
# Youngs Moduli (GPa) = 59.37918 83.56390 35.62468
#
# Poissons Ratio (x) = 0.13170 0.24466
# Poissons Ratio (y) = 0.09359 0.27351
# Poissons Ratio (z) = 0.40779 0.64157
#
# Static dielectric constant tensor:
#      x y z
#    x 1.895640 0.000000 0.000000 
#    y 0.000000 1.977360 0.000000 
#    z 0.000000 0.000000 1.779000 
# 
# From -- ./inp_files/8249.got.cif
#   From: 2010.05.17/outbox.cif.g08.bks.cpg/sg36_5_cif.got.tgz:8249.got - 2010.06.03 17:41:39.
