data_PCOD9351803
_publ_section_title
;
Structure prediction by ZEFSAII (Michael W. Deem and Ramdas Pophale) SiO2 
 PCOD9351803
Probable space group: C M C 21
;
_chemical_formula_sum "Si O2"
_cell_formula_units_Z 48
_cell_length_a 8.498107
_cell_length_b 15.641384
_cell_length_c 19.457130
_cell_angle_alpha 90.000000
_cell_angle_beta 90.000000
_cell_angle_gamma 90.000000
_cell_volume 2586.283647
_symmetry_space_group_name_H-M "C M C 21"
_symmetry_group_IT_number 36
_symmetry_cell_setting 'orthorhombic'
loop_
_space_group_symop_operation_xyz
x,y,z
-x,-y,1/2+z
x,-y,1/2+z
-x,y,z
1/2+x,1/2+y,z
1/2-x,1/2-y,1/2+z
1/2+x,1/2-y,1/2+z
1/2-x,1/2+y,z
loop_
_atom_site_type_symbol
_atom_site_label
_atom_site_fract_x
_atom_site_fract_y
_atom_site_fract_z
Si Si1 0.811449 0.904963 0.115220
Si Si2 0.191240 0.900489 0.622074
Si Si3 0.690487 0.413714 0.779127
Si Si4 0.190199 0.754015 0.869894
Si Si5 0.311386 0.102464 0.768342
Si Si6 0.811580 0.252123 0.024280
O O1 0.757874 0.881996 0.192459
O O2 0.742910 0.838824 0.061046
O O3 0.000000 0.902666 0.112301
O O4 0.759681 0.003196 0.102825
O O5 0.236836 0.886034 0.701580
O O6 0.247426 0.827420 0.570672
O O7 0.000000 0.899166 0.620746
O O8 0.500000 0.419627 0.780150
O O9 0.740431 0.342392 0.833510
O O10 0.758187 0.507955 0.791045
O O11 0.240435 0.674774 0.822022
O O12 0.000000 0.754023 0.871291
O O13 0.251372 0.746661 0.946844
O O14 0.500000 0.105363 0.763175
O O15 0.000000 0.249559 0.023996
#
# Coordination Sequence:
#
# PCOD9351803 Si02
#       6
#     8   8   8   8   8   8
#     4  10  20  37  59  81 107 141 181 221 271 331
#     4   8  17  35  57  78 102 138 179 218 266 323
#     4   9  18  36  59  78 102 141 183 219 265 326
#     4  10  22  38  54  76 112 151 179 212 269 332
#     4  10  20  36  58  83 109 138 179 229 272 312
#     4  11  22  36  55  80 110 143 183 227 267 312
#
# _framework density 18.559449000000001
#
# number of rings (size 3 to 8) (size 9 to 14) (size 15 to 20)
#    0.000    2.333    0.000    3.500    0.000    6.000 
#    0.000   16.667    0.000    0.000    0.000    0.000 
#    0.000    0.000    0.000    0.000    0.000    0.000 
#
# Total GULP energy -133985.097220 kJ/mol
# GULP energy per Si atom -5582.712384 kJ/mol
# Density = 1.851721 g / cm^3
# Si number density = 18.559449 Si / 1000 Ang^3
#
#
#
# Elastic Constant Matrix: (Units=GPa)
#
#
# Indices 1 2 3 4 5 6 
#
# 1 21.5834 14.6555 13.9868 0.0000 0.0000 0.0000
# 2 14.6555 64.6012 46.2004 0.0000 0.0000 0.0000
# 3 13.9868 46.2004 74.7379 0.0000 0.0000 0.0000
# 4 0.0000 0.0000 0.0000 0.2714 0.0000 0.0000
# 5 0.0000 0.0000 0.0000 0.0000 33.8704 0.0000
# 6 0.0000 0.0000 0.0000 0.0000 0.0000 25.6300
#
#
#
# Elastic Compliance Matrix: (Units=1/GPa)
#
#
# Indices 1 2 3 4 5 6 
#
# 1 0.055667 -0.009282 -0.004680 0.000000 0.000000 0.000000
# 2 -0.009282 0.029293 -0.016371 0.000000 0.000000 0.000000
# 3 -0.004680 -0.016371 0.024376 0.000000 0.000000 0.000000
# 4 0.000000 0.000000 0.000000 3.684969 0.000000 0.000000
# 5 0.000000 0.000000 0.000000 0.000000 0.029524 0.000000
# 6 0.000000 0.000000 0.000000 0.000000 0.000000 0.039017
#
#
# Mechanical properties :
#
#
# Convention : Reuss Voigt Hill
#
# Bulk Modulus (GPa) = 20.54625 34.51200 27.52912
# Shear Modulus (GPa) = 1.26912 17.69301 9.48106
#
# Velocity S-wave (km/s) = 0.82783 3.09093 2.26265
# Velocity P-wave (km/s) = 3.46530 5.60127 4.65739
#
# Compressibility (1/GPa) = 0.04867068
#
# Stress axis : x y z
#
# Youngs Moduli (GPa) = 17.96386 34.13762 41.02393
#
# Poissons Ratio (x) = 0.31685 0.19200
# Poissons Ratio (y) = 0.16673 0.67161
# Poissons Ratio (z) = 0.08408 0.55887
#
# Static dielectric constant tensor:
#      x y z
#    x 1.639720 0.000000 0.000000 
#    y 0.000000 1.637970 0.000000 
#    z 0.000000 0.000000 1.606410 
# 
# From -- ./inp_files/13467.got.cif
#   From: 2010.05.17/outbox.cif.g08.bks.cpg/sg36_7_cif.got.tgz:13467.got - 2010.06.03 17:41:39.
