data_PCOD9351073
_publ_section_title
;
Structure prediction by ZEFSAII (Michael W. Deem and Ramdas Pophale) SiO2 
 PCOD9351073
Probable space group: C M C 21
;
_chemical_formula_sum "Si O2"
_cell_formula_units_Z 48
_cell_length_a 7.447561
_cell_length_b 27.654254
_cell_length_c 10.457682
_cell_angle_alpha 90.000000
_cell_angle_beta 90.000000
_cell_angle_gamma 90.000000
_cell_volume 2153.830130
_symmetry_space_group_name_H-M "C M C 21"
_symmetry_group_IT_number 36
_symmetry_cell_setting 'orthorhombic'
loop_
_space_group_symop_operation_xyz
x,y,z
-x,-y,1/2+z
x,-y,1/2+z
-x,y,z
1/2+x,1/2+y,z
1/2-x,1/2-y,1/2+z
1/2+x,1/2-y,1/2+z
1/2-x,1/2+y,z
loop_
_atom_site_type_symbol
_atom_site_label
_atom_site_fract_x
_atom_site_fract_y
_atom_site_fract_z
Si Si1 0.783858 0.715597 0.135990
Si Si2 0.719166 0.075786 0.500645
Si Si3 0.292639 0.101786 0.776298
Si Si4 0.780556 0.390248 0.724466
Si Si5 0.780471 0.536221 0.005502
Si Si6 0.211298 0.790884 0.346517
O O1 0.720899 0.661519 0.170327
O O2 0.717305 0.754269 0.239457
O O3 0.000000 0.714643 0.144979
O O4 0.737938 0.727836 0.990227
O O5 0.500000 0.077712 0.496078
O O6 0.781707 0.099941 0.632837
O O7 0.779285 0.100442 0.369305
O O8 0.772282 0.019533 0.504854
O O9 0.500000 0.086686 0.762719
O O10 0.289168 0.155547 0.832443
O O11 0.215461 0.064710 0.879795
O O12 0.724950 0.433484 0.630123
O O13 0.000000 0.389920 0.723684
O O14 0.000000 0.536920 0.005136
O O15 0.000000 0.796363 0.324672
#
# Coordination Sequence:
#
# PCOD9351073 Si02
#       6
#     8   8   8   8   8   8
#     4  10  22  40  59  81 109 146 186 229 279 328
#     4   9  17  26  47  83 113 139 178 227 272 318
#     4  10  19  33  55  81 112 147 181 225 280 330
#     4   9  16  29  48  73 108 139 170 219 272 320
#     4   9  15  27  48  78 111 141 178 226 274 318
#     4  11  24  39  59  84 111 144 185 232 279 334
#
# _framework density 22.285881
#
# number of rings (size 3 to 8) (size 9 to 14) (size 15 to 20)
#    0.000    2.333    1.667    1.500    2.333    5.333 
#    0.000    0.000    0.000    1.000    0.000    0.000 
#    0.000    0.000    0.000    0.000    0.000    0.000 
#
# Total GULP energy -134118.420986 kJ/mol
# GULP energy per Si atom -5588.267541 kJ/mol
# Density = 2.223516 g / cm^3
# Si number density = 22.285881 Si / 1000 Ang^3
#
#
#
# Elastic Constant Matrix: (Units=GPa)
#
#
# Indices 1 2 3 4 5 6 
#
# 1 65.1503 -10.9745 -6.1268 0.0000 0.0000 0.0000
# 2 -10.9745 50.8580 30.9567 0.0000 0.0000 0.0000
# 3 -6.1268 30.9567 184.6292 0.0000 0.0000 0.0000
# 4 0.0000 0.0000 0.0000 42.4595 0.0000 0.0000
# 5 0.0000 0.0000 0.0000 0.0000 0.7096 0.0000
# 6 0.0000 0.0000 0.0000 0.0000 0.0000 4.9468
#
#
#
# Elastic Compliance Matrix: (Units=1/GPa)
#
#
# Indices 1 2 3 4 5 6 
#
# 1 0.015929 0.003470 -0.000053 0.000000 0.000000 0.000000
# 2 0.003470 0.022653 -0.003683 0.000000 0.000000 0.000000
# 3 -0.000053 -0.003683 0.006032 0.000000 0.000000 0.000000
# 4 0.000000 0.000000 0.000000 0.023552 0.000000 0.000000
# 5 0.000000 0.000000 0.000000 0.000000 1.409285 0.000000
# 6 0.000000 0.000000 0.000000 0.000000 0.000000 0.202151
#
#
# Mechanical properties :
#
#
# Convention : Reuss Voigt Hill
#
# Bulk Modulus (GPa) = 22.68590 36.48316 29.58453
# Shear Modulus (GPa) = 2.95015 28.74199 15.84607
#
# Velocity S-wave (km/s) = 1.15180 3.59513 2.66942
# Velocity P-wave (km/s) = 3.45984 5.79994 4.77545
#
# Compressibility (1/GPa) = 0.04408023
#
# Stress axis : x y z
#
# Youngs Moduli (GPa) = 62.78034 44.14402 165.78129
#
# Poissons Ratio (x) = -0.15316 0.00881
# Poissons Ratio (y) = -0.21782 0.61059
# Poissons Ratio (z) = 0.00334 0.16259
#
# Static dielectric constant tensor:
#      x y z
#    x 1.878360 0.000000 0.000000 
#    y 0.000000 1.757710 0.000000 
#    z 0.000000 0.000000 1.802260 
# 
# From -- ./inp_files/2660.got.cif
#   From: 2010.05.17/outbox.cif.g08.bks.cpg/sg36_2_cif.got.tgz:2660.got - 2010.06.03 17:41:39.
