data_PCOD9351815
_publ_section_title
;
Structure prediction by ZEFSAII (Michael W. Deem and Ramdas Pophale) SiO2 
 PCOD9351815
Probable space group: C M C 21
;
_chemical_formula_sum "Si O2"
_cell_formula_units_Z 56
_cell_length_a 12.901616
_cell_length_b 12.549616
_cell_length_c 18.103695
_cell_angle_alpha 90.000000
_cell_angle_beta 90.000000
_cell_angle_gamma 90.000000
_cell_volume 2931.175170
_symmetry_space_group_name_H-M "C M C 21"
_symmetry_group_IT_number 36
_symmetry_cell_setting 'orthorhombic'
loop_
_space_group_symop_operation_xyz
x,y,z
-x,-y,1/2+z
x,-y,1/2+z
-x,y,z
1/2+x,1/2+y,z
1/2-x,1/2-y,1/2+z
1/2+x,1/2-y,1/2+z
1/2-x,1/2+y,z
loop_
_atom_site_type_symbol
_atom_site_label
_atom_site_fract_x
_atom_site_fract_y
_atom_site_fract_z
Si Si1 0.879958 0.397141 0.187580
Si Si2 0.380045 0.595298 0.935844
Si Si3 0.183971 0.854055 0.933947
Si Si4 0.881132 0.572974 0.517555
Si Si5 0.238231 0.781288 0.307016
Si Si6 0.881443 0.349755 0.692429
Si Si7 0.697042 0.163953 0.036005
O O1 0.853926 0.386309 0.100295
O O2 0.805441 0.340008 0.244953
O O3 0.874298 0.523616 0.203028
O O4 0.000000 0.363714 0.196775
O O5 0.500000 0.628263 0.937237
O O6 0.373388 0.466574 0.936354
O O7 0.318765 0.639440 0.864174
O O8 0.312048 0.640102 0.004319
O O9 0.189193 0.796655 0.855303
O O10 0.302135 0.881116 0.958269
O O11 0.150204 0.764536 0.992753
O O12 0.865685 0.445081 0.519766
O O13 0.000000 0.598588 0.502162
O O14 0.153342 0.711654 0.264706
O O15 0.809613 0.319807 0.623166
O O16 0.000000 0.324541 0.672459
#
# Coordination Sequence:
#
# PCOD9351815 Si02
#       7
#     8   8   8   8   8   8   8
#     4   9  19  36  57  80 108 141 179 226 274 319
#     4  10  22  38  54  77 111 147 180 220 269 320
#     4  10  21  35  54  79 110 144 177 218 263 318
#     4   9  18  35  58  82 106 134 176 226 271 315
#     4  11  21  36  54  80 112 145 181 220 266 323
#     4  10  20  36  59  83 107 139 180 225 272 321
#     4   9  19  36  56  81 106 136 179 225 269 316
#
# _framework density 19.104965
#
# number of rings (size 3 to 8) (size 9 to 14) (size 15 to 20)
#    0.000    2.286    0.000    3.429    0.000    4.571 
#    0.000   11.429    0.000    6.857    0.000    0.000 
#    0.000    0.000    0.000    0.000    0.000    0.000 
#
# Total GULP energy -156290.016803 kJ/mol
# GULP energy per Si atom -5581.786314 kJ/mol
# Density = 1.906148 g / cm^3
# Si number density = 19.104965 Si / 1000 Ang^3
#
#
#
# Elastic Constant Matrix: (Units=GPa)
#
#
# Indices 1 2 3 4 5 6 
#
# 1 62.2420 -11.2875 8.2046 0.0000 0.0000 0.0000
# 2 -11.2875 54.1141 5.0364 0.0000 0.0000 0.0000
# 3 8.2046 5.0364 54.0198 0.0000 0.0000 0.0000
# 4 0.0000 0.0000 0.0000 32.7804 0.0000 0.0000
# 5 0.0000 0.0000 0.0000 0.0000 20.1229 0.0000
# 6 0.0000 0.0000 0.0000 0.0000 0.0000 7.6715
#
#
#
# Elastic Compliance Matrix: (Units=1/GPa)
#
#
# Indices 1 2 3 4 5 6 
#
# 1 0.017156 0.003854 -0.002965 0.000000 0.000000 0.000000
# 2 0.003854 0.019507 -0.002404 0.000000 0.000000 0.000000
# 3 -0.002965 -0.002404 0.019186 0.000000 0.000000 0.000000
# 4 0.000000 0.000000 0.000000 0.030506 0.000000 0.000000
# 5 0.000000 0.000000 0.000000 0.000000 0.049695 0.000000
# 6 0.000000 0.000000 0.000000 0.000000 0.000000 0.130352
#
#
# Mechanical properties :
#
#
# Convention : Reuss Voigt Hill
#
# Bulk Modulus (GPa) = 18.93214 19.36476 19.14845
# Shear Modulus (GPa) = 17.41925 23.34313 20.38119
#
# Velocity S-wave (km/s) = 3.02282 3.49927 3.26973
# Velocity P-wave (km/s) = 4.70259 5.14631 4.92944
#
# Compressibility (1/GPa) = 0.05282023
#
# Stress axis : x y z
#
# Youngs Moduli (GPa) = 58.28811 51.26312 52.12078
#
# Poissons Ratio (x) = -0.19759 0.15454
# Poissons Ratio (y) = -0.22467 0.12530
# Poissons Ratio (z) = 0.17283 0.12324
#
# Static dielectric constant tensor:
#      x y z
#    x 1.658670 0.000000 0.000000 
#    y 0.000000 1.678010 0.000000 
#    z 0.000000 0.000000 1.648540 
# 
# From -- ./inp_files/12148.got.cif
#   From: 2010.05.17/outbox.cif.g08.bks.cpg/sg36_7_cif.got.tgz:12148.got - 2010.06.03 17:41:39.
