data_PCOD9351601
_publ_section_title
;
Structure prediction by ZEFSAII (Michael W. Deem and Ramdas Pophale) SiO2 
 PCOD9351601
Probable space group: C M C 21
;
_chemical_formula_sum "Si O2"
_cell_formula_units_Z 56
_cell_length_a 16.809938
_cell_length_b 15.019111
_cell_length_c 9.078421
_cell_angle_alpha 90.000000
_cell_angle_beta 90.000000
_cell_angle_gamma 90.000000
_cell_volume 2292.031898
_symmetry_space_group_name_H-M "C M C 21"
_symmetry_group_IT_number 36
_symmetry_cell_setting 'orthorhombic'
loop_
_space_group_symop_operation_xyz
x,y,z
-x,-y,1/2+z
x,-y,1/2+z
-x,y,z
1/2+x,1/2+y,z
1/2-x,1/2-y,1/2+z
1/2+x,1/2-y,1/2+z
1/2-x,1/2+y,z
loop_
_atom_site_type_symbol
_atom_site_label
_atom_site_fract_x
_atom_site_fract_y
_atom_site_fract_z
Si Si1 0.327582 0.409984 0.119980
Si Si2 0.911772 0.203796 0.050852
Si Si3 0.688671 0.014288 0.008943
Si Si4 0.240019 0.815200 0.360309
Si Si5 0.085400 0.675850 0.816697
Si Si6 0.911039 0.539070 0.276777
Si Si7 0.092412 0.944945 0.805373
O O1 0.248397 0.469168 0.120415
O O2 0.294145 0.319778 0.193429
O O3 0.385490 0.458869 0.236711
O O4 0.360919 0.417501 0.954207
O O5 0.918528 0.290586 0.150745
O O6 0.896901 0.123732 0.168913
O O7 0.000000 0.187657 0.982554
O O8 0.835325 0.216880 0.950785
O O9 0.620418 0.056416 0.113241
O O10 0.741419 0.086207 0.924636
O O11 0.652295 0.938771 0.902351
O O12 0.331283 0.781571 0.371215
O O13 0.088089 0.568648 0.805146
O O14 0.000000 0.702081 0.887807
O O15 0.000000 0.573181 0.298530
O O16 0.000000 0.943518 0.845787
#
# Coordination Sequence:
#
# PCOD9351601 Si02
#       7
#     8   8   8   8   8   8   8
#     4  12  20  35  55  84 118 146 189 243 297 353
#     4  10  22  40  60  84 117 157 200 241 291 351
#     4  11  18  34  53  81 115 144 180 235 292 340
#     4  11  22  37  62  88 116 156 192 246 299 355
#     4   9  20  39  58  81 113 152 194 237 286 345
#     4  10  20  34  57  83 113 149 189 234 291 348
#     4  11  22  35  55  81 114 156 194 240 296 354
#
# _framework density 24.432469999999999
#
# number of rings (size 3 to 8) (size 9 to 14) (size 15 to 20)
#    0.000    1.429    5.714    0.857    0.000    4.000 
#    0.000    0.000    0.000    0.857    0.000    6.000 
#    0.000    0.000    0.000    0.000    0.000    0.000 
#
# Total GULP energy -156152.834821 kJ/mol
# GULP energy per Si atom -5576.886958 kJ/mol
# Density = 2.437686 g / cm^3
# Si number density = 24.432470 Si / 1000 Ang^3
#
#
#
# Elastic Constant Matrix: (Units=GPa)
#
#
# Indices 1 2 3 4 5 6 
#
# 1 184.0147 7.0326 44.3935 0.0000 0.0000 0.0000
# 2 7.0326 28.0489 -2.0768 0.0000 0.0000 0.0000
# 3 44.3935 -2.0768 54.4927 0.0000 0.0000 0.0000
# 4 0.0000 0.0000 0.0000 21.5843 0.0000 0.0000
# 5 0.0000 0.0000 0.0000 0.0000 49.6127 0.0000
# 6 0.0000 0.0000 0.0000 0.0000 0.0000 6.6863
#
#
#
# Elastic Compliance Matrix: (Units=1/GPa)
#
#
# Indices 1 2 3 4 5 6 
#
# 1 0.006891 -0.002149 -0.005695 0.000000 0.000000 0.000000
# 2 -0.002149 0.036423 0.003139 0.000000 0.000000 0.000000
# 3 -0.005695 0.003139 0.023111 0.000000 0.000000 0.000000
# 4 0.000000 0.000000 0.000000 0.046330 0.000000 0.000000
# 5 0.000000 0.000000 0.000000 0.000000 0.020156 0.000000
# 6 0.000000 0.000000 0.000000 0.000000 0.000000 0.149559
#
#
# Mechanical properties :
#
#
# Convention : Reuss Voigt Hill
#
# Bulk Modulus (GPa) = 17.53979 40.58389 29.06184
# Shear Modulus (GPa) = 16.08312 30.05712 23.07012
#
# Velocity S-wave (km/s) = 2.56846 3.51124 3.07618
# Velocity P-wave (km/s) = 3.99880 5.75197 4.95356
#
# Compressibility (1/GPa) = 0.05701322
#
# Stress axis : x y z
#
# Youngs Moduli (GPa) = 145.12724 27.45491 43.27022
#
# Poissons Ratio (x) = 0.05901 0.24644
# Poissons Ratio (y) = 0.31192 -0.13583
# Poissons Ratio (z) = 0.82656 -0.08618
#
# Static dielectric constant tensor:
#      x y z
#    x 2.011910 0.000000 0.000000 
#    y 0.000000 1.998120 0.000000 
#    z 0.000000 0.000000 1.974690 
# 
# From -- ./inp_files/4885.got.cif
#   From: 2010.05.17/outbox.cif.g08.bks.cpg/sg36_3_cif.got.tgz:4885.got - 2010.06.03 17:41:39.
