data_PCOD9351682
_publ_section_title
;
Structure prediction by ZEFSAII (Michael W. Deem and Ramdas Pophale) SiO2 
 PCOD9351682
Probable space group: C M C 21
;
_chemical_formula_sum "Si O2"
_cell_formula_units_Z 48
_cell_length_a 15.028698
_cell_length_b 9.613990
_cell_length_c 16.534368
_cell_angle_alpha 90.000000
_cell_angle_beta 90.000000
_cell_angle_gamma 90.000000
_cell_volume 2388.980599
_symmetry_space_group_name_H-M "C M C 21"
_symmetry_group_IT_number 36
_symmetry_cell_setting 'orthorhombic'
loop_
_space_group_symop_operation_xyz
x,y,z
-x,-y,1/2+z
x,-y,1/2+z
-x,y,z
1/2+x,1/2+y,z
1/2-x,1/2-y,1/2+z
1/2+x,1/2-y,1/2+z
1/2-x,1/2+y,z
loop_
_atom_site_type_symbol
_atom_site_label
_atom_site_fract_x
_atom_site_fract_y
_atom_site_fract_z
Si Si1 0.000000 0.129152 0.376210
Si Si2 0.298389 0.689443 0.372149
Si Si3 0.308499 0.655495 0.730515
Si Si4 0.809900 0.464522 0.468173
Si Si5 0.000000 0.418535 0.416807
Si Si6 0.183575 0.563994 0.154587
Si Si7 0.500000 0.961651 0.750332
Si Si8 0.500000 0.649478 0.801815
O O1 0.100412 0.159663 0.343098
O O2 0.000000 0.254816 0.443637
O O3 0.000000 0.958878 0.377533
O O4 0.238307 0.759988 0.303376
O O5 0.254521 0.554055 0.411560
O O6 0.298776 0.804486 0.442879
O O7 0.253693 0.519128 0.709182
O O8 0.306196 0.769716 0.659405
O O9 0.409471 0.620306 0.753068
O O10 0.801490 0.484724 0.563330
O O11 0.912019 0.494469 0.445562
O O12 0.000000 0.420497 0.318864
O O13 0.086928 0.534101 0.194046
O O14 0.500000 0.818142 0.803423
#
# Coordination Sequence:
#
# PCOD9351682 Si02
#       8
#     4   8   8   8   4   8   4   4
#     4  10  20  35  56  85 114 146 194 245 288 348
#     4  11  22  38  61  85 116 158 202 247 299 365
#     4  11  22  38  61  85 116 158 202 247 299 365
#     4  11  22  38  58  86 118 152 194 250 305 354
#     4  10  21  37  60  85 114 152 195 241 294 360
#     4  11  22  38  58  86 118 152 194 250 305 354
#     4  10  21  37  60  85 114 152 195 241 294 360
#     4  10  20  35  56  85 114 146 194 245 288 348
#
# _framework density 20.092252999999999
#
# number of rings (size 3 to 8) (size 9 to 14) (size 15 to 20)
#    0.000    1.333    0.000    8.500    0.000    0.000 
#    0.000    2.500    0.000    0.000    0.000    2.333 
#    0.000    0.000    0.000    0.000    0.000    0.000 
#
# Total GULP energy -133714.284987 kJ/mol
# GULP energy per Si atom -5571.428541 kJ/mol
# Density = 2.004652 g / cm^3
# Si number density = 20.092253 Si / 1000 Ang^3
#
#
#
# Elastic Constant Matrix: (Units=GPa)
#
#
# Indices 1 2 3 4 5 6 
#
# 1 156.8177 46.2413 20.9228 0.0000 0.0000 0.0000
# 2 46.2413 102.1736 20.0886 0.0000 0.0000 0.0000
# 3 20.9228 20.0886 80.4461 0.0000 0.0000 0.0000
# 4 0.0000 0.0000 0.0000 26.9248 0.0000 0.0000
# 5 0.0000 0.0000 0.0000 0.0000 15.5509 0.0000
# 6 0.0000 0.0000 0.0000 0.0000 0.0000 21.0406
#
#
#
# Elastic Compliance Matrix: (Units=1/GPa)
#
#
# Indices 1 2 3 4 5 6 
#
# 1 0.007459 -0.003149 -0.001154 0.000000 0.000000 0.000000
# 2 -0.003149 0.011622 -0.002083 0.000000 0.000000 0.000000
# 3 -0.001154 -0.002083 0.013251 0.000000 0.000000 0.000000
# 4 0.000000 0.000000 0.000000 0.037140 0.000000 0.000000
# 5 0.000000 0.000000 0.000000 0.000000 0.064305 0.000000
# 6 0.000000 0.000000 0.000000 0.000000 0.000000 0.047527
#
#
# Mechanical properties :
#
#
# Convention : Reuss Voigt Hill
#
# Bulk Modulus (GPa) = 51.12361 57.10475 54.11418
# Shear Modulus (GPa) = 24.92564 29.51560 27.22062
#
# Velocity S-wave (km/s) = 3.52598 3.83692 3.68473
# Velocity P-wave (km/s) = 6.48663 6.93630 6.71523
#
# Compressibility (1/GPa) = 0.01956044
#
# Stress axis : x y z
#
# Youngs Moduli (GPa) = 134.06019 86.04349 75.46640
#
# Poissons Ratio (x) = 0.27096 0.08706
# Poissons Ratio (y) = 0.42217 0.15721
# Poissons Ratio (z) = 0.15466 0.17924
#
# Static dielectric constant tensor:
#      x y z
#    x 1.712640 0.000000 0.000000 
#    y 0.000000 1.832980 0.000000 
#    z 0.000000 0.000000 1.707850 
# 
# From -- ./inp_files/14602.got.cif
#   From: 2010.05.17/outbox.cif.g08.bks.cpg/sg36_8_cif.got.tgz:14602.got - 2010.06.03 17:41:39.
