data_PCOD9351277
_publ_section_title
;
Structure prediction by ZEFSAII (Michael W. Deem and Ramdas Pophale) SiO2 
 PCOD9351277
Probable space group: C M C 21
;
_chemical_formula_sum "Si O2"
_cell_formula_units_Z 64
_cell_length_a 7.856516
_cell_length_b 15.802113
_cell_length_c 24.157679
_cell_angle_alpha 90.000000
_cell_angle_beta 90.000000
_cell_angle_gamma 90.000000
_cell_volume 2999.165064
_symmetry_space_group_name_H-M "C M C 21"
_symmetry_group_IT_number 36
_symmetry_cell_setting 'orthorhombic'
loop_
_space_group_symop_operation_xyz
x,y,z
-x,-y,1/2+z
x,-y,1/2+z
-x,y,z
1/2+x,1/2+y,z
1/2-x,1/2-y,1/2+z
1/2+x,1/2-y,1/2+z
1/2-x,1/2+y,z
loop_
_atom_site_type_symbol
_atom_site_label
_atom_site_fract_x
_atom_site_fract_y
_atom_site_fract_z
Si Si1 0.197943 0.890152 0.866970
Si Si2 0.698715 0.927907 0.389974
Si Si3 0.793776 0.857641 0.271179
Si Si4 0.791046 0.082228 0.650766
Si Si5 0.290713 0.758561 0.448465
Si Si6 0.303244 0.836665 0.751416
Si Si7 0.199059 0.231789 0.572023
Si Si8 0.195601 0.103533 0.134769
O O1 0.262898 0.814152 0.905493
O O2 0.288161 0.889563 0.807588
O O3 0.000000 0.873872 0.855399
O O4 0.215651 0.980999 0.895575
O O5 0.500000 0.939262 0.402146
O O6 0.720020 0.897352 0.326619
O O7 0.765198 0.850834 0.427509
O O8 0.739812 0.902938 0.214405
O O9 0.746411 0.758823 0.265543
O O10 0.000000 0.862440 0.275356
O O11 0.730302 0.159275 0.612406
O O12 0.000000 0.082251 0.651444
O O13 0.734590 0.991155 0.628700
O O14 0.500000 0.759273 0.448257
O O15 0.230000 0.737817 0.510172
O O16 0.500000 0.831419 0.733712
O O17 0.203769 0.874939 0.699990
O O18 0.213734 0.321986 0.601880
O O19 0.000000 0.211155 0.565639
O O20 0.000000 0.103994 0.116421
#
# Coordination Sequence:
#
# PCOD9351277 Si02
#       8
#     8   8   8   8   8   8   8   8
#     4  11  22  39  60  88 119 155 196 241 295 351
#     4  11  22  38  58  88 119 153 194 239 293 351
#     4  10  19  35  59  87 114 152 193 234 292 352
#     4   9  19  36  58  82 112 148 189 231 283 347
#     4   9  21  39  61  83 112 154 200 244 294 345
#     4  11  21  36  61  90 117 154 195 238 294 354
#     4  10  20  41  63  80 110 157 202 243 289 346
#     4  11  22  36  58  90 121 151 189 242 294 348
#
# _framework density 21.339272000000001
#
# number of rings (size 3 to 8) (size 9 to 14) (size 15 to 20)
#    0.000    1.750    2.500    2.250    0.000    2.500 
#    0.000    5.625    0.000    0.000    0.000    0.000 
#    0.000    0.000    0.000    0.000    0.000    0.000 
#
# Total GULP energy -178852.978256 kJ/mol
# GULP energy per Si atom -5589.155571 kJ/mol
# Density = 2.129070 g / cm^3
# Si number density = 21.339272 Si / 1000 Ang^3
#
#
#
# Elastic Constant Matrix: (Units=GPa)
#
#
# Indices 1 2 3 4 5 6 
#
# 1 25.6229 -7.9336 -9.3750 0.0000 0.0000 0.0000
# 2 -7.9336 87.7165 -2.2237 0.0000 0.0000 0.0000
# 3 -9.3750 -2.2237 79.5700 0.0000 0.0000 0.0000
# 4 0.0000 0.0000 0.0000 4.7741 0.0000 0.0000
# 5 0.0000 0.0000 0.0000 0.0000 16.0746 0.0000
# 6 0.0000 0.0000 0.0000 0.0000 0.0000 20.6306
#
#
#
# Elastic Compliance Matrix: (Units=1/GPa)
#
#
# Indices 1 2 3 4 5 6 
#
# 1 0.042102 0.003936 0.005070 0.000000 0.000000 0.000000
# 2 0.003936 0.011777 0.000793 0.000000 0.000000 0.000000
# 3 0.005070 0.000793 0.013187 0.000000 0.000000 0.000000
# 4 0.000000 0.000000 0.000000 0.209464 0.000000 0.000000
# 5 0.000000 0.000000 0.000000 0.000000 0.062210 0.000000
# 6 0.000000 0.000000 0.000000 0.000000 0.000000 0.048472
#
#
# Mechanical properties :
#
#
# Convention : Reuss Voigt Hill
#
# Bulk Modulus (GPa) = 11.53870 17.09387 14.31629
# Shear Modulus (GPa) = 12.61037 22.45865 17.53451
#
# Velocity S-wave (km/s) = 2.43358 3.24768 2.86964
# Velocity P-wave (km/s) = 3.64903 4.70012 4.20752
#
# Compressibility (1/GPa) = 0.08666486
#
# Stress axis : x y z
#
# Youngs Moduli (GPa) = 23.75206 84.91486 75.83164
#
# Poissons Ratio (x) = -0.33426 -0.38450
# Poissons Ratio (y) = -0.09350 -0.06013
# Poissons Ratio (z) = -0.12043 -0.06733
#
# Static dielectric constant tensor:
#      x y z
#    x 1.780560 0.000000 0.000000 
#    y 0.000000 1.766620 0.000000 
#    z 0.000000 0.000000 1.736590 
# 
# From -- ./inp_files/16619.got.cif
#   From: 2010.05.17/outbox.cif.g08.bks.cpg/sg36_9_cif.got.tgz:16619.got - 2010.06.03 17:41:39.
