data_PCOD9351795
_publ_section_title
;
Structure prediction by ZEFSAII (Michael W. Deem and Ramdas Pophale) SiO2 
 PCOD9351795
Probable space group: C M C 21
;
_chemical_formula_sum "Si O2"
_cell_formula_units_Z 64
_cell_length_a 7.583844
_cell_length_b 18.562255
_cell_length_c 21.055139
_cell_angle_alpha 90.000000
_cell_angle_beta 90.000000
_cell_angle_gamma 90.000000
_cell_volume 2964.000266
_symmetry_space_group_name_H-M "C M C 21"
_symmetry_group_IT_number 36
_symmetry_cell_setting 'orthorhombic'
loop_
_space_group_symop_operation_xyz
x,y,z
-x,-y,1/2+z
x,-y,1/2+z
-x,y,z
1/2+x,1/2+y,z
1/2-x,1/2-y,1/2+z
1/2+x,1/2-y,1/2+z
1/2-x,1/2+y,z
loop_
_atom_site_type_symbol
_atom_site_label
_atom_site_fract_x
_atom_site_fract_y
_atom_site_fract_z
Si Si1 0.213108 0.338326 0.735330
Si Si2 0.709494 0.578740 0.364813
Si Si3 0.791212 0.590095 0.605386
Si Si4 0.712155 0.584103 0.856835
Si Si5 0.788693 0.336118 0.488281
Si Si6 0.216065 0.425051 0.610718
Si Si7 0.787229 0.173339 0.735163
Si Si8 0.794484 0.174436 0.479446
O O1 0.264756 0.378113 0.799860
O O2 0.273279 0.383225 0.674000
O O3 0.276428 0.255801 0.734329
O O4 0.000000 0.336625 0.733002
O O5 0.500000 0.570570 0.376115
O O6 0.781108 0.497693 0.358985
O O7 0.783383 0.624900 0.423639
O O8 0.725204 0.507978 0.609681
O O9 0.758070 0.631919 0.670714
O O10 0.713937 0.633073 0.545952
O O11 0.000000 0.586925 0.594428
O O12 0.500000 0.580883 0.850278
O O13 0.752524 0.624114 0.922363
O O14 0.778460 0.629306 0.796404
O O15 0.723781 0.382297 0.548181
O O16 0.717681 0.254574 0.485858
O O17 0.000000 0.331821 0.496785
O O18 0.000000 0.425769 0.611153
O O19 0.000000 0.176271 0.739021
O O20 0.000000 0.185124 0.462424
#
# Coordination Sequence:
#
# PCOD9351795 Si02
#       8
#     8   8   8   8   8   8   8   8
#     4  10  20  36  58  79 104 142 183 221 262 315
#     4  10  21  36  54  80 113 144 177 221 271 321
#     4  11  22  35  55  81 106 135 176 224 266 313
#     4  10  21  36  54  80 113 144 177 221 271 321
#     4  10  20  36  58  79 104 142 183 221 262 315
#     4   9  19  35  53  77 106 135 174 222 268 313
#     4  10  21  37  56  78 108 145 178 215 270 325
#     4  10  21  37  56  78 108 145 178 215 270 325
#
# _framework density 21.592441000000001
#
# number of rings (size 3 to 8) (size 9 to 14) (size 15 to 20)
#    0.000    2.000    0.000    3.375    0.000    4.500 
#    0.000    1.875    0.000    0.000    0.000    0.000 
#    0.000    0.000    0.000    0.000    0.000    0.000 
#
# Total GULP energy -178906.120800 kJ/mol
# GULP energy per Si atom -5590.816275 kJ/mol
# Density = 2.154330 g / cm^3
# Si number density = 21.592441 Si / 1000 Ang^3
#
#
#
# Elastic Constant Matrix: (Units=GPa)
#
#
# Indices 1 2 3 4 5 6 
#
# 1 42.2217 -5.5315 -26.1281 0.0000 0.0000 0.0000
# 2 -5.5315 236.7310 103.0576 0.0000 0.0000 0.0000
# 3 -26.1281 103.0576 171.4991 0.0000 0.0000 0.0000
# 4 0.0000 0.0000 0.0000 45.0651 0.0000 0.0000
# 5 0.0000 0.0000 0.0000 0.0000 25.8392 0.0000
# 6 0.0000 0.0000 0.0000 0.0000 0.0000 -111.4907
#
#
#
# Elastic Compliance Matrix: (Units=1/GPa)
#
#
# Indices 1 2 3 4 5 6 
#
# 1 0.026561 -0.001545 0.004975 0.000000 0.000000 0.000000
# 2 -0.001545 0.005811 -0.003727 0.000000 0.000000 0.000000
# 3 0.004975 -0.003727 0.008829 0.000000 0.000000 0.000000
# 4 0.000000 0.000000 0.000000 0.022190 0.000000 0.000000
# 5 0.000000 0.000000 0.000000 0.000000 0.038701 0.000000
# 6 0.000000 0.000000 0.000000 0.000000 0.000000 -0.008969
#
#
# Mechanical properties :
#
#
# Convention : Reuss Voigt Hill
#
# Bulk Modulus (GPa) = 24.62713 65.91641 45.27177
# Shear Modulus (GPa) = 46.61940 17.15298 31.88619
#
# Velocity S-wave (km/s) = 4.65161 2.82156 3.84699
# Velocity P-wave (km/s) = 6.34667 6.41941 6.38314
#
# Compressibility (1/GPa) = 0.04060562
#
# Stress axis : x y z
#
# Youngs Moduli (GPa) = 37.64941 172.09710 113.26764
#
# Poissons Ratio (x) = 0.26593 -0.56352
# Poissons Ratio (y) = 0.05818 0.42217
# Poissons Ratio (z) = -0.18731 0.64144
#
# Static dielectric constant tensor:
#      x y z
#    x 1.810800 0.000000 0.000000 
#    y 0.000000 1.767430 0.000000 
#    z 0.000000 0.000000 1.713910 
# 
# From -- ./inp_files/15690.got.cif
#   From: 2010.05.17/outbox.cif.g08.bks.cpg/sg36_8_cif.got.tgz:15690.got - 2010.06.03 17:41:39.
