data_PCOD9351157
_publ_section_title
;
Structure prediction by ZEFSAII (Michael W. Deem and Ramdas Pophale) SiO2 
 PCOD9351157
Probable space group: C M C 21
;
_chemical_formula_sum "Si O2"
_cell_formula_units_Z 64
_cell_length_a 7.804754
_cell_length_b 30.129739
_cell_length_c 12.429484
_cell_angle_alpha 90.000000
_cell_angle_beta 90.000000
_cell_angle_gamma 90.000000
_cell_volume 2922.857808
_symmetry_space_group_name_H-M "C M C 21"
_symmetry_group_IT_number 36
_symmetry_cell_setting 'orthorhombic'
loop_
_space_group_symop_operation_xyz
x,y,z
-x,-y,1/2+z
x,-y,1/2+z
-x,y,z
1/2+x,1/2+y,z
1/2-x,1/2-y,1/2+z
1/2+x,1/2-y,1/2+z
1/2-x,1/2+y,z
loop_
_atom_site_type_symbol
_atom_site_label
_atom_site_fract_x
_atom_site_fract_y
_atom_site_fract_z
Si Si1 0.303423 0.428865 0.939550
Si Si2 0.199013 0.838448 0.071336
Si Si3 0.201550 0.680213 0.931626
Si Si4 0.210959 0.776613 0.885533
Si Si5 0.693385 0.073136 0.207032
Si Si6 0.706198 0.022833 0.654238
Si Si7 0.199045 0.608435 0.777710
Si Si8 0.197557 0.828168 0.673131
O O1 0.500000 0.438062 0.909474
O O2 0.189770 0.432483 0.835184
O O3 0.296623 0.379423 0.987699
O O4 0.245563 0.460267 0.035407
O O5 0.290043 0.856803 0.177760
O O6 0.000000 0.830274 0.100391
O O7 0.266912 0.797909 0.999693
O O8 0.268971 0.725772 0.880495
O O9 0.275228 0.635219 0.878766
O O10 0.000000 0.679275 0.905606
O O11 0.218328 0.683118 0.059586
O O12 0.267374 0.804450 0.780873
O O13 0.000000 0.778563 0.888093
O O14 0.500000 0.078338 0.163418
O O15 0.789504 0.118824 0.185842
O O16 0.771991 0.027014 0.166904
O O17 0.500000 0.020625 0.668697
O O18 0.773690 0.061599 0.734759
O O19 0.000000 0.598650 0.800767
O O20 0.000000 0.814843 0.664766
#
# Coordination Sequence:
#
# PCOD9351157 Si02
#       8
#     8   8   8   8   8   8   8   8
#     4  10  19  34  56  83 114 149 191 243 298 349
#     4   9  17  33  56  79 108 146 186 236 289 338
#     4  10  22  39  59  85 120 160 195 234 296 361
#     4   9  19  37  58  81 115 153 187 236 293 347
#     4  11  22  37  59  84 116 158 201 246 297 354
#     4   9  20  37  56  82 114 153 200 246 293 348
#     4   9  19  36  57  82 114 149 192 241 288 345
#     4  11  23  41  61  86 121 154 196 248 300 352
#
# _framework density 21.896379
#
# number of rings (size 3 to 8) (size 9 to 14) (size 15 to 20)
#    0.000    2.250    1.250    1.125    1.750    3.000 
#    0.000    3.750    0.000    0.000    0.000    0.000 
#    0.000    0.000    0.000    0.000    0.000    0.000 
#
# Total GULP energy -178550.907361 kJ/mol
# GULP energy per Si atom -5579.715855 kJ/mol
# Density = 2.184654 g / cm^3
# Si number density = 21.896379 Si / 1000 Ang^3
#
#
#
# Elastic Constant Matrix: (Units=GPa)
#
#
# Indices 1 2 3 4 5 6 
#
# 1 27.6209 0.7937 -10.1649 0.0000 0.0000 0.0000
# 2 0.7937 104.0700 25.2152 0.0000 0.0000 0.0000
# 3 -10.1649 25.2152 44.9376 0.0000 0.0000 0.0000
# 4 0.0000 0.0000 0.0000 15.0677 0.0000 0.0000
# 5 0.0000 0.0000 0.0000 0.0000 21.6559 0.0000
# 6 0.0000 0.0000 0.0000 0.0000 0.0000 5.3590
#
#
#
# Elastic Compliance Matrix: (Units=1/GPa)
#
#
# Indices 1 2 3 4 5 6 
#
# 1 0.040238 -0.002907 0.010733 0.000000 0.000000 0.000000
# 2 -0.002907 0.011331 -0.007016 0.000000 0.000000 0.000000
# 3 0.010733 -0.007016 0.028618 0.000000 0.000000 0.000000
# 4 0.000000 0.000000 0.000000 0.066367 0.000000 0.000000
# 5 0.000000 0.000000 0.000000 0.000000 0.046177 0.000000
# 6 0.000000 0.000000 0.000000 0.000000 0.000000 0.186602
#
#
# Mechanical properties :
#
#
# Convention : Reuss Voigt Hill
#
# Bulk Modulus (GPa) = 12.22389 23.14627 17.68508
# Shear Modulus (GPa) = 12.34627 19.13550 15.74089
#
# Velocity S-wave (km/s) = 2.37713 2.95941 2.68410
# Velocity P-wave (km/s) = 3.62340 4.71924 4.20715
#
# Compressibility (1/GPa) = 0.08180699
#
# Stress axis : x y z
#
# Youngs Moduli (GPa) = 24.85208 88.25409 34.94361
#
# Poissons Ratio (x) = 0.25660 -0.37506
# Poissons Ratio (y) = 0.07226 0.24515
# Poissons Ratio (z) = -0.26675 0.61916
#
# Static dielectric constant tensor:
#      x y z
#    x 1.825750 0.000000 0.000000 
#    y 0.000000 1.837810 0.000000 
#    z 0.000000 0.000000 1.778510 
# 
# From -- ./inp_files/7092.got.cif
#   From: 2010.05.17/outbox.cif.g08.bks.cpg/sg36_4_cif.got.tgz:7092.got - 2010.06.03 17:41:39.
