data_PCOD9351301
_publ_section_title
;
Structure prediction by ZEFSAII (Michael W. Deem and Ramdas Pophale) SiO2 
 PCOD9351301
Probable space group: C M C 21
;
_chemical_formula_sum "Si O2"
_cell_formula_units_Z 64
_cell_length_a 8.436355
_cell_length_b 15.132262
_cell_length_c 23.489643
_cell_angle_alpha 90.000000
_cell_angle_beta 90.000000
_cell_angle_gamma 90.000000
_cell_volume 2998.714467
_symmetry_space_group_name_H-M "C M C 21"
_symmetry_group_IT_number 36
_symmetry_cell_setting 'orthorhombic'
loop_
_space_group_symop_operation_xyz
x,y,z
-x,-y,1/2+z
x,-y,1/2+z
-x,y,z
1/2+x,1/2+y,z
1/2-x,1/2-y,1/2+z
1/2+x,1/2-y,1/2+z
1/2-x,1/2+y,z
loop_
_atom_site_type_symbol
_atom_site_label
_atom_site_fract_x
_atom_site_fract_y
_atom_site_fract_z
Si Si1 0.687840 0.691344 0.031510
Si Si2 0.191260 0.571110 0.702325
Si Si3 0.311590 0.342046 0.962788
Si Si4 0.810915 0.998367 0.821206
Si Si5 0.815418 0.696965 0.342092
Si Si6 0.814175 0.600075 0.142296
Si Si7 0.808149 0.042954 0.944783
Si Si8 0.813638 0.236390 0.225599
O O1 0.500000 0.701731 0.024322
O O2 0.723103 0.650583 0.092806
O O3 0.765468 0.785208 0.017483
O O4 0.751313 0.619475 0.985853
O O5 0.265772 0.542834 0.762310
O O6 0.240632 0.499923 0.654985
O O7 0.229334 0.673466 0.692960
O O8 0.000000 0.564744 0.707507
O O9 0.500000 0.344109 0.955721
O O10 0.239663 0.293956 0.907102
O O11 0.255210 0.444100 0.962849
O O12 0.720082 0.905917 0.828165
O O13 0.000000 0.980008 0.822473
O O14 0.771346 0.054005 0.877977
O O15 0.722872 0.747823 0.292425
O O16 0.000000 0.718155 0.337595
O O17 0.784386 0.655663 0.199788
O O18 0.000000 0.599130 0.128622
O O19 0.000000 0.043723 0.949570
O O20 0.000000 0.218191 0.218407
#
# Coordination Sequence:
#
# PCOD9351301 Si02
#       8
#     8   8   8   8   8   8   8   8
#     4  11  23  41  64  90 120 161 206 253 302 367
#     4  10  23  40  60  89 124 158 202 256 310 365
#     4  10  21  40  62  90 123 161 203 253 306 367
#     4  10  19  35  61  90 124 163 202 249 306 367
#     4  11  21  36  59  90 128 166 202 252 309 368
#     4  11  24  44  63  86 122 164 205 255 306 365
#     4   8  19  38  59  87 122 158 198 245 300 362
#     4  11  23  40  62  92 123 161 206 257 311 369
#
# _framework density 21.342476999999999
#
# number of rings (size 3 to 8) (size 9 to 14) (size 15 to 20)
#    0.000    1.750    1.250    3.750    1.750    2.500 
#    0.000    9.375    0.000    0.000    0.000    0.000 
#    0.000    0.000    0.000    0.000    0.000    0.000 
#
# Total GULP energy -178829.480386 kJ/mol
# GULP energy per Si atom -5588.421262 kJ/mol
# Density = 2.129390 g / cm^3
# Si number density = 21.342477 Si / 1000 Ang^3
#
#
#
# Elastic Constant Matrix: (Units=GPa)
#
#
# Indices 1 2 3 4 5 6 
#
# 1 29.6244 3.2745 -8.2370 0.0000 0.0000 0.0000
# 2 3.2745 46.4804 -10.6331 0.0000 0.0000 0.0000
# 3 -8.2370 -10.6331 33.3407 0.0000 0.0000 0.0000
# 4 0.0000 0.0000 0.0000 28.3008 0.0000 0.0000
# 5 0.0000 0.0000 0.0000 0.0000 30.2923 0.0000
# 6 0.0000 0.0000 0.0000 0.0000 0.0000 20.0113
#
#
#
# Elastic Compliance Matrix: (Units=1/GPa)
#
#
# Indices 1 2 3 4 5 6 
#
# 1 0.036259 -0.000545 0.008784 0.000000 0.000000 0.000000
# 2 -0.000545 0.023216 0.007269 0.000000 0.000000 0.000000
# 3 0.008784 0.007269 0.034482 0.000000 0.000000 0.000000
# 4 0.000000 0.000000 0.000000 0.035335 0.000000 0.000000
# 5 0.000000 0.000000 0.000000 0.000000 0.033012 0.000000
# 6 0.000000 0.000000 0.000000 0.000000 0.000000 0.049972
#
#
# Mechanical properties :
#
#
# Convention : Reuss Voigt Hill
#
# Bulk Modulus (GPa) = 8.00166 8.69490 8.34828
# Shear Modulus (GPa) = 22.43008 24.05695 23.24352
#
# Velocity S-wave (km/s) = 3.24537 3.36100 3.30369
# Velocity P-wave (km/s) = 4.21907 4.37546 4.29797
#
# Compressibility (1/GPa) = 0.12497403
#
# Stress axis : x y z
#
# Youngs Moduli (GPa) = 27.57965 43.07404 29.00066
#
# Poissons Ratio (x) = 0.02347 -0.25475
# Poissons Ratio (y) = 0.01503 -0.21082
# Poissons Ratio (z) = -0.24226 -0.31313
#
# Static dielectric constant tensor:
#      x y z
#    x 1.724890 0.000000 0.000000 
#    y 0.000000 1.802520 0.000000 
#    z 0.000000 0.000000 1.772950 
# 
# From -- ./inp_files/16624.got.cif
#   From: 2010.05.17/outbox.cif.g08.bks.cpg/sg36_9_cif.got.tgz:16624.got - 2010.06.03 17:41:39.
