data_PCOD9351600
_publ_section_title
;
Structure prediction by ZEFSAII (Michael W. Deem and Ramdas Pophale) SiO2 
 PCOD9351600
Probable space group: C M C 21
;
_chemical_formula_sum "Si O2"
_cell_formula_units_Z 64
_cell_length_a 25.700274
_cell_length_b 14.521981
_cell_length_c 8.685820
_cell_angle_alpha 90.000000
_cell_angle_beta 90.000000
_cell_angle_gamma 90.000000
_cell_volume 3241.712105
_symmetry_space_group_name_H-M "C M C 21"
_symmetry_group_IT_number 36
_symmetry_cell_setting 'orthorhombic'
loop_
_space_group_symop_operation_xyz
x,y,z
-x,-y,1/2+z
x,-y,1/2+z
-x,y,z
1/2+x,1/2+y,z
1/2-x,1/2-y,1/2+z
1/2+x,1/2-y,1/2+z
1/2-x,1/2+y,z
loop_
_atom_site_type_symbol
_atom_site_label
_atom_site_fract_x
_atom_site_fract_y
_atom_site_fract_z
Si Si1 0.796319 0.126806 0.515000
Si Si2 0.725638 0.445594 0.322265
Si Si3 0.941185 0.656398 0.000837
Si Si4 0.941610 0.557018 0.554997
Si Si5 0.158672 0.540102 0.775095
Si Si6 0.116577 0.340654 0.819702
Si Si7 0.301525 0.267345 0.508629
Si Si8 0.860367 0.734847 0.832141
O O1 0.809932 0.086917 0.681836
O O2 0.746612 0.196138 0.519556
O O3 0.842094 0.187975 0.447342
O O4 0.785725 0.042070 0.401257
O O5 0.780889 0.457566 0.231659
O O6 0.720959 0.365562 0.452211
O O7 0.940106 0.544996 0.977649
O O8 0.905465 0.674159 0.150198
O O9 0.000000 0.680093 0.038296
O O10 0.921385 0.715651 0.855388
O O11 0.889339 0.558942 0.659086
O O12 0.932084 0.637056 0.431352
O O13 0.000000 0.563895 0.625243
O O14 0.147768 0.437758 0.830699
O O15 0.158323 0.631414 0.880889
O O16 0.156566 0.266230 0.882560
O O17 0.333198 0.259694 0.670082
#
# Coordination Sequence:
#
# PCOD9351600 Si02
#       8
#     8   8   8   8   8   8   8   8
#     4  12  24  41  61  89 122 168 206 264 319 378
#     4  12  25  41  62  89 124 162 217 264 323 378
#     4  10  23  38  58  88 127 168 207 257 313 375
#     4  10  20  34  56  90 130 171 214 255 306 373
#     4  11  21  35  58  83 126 168 209 257 309 373
#     4  11  20  37  60  90 123 172 210 254 309 372
#     4  12  23  40  61  91 121 165 212 259 313 380
#     4  12  23  40  59  88 124 166 212 252 318 377
#
# _framework density 19.742654999999999
#
# number of rings (size 3 to 8) (size 9 to 14) (size 15 to 20)
#    0.000    0.750    6.250    1.875    0.000    1.000 
#    0.000    0.000    0.000    0.000    0.000    8.750 
#    0.000    0.000    0.000    0.000    0.000    0.000 
#
# Total GULP energy -178380.512665 kJ/mol
# GULP energy per Si atom -5574.391021 kJ/mol
# Density = 1.969772 g / cm^3
# Si number density = 19.742655 Si / 1000 Ang^3
#
#
#
# Elastic Constant Matrix: (Units=GPa)
#
#
# Indices 1 2 3 4 5 6 
#
# 1 77.9182 36.9896 25.9827 0.0000 0.0000 0.0000
# 2 36.9896 93.0411 28.3767 0.0000 0.0000 0.0000
# 3 25.9827 28.3767 70.1754 0.0000 0.0000 0.0000
# 4 0.0000 0.0000 0.0000 29.1314 0.0000 0.0000
# 5 0.0000 0.0000 0.0000 0.0000 29.3000 0.0000
# 6 0.0000 0.0000 0.0000 0.0000 0.0000 22.0316
#
#
#
# Elastic Compliance Matrix: (Units=1/GPa)
#
#
# Indices 1 2 3 4 5 6 
#
# 1 0.016751 -0.005439 -0.004003 0.000000 0.000000 0.000000
# 2 -0.005439 0.014026 -0.003658 0.000000 0.000000 0.000000
# 3 -0.004003 -0.003658 0.017211 0.000000 0.000000 0.000000
# 4 0.000000 0.000000 0.000000 0.034327 0.000000 0.000000
# 5 0.000000 0.000000 0.000000 0.000000 0.034130 0.000000
# 6 0.000000 0.000000 0.000000 0.000000 0.000000 0.045389
#
#
# Mechanical properties :
#
#
# Convention : Reuss Voigt Hill
#
# Bulk Modulus (GPa) = 45.89477 47.09252 46.49364
# Shear Modulus (GPa) = 25.60226 26.07831 25.84029
#
# Velocity S-wave (km/s) = 3.60502 3.63838 3.62174
# Velocity P-wave (km/s) = 6.37379 6.44635 6.41017
#
# Compressibility (1/GPa) = 0.02178898
#
# Stress axis : x y z
#
# Youngs Moduli (GPa) = 59.69952 71.29748 58.10172
#
# Poissons Ratio (x) = 0.38776 0.23257
# Poissons Ratio (y) = 0.32468 0.21253
# Poissons Ratio (z) = 0.23896 0.26080
#
# Static dielectric constant tensor:
#      x y z
#    x 1.774970 0.000000 0.000000 
#    y 0.000000 1.685370 0.000000 
#    z 0.000000 0.000000 1.821650 
# 
# From -- ./inp_files/5680.got.cif
#   From: 2010.05.17/outbox.cif.g08.bks.cpg/sg36_3_cif.got.tgz:5680.got - 2010.06.03 17:41:39.
