data_PCOD9351425
_publ_section_title
;
Structure prediction by ZEFSAII (Michael W. Deem and Ramdas Pophale) SiO2 
 PCOD9351425
Probable space group: C M C 21
;
_chemical_formula_sum "Si O2"
_cell_formula_units_Z 24
_cell_length_a 5.605171
_cell_length_b 13.342503
_cell_length_c 12.009406
_cell_angle_alpha 90.000000
_cell_angle_beta 90.000000
_cell_angle_gamma 90.000000
_cell_volume 898.147577
_symmetry_space_group_name_H-M "C M C 21"
_symmetry_group_IT_number 36
_symmetry_cell_setting 'orthorhombic'
loop_
_space_group_symop_operation_xyz
x,y,z
-x,-y,1/2+z
x,-y,1/2+z
-x,y,z
1/2+x,1/2+y,z
1/2-x,1/2-y,1/2+z
1/2+x,1/2-y,1/2+z
1/2-x,1/2+y,z
loop_
_atom_site_type_symbol
_atom_site_label
_atom_site_fract_x
_atom_site_fract_y
_atom_site_fract_z
Si Si1 0.000000 0.693818 0.364250
Si Si2 0.500000 0.383676 0.901454
Si Si3 0.000000 0.924856 0.291119
Si Si4 0.500000 0.290245 0.599933
Si Si5 0.000000 0.677797 0.020832
Si Si6 0.000000 0.388993 0.262211
O O1 0.752508 0.639132 0.341495
O O2 0.000000 0.806268 0.317007
O O3 0.000000 0.712355 0.496481
O O4 0.500000 0.504523 0.900986
O O5 0.500000 0.299866 0.999265
O O6 0.748598 0.940445 0.230551
O O7 0.246618 0.345342 0.583221
O O8 0.500000 0.219429 0.706160
O O9 0.000000 0.628581 0.897120
#
# Coordination Sequence:
#
# PCOD9351425 Si02
#       6
#     4   4   4   4   4   4
#     4  10  19  40  59  86 121 157 202 246 307 360
#     4  10  20  35  64  85 118 163 196 248 308 358
#     4  12  21  37  65  92 117 164 207 250 312 365
#     4  10  20  35  64  87 120 169 203 248 313 368
#     4  10  19  40  59  85 127 162 200 256 311 355
#     4  12  21  37  65  91 123 167 206 254 315 360
#
# _framework density 26.721668000000001
#
# number of rings (size 3 to 8) (size 9 to 14) (size 15 to 20)
#    0.000    1.333    6.667    2.000    0.000    0.000 
#    0.000    0.000   14.667    0.000    0.000    0.000 
#    0.000    0.000    0.000    0.000    0.000    0.000 
#
# Total GULP energy -66967.328545 kJ/mol
# GULP energy per Si atom -5580.610712 kJ/mol
# Density = 2.666085 g / cm^3
# Si number density = 26.721668 Si / 1000 Ang^3
#
#
#
# Elastic Constant Matrix: (Units=GPa)
#
#
# Indices 1 2 3 4 5 6 
#
# 1 340.2821 45.0169 27.3083 0.0000 0.0000 0.0000
# 2 45.0169 84.9223 -3.8130 0.0000 0.0000 0.0000
# 3 27.3083 -3.8130 73.0441 0.0000 0.0000 0.0000
# 4 0.0000 0.0000 0.0000 28.5389 0.0000 0.0000
# 5 0.0000 0.0000 0.0000 0.0000 7.4829 0.0000
# 6 0.0000 0.0000 0.0000 0.0000 0.0000 -11.5714
#
#
#
# Elastic Compliance Matrix: (Units=1/GPa)
#
#
# Indices 1 2 3 4 5 6 
#
# 1 0.003283 -0.001800 -0.001321 0.000000 0.000000 0.000000
# 2 -0.001800 0.012790 0.001340 0.000000 0.000000 0.000000
# 3 -0.001321 0.001340 0.014254 0.000000 0.000000 0.000000
# 4 0.000000 0.000000 0.000000 0.035040 0.000000 0.000000
# 5 0.000000 0.000000 0.000000 0.000000 0.133638 0.000000
# 6 0.000000 0.000000 0.000000 0.000000 0.000000 -0.086420
#
#
# Mechanical properties :
#
#
# Convention : Reuss Voigt Hill
#
# Bulk Modulus (GPa) = 37.36093 70.58590 53.97341
# Shear Modulus (GPa) = 39.97857 33.53917 36.75887
#
# Velocity S-wave (km/s) = 3.87215 3.54663 3.71296
# Velocity P-wave (km/s) = 5.83124 6.57602 6.21479
#
# Compressibility (1/GPa) = 0.02676593
#
# Stress axis : x y z
#
# Youngs Moduli (GPa) = 304.61437 78.18866 70.15425
#
# Poissons Ratio (x) = 0.14070 0.09269
# Poissons Ratio (y) = 0.54817 -0.09404
# Poissons Ratio (z) = 0.40248 -0.10481
#
# Static dielectric constant tensor:
#      x y z
#    x 2.203810 0.000000 0.000000 
#    y 0.000000 2.032420 0.000000 
#    z 0.000000 0.000000 2.082580 
# 
# From -- ./inp_files/9813.got.cif
#   From: 2010.05.17/outbox.cif.g08.bks.cpg/sg36_5_cif.got.tgz:9813.got - 2010.06.03 17:41:39.
