data_PCOD9351898
_publ_section_title
;
Structure prediction by ZEFSAII (Michael W. Deem and Ramdas Pophale) SiO2 
 PCOD9351898
Probable space group: C M C 21
;
_chemical_formula_sum "Si O2"
_cell_formula_units_Z 64
_cell_length_a 8.139255
_cell_length_b 21.026793
_cell_length_c 19.988114
_cell_angle_alpha 90.000000
_cell_angle_beta 90.000000
_cell_angle_gamma 90.000000
_cell_volume 3420.814402
_symmetry_space_group_name_H-M "C M C 21"
_symmetry_group_IT_number 36
_symmetry_cell_setting 'orthorhombic'
loop_
_space_group_symop_operation_xyz
x,y,z
-x,-y,1/2+z
x,-y,1/2+z
-x,y,z
1/2+x,1/2+y,z
1/2-x,1/2-y,1/2+z
1/2+x,1/2-y,1/2+z
1/2-x,1/2+y,z
loop_
_atom_site_type_symbol
_atom_site_label
_atom_site_fract_x
_atom_site_fract_y
_atom_site_fract_z
Si Si1 0.193717 0.737829 0.146420
Si Si2 0.192028 0.806311 0.784541
Si Si3 0.801297 0.236644 0.998328
Si Si4 0.302274 0.934844 0.855148
Si Si5 0.695300 0.058707 0.779630
Si Si6 0.300731 0.115174 0.643033
Si Si7 0.805679 0.819426 0.360042
Si Si8 0.299760 0.115511 0.494404
O O1 0.280499 0.699032 0.205153
O O2 0.237993 0.717232 0.071148
O O3 0.247871 0.811615 0.152423
O O4 0.000000 0.733575 0.156664
O O5 0.263213 0.870912 0.814669
O O6 0.276272 0.745034 0.818295
O O7 0.000000 0.802846 0.799857
O O8 0.751311 0.310323 0.986172
O O9 0.000000 0.236115 0.000009
O O10 0.746825 0.194527 0.935594
O O11 0.500000 0.940864 0.859327
O O12 0.236430 0.996789 0.817007
O O13 0.240940 0.924681 0.931105
O O14 0.500000 0.048823 0.772000
O O15 0.761035 0.073855 0.705318
O O16 0.721814 0.121439 0.824008
O O17 0.500000 0.114793 0.643830
O O18 0.246826 0.094779 0.568646
O O19 0.000000 0.831899 0.361869
O O20 0.500000 0.114538 0.493794
#
# Coordination Sequence:
#
# PCOD9351898 Si02
#       8
#     8   8   8   8   8   8   8   8
#     4  11  21  33  54  84 112 143 185 236 283 336
#     4  12  23  36  56  82 113 147 187 235 285 333
#     4   9  18  34  55  80 110 146 183 229 286 339
#     4  10  20  37  56  80 112 152 195 234 281 339
#     4  10  21  35  55  82 116 151 191 236 280 337
#     4   9  17  32  52  78 108 146 186 229 282 334
#     4  11  21  36  59  83 112 148 188 230 281 337
#     4   8  14  29  53  75 103 141 185 227 276 331
#
# _framework density 18.708995999999999
#
# number of rings (size 3 to 8) (size 9 to 14) (size 15 to 20)
#    0.000    2.000    2.500    3.375    0.000    1.500 
#    0.000    1.250    0.000    3.000    0.000    0.000 
#    0.000    0.000    0.000    0.000    0.000    0.000 
#
# Total GULP energy -178580.189256 kJ/mol
# GULP energy per Si atom -5580.630914 kJ/mol
# Density = 1.866641 g / cm^3
# Si number density = 18.708996 Si / 1000 Ang^3
#
#
#
# Elastic Constant Matrix: (Units=GPa)
#
#
# Indices 1 2 3 4 5 6 
#
# 1 9.6753 -12.3117 -8.2657 0.0000 0.0000 0.0000
# 2 -12.3117 86.2829 59.7460 0.0000 0.0000 0.0000
# 3 -8.2657 59.7460 158.1540 0.0000 0.0000 0.0000
# 4 0.0000 0.0000 0.0000 24.3843 0.0000 0.0000
# 5 0.0000 0.0000 0.0000 0.0000 21.1160 0.0000
# 6 0.0000 0.0000 0.0000 0.0000 0.0000 17.1118
#
#
#
# Elastic Compliance Matrix: (Units=1/GPa)
#
#
# Indices 1 2 3 4 5 6 
#
# 1 0.126295 0.018215 -0.000281 0.000000 0.000000 0.000000
# 2 0.018215 0.018323 -0.005970 0.000000 0.000000 0.000000
# 3 -0.000281 -0.005970 0.008563 0.000000 0.000000 0.000000
# 4 0.000000 0.000000 0.000000 0.041010 0.000000 0.000000
# 5 0.000000 0.000000 0.000000 0.000000 0.047358 0.000000
# 6 0.000000 0.000000 0.000000 0.000000 0.000000 0.058439
#
#
# Mechanical properties :
#
#
# Convention : Reuss Voigt Hill
#
# Bulk Modulus (GPa) = 5.64619 36.93882 21.29250
# Shear Modulus (GPa) = 14.92116 26.85199 20.88657
#
# Velocity S-wave (km/s) = 2.82714 3.79257 3.34487
# Velocity P-wave (km/s) = 3.69884 6.24219 5.13061
#
# Compressibility (1/GPa) = 0.17711070
#
# Stress axis : x y z
#
# Youngs Moduli (GPa) = 7.91799 54.57729 116.77484
#
# Poissons Ratio (x) = -0.99414 0.03276
# Poissons Ratio (y) = -0.14423 0.69712
# Poissons Ratio (z) = 0.00222 0.32581
#
# Static dielectric constant tensor:
#      x y z
#    x 1.653840 0.000000 0.000000 
#    y 0.000000 1.614260 0.000000 
#    z 0.000000 0.000000 1.682240 
# 
# From -- ./inp_files/15829.got.cif
#   From: 2010.05.17/outbox.cif.g08.bks.cpg/sg36_8_cif.got.tgz:15829.got - 2010.06.03 17:41:39.
