data_PCOD9351239
_publ_section_title
;
Structure prediction by ZEFSAII (Michael W. Deem and Ramdas Pophale) SiO2 
 PCOD9351239
Probable space group: C M C 21
;
_chemical_formula_sum "Si O2"
_cell_formula_units_Z 48
_cell_length_a 16.428349
_cell_length_b 9.729397
_cell_length_c 15.749261
_cell_angle_alpha 90.000000
_cell_angle_beta 90.000000
_cell_angle_gamma 90.000000
_cell_volume 2517.329269
_symmetry_space_group_name_H-M "C M C 21"
_symmetry_group_IT_number 36
_symmetry_cell_setting 'orthorhombic'
loop_
_space_group_symop_operation_xyz
x,y,z
-x,-y,1/2+z
x,-y,1/2+z
-x,y,z
1/2+x,1/2+y,z
1/2-x,1/2-y,1/2+z
1/2+x,1/2-y,1/2+z
1/2-x,1/2+y,z
loop_
_atom_site_type_symbol
_atom_site_label
_atom_site_fract_x
_atom_site_fract_y
_atom_site_fract_z
Si Si1 0.174421 0.209490 0.702880
Si Si2 0.674132 0.977651 0.263794
Si Si3 0.091443 0.746545 0.670971
Si Si4 0.092174 0.991772 0.805703
Si Si5 0.759152 0.224609 0.042332
Si Si6 0.253257 0.526154 0.429247
O O1 0.181516 0.364249 0.736978
O O2 0.184527 0.226341 0.601899
O O3 0.249891 0.113183 0.730845
O O4 0.101515 0.128147 0.747371
O O5 0.682799 0.977391 0.365003
O O6 0.600404 0.898710 0.219701
O O7 0.106677 0.863999 0.741789
O O8 0.159112 0.758571 0.597954
O O9 0.000000 0.764127 0.637997
O O10 0.161495 0.988701 0.878211
O O11 0.000000 0.982430 0.839043
O O12 0.760995 0.319006 0.959196
O O13 0.751865 0.068770 0.012099
#
# Coordination Sequence:
#
# PCOD9351239 Si02
#       6
#     8   8   8   8   8   8
#     4  10  19  35  56  79 107 144 188 222 261 325
#     4  10  19  35  56  78 106 144 188 223 261 325
#     4  10  21  38  56  75 106 148 187 223 271 330
#     4  10  21  38  58  80 110 149 189 225 268 328
#     4  11  20  33  55  81 109 138 176 229 280 325
#     4  11  20  33  55  83 110 137 178 230 279 323
#
# _framework density 19.067829
#
# number of rings (size 3 to 8) (size 9 to 14) (size 15 to 20)
#    0.000    1.667    0.000   10.000    0.000    1.333 
#    0.000    1.667    0.000    4.000    0.000    0.000 
#    0.000    0.000    0.000    0.000    0.000    0.000 
#
# Total GULP energy -133833.678645 kJ/mol
# GULP energy per Si atom -5576.403277 kJ/mol
# Density = 1.902443 g / cm^3
# Si number density = 19.067829 Si / 1000 Ang^3
#
#
#
# Elastic Constant Matrix: (Units=GPa)
#
#
# Indices 1 2 3 4 5 6 
#
# 1 29.7067 -3.9076 -0.5285 0.0000 0.0000 0.0000
# 2 -3.9076 111.8076 -0.9868 0.0000 0.0000 0.0000
# 3 -0.5285 -0.9868 52.4527 0.0000 0.0000 0.0000
# 4 0.0000 0.0000 0.0000 44.3436 0.0000 0.0000
# 5 0.0000 0.0000 0.0000 0.0000 22.7776 0.0000
# 6 0.0000 0.0000 0.0000 0.0000 0.0000 5.0528
#
#
#
# Elastic Compliance Matrix: (Units=1/GPa)
#
#
# Indices 1 2 3 4 5 6 
#
# 1 0.033825 0.001185 0.000363 0.000000 0.000000 0.000000
# 2 0.001185 0.008987 0.000181 0.000000 0.000000 0.000000
# 3 0.000363 0.000181 0.019072 0.000000 0.000000 0.000000
# 4 0.000000 0.000000 0.000000 0.022551 0.000000 0.000000
# 5 0.000000 0.000000 0.000000 0.000000 0.043903 0.000000
# 6 0.000000 0.000000 0.000000 0.000000 0.000000 0.197909
#
#
# Mechanical properties :
#
#
# Convention : Reuss Voigt Hill
#
# Bulk Modulus (GPa) = 15.30396 20.34681 17.82538
# Shear Modulus (GPa) = 14.51090 27.72746 21.11918
#
# Velocity S-wave (km/s) = 2.76164 3.81747 3.33165
# Velocity P-wave (km/s) = 4.26760 5.48859 4.91615
#
# Compressibility (1/GPa) = 0.06534257
#
# Stress axis : x y z
#
# Youngs Moduli (GPa) = 29.56410 111.27232 52.43331
#
# Poissons Ratio (x) = -0.13190 -0.01904
# Poissons Ratio (y) = -0.03504 -0.00949
# Poissons Ratio (z) = -0.01073 -0.02014
#
# Static dielectric constant tensor:
#      x y z
#    x 1.680550 0.000000 0.000000 
#    y 0.000000 1.668330 0.000000 
#    z 0.000000 0.000000 1.681880 
# 
# From -- ./inp_files/12485.got.cif
#   From: 2010.05.17/outbox.cif.g08.bks.cpg/sg36_7_cif.got.tgz:12485.got - 2010.06.03 17:41:39.
