data_PCOD9351404
_publ_section_title
;
Structure prediction by ZEFSAII (Michael W. Deem and Ramdas Pophale) SiO2 
 PCOD9351404
Probable space group: C M C 21
;
_chemical_formula_sum "Si O2"
_cell_formula_units_Z 48
_cell_length_a 22.499282
_cell_length_b 8.453430
_cell_length_c 13.228428
_cell_angle_alpha 90.000000
_cell_angle_beta 90.000000
_cell_angle_gamma 90.000000
_cell_volume 2515.995487
_symmetry_space_group_name_H-M "C M C 21"
_symmetry_group_IT_number 36
_symmetry_cell_setting 'orthorhombic'
loop_
_space_group_symop_operation_xyz
x,y,z
-x,-y,1/2+z
x,-y,1/2+z
-x,y,z
1/2+x,1/2+y,z
1/2-x,1/2-y,1/2+z
1/2+x,1/2-y,1/2+z
1/2-x,1/2+y,z
loop_
_atom_site_type_symbol
_atom_site_label
_atom_site_fract_x
_atom_site_fract_y
_atom_site_fract_z
Si Si1 0.652279 0.944963 0.266240
Si Si2 0.829516 0.710122 0.136414
Si Si3 0.931908 0.317077 0.889997
Si Si4 0.431567 0.028506 0.609734
Si Si5 0.281179 0.711412 0.417247
Si Si6 0.329590 0.376860 0.343415
O O1 0.685067 0.836039 0.344777
O O2 0.606774 0.064053 0.321664
O O3 0.607935 0.864338 0.185741
O O4 0.695311 0.054422 0.196537
O O5 0.894887 0.638037 0.108024
O O6 0.829316 0.844540 0.222623
O O7 0.796826 0.756588 0.034103
O O8 0.712022 0.757204 0.895691
O O9 0.896261 0.153425 0.881793
O O10 0.000000 0.304211 0.857224
O O11 0.930653 0.390540 0.001189
O O12 0.500000 0.009067 0.640705
O O13 0.197118 0.040668 0.381229
#
# Coordination Sequence:
#
# PCOD9351404 Si02
#       6
#     8   8   8   8   8   8
#     4   9  18  36  63  91 119 159 208 256 308 377
#     4   9  22  40  61  92 124 162 211 264 312 379
#     4  10  19  38  62  91 122 163 209 257 312 376
#     4   9  18  34  67  93 122 164 211 257 309 380
#     4  12  24  43  61  94 130 168 215 258 324 377
#     4  11  26  39  64  89 130 172 210 264 317 377
#
# _framework density 19.077935
#
# number of rings (size 3 to 8) (size 9 to 14) (size 15 to 20)
#    1.000    1.000    1.667    2.500    0.000    5.333 
#    0.000    2.500    0.000    2.000    0.000    0.000 
#    0.000    0.000    0.000    0.000    0.000    0.000 
#
# Total GULP energy -133617.771212 kJ/mol
# GULP energy per Si atom -5567.407134 kJ/mol
# Density = 1.903451 g / cm^3
# Si number density = 19.077935 Si / 1000 Ang^3
#
#
#
# Elastic Constant Matrix: (Units=GPa)
#
#
# Indices 1 2 3 4 5 6 
#
# 1 105.6151 27.1827 42.8633 0.0000 0.0000 0.0000
# 2 27.1827 79.7355 34.9379 0.0000 0.0000 0.0000
# 3 42.8633 34.9379 141.3212 0.0000 0.0000 0.0000
# 4 0.0000 0.0000 0.0000 24.0674 0.0000 0.0000
# 5 0.0000 0.0000 0.0000 0.0000 23.1040 0.0000
# 6 0.0000 0.0000 0.0000 0.0000 0.0000 25.7776
#
#
#
# Elastic Compliance Matrix: (Units=1/GPa)
#
#
# Indices 1 2 3 4 5 6 
#
# 1 0.011268 -0.002629 -0.002768 0.000000 0.000000 0.000000
# 2 -0.002629 0.014678 -0.002832 0.000000 0.000000 0.000000
# 3 -0.002768 -0.002832 0.008616 0.000000 0.000000 0.000000
# 4 0.000000 0.000000 0.000000 0.041550 0.000000 0.000000
# 5 0.000000 0.000000 0.000000 0.000000 0.043283 0.000000
# 6 0.000000 0.000000 0.000000 0.000000 0.000000 0.038793
#
#
# Mechanical properties :
#
#
# Convention : Reuss Voigt Hill
#
# Bulk Modulus (GPa) = 55.23017 59.62663 57.42840
# Shear Modulus (GPa) = 27.67332 29.36899 28.52115
#
# Velocity S-wave (km/s) = 3.81273 3.92780 3.87069
# Velocity P-wave (km/s) = 6.95666 7.20363 7.08122
#
# Compressibility (1/GPa) = 0.01810605
#
# Stress axis : x y z
#
# Youngs Moduli (GPa) = 88.74534 68.12777 116.06858
#
# Poissons Ratio (x) = 0.17908 0.32126
# Poissons Ratio (y) = 0.23328 0.32865
# Poissons Ratio (z) = 0.24563 0.19291
#
# Static dielectric constant tensor:
#      x y z
#    x 1.687540 0.000000 0.000000 
#    y 0.000000 1.690720 0.000000 
#    z 0.000000 0.000000 1.705020 
# 
# From -- ./inp_files/9302.got.cif
#   From: 2010.05.17/outbox.cif.g08.bks.cpg/sg36_5_cif.got.tgz:9302.got - 2010.06.03 17:41:39.
