data_PCOD9351829
_publ_section_title
;
Structure prediction by ZEFSAII (Michael W. Deem and Ramdas Pophale) SiO2 
 PCOD9351829
Probable space group: C M C 21
;
_chemical_formula_sum "Si O2"
_cell_formula_units_Z 48
_cell_length_a 14.365200
_cell_length_b 11.671057
_cell_length_c 11.922451
_cell_angle_alpha 90.000000
_cell_angle_beta 90.000000
_cell_angle_gamma 90.000000
_cell_volume 1998.883178
_symmetry_space_group_name_H-M "C M C 21"
_symmetry_group_IT_number 36
_symmetry_cell_setting 'orthorhombic'
loop_
_space_group_symop_operation_xyz
x,y,z
-x,-y,1/2+z
x,-y,1/2+z
-x,y,z
1/2+x,1/2+y,z
1/2-x,1/2-y,1/2+z
1/2+x,1/2-y,1/2+z
1/2-x,1/2+y,z
loop_
_atom_site_type_symbol
_atom_site_label
_atom_site_fract_x
_atom_site_fract_y
_atom_site_fract_z
Si Si1 0.899586 0.677504 0.818540
Si Si2 0.394299 0.387823 0.350976
Si Si3 0.896982 0.878392 0.971065
Si Si4 0.897756 0.463452 0.549494
Si Si5 0.301947 0.840398 0.941577
Si Si6 0.740886 0.005215 0.729711
O O1 0.896191 0.809958 0.851209
O O2 0.895148 0.616822 0.940515
O O3 0.820624 0.620105 0.746641
O O4 0.000000 0.651763 0.768129
O O5 0.500000 0.352957 0.327422
O O6 0.394989 0.486983 0.445652
O O7 0.334248 0.281994 0.396997
O O8 0.345406 0.449000 0.244067
O O9 0.794451 0.841585 0.013580
O O10 0.000000 0.850169 0.020913
O O11 0.883445 0.593183 0.506096
O O12 0.807083 0.442616 0.625450
O O13 0.000000 0.446559 0.602531
O O14 0.280491 0.923356 0.835799
#
# Coordination Sequence:
#
# PCOD9351829 Si02
#       6
#     8   8   8   8   8   8
#     4   9  17  34  60  85 113 151 194 244 291 342
#     4  10  20  36  59  86 117 158 198 241 301 356
#     4   9  18  35  60  84 114 156 200 236 289 357
#     4  10  21  36  59  91 118 152 202 249 297 352
#     4  10  20  38  61  86 120 156 199 248 297 349
#     4  10  20  37  59  86 116 155 195 246 293 354
#
# _framework density 24.013407999999998
#
# number of rings (size 3 to 8) (size 9 to 14) (size 15 to 20)
#    0.000    2.333    1.667    1.000    0.000    2.000 
#    3.000    0.833    0.000    1.000    0.000    0.000 
#    0.000    0.000    0.000    0.000    0.000    0.000 
#
# Total GULP energy -133831.629674 kJ/mol
# GULP energy per Si atom -5576.317903 kJ/mol
# Density = 2.395875 g / cm^3
# Si number density = 24.013408 Si / 1000 Ang^3
#
#
#
# Elastic Constant Matrix: (Units=GPa)
#
#
# Indices 1 2 3 4 5 6 
#
# 1 182.3434 30.4242 14.9799 0.0000 0.0000 0.0000
# 2 30.4242 114.2965 6.0287 0.0000 0.0000 0.0000
# 3 14.9799 6.0287 45.6439 0.0000 0.0000 0.0000
# 4 0.0000 0.0000 0.0000 8.2635 0.0000 0.0000
# 5 0.0000 0.0000 0.0000 0.0000 26.8605 0.0000
# 6 0.0000 0.0000 0.0000 0.0000 0.0000 31.1033
#
#
#
# Elastic Compliance Matrix: (Units=1/GPa)
#
#
# Indices 1 2 3 4 5 6 
#
# 1 0.005872 -0.001472 -0.001733 0.000000 0.000000 0.000000
# 2 -0.001472 0.009179 -0.000729 0.000000 0.000000 0.000000
# 3 -0.001733 -0.000729 0.022574 0.000000 0.000000 0.000000
# 4 0.000000 0.000000 0.000000 0.121014 0.000000 0.000000
# 5 0.000000 0.000000 0.000000 0.000000 0.037229 0.000000
# 6 0.000000 0.000000 0.000000 0.000000 0.000000 0.032151
#
#
# Mechanical properties :
#
#
# Convention : Reuss Voigt Hill
#
# Bulk Modulus (GPa) = 33.60503 49.46103 41.53303
# Shear Modulus (GPa) = 20.34123 32.63554 26.48839
#
# Velocity S-wave (km/s) = 2.91362 3.69054 3.32485
# Velocity P-wave (km/s) = 5.03424 6.22913 5.66329
#
# Compressibility (1/GPa) = 0.02975745
#
# Stress axis : x y z
#
# Youngs Moduli (GPa) = 170.29800 108.93970 44.29927
#
# Poissons Ratio (x) = 0.16032 0.07676
# Poissons Ratio (y) = 0.25062 0.03231
# Poissons Ratio (z) = 0.29509 0.07946
#
# Static dielectric constant tensor:
#      x y z
#    x 1.999760 0.000000 0.000000 
#    y 0.000000 1.931630 0.000000 
#    z 0.000000 0.000000 1.980860 
# 
# From -- ./inp_files/12079.got.cif
#   From: 2010.05.17/outbox.cif.g08.bks.cpg/sg36_7_cif.got.tgz:12079.got - 2010.06.03 17:41:39.
