data_PCOD9351219
_publ_section_title
;
Structure prediction by ZEFSAII (Michael W. Deem and Ramdas Pophale) SiO2 
 PCOD9351219
Probable space group: C M C 21
;
_chemical_formula_sum "Si O2"
_cell_formula_units_Z 64
_cell_length_a 8.420667
_cell_length_b 17.162919
_cell_length_c 19.562825
_cell_angle_alpha 90.000000
_cell_angle_beta 90.000000
_cell_angle_gamma 90.000000
_cell_volume 2827.282572
_symmetry_space_group_name_H-M "C M C 21"
_symmetry_group_IT_number 36
_symmetry_cell_setting 'orthorhombic'
loop_
_space_group_symop_operation_xyz
x,y,z
-x,-y,1/2+z
x,-y,1/2+z
-x,y,z
1/2+x,1/2+y,z
1/2-x,1/2-y,1/2+z
1/2+x,1/2-y,1/2+z
1/2-x,1/2+y,z
loop_
_atom_site_type_symbol
_atom_site_label
_atom_site_fract_x
_atom_site_fract_y
_atom_site_fract_z
Si Si1 0.818362 0.032738 0.946530
Si Si2 0.684770 0.247963 0.638089
Si Si3 0.193233 0.590877 0.203213
Si Si4 0.178572 0.581050 0.357126
Si Si5 0.679327 0.928391 0.157673
Si Si6 0.176007 0.237943 0.879377
Si Si7 0.322513 0.177001 0.010321
Si Si8 0.819186 0.897363 0.292933
O O1 0.804580 0.066808 0.868613
O O2 0.000000 0.033299 0.967954
O O3 0.758673 0.947911 0.927279
O O4 0.719137 0.086903 0.996356
O O5 0.500000 0.241052 0.657717
O O6 0.756646 0.322113 0.679997
O O7 0.750652 0.157659 0.638631
O O8 0.705153 0.279584 0.561147
O O9 0.253116 0.572742 0.280960
O O10 0.244767 0.518179 0.153324
O O11 0.000000 0.589505 0.205259
O O12 0.169728 0.672566 0.365666
O O13 0.000000 0.547082 0.355774
O O14 0.500000 0.930116 0.130094
O O15 0.687463 0.920932 0.239805
O O16 0.200269 0.193734 0.808395
O O17 0.000000 0.211113 0.904583
O O18 0.302441 0.215400 0.936018
O O19 0.500000 0.184562 0.037496
O O20 0.000000 0.912596 0.268166
#
# Coordination Sequence:
#
# PCOD9351219 Si02
#       8
#     8   8   8   8   8   8   8   8
#     4  10  20  35  57  84 118 153 189 241 297 351
#     4  11  24  42  62  87 119 160 205 258 311 359
#     4  10  21  39  62  92 127 162 203 248 297 367
#     4  10  19  34  59  90 125 158 194 241 299 365
#     4  10  21  37  60  87 119 157 200 246 298 357
#     4   9  19  35  56  86 119 153 189 240 299 353
#     4  11  23  41  62  82 109 155 206 249 298 363
#     4   9  17  31  54  82 114 150 186 229 289 347
#
# _framework density 22.636576999999999
#
# number of rings (size 3 to 8) (size 9 to 14) (size 15 to 20)
#    0.000    2.000    1.250    3.375    0.000    5.500 
#    2.250    0.000    0.000    0.000    0.000    0.000 
#    0.000    0.000    0.000    0.000    0.000    0.000 
#
# Total GULP energy -178157.854559 kJ/mol
# GULP energy per Si atom -5567.432955 kJ/mol
# Density = 2.258505 g / cm^3
# Si number density = 22.636577 Si / 1000 Ang^3
#
#
#
# Elastic Constant Matrix: (Units=GPa)
#
#
# Indices 1 2 3 4 5 6 
#
# 1 29.7517 5.5917 -1.2480 0.0000 0.0000 0.0000
# 2 5.5917 72.9684 -0.2376 0.0000 0.0000 0.0000
# 3 -1.2480 -0.2376 35.1831 0.0000 0.0000 0.0000
# 4 0.0000 0.0000 0.0000 26.5369 0.0000 0.0000
# 5 0.0000 0.0000 0.0000 0.0000 20.0431 0.0000
# 6 0.0000 0.0000 0.0000 0.0000 0.0000 20.7478
#
#
#
# Elastic Compliance Matrix: (Units=1/GPa)
#
#
# Indices 1 2 3 4 5 6 
#
# 1 0.034153 -0.002613 0.001194 0.000000 0.000000 0.000000
# 2 -0.002613 0.013905 0.000001 0.000000 0.000000 0.000000
# 3 0.001194 0.000001 0.028465 0.000000 0.000000 0.000000
# 4 0.000000 0.000000 0.000000 0.037683 0.000000 0.000000
# 5 0.000000 0.000000 0.000000 0.000000 0.049892 0.000000
# 6 0.000000 0.000000 0.000000 0.000000 0.000000 0.048198
#
#
# Mechanical properties :
#
#
# Convention : Reuss Voigt Hill
#
# Bulk Modulus (GPa) = 13.57107 16.23505 14.90306
# Shear Modulus (GPa) = 20.85985 22.38537 21.62261
#
# Velocity S-wave (km/s) = 3.03893 3.14809 3.09399
# Velocity P-wave (km/s) = 4.28038 4.51681 4.40019
#
# Compressibility (1/GPa) = 0.07368615
#
# Stress axis : x y z
#
# Youngs Moduli (GPa) = 29.28020 71.91745 35.13075
#
# Poissons Ratio (x) = 0.18794 -0.04194
# Poissons Ratio (y) = 0.07652 -0.00004
# Poissons Ratio (z) = -0.03496 -0.00008
#
# Static dielectric constant tensor:
#      x y z
#    x 1.910510 0.000000 0.000000 
#    y 0.000000 2.013690 0.000000 
#    z 0.000000 0.000000 1.836020 
# 
# From -- ./inp_files/15682.got.cif
#   From: 2010.05.17/outbox.cif.g08.bks.cpg/sg36_8_cif.got.tgz:15682.got - 2010.06.03 17:41:39.
