data_PCOD9351169
_publ_section_title
;
Structure prediction by ZEFSAII (Michael W. Deem and Ramdas Pophale) SiO2 
 PCOD9351169
Probable space group: C M C 21
;
_chemical_formula_sum "Si O2"
_cell_formula_units_Z 64
_cell_length_a 8.846586
_cell_length_b 21.024726
_cell_length_c 19.754745
_cell_angle_alpha 90.000000
_cell_angle_beta 90.000000
_cell_angle_gamma 90.000000
_cell_volume 3674.324228
_symmetry_space_group_name_H-M "C M C 21"
_symmetry_group_IT_number 36
_symmetry_cell_setting 'orthorhombic'
loop_
_space_group_symop_operation_xyz
x,y,z
-x,-y,1/2+z
x,-y,1/2+z
-x,y,z
1/2+x,1/2+y,z
1/2-x,1/2-y,1/2+z
1/2+x,1/2-y,1/2+z
1/2-x,1/2+y,z
loop_
_atom_site_type_symbol
_atom_site_label
_atom_site_fract_x
_atom_site_fract_y
_atom_site_fract_z
Si Si1 0.818536 0.116384 0.837690
Si Si2 0.180546 0.740204 0.482738
Si Si3 0.319071 0.189748 0.209032
Si Si4 0.317885 0.937332 0.205159
Si Si5 0.317979 0.935904 0.626545
Si Si6 0.819442 0.110802 0.991195
Si Si7 0.681043 0.192755 0.628035
Si Si8 0.679674 0.257428 0.840026
O O1 0.757332 0.072125 0.778181
O O2 0.749072 0.186908 0.828271
O O3 0.000000 0.121627 0.834683
O O4 0.776756 0.094453 0.913807
O O5 0.217698 0.814028 0.499597
O O6 0.215066 0.698385 0.548404
O O7 0.268063 0.722546 0.414861
O O8 0.000000 0.737957 0.469361
O O9 0.500000 0.189755 0.215333
O O10 0.271312 0.126330 0.169224
O O11 0.265836 0.251007 0.166733
O O12 0.245010 0.196823 0.282523
O O13 0.500000 0.939315 0.213525
O O14 0.281459 0.874848 0.160815
O O15 0.269413 0.000462 0.165435
O O16 0.500000 0.936378 0.623534
O O17 0.256775 0.928649 0.550670
O O18 0.000000 0.104797 0.997249
O O19 0.500000 0.203006 0.635784
O O20 0.500000 0.253478 0.835167
#
# Coordination Sequence:
#
# PCOD9351169 Si02
#       8
#     8   8   8   8   8   8   8   8
#     4  10  20  35  55  82 110 142 182 226 277 331
#     4   9  18  33  53  80 111 140 178 230 282 329
#     4  11  21  34  54  80 111 143 182 229 273 323
#     4  10  21  37  56  82 113 147 185 224 272 328
#     4  10  22  37  54  81 114 147 185 226 270 324
#     4   9  18  33  54  79 108 140 180 223 270 328
#     4  10  19  34  57  81 107 140 180 227 277 327
#     4  11  21  33  53  81 110 143 184 231 279 328
#
# _framework density 17.418168999999999
#
# number of rings (size 3 to 8) (size 9 to 14) (size 15 to 20)
#    0.000    2.000    2.500    2.625    0.000    4.000 
#    0.000    1.250    0.000    6.000    0.000    0.000 
#    0.000    0.000    0.000    0.000    0.000    0.000 
#
# Total GULP energy -178613.493488 kJ/mol
# GULP energy per Si atom -5581.671672 kJ/mol
# Density = 1.737852 g / cm^3
# Si number density = 17.418169 Si / 1000 Ang^3
#
#
#
# Elastic Constant Matrix: (Units=GPa)
#
#
# Indices 1 2 3 4 5 6 
#
# 1 41.4807 38.9824 53.4228 0.0000 0.0000 0.0000
# 2 38.9824 101.0191 76.4359 0.0000 0.0000 0.0000
# 3 53.4228 76.4359 168.5923 0.0000 0.0000 0.0000
# 4 0.0000 0.0000 0.0000 27.9328 0.0000 0.0000
# 5 0.0000 0.0000 0.0000 0.0000 34.9645 0.0000
# 6 0.0000 0.0000 0.0000 0.0000 0.0000 19.0807
#
#
#
# Elastic Compliance Matrix: (Units=1/GPa)
#
#
# Indices 1 2 3 4 5 6 
#
# 1 0.047017 -0.010458 -0.010157 0.000000 0.000000 0.000000
# 2 -0.010458 0.017394 -0.004572 0.000000 0.000000 0.000000
# 3 -0.010157 -0.004572 0.011223 0.000000 0.000000 0.000000
# 4 0.000000 0.000000 0.000000 0.035800 0.000000 0.000000
# 5 0.000000 0.000000 0.000000 0.000000 0.028600 0.000000
# 6 0.000000 0.000000 0.000000 0.000000 0.000000 0.052409
#
#
# Mechanical properties :
#
#
# Convention : Reuss Voigt Hill
#
# Bulk Modulus (GPa) = 39.58909 72.08601 55.83755
# Shear Modulus (GPa) = 19.90134 25.87899 22.89016
#
# Velocity S-wave (km/s) = 3.38385 3.85872 3.62906
# Velocity P-wave (km/s) = 6.16808 7.83124 7.04888
#
# Compressibility (1/GPa) = 0.02525948
#
# Stress axis : x y z
#
# Youngs Moduli (GPa) = 21.26882 57.48959 89.10279
#
# Poissons Ratio (x) = 0.60123 0.90503
# Poissons Ratio (y) = 0.22243 0.40741
# Poissons Ratio (z) = 0.21603 0.26286
#
# Static dielectric constant tensor:
#      x y z
#    x 1.585610 0.000000 0.000000 
#    y 0.000000 1.570240 0.000000 
#    z 0.000000 0.000000 1.599280 
# 
# From -- ./inp_files/13805.got.cif
#   From: 2010.05.17/outbox.cif.g08.bks.cpg/sg36_7_cif.got.tgz:13805.got - 2010.06.03 17:41:39.
