data_PCOD9351071
_publ_section_title
;
Structure prediction by ZEFSAII (Michael W. Deem and Ramdas Pophale) SiO2 
 PCOD9351071
Probable space group: C M C 21
;
_chemical_formula_sum "Si O2"
_cell_formula_units_Z 56
_cell_length_a 13.660956
_cell_length_b 12.796375
_cell_length_c 14.203241
_cell_angle_alpha 90.000000
_cell_angle_beta 90.000000
_cell_angle_gamma 90.000000
_cell_volume 2482.878726
_symmetry_space_group_name_H-M "C M C 21"
_symmetry_group_IT_number 36
_symmetry_cell_setting 'orthorhombic'
loop_
_space_group_symop_operation_xyz
x,y,z
-x,-y,1/2+z
x,-y,1/2+z
-x,y,z
1/2+x,1/2+y,z
1/2-x,1/2-y,1/2+z
1/2+x,1/2-y,1/2+z
1/2-x,1/2+y,z
loop_
_atom_site_type_symbol
_atom_site_label
_atom_site_fract_x
_atom_site_fract_y
_atom_site_fract_z
Si Si1 0.106502 0.770972 0.921530
Si Si2 0.821852 0.346152 0.901636
Si Si3 0.608836 0.387077 0.646674
Si Si4 0.390514 0.389876 0.429480
Si Si5 0.286716 0.963626 0.712577
Si Si6 0.180626 0.556202 0.989006
Si Si7 0.610127 0.818967 0.213544
O O1 0.208536 0.831284 0.936742
O O2 0.107867 0.742208 0.811630
O O3 0.000000 0.818960 0.945571
O O4 0.116151 0.657407 0.968654
O O5 0.875281 0.235138 0.914169
O O6 0.823522 0.383403 0.792077
O O7 0.863045 0.443740 0.961196
O O8 0.500000 0.376190 0.683375
O O9 0.601424 0.419866 0.539571
O O10 0.669384 0.460553 0.714770
O O11 0.652624 0.269002 0.644561
O O12 0.500000 0.416937 0.388844
O O13 0.277806 0.432841 0.420078
O O14 0.302261 0.938856 0.601501
O O15 0.330132 0.076987 0.726233
O O16 0.500000 0.848297 0.184546
#
# Coordination Sequence:
#
# PCOD9351071 Si02
#       7
#     8   8   8   8   8   8   8
#     4  10  21  38  58  80 112 147 187 233 279 338
#     4  11  21  36  58  83 111 151 191 229 285 334
#     4   9  18  36  59  81 108 149 191 227 274 337
#     4   9  20  37  56  81 114 146 185 233 280 334
#     4  11  21  34  60  84 116 146 189 239 281 334
#     4  10  22  38  56  86 113 149 189 236 285 329
#     4  10  19  33  55  81 106 142 186 225 274 332
#
# _framework density 22.554463999999999
#
# number of rings (size 3 to 8) (size 9 to 14) (size 15 to 20)
#    0.000    2.000    2.857    0.857    0.000    2.286 
#    0.000    0.000    0.000    0.857    0.000    0.000 
#    0.000    0.000    0.000    0.000    0.000    0.000 
#
# Total GULP energy -155909.781492 kJ/mol
# GULP energy per Si atom -5568.206482 kJ/mol
# Density = 2.250313 g / cm^3
# Si number density = 22.554464 Si / 1000 Ang^3
#
#
#
# Elastic Constant Matrix: (Units=GPa)
#
#
# Indices 1 2 3 4 5 6 
#
# 1 77.1822 22.6537 2.4167 0.0000 0.0000 0.0000
# 2 22.6537 75.3677 -15.1446 0.0000 0.0000 0.0000
# 3 2.4167 -15.1446 54.2195 0.0000 0.0000 0.0000
# 4 0.0000 0.0000 0.0000 21.3270 0.0000 0.0000
# 5 0.0000 0.0000 0.0000 0.0000 14.5415 0.0000
# 6 0.0000 0.0000 0.0000 0.0000 0.0000 1.7205
#
#
#
# Elastic Compliance Matrix: (Units=1/GPa)
#
#
# Indices 1 2 3 4 5 6 
#
# 1 0.014404 -0.004724 -0.001961 0.000000 0.000000 0.000000
# 2 -0.004724 0.015606 0.004570 0.000000 0.000000 0.000000
# 3 -0.001961 0.004570 0.019807 0.000000 0.000000 0.000000
# 4 0.000000 0.000000 0.000000 0.046889 0.000000 0.000000
# 5 0.000000 0.000000 0.000000 0.000000 0.068769 0.000000
# 6 0.000000 0.000000 0.000000 0.000000 0.000000 0.581212
#
#
# Mechanical properties :
#
#
# Convention : Reuss Voigt Hill
#
# Bulk Modulus (GPa) = 21.93603 25.18012 23.55807
# Shear Modulus (GPa) = 6.52644 20.64071 13.58358
#
# Velocity S-wave (km/s) = 1.70291 3.02843 2.45675
# Velocity P-wave (km/s) = 3.68964 4.83910 4.30293
#
# Compressibility (1/GPa) = 0.04558710
#
# Stress axis : x y z
#
# Youngs Moduli (GPa) = 69.42407 64.07635 50.48622
#
# Poissons Ratio (x) = 0.30268 0.09903
# Poissons Ratio (y) = 0.32794 -0.23071
# Poissons Ratio (z) = 0.13617 -0.29281
#
# Static dielectric constant tensor:
#      x y z
#    x 1.973810 0.000000 0.000000 
#    y 0.000000 1.862490 0.000000 
#    z 0.000000 0.000000 1.859720 
# 
# From -- ./inp_files/12133.got.cif
#   From: 2010.05.17/outbox.cif.g08.bks.cpg/sg36_7_cif.got.tgz:12133.got - 2010.06.03 17:41:39.
