data_PCOD9351014
_publ_section_title
;
Structure prediction by ZEFSAII (Michael W. Deem and Ramdas Pophale) SiO2 
 PCOD9351014
Probable space group: C M C 21
;
_chemical_formula_sum "Si O2"
_cell_formula_units_Z 56
_cell_length_a 22.084943
_cell_length_b 7.858868
_cell_length_c 15.440677
_cell_angle_alpha 90.000000
_cell_angle_beta 90.000000
_cell_angle_gamma 90.000000
_cell_volume 2679.924846
_symmetry_space_group_name_H-M "C M C 21"
_symmetry_group_IT_number 36
_symmetry_cell_setting 'orthorhombic'
loop_
_space_group_symop_operation_xyz
x,y,z
-x,-y,1/2+z
x,-y,1/2+z
-x,y,z
1/2+x,1/2+y,z
1/2-x,1/2-y,1/2+z
1/2+x,1/2-y,1/2+z
1/2-x,1/2+y,z
loop_
_atom_site_type_symbol
_atom_site_label
_atom_site_fract_x
_atom_site_fract_y
_atom_site_fract_z
Si Si1 0.753947 0.181300 0.250000
Si Si2 0.813845 0.433571 0.360137
Si Si3 0.933326 0.487214 0.786553
Si Si4 0.430486 0.677227 0.170836
Si Si5 0.196582 0.162168 0.510427
Si Si6 0.873457 0.809058 0.186368
Si Si7 0.313051 0.684541 0.070341
O O1 0.805872 0.311502 0.276368
O O2 0.689990 0.275756 0.235943
O O3 0.739205 0.064820 0.333665
O O4 0.777565 0.112136 0.157256
O O5 0.879149 0.519018 0.355495
O O6 0.810117 0.308647 0.440253
O O7 0.916845 0.343598 0.715774
O O8 0.000000 0.455879 0.822356
O O9 0.933010 0.673412 0.742000
O O10 0.500000 0.654906 0.139706
O O11 0.404864 0.492252 0.201670
O O12 0.380221 0.731954 0.099699
O O13 0.149099 0.203122 0.587462
O O14 0.267202 0.171960 0.539181
O O15 0.183913 0.962451 0.498007
#
# Coordination Sequence:
#
# PCOD9351014 Si02
#       7
#     8   8   8   8   8   8   8
#     4  10  19  32  56  77 107 144 185 237 275 331
#     4  11  20  34  52  85 111 140 184 229 291 336
#     4  10  21  36  58  80 107 147 188 227 265 328
#     4  10  19  33  56  81 105 140 186 227 262 319
#     4  10  21  32  54  82 113 143 172 239 297 323
#     4   9  20  36  56  80 106 144 190 230 272 324
#     4  10  19  35  52  81 106 144 185 227 276 333
#
# _framework density 20.896108999999999
#
# number of rings (size 3 to 8) (size 9 to 14) (size 15 to 20)
#    0.000    2.000    1.429    3.857    4.000    0.000 
#    0.000    3.571    0.000    0.000    0.000    0.000 
#    0.000    0.000    0.000    0.000    0.000    0.000 
#
# Total GULP energy -155920.414164 kJ/mol
# GULP energy per Si atom -5568.586220 kJ/mol
# Density = 2.084855 g / cm^3
# Si number density = 20.896109 Si / 1000 Ang^3
#
#
#
# Elastic Constant Matrix: (Units=GPa)
#
#
# Indices 1 2 3 4 5 6 
#
# 1 135.1518 0.9024 -9.9825 0.0000 0.0000 0.0000
# 2 0.9024 52.7958 -2.5026 0.0000 0.0000 0.0000
# 3 -9.9825 -2.5026 10.4038 0.0000 0.0000 0.0000
# 4 0.0000 0.0000 0.0000 15.1311 0.0000 0.0000
# 5 0.0000 0.0000 0.0000 0.0000 12.1740 0.0000
# 6 0.0000 0.0000 0.0000 0.0000 0.0000 27.5274
#
#
#
# Elastic Compliance Matrix: (Units=1/GPa)
#
#
# Indices 1 2 3 4 5 6 
#
# 1 0.007966 0.000229 0.007699 0.000000 0.000000 0.000000
# 2 0.000229 0.019166 0.004830 0.000000 0.000000 0.000000
# 3 0.007699 0.004830 0.104667 0.000000 0.000000 0.000000
# 4 0.000000 0.000000 0.000000 0.066089 0.000000 0.000000
# 5 0.000000 0.000000 0.000000 0.000000 0.082142 0.000000
# 6 0.000000 0.000000 0.000000 0.000000 0.000000 0.036327
#
#
# Mechanical properties :
#
#
# Convention : Reuss Voigt Hill
#
# Bulk Modulus (GPa) = 6.35671 19.46511 12.91091
# Shear Modulus (GPa) = 14.56530 24.96211 19.76370
#
# Velocity S-wave (km/s) = 2.64300 3.46002 3.07874
# Velocity P-wave (km/s) = 3.51605 5.02969 4.33938
#
# Compressibility (1/GPa) = 0.15731399
#
# Stress axis : x y z
#
# Youngs Moduli (GPa) = 125.53041 52.17594 9.55407
#
# Poissons Ratio (x) = -0.01194 -0.07355
# Poissons Ratio (y) = -0.02872 -0.04614
# Poissons Ratio (z) = -0.96642 -0.25200
#
# Static dielectric constant tensor:
#      x y z
#    x 1.758600 0.000000 0.000000 
#    y 0.000000 1.826670 0.000000 
#    z 0.000000 0.000000 1.809120 
# 
# From -- ./inp_files/12830.got.cif
#   From: 2010.05.17/outbox.cif.g08.bks.cpg/sg36_7_cif.got.tgz:12830.got - 2010.06.03 17:41:39.
