data_PCOD9351264
_publ_section_title
;
Structure prediction by ZEFSAII (Michael W. Deem and Ramdas Pophale) SiO2 
 PCOD9351264
Probable space group: C M C 21
;
_chemical_formula_sum "Si O2"
_cell_formula_units_Z 64
_cell_length_a 9.059090
_cell_length_b 25.206346
_cell_length_c 14.026965
_cell_angle_alpha 90.000000
_cell_angle_beta 90.000000
_cell_angle_gamma 90.000000
_cell_volume 3203.009163
_symmetry_space_group_name_H-M "C M C 21"
_symmetry_group_IT_number 36
_symmetry_cell_setting 'orthorhombic'
loop_
_space_group_symop_operation_xyz
x,y,z
-x,-y,1/2+z
x,-y,1/2+z
-x,y,z
1/2+x,1/2+y,z
1/2-x,1/2-y,1/2+z
1/2+x,1/2-y,1/2+z
1/2-x,1/2+y,z
loop_
_atom_site_type_symbol
_atom_site_label
_atom_site_fract_x
_atom_site_fract_y
_atom_site_fract_z
Si Si1 0.168024 0.630826 0.783970
Si Si2 0.175682 0.312079 0.712930
Si Si3 0.179050 0.711820 0.622213
Si Si4 0.170010 0.078925 0.159688
Si Si5 0.668124 0.568469 0.930727
Si Si6 0.321797 0.548708 0.454514
Si Si7 0.329781 0.973009 0.154625
Si Si8 0.323015 0.159096 0.420355
O O1 0.228390 0.673296 0.708710
O O2 0.250905 0.616905 0.880416
O O3 0.168884 0.574943 0.728284
O O4 0.000000 0.646040 0.805314
O O5 0.253936 0.268527 0.647481
O O6 0.240218 0.369493 0.688207
O O7 0.205975 0.305667 0.826505
O O8 0.000000 0.310431 0.699121
O O9 0.221397 0.687375 0.519474
O O10 0.000000 0.714005 0.622863
O O11 0.000000 0.081072 0.192709
O O12 0.249839 0.025371 0.192632
O O13 0.169407 0.075166 0.044513
O O14 0.500000 0.569184 0.896211
O O15 0.726434 0.508586 0.912411
O O16 0.500000 0.549739 0.454959
O O17 0.258957 0.546755 0.562053
O O18 0.257051 0.602285 0.410079
O O19 0.500000 0.985128 0.128362
O O20 0.500000 0.149445 0.425010
#
# Coordination Sequence:
#
# PCOD9351264 Si02
#       8
#     8   8   8   8   8   8   8   8
#     4  10  21  36  59  89 120 160 204 244 301 360
#     4  11  25  42  64  94 119 156 209 257 308 366
#     4  10  22  44  65  86 121 162 202 251 308 365
#     4  10  22  41  60  85 123 165 203 250 308 364
#     4   9  21  37  55  86 126 164 202 245 301 361
#     4  10  20  35  57  89 123 160 205 250 304 362
#     4  10  19  35  58  87 123 161 199 248 305 361
#     4  10  22  42  64  86 119 160 202 251 309 369
#
# _framework density 19.981210999999998
#
# number of rings (size 3 to 8) (size 9 to 14) (size 15 to 20)
#    0.000    2.000    1.250    2.250    1.750    7.000 
#    0.000    3.750    0.000    0.000    0.000    0.000 
#    0.000    0.000    0.000    0.000    0.000    0.000 
#
# Total GULP energy -178642.834864 kJ/mol
# GULP energy per Si atom -5582.588589 kJ/mol
# Density = 1.993573 g / cm^3
# Si number density = 19.981211 Si / 1000 Ang^3
#
#
#
# Elastic Constant Matrix: (Units=GPa)
#
#
# Indices 1 2 3 4 5 6 
#
# 1 28.2889 7.8673 13.9139 0.0000 0.0000 0.0000
# 2 7.8673 71.6922 12.3436 0.0000 0.0000 0.0000
# 3 13.9139 12.3436 48.6566 0.0000 0.0000 0.0000
# 4 0.0000 0.0000 0.0000 25.8485 0.0000 0.0000
# 5 0.0000 0.0000 0.0000 0.0000 13.9437 0.0000
# 6 0.0000 0.0000 0.0000 0.0000 0.0000 31.2322
#
#
#
# Elastic Compliance Matrix: (Units=1/GPa)
#
#
# Indices 1 2 3 4 5 6 
#
# 1 0.041605 -0.002632 -0.011230 0.000000 0.000000 0.000000
# 2 -0.002632 0.014752 -0.002990 0.000000 0.000000 0.000000
# 3 -0.011230 -0.002990 0.024522 0.000000 0.000000 0.000000
# 4 0.000000 0.000000 0.000000 0.038687 0.000000 0.000000
# 5 0.000000 0.000000 0.000000 0.000000 0.071717 0.000000
# 6 0.000000 0.000000 0.000000 0.000000 0.000000 0.032018
#
#
# Mechanical properties :
#
#
# Convention : Reuss Voigt Hill
#
# Bulk Modulus (GPa) = 21.19730 24.09859 22.64794
# Shear Modulus (GPa) = 18.33318 21.83908 20.08613
#
# Velocity S-wave (km/s) = 3.03235 3.30961 3.17401
# Velocity P-wave (km/s) = 4.78454 5.16638 4.97912
#
# Compressibility (1/GPa) = 0.04717583
#
# Stress axis : x y z
#
# Youngs Moduli (GPa) = 24.03567 67.78691 40.77986
#
# Poissons Ratio (x) = 0.17843 0.45794
# Poissons Ratio (y) = 0.06327 0.12192
# Poissons Ratio (z) = 0.26991 0.20266
#
# Static dielectric constant tensor:
#      x y z
#    x 1.693020 0.000000 0.000000 
#    y 0.000000 1.679750 0.000000 
#    z 0.000000 0.000000 1.735130 
# 
# From -- ./inp_files/10972.got.cif
#   From: 2010.05.17/outbox.cif.g08.bks.cpg/sg36_6_cif.got.tgz:10972.got - 2010.06.03 17:41:39.
