data_PCOD9351658
_publ_section_title
;
Structure prediction by ZEFSAII (Michael W. Deem and Ramdas Pophale) SiO2 
 PCOD9351658
Probable space group: C M C 21
;
_chemical_formula_sum "Si O2"
_cell_formula_units_Z 64
_cell_length_a 7.603444
_cell_length_b 33.758785
_cell_length_c 10.841734
_cell_angle_alpha 90.000000
_cell_angle_beta 90.000000
_cell_angle_gamma 90.000000
_cell_volume 2782.889147
_symmetry_space_group_name_H-M "C M C 21"
_symmetry_group_IT_number 36
_symmetry_cell_setting 'orthorhombic'
loop_
_space_group_symop_operation_xyz
x,y,z
-x,-y,1/2+z
x,-y,1/2+z
-x,y,z
1/2+x,1/2+y,z
1/2-x,1/2-y,1/2+z
1/2+x,1/2-y,1/2+z
1/2-x,1/2+y,z
loop_
_atom_site_type_symbol
_atom_site_label
_atom_site_fract_x
_atom_site_fract_y
_atom_site_fract_z
Si Si1 0.710830 0.161883 0.929030
Si Si2 0.204389 0.285303 0.024145
Si Si3 0.707989 0.238420 0.789571
Si Si4 0.212621 0.420418 0.318118
Si Si5 0.199384 0.951718 0.058505
Si Si6 0.213610 0.130424 0.453720
Si Si7 0.790071 0.120437 0.182098
Si Si8 0.705215 0.539144 0.072614
O O1 0.500000 0.164517 0.929198
O O2 0.782218 0.201647 0.868989
O O3 0.761055 0.124855 0.844307
O O4 0.758896 0.149816 0.068101
O O5 0.279134 0.273755 0.889215
O O6 0.224643 0.332836 0.036517
O O7 0.000000 0.275455 0.014823
O O8 0.277872 0.263240 0.147792
O O9 0.500000 0.231949 0.771644
O O10 0.301283 0.436696 0.197530
O O11 0.279149 0.444630 0.434928
O O12 0.000000 0.423394 0.309421
O O13 0.000000 0.957155 0.008753
O O14 0.277165 0.913744 0.988531
O O15 0.284373 0.995163 0.067103
O O16 0.272166 0.136537 0.312589
O O17 0.000000 0.130224 0.461672
O O18 0.000000 0.116017 0.191330
O O19 0.720015 0.076009 0.151992
O O20 0.500000 0.534416 0.109834
#
# Coordination Sequence:
#
# PCOD9351658 Si02
#       8
#     8   8   8   8   8   8   8   8
#     4   9  19  37  60  83 113 153 192 236 296 357
#     4  11  25  43  65  93 125 164 205 250 312 372
#     4  10  23  43  65  91 125 159 200 254 303 362
#     4  10  20  35  55  80 114 148 186 239 295 355
#     4  10  21  35  58  83 111 154 199 244 293 350
#     4  10  22  39  59  87 123 159 200 252 306 358
#     4   9  19  35  57  86 119 153 194 248 298 349
#     4   9  19  35  57  83 112 150 198 245 289 349
#
# _framework density 22.997682000000001
#
# number of rings (size 3 to 8) (size 9 to 14) (size 15 to 20)
#    0.000    2.250    0.000    1.500    3.500    4.500 
#    0.000    0.000    0.000    0.000    0.000    0.000 
#    0.000    0.000    0.000    0.000    0.000    0.000 
#
# Total GULP energy -178501.459679 kJ/mol
# GULP energy per Si atom -5578.170615 kJ/mol
# Density = 2.294534 g / cm^3
# Si number density = 22.997682 Si / 1000 Ang^3
#
#
#
# Elastic Constant Matrix: (Units=GPa)
#
#
# Indices 1 2 3 4 5 6 
#
# 1 54.1442 -3.6401 -3.8663 0.0000 0.0000 0.0000
# 2 -3.6401 67.6635 54.7946 0.0000 0.0000 0.0000
# 3 -3.8663 54.7946 88.4798 0.0000 0.0000 0.0000
# 4 0.0000 0.0000 0.0000 -9.0197 0.0000 0.0000
# 5 0.0000 0.0000 0.0000 0.0000 2287.9782 0.0000
# 6 0.0000 0.0000 0.0000 0.0000 0.0000 47.5969
#
#
#
# Elastic Compliance Matrix: (Units=1/GPa)
#
#
# Indices 1 2 3 4 5 6 
#
# 1 0.018543 0.000685 0.000386 0.000000 0.000000 0.000000
# 2 0.000685 0.029673 -0.018346 0.000000 0.000000 0.000000
# 3 0.000386 -0.018346 0.022680 0.000000 0.000000 0.000000
# 4 0.000000 0.000000 0.000000 -0.110868 0.000000 0.000000
# 5 0.000000 0.000000 0.000000 0.000000 0.000437 0.000000
# 6 0.000000 0.000000 0.000000 0.000000 0.000000 0.021010
#
#
# Mechanical properties :
#
#
# Convention : Reuss Voigt Hill
#
# Bulk Modulus (GPa) = 27.51350 33.87375 30.69362
# Shear Modulus (GPa) = 177.68406 476.17770 326.93088
#
# Velocity S-wave (km/s) = 8.79940 14.40500 11.93595
# Velocity P-wave (km/s) = 10.73447 17.07142 14.25942
#
# Compressibility (1/GPa) = 0.03634580
#
# Stress axis : x y z
#
# Youngs Moduli (GPa) = 53.92927 33.70106 44.09099
#
# Poissons Ratio (x) = -0.02308 -0.01703
# Poissons Ratio (y) = -0.03693 0.80889
# Poissons Ratio (z) = -0.02083 0.61828
#
# Static dielectric constant tensor:
#      x y z
#    x 1.493240 0.000000 0.000000 
#    y 0.000000 1.951310 0.000000 
#    z 0.000000 0.000000 1.854920 
# 
# From -- ./inp_files/7131.got.cif
#   From: 2010.05.17/outbox.cif.g08.bks.cpg/sg36_4_cif.got.tgz:7131.got - 2010.06.03 17:41:39.
