data_PCOD9351864
_publ_section_title
;
Structure prediction by ZEFSAII (Michael W. Deem and Ramdas Pophale) SiO2 
 PCOD9351864
Probable space group: C M C 21
;
_chemical_formula_sum "Si O2"
_cell_formula_units_Z 64
_cell_length_a 8.871701
_cell_length_b 29.616331
_cell_length_c 12.234641
_cell_angle_alpha 90.000000
_cell_angle_beta 90.000000
_cell_angle_gamma 90.000000
_cell_volume 3214.618074
_symmetry_space_group_name_H-M "C M C 21"
_symmetry_group_IT_number 36
_symmetry_cell_setting 'orthorhombic'
loop_
_space_group_symop_operation_xyz
x,y,z
-x,-y,1/2+z
x,-y,1/2+z
-x,y,z
1/2+x,1/2+y,z
1/2-x,1/2-y,1/2+z
1/2+x,1/2-y,1/2+z
1/2-x,1/2+y,z
loop_
_atom_site_type_symbol
_atom_site_label
_atom_site_fract_x
_atom_site_fract_y
_atom_site_fract_z
Si Si1 0.671865 0.474923 0.828470
Si Si2 0.181148 0.836894 0.346663
Si Si3 0.680428 0.321103 0.095933
Si Si4 0.676589 0.064814 0.882953
Si Si5 0.680160 0.839769 0.704848
Si Si6 0.820347 0.388479 0.933902
Si Si7 0.671479 0.425427 0.597809
Si Si8 0.181056 0.227826 0.048843
O O1 0.500000 0.479678 0.868434
O O2 0.748986 0.523374 0.820132
O O3 0.758446 0.437926 0.902087
O O4 0.669211 0.453842 0.707958
O O5 0.219473 0.820459 0.224619
O O6 0.252174 0.886270 0.361469
O O7 0.226578 0.802601 0.443711
O O8 0.000000 0.840844 0.352150
O O9 0.500000 0.318172 0.085044
O O10 0.759515 0.278546 0.038788
O O11 0.739875 0.366352 0.037696
O O12 0.500000 0.066532 0.864579
O O13 0.718944 0.054108 0.008386
O O14 0.500000 0.841143 0.689071
O O15 0.710284 0.855415 0.829235
O O16 0.763769 0.876860 0.630660
O O17 0.745364 0.793226 0.658649
O O18 0.000000 0.390350 0.949051
O O19 0.500000 0.421497 0.555843
O O20 0.000000 0.227007 0.056753
#
# Coordination Sequence:
#
# PCOD9351864 Si02
#       8
#     8   8   8   8   8   8   8   8
#     4  10  22  40  64  91 123 167 215 259 313 378
#     4  10  24  45  65  89 127 168 209 262 319 375
#     4  11  25  43  64  92 129 171 215 260 317 381
#     4  12  24  38  63  94 126 164 208 262 318 375
#     4  10  20  36  61  90 120 155 200 257 311 366
#     4  10  22  41  63  91 129 165 207 261 317 372
#     4  10  20  37  60  87 119 158 205 256 311 371
#     4  11  23  40  64  92 123 162 207 259 318 376
#
# _framework density 19.909051999999999
#
# number of rings (size 3 to 8) (size 9 to 14) (size 15 to 20)
#    0.000    1.500    1.250    3.375    1.750    5.500 
#    0.000    1.250    0.000    0.000    0.000    0.000 
#    0.000    0.000    0.000    0.000    0.000    0.000 
#
# Total GULP energy -178790.289151 kJ/mol
# GULP energy per Si atom -5587.196536 kJ/mol
# Density = 1.986374 g / cm^3
# Si number density = 19.909052 Si / 1000 Ang^3
#
#
#
# Elastic Constant Matrix: (Units=GPa)
#
#
# Indices 1 2 3 4 5 6 
#
# 1 65.0321 41.4206 24.6678 0.0000 0.0000 0.0000
# 2 41.4206 105.3317 31.1847 0.0000 0.0000 0.0000
# 3 24.6678 31.1847 58.6872 0.0000 0.0000 0.0000
# 4 0.0000 0.0000 0.0000 20.2137 0.0000 0.0000
# 5 0.0000 0.0000 0.0000 0.0000 22.9457 0.0000
# 6 0.0000 0.0000 0.0000 0.0000 0.0000 31.3614
#
#
#
# Elastic Compliance Matrix: (Units=1/GPa)
#
#
# Indices 1 2 3 4 5 6 
#
# 1 0.021914 -0.006990 -0.005497 0.000000 0.000000 0.000000
# 2 -0.006990 0.013496 -0.004233 0.000000 0.000000 0.000000
# 3 -0.005497 -0.004233 0.021599 0.000000 0.000000 0.000000
# 4 0.000000 0.000000 0.000000 0.049471 0.000000 0.000000
# 5 0.000000 0.000000 0.000000 0.000000 0.043581 0.000000
# 6 0.000000 0.000000 0.000000 0.000000 0.000000 0.031886
#
#
# Mechanical properties :
#
#
# Convention : Reuss Voigt Hill
#
# Bulk Modulus (GPa) = 42.42817 47.06634 44.74725
# Shear Modulus (GPa) = 22.39691 23.68935 23.04313
#
# Velocity S-wave (km/s) = 3.35768 3.45320 3.40578
# Velocity P-wave (km/s) = 6.03235 6.29218 6.16363
#
# Compressibility (1/GPa) = 0.02356925
#
# Stress axis : x y z
#
# Youngs Moduli (GPa) = 45.63240 74.09657 46.29774
#
# Poissons Ratio (x) = 0.51795 0.25449
# Poissons Ratio (y) = 0.31898 0.19599
# Poissons Ratio (z) = 0.25083 0.31366
#
# Static dielectric constant tensor:
#      x y z
#    x 1.670180 0.000000 0.000000 
#    y 0.000000 1.718450 0.000000 
#    z 0.000000 0.000000 1.727960 
# 
# From -- ./inp_files/7214.got.cif
#   From: 2010.05.17/outbox.cif.g08.bks.cpg/sg36_4_cif.got.tgz:7214.got - 2010.06.03 17:41:39.
