data_PCOD9351702
_publ_section_title
;
Structure prediction by ZEFSAII (Michael W. Deem and Ramdas Pophale) SiO2 
 PCOD9351702
Probable space group: C M C 21
;
_chemical_formula_sum "Si O2"
_cell_formula_units_Z 64
_cell_length_a 8.926151
_cell_length_b 20.486464
_cell_length_c 20.057266
_cell_angle_alpha 90.000000
_cell_angle_beta 90.000000
_cell_angle_gamma 90.000000
_cell_volume 3667.777385
_symmetry_space_group_name_H-M "C M C 21"
_symmetry_group_IT_number 36
_symmetry_cell_setting 'orthorhombic'
loop_
_space_group_symop_operation_xyz
x,y,z
-x,-y,1/2+z
x,-y,1/2+z
-x,y,z
1/2+x,1/2+y,z
1/2-x,1/2-y,1/2+z
1/2+x,1/2-y,1/2+z
1/2-x,1/2+y,z
loop_
_atom_site_type_symbol
_atom_site_label
_atom_site_fract_x
_atom_site_fract_y
_atom_site_fract_z
Si Si1 0.179334 0.336976 0.643200
Si Si2 0.678318 0.666049 0.757545
Si Si3 0.320176 0.482636 0.271277
Si Si4 0.822110 0.420525 0.023897
Si Si5 0.179053 0.027290 0.120058
Si Si6 0.821192 0.588328 0.368765
Si Si7 0.322884 0.693964 0.601408
Si Si8 0.321535 0.299993 0.785468
O O1 0.244437 0.402429 0.611737
O O2 0.211459 0.271009 0.601823
O O3 0.253490 0.326865 0.715801
O O4 0.000000 0.341180 0.651505
O O5 0.500000 0.676316 0.767441
O O6 0.718222 0.593486 0.780806
O O7 0.703640 0.670580 0.677685
O O8 0.767540 0.725267 0.790516
O O9 0.500000 0.489672 0.279271
O O10 0.284942 0.502600 0.195063
O O11 0.237559 0.530230 0.321899
O O12 0.738701 0.475107 0.067329
O O13 0.771413 0.350468 0.052230
O O14 0.000000 0.428342 0.032131
O O15 0.785478 0.425125 0.945828
O O16 0.000000 0.032888 0.115256
O O17 0.743373 0.654320 0.343103
O O18 0.000000 0.594793 0.361814
O O19 0.500000 0.685010 0.588018
O O20 0.500000 0.304241 0.783009
#
# Coordination Sequence:
#
# PCOD9351702 Si02
#       8
#     8   8   8   8   8   8   8   8
#     4  10  20  35  57  85 116 147 183 233 288 335
#     4   9  18  35  57  83 115 144 179 231 287 336
#     4  10  20  36  59  87 115 147 191 240 289 343
#     4  11  24  39  57  83 116 155 197 237 288 348
#     4  11  21  36  59  88 117 148 193 240 286 342
#     4  11  24  40  57  81 116 157 196 237 288 347
#     4   9  18  35  57  82 113 147 184 232 285 336
#     4  11  21  34  55  85 114 145 189 234 281 339
#
# _framework density 17.449259000000001
#
# number of rings (size 3 to 8) (size 9 to 14) (size 15 to 20)
#    0.000    1.750    2.500    3.375    0.000    5.500 
#    0.000    1.250    0.000    0.000    0.000    0.000 
#    0.000    0.000    0.000    0.000    0.000    0.000 
#
# Total GULP energy -178720.580182 kJ/mol
# GULP energy per Si atom -5585.018131 kJ/mol
# Density = 1.740954 g / cm^3
# Si number density = 17.449259 Si / 1000 Ang^3
#
#
#
# Elastic Constant Matrix: (Units=GPa)
#
#
# Indices 1 2 3 4 5 6 
#
# 1 78.2900 70.5440 63.1076 0.0000 0.0000 0.0000
# 2 70.5440 143.7928 66.5508 0.0000 0.0000 0.0000
# 3 63.1076 66.5508 92.3660 0.0000 0.0000 0.0000
# 4 0.0000 0.0000 0.0000 21.1273 0.0000 0.0000
# 5 0.0000 0.0000 0.0000 0.0000 22.6561 0.0000
# 6 0.0000 0.0000 0.0000 0.0000 0.0000 35.6863
#
#
#
# Elastic Compliance Matrix: (Units=1/GPa)
#
#
# Indices 1 2 3 4 5 6 
#
# 1 0.034949 -0.009143 -0.017291 0.000000 0.000000 0.000000
# 2 -0.009143 0.012826 -0.002994 0.000000 0.000000 0.000000
# 3 -0.017291 -0.002994 0.024797 0.000000 0.000000 0.000000
# 4 0.000000 0.000000 0.000000 0.047332 0.000000 0.000000
# 5 0.000000 0.000000 0.000000 0.000000 0.044138 0.000000
# 6 0.000000 0.000000 0.000000 0.000000 0.000000 0.028022
#
#
# Mechanical properties :
#
#
# Convention : Reuss Voigt Hill
#
# Bulk Modulus (GPa) = 72.90630 79.42818 76.16724
# Shear Modulus (GPa) = 19.56996 23.51037 21.54017
#
# Velocity S-wave (km/s) = 3.35257 3.67462 3.51728
# Velocity P-wave (km/s) = 7.54048 7.97635 7.76147
#
# Compressibility (1/GPa) = 0.01371624
#
# Stress axis : x y z
#
# Youngs Moduli (GPa) = 28.61277 77.96706 40.32682
#
# Poissons Ratio (x) = 0.71289 0.69728
# Poissons Ratio (y) = 0.26162 0.12074
# Poissons Ratio (z) = 0.49473 0.23344
#
# Static dielectric constant tensor:
#      x y z
#    x 1.579330 0.000000 0.000000 
#    y 0.000000 1.597300 0.000000 
#    z 0.000000 0.000000 1.565490 
# 
# From -- ./inp_files/13920.got.cif
#   From: 2010.05.17/outbox.cif.g08.bks.cpg/sg36_7_cif.got.tgz:13920.got - 2010.06.03 17:41:39.
