data_PCOD9351643
_publ_section_title
;
Structure prediction by ZEFSAII (Michael W. Deem and Ramdas Pophale) SiO2 
 PCOD9351643
Probable space group: C M C 21
;
_chemical_formula_sum "Si O2"
_cell_formula_units_Z 64
_cell_length_a 14.149807
_cell_length_b 9.728728
_cell_length_c 18.954860
_cell_angle_alpha 90.000000
_cell_angle_beta 90.000000
_cell_angle_gamma 90.000000
_cell_volume 2609.318892
_symmetry_space_group_name_H-M "C M C 21"
_symmetry_group_IT_number 36
_symmetry_cell_setting 'orthorhombic'
loop_
_space_group_symop_operation_xyz
x,y,z
-x,-y,1/2+z
x,-y,1/2+z
-x,y,z
1/2+x,1/2+y,z
1/2-x,1/2-y,1/2+z
1/2+x,1/2-y,1/2+z
1/2-x,1/2+y,z
loop_
_atom_site_type_symbol
_atom_site_label
_atom_site_fract_x
_atom_site_fract_y
_atom_site_fract_z
Si Si1 0.604958 0.801680 0.556460
Si Si2 0.689322 0.979993 0.442367
Si Si3 0.689447 0.024239 0.648292
Si Si4 0.114121 0.482434 0.295058
Si Si5 0.395000 0.202963 0.534256
Si Si6 0.606919 0.536627 0.938553
Si Si7 0.606287 0.460532 0.151069
Si Si8 0.889636 0.208094 0.795651
O O1 0.500000 0.823791 0.526516
O O2 0.678064 0.857810 0.499155
O O3 0.607348 0.649275 0.587255
O O4 0.619468 0.903993 0.622773
O O5 0.794744 0.043163 0.444641
O O6 0.656029 0.924492 0.367213
O O7 0.619729 0.100545 0.468038
O O8 0.677774 0.146948 0.591874
O O9 0.794812 0.961251 0.645556
O O10 0.657576 0.078540 0.724026
O O11 0.153422 0.640435 0.294640
O O12 0.000000 0.471287 0.294291
O O13 0.500000 0.180667 0.564003
O O14 0.392524 0.355100 0.503063
O O15 0.500000 0.476700 0.934924
O O16 0.625714 0.620446 0.865965
O O17 0.500000 0.522485 0.153356
O O18 0.622138 0.377627 0.224287
O O19 0.000000 0.240603 0.798039
#
# Coordination Sequence:
#
# PCOD9351643 Si02
#       8
#     8   8   8   8   8   8   8   8
#     4  10  20  36  55  79 109 135 173 220 262 307
#     4  11  20  32  55  84 103 136 175 218 260 308
#     4  11  20  32  55  84 103 136 175 218 260 308
#     4  11  19  32  55  82 106 132 173 221 266 305
#     4  10  20  36  55  79 109 135 173 220 262 307
#     4  10  20  35  54  77 106 142 177 212 255 312
#     4  10  20  35  54  77 106 142 177 212 255 312
#     4   9  17  32  52  76 102 134 174 215 251 301
#
# _framework density 24.527474000000002
#
# number of rings (size 3 to 8) (size 9 to 14) (size 15 to 20)
#    0.000    1.750    2.500    4.500    0.000    0.000 
#    0.000    2.500    0.000    4.500    0.000    0.000 
#    0.000    0.000    0.000    0.000    0.000    0.000 
#
# Total GULP energy -178826.865452 kJ/mol
# GULP energy per Si atom -5588.339545 kJ/mol
# Density = 2.447165 g / cm^3
# Si number density = 24.527474 Si / 1000 Ang^3
#
#
#
# Elastic Constant Matrix: (Units=GPa)
#
#
# Indices 1 2 3 4 5 6 
#
# 1 171.5980 0.0390 20.3356 0.0000 0.0000 0.0000
# 2 0.0390 35.4488 -0.7911 0.0000 0.0000 0.0000
# 3 20.3356 -0.7911 133.6856 0.0000 0.0000 0.0000
# 4 0.0000 0.0000 0.0000 3.5241 0.0000 0.0000
# 5 0.0000 0.0000 0.0000 0.0000 26.8034 0.0000
# 6 0.0000 0.0000 0.0000 0.0000 0.0000 10.4676
#
#
#
# Elastic Compliance Matrix: (Units=1/GPa)
#
#
# Indices 1 2 3 4 5 6 
#
# 1 0.005935 -0.000027 -0.000903 0.000000 0.000000 0.000000
# 2 -0.000027 0.028214 0.000171 0.000000 0.000000 0.000000
# 3 -0.000903 0.000171 0.007619 0.000000 0.000000 0.000000
# 4 0.000000 0.000000 0.000000 0.283757 0.000000 0.000000
# 5 0.000000 0.000000 0.000000 0.000000 0.037309 0.000000
# 6 0.000000 0.000000 0.000000 0.000000 0.000000 0.095533
#
#
# Mechanical properties :
#
#
# Convention : Reuss Voigt Hill
#
# Bulk Modulus (GPa) = 24.84497 42.21106 33.52801
# Shear Modulus (GPa) = 10.56415 29.56896 20.06655
#
# Velocity S-wave (km/s) = 2.07760 3.47586 2.86339
# Velocity P-wave (km/s) = 3.98832 5.77546 4.96299
#
# Compressibility (1/GPa) = 0.04024959
#
# Stress axis : x y z
#
# Youngs Moduli (GPa) = 168.50395 35.44398 131.25778
#
# Poissons Ratio (x) = 0.00095 0.11851
# Poissons Ratio (y) = 0.00450 -0.02245
# Poissons Ratio (z) = 0.15214 -0.00606
#
# Static dielectric constant tensor:
#      x y z
#    x 1.923300 0.000000 0.000000 
#    y 0.000000 1.961540 0.000000 
#    z 0.000000 0.000000 3.557470 
# 
# From -- ./inp_files/14374.got.cif
#   From: 2010.05.17/outbox.cif.g08.bks.cpg/sg36_8_cif.got.tgz:14374.got - 2010.06.03 17:41:39.
