data_PCOD9351581
_publ_section_title
;
Structure prediction by ZEFSAII (Michael W. Deem and Ramdas Pophale) SiO2 
 PCOD9351581
Probable space group: C M C 21
;
_chemical_formula_sum "Si O2"
_cell_formula_units_Z 48
_cell_length_a 11.307336
_cell_length_b 15.699477
_cell_length_c 12.734948
_cell_angle_alpha 90.000000
_cell_angle_beta 90.000000
_cell_angle_gamma 90.000000
_cell_volume 2260.698564
_symmetry_space_group_name_H-M "C M C 21"
_symmetry_group_IT_number 36
_symmetry_cell_setting 'orthorhombic'
loop_
_space_group_symop_operation_xyz
x,y,z
-x,-y,1/2+z
x,-y,1/2+z
-x,y,z
1/2+x,1/2+y,z
1/2-x,1/2-y,1/2+z
1/2+x,1/2-y,1/2+z
1/2-x,1/2+y,z
loop_
_atom_site_type_symbol
_atom_site_label
_atom_site_fract_x
_atom_site_fract_y
_atom_site_fract_z
Si Si1 0.867514 0.734077 0.909210
Si Si2 0.865742 0.663014 0.472740
Si Si3 0.233641 0.020469 0.358908
Si Si4 0.629962 0.936106 0.183024
Si Si5 0.713282 0.914613 0.540393
Si Si6 0.131058 0.164447 0.215708
O O1 0.747883 0.778884 0.950350
O O2 0.861025 0.641305 0.959425
O O3 0.855933 0.749992 0.784412
O O4 0.000000 0.768964 0.935458
O O5 0.842581 0.580517 0.397975
O O6 0.855625 0.634749 0.593711
O O7 0.000000 0.695062 0.454483
O O8 0.272887 0.952374 0.271599
O O9 0.147777 0.087406 0.301009
O O10 0.199948 0.971426 0.466013
O O11 0.500000 0.928060 0.230891
O O12 0.638216 0.021903 0.112032
O O13 0.779043 0.853990 0.623002
O O14 0.000000 0.162128 0.171613
#
# Coordination Sequence:
#
# PCOD9351581 Si02
#       6
#     8   8   8   8   8   8
#     4  10  21  37  56  80 114 152 187 227 279 335
#     4   9  18  33  53  78 109 145 185 230 280 333
#     4   9  18  33  54  80 107 139 184 237 283 327
#     4   9  17  31  53  79 104 135 182 236 282 326
#     4  10  20  34  55  82 110 143 187 232 274 326
#     4   9  20  38  57  79 112 152 187 226 282 341
#
# _framework density 21.232374
#
# number of rings (size 3 to 8) (size 9 to 14) (size 15 to 20)
#    0.000    2.667    0.000    1.000    0.000    4.667 
#    0.000   12.500    0.000    2.000    0.000    0.000 
#    0.000    0.000    0.000    0.000    0.000    0.000 
#
# Total GULP energy -133666.046257 kJ/mol
# GULP energy per Si atom -5569.418594 kJ/mol
# Density = 2.118405 g / cm^3
# Si number density = 21.232374 Si / 1000 Ang^3
#
#
#
# Elastic Constant Matrix: (Units=GPa)
#
#
# Indices 1 2 3 4 5 6 
#
# 1 96.3349 24.2777 26.4655 0.0000 0.0000 0.0000
# 2 24.2777 30.9105 25.6347 0.0000 0.0000 0.0000
# 3 26.4655 25.6347 86.9653 0.0000 0.0000 0.0000
# 4 0.0000 0.0000 0.0000 53.4798 0.0000 0.0000
# 5 0.0000 0.0000 0.0000 0.0000 13.2161 0.0000
# 6 0.0000 0.0000 0.0000 0.0000 0.0000 10.4052
#
#
#
# Elastic Compliance Matrix: (Units=1/GPa)
#
#
# Indices 1 2 3 4 5 6 
#
# 1 0.013045 -0.009203 -0.001257 0.000000 0.000000 0.000000
# 2 -0.009203 0.049312 -0.011735 0.000000 0.000000 0.000000
# 3 -0.001257 -0.011735 0.015340 0.000000 0.000000 0.000000
# 4 0.000000 0.000000 0.000000 0.018699 0.000000 0.000000
# 5 0.000000 0.000000 0.000000 0.000000 0.075665 0.000000
# 6 0.000000 0.000000 0.000000 0.000000 0.000000 0.096106
#
#
# Mechanical properties :
#
#
# Convention : Reuss Voigt Hill
#
# Bulk Modulus (GPa) = 30.02378 40.77409 35.39894
# Shear Modulus (GPa) = 15.44827 24.60905 20.02866
#
# Velocity S-wave (km/s) = 2.70030 3.40815 3.07466
# Velocity P-wave (km/s) = 4.88809 5.89345 5.41416
#
# Compressibility (1/GPa) = 0.03330693
#
# Stress axis : x y z
#
# Youngs Moduli (GPa) = 76.65658 20.27905 65.18711
#
# Poissons Ratio (x) = 0.18664 0.08194
# Poissons Ratio (y) = 0.70551 0.76496
# Poissons Ratio (z) = 0.09636 0.23797
#
# Static dielectric constant tensor:
#      x y z
#    x 1.726430 0.000000 0.000000 
#    y 0.000000 1.865940 0.000000 
#    z 0.000000 0.000000 1.769520 
# 
# From -- ./inp_files/7685.got.cif
#   From: 2010.05.17/outbox.cif.g08.bks.cpg/sg36_4_cif.got.tgz:7685.got - 2010.06.03 17:41:39.
