data_PCOD9351633
_publ_section_title
;
Structure prediction by ZEFSAII (Michael W. Deem and Ramdas Pophale) SiO2 
 PCOD9351633
Probable space group: C M C 21
;
_chemical_formula_sum "Si O2"
_cell_formula_units_Z 64
_cell_length_a 8.178137
_cell_length_b 14.545676
_cell_length_c 29.238828
_cell_angle_alpha 90.000000
_cell_angle_beta 90.000000
_cell_angle_gamma 90.000000
_cell_volume 3478.149552
_symmetry_space_group_name_H-M "C M C 21"
_symmetry_group_IT_number 36
_symmetry_cell_setting 'orthorhombic'
loop_
_space_group_symop_operation_xyz
x,y,z
-x,-y,1/2+z
x,-y,1/2+z
-x,y,z
1/2+x,1/2+y,z
1/2-x,1/2-y,1/2+z
1/2+x,1/2-y,1/2+z
1/2-x,1/2+y,z
loop_
_atom_site_type_symbol
_atom_site_label
_atom_site_fract_x
_atom_site_fract_y
_atom_site_fract_z
Si Si1 0.302571 0.503346 0.106810
Si Si2 0.302604 0.358894 0.030670
Si Si3 0.802458 0.650075 0.036263
Si Si4 0.193435 0.520284 0.856162
Si Si5 0.800519 0.987925 0.210701
Si Si6 0.193352 0.163854 0.781605
Si Si7 0.806518 0.128778 0.287933
Si Si8 0.302563 0.994569 0.460053
O O1 0.500000 0.500329 0.107722
O O2 0.245282 0.420987 0.073496
O O3 0.251059 0.597107 0.081905
O O4 0.242715 0.493973 0.158678
O O5 0.500000 0.357409 0.032079
O O6 0.243283 0.254493 0.033389
O O7 0.251186 0.411960 0.984874
O O8 0.000000 0.651188 0.035320
O O9 0.746307 0.588087 0.993301
O O10 0.274345 0.599812 0.825636
O O11 0.223477 0.424272 0.830026
O O12 0.255385 0.515650 0.908122
O O13 0.000000 0.538832 0.857074
O O14 0.752518 0.075203 0.241841
O O15 0.000000 0.986213 0.209763
O O16 0.747245 0.896968 0.238356
O O17 0.272198 0.263551 0.785724
O O18 0.000000 0.177170 0.776601
O O19 0.000000 0.113273 0.292677
O O20 0.500000 0.993219 0.459317
#
# Coordination Sequence:
#
# PCOD9351633 Si02
#       8
#     8   8   8   8   8   8   8   8
#     4   9  17  32  51  72  98 131 168 205 243 291
#     4   9  18  31  50  73  99 131 166 202 246 296
#     4   9  18  33  49  71 101 130 162 204 250 297
#     4  10  20  35  53  75 102 135 172 212 255 303
#     4   8  17  33  51  71 100 133 166 205 251 298
#     4  10  20  35  54  77 104 135 168 209 256 306
#     4  10  20  35  53  74 101 135 171 213 258 302
#     4   9  19  34  51  71  99 130 163 204 249 295
#
# _framework density 18.400589
#
# number of rings (size 3 to 8) (size 9 to 14) (size 15 to 20)
#    0.000    2.750    0.000    1.875    0.000    3.500 
#    0.000    6.250    0.000    0.000    0.000    0.000 
#    0.000    0.000    0.000    0.000    0.000    0.000 
#
# Total GULP energy -178460.238400 kJ/mol
# GULP energy per Si atom -5576.882450 kJ/mol
# Density = 1.835871 g / cm^3
# Si number density = 18.400589 Si / 1000 Ang^3
#
#
#
# Elastic Constant Matrix: (Units=GPa)
#
#
# Indices 1 2 3 4 5 6 
#
# 1 8.9074 -4.1710 0.4951 0.0000 0.0000 0.0000
# 2 -4.1710 122.9905 42.5691 0.0000 0.0000 0.0000
# 3 0.4951 42.5691 138.8697 0.0000 0.0000 0.0000
# 4 0.0000 0.0000 0.0000 7.3043 0.0000 0.0000
# 5 0.0000 0.0000 0.0000 0.0000 20.9361 0.0000
# 6 0.0000 0.0000 0.0000 0.0000 0.0000 9.8995
#
#
#
# Elastic Compliance Matrix: (Units=1/GPa)
#
#
# Indices 1 2 3 4 5 6 
#
# 1 0.114473 0.004501 -0.001788 0.000000 0.000000 0.000000
# 2 0.004501 0.009273 -0.002859 0.000000 0.000000 0.000000
# 3 -0.001788 -0.002859 0.008084 0.000000 0.000000 0.000000
# 4 0.000000 0.000000 0.000000 0.136906 0.000000 0.000000
# 5 0.000000 0.000000 0.000000 0.000000 0.047764 0.000000
# 6 0.000000 0.000000 0.000000 0.000000 0.000000 0.101015
#
#
# Mechanical properties :
#
#
# Convention : Reuss Voigt Hill
#
# Bulk Modulus (GPa) = 7.60231 38.72821 23.16526
# Shear Modulus (GPa) = 10.83067 23.08627 16.95847
#
# Velocity S-wave (km/s) = 2.42875 3.54594 3.03912
# Velocity P-wave (km/s) = 3.46491 6.15288 4.99317
#
# Compressibility (1/GPa) = 0.13153900
#
# Stress axis : x y z
#
# Youngs Moduli (GPa) = 8.73565 107.84307 123.70700
#
# Poissons Ratio (x) = -0.48540 0.22117
# Poissons Ratio (y) = -0.03932 0.35362
# Poissons Ratio (z) = 0.01562 0.30827
#
# Static dielectric constant tensor:
#      x y z
#    x 1.642130 0.000000 0.000000 
#    y 0.000000 1.609710 0.000000 
#    z 0.000000 0.000000 1.626930 
# 
# From -- ./inp_files/17344.got.cif
#   From: 2010.05.17/outbox.cif.g08.bks.cpg/sg36_9_cif.got.tgz:17344.got - 2010.06.03 17:41:39.
