data_PCOD9351923
_publ_section_title
;
Structure prediction by ZEFSAII (Michael W. Deem and Ramdas Pophale) SiO2 
 PCOD9351923
Probable space group: C M C 21
;
_chemical_formula_sum "Si O2"
_cell_formula_units_Z 48
_cell_length_a 21.038153
_cell_length_b 7.930510
_cell_length_c 12.591477
_cell_angle_alpha 90.000000
_cell_angle_beta 90.000000
_cell_angle_gamma 90.000000
_cell_volume 2100.803357
_symmetry_space_group_name_H-M "C M C 21"
_symmetry_group_IT_number 36
_symmetry_cell_setting 'orthorhombic'
loop_
_space_group_symop_operation_xyz
x,y,z
-x,-y,1/2+z
x,-y,1/2+z
-x,y,z
1/2+x,1/2+y,z
1/2-x,1/2-y,1/2+z
1/2+x,1/2-y,1/2+z
1/2-x,1/2+y,z
loop_
_atom_site_type_symbol
_atom_site_label
_atom_site_fract_x
_atom_site_fract_y
_atom_site_fract_z
Si Si1 0.267660 0.480998 0.623460
Si Si2 0.428121 0.279100 0.543291
Si Si3 0.316372 0.560141 0.913717
Si Si4 0.073842 0.468095 0.856793
Si Si5 0.670178 0.788230 0.732754
Si Si6 0.356391 0.266193 0.753077
O O1 0.261671 0.481820 0.497387
O O2 0.314991 0.633933 0.653686
O O3 0.200864 0.457078 0.683932
O O4 0.299887 0.306247 0.666940
O O5 0.500000 0.336873 0.524538
O O6 0.376526 0.397082 0.487223
O O7 0.420692 0.105368 0.476130
O O8 0.414289 0.269428 0.668177
O O9 0.297407 0.720168 0.841409
O O10 0.339767 0.418991 0.832884
O O11 0.098985 0.325693 0.772727
O O12 0.122595 0.617899 0.832439
O O13 0.000000 0.509156 0.838755
#
# Coordination Sequence:
#
# PCOD9351923 Si02
#       6
#     8   8   8   8   8   8
#     4  10  21  38  61  91 123 163 214 264 320 384
#     4   9  19  36  57  84 121 165 213 261 308 369
#     4   9  21  38  58  89 124 160 208 262 319 381
#     4  10  21  38  62  92 128 172 219 264 314 378
#     4  10  21  39  61  88 125 164 205 261 323 375
#     4  10  20  37  59  86 122 164 207 258 318 373
#
# _framework density 22.848400999999999
#
# number of rings (size 3 to 8) (size 9 to 14) (size 15 to 20)
#    0.000    2.333    0.000    1.500    0.000    5.333 
#    0.000   17.500    0.000    0.000    0.000    0.000 
#    0.000    0.000    0.000    0.000    0.000    0.000 
#
# Total GULP energy -133605.629476 kJ/mol
# GULP energy per Si atom -5566.901228 kJ/mol
# Density = 2.279640 g / cm^3
# Si number density = 22.848401 Si / 1000 Ang^3
#
#
#
# Elastic Constant Matrix: (Units=GPa)
#
#
# Indices 1 2 3 4 5 6 
#
# 1 55.8671 12.5366 26.5423 0.0000 0.0000 0.0000
# 2 12.5366 79.4242 32.4281 0.0000 0.0000 0.0000
# 3 26.5423 32.4281 147.3300 0.0000 0.0000 0.0000
# 4 0.0000 0.0000 0.0000 27.3507 0.0000 0.0000
# 5 0.0000 0.0000 0.0000 0.0000 35.2966 0.0000
# 6 0.0000 0.0000 0.0000 0.0000 0.0000 19.1411
#
#
#
# Elastic Compliance Matrix: (Units=1/GPa)
#
#
# Indices 1 2 3 4 5 6 
#
# 1 0.019816 -0.001835 -0.003166 0.000000 0.000000 0.000000
# 2 -0.001835 0.014004 -0.002752 0.000000 0.000000 0.000000
# 3 -0.003166 -0.002752 0.007964 0.000000 0.000000 0.000000
# 4 0.000000 0.000000 0.000000 0.036562 0.000000 0.000000
# 5 0.000000 0.000000 0.000000 0.000000 0.028331 0.000000
# 6 0.000000 0.000000 0.000000 0.000000 0.000000 0.052243
#
#
# Mechanical properties :
#
#
# Convention : Reuss Voigt Hill
#
# Bulk Modulus (GPa) = 38.05571 47.29282 42.67426
# Shear Modulus (GPa) = 27.29489 30.43197 28.86343
#
# Velocity S-wave (km/s) = 3.46006 3.65349 3.55809
# Velocity P-wave (km/s) = 5.71442 6.20812 5.96638
#
# Compressibility (1/GPa) = 0.02627727
#
# Stress axis : x y z
#
# Youngs Moduli (GPa) = 50.46542 71.40935 125.57283
#
# Poissons Ratio (x) = 0.13105 0.39756
# Poissons Ratio (y) = 0.09261 0.34554
# Poissons Ratio (z) = 0.15977 0.19650
#
# Static dielectric constant tensor:
#      x y z
#    x 1.930860 0.000000 0.000000 
#    y 0.000000 1.962290 0.000000 
#    z 0.000000 0.000000 1.888580 
# 
# From -- ./inp_files/9414.got.cif
#   From: 2010.05.17/outbox.cif.g08.bks.cpg/sg36_5_cif.got.tgz:9414.got - 2010.06.03 17:41:39.
