data_PCOD9351935
_publ_section_title
;
Structure prediction by ZEFSAII (Michael W. Deem and Ramdas Pophale) SiO2 
 PCOD9351935
Probable space group: C M C 21
;
_chemical_formula_sum "Si O2"
_cell_formula_units_Z 40
_cell_length_a 7.506584
_cell_length_b 27.607042
_cell_length_c 7.860295
_cell_angle_alpha 90.000000
_cell_angle_beta 90.000000
_cell_angle_gamma 90.000000
_cell_volume 1628.924931
_symmetry_space_group_name_H-M "C M C 21"
_symmetry_group_IT_number 36
_symmetry_cell_setting 'orthorhombic'
loop_
_space_group_symop_operation_xyz
x,y,z
-x,-y,1/2+z
x,-y,1/2+z
-x,y,z
1/2+x,1/2+y,z
1/2-x,1/2-y,1/2+z
1/2+x,1/2-y,1/2+z
1/2-x,1/2+y,z
loop_
_atom_site_type_symbol
_atom_site_label
_atom_site_fract_x
_atom_site_fract_y
_atom_site_fract_z
Si Si1 0.298132 0.081304 0.771580
Si Si2 0.205107 0.325514 0.079103
Si Si3 0.500000 0.579668 0.309026
Si Si4 0.717220 0.733305 0.916616
Si Si5 0.294731 0.360291 0.592030
Si Si6 0.000000 0.016865 0.650412
O O1 0.500000 0.070078 0.722156
O O2 0.221573 0.123955 0.649102
O O3 0.173153 0.035611 0.750509
O O4 0.300203 0.104452 0.959451
O O5 0.209433 0.291831 0.248567
O O6 0.287672 0.287430 0.947800
O O7 0.000000 0.334958 0.030641
O O8 0.672526 0.614264 0.274538
O O9 0.500000 0.545530 0.471931
O O10 0.500000 0.540891 0.153233
O O11 0.500000 0.736706 0.909169
O O12 0.770184 0.694442 0.064739
O O13 0.500000 0.358268 0.528397
#
# Coordination Sequence:
#
# PCOD9351935 Si02
#       6
#     8   8   4   8   8   4
#     4  10  20  37  60  85 118 155 194 239 291 349
#     4   9  19  32  48  79 112 144 188 232 273 337
#     4  10  22  38  64  88 116 148 196 246 291 358
#     4   9  17  31  51  73 110 143 183 229 273 331
#     4   8  16  36  59  82 110 149 192 236 290 340
#     4  12  22  40  62  86 118 152 190 246 297 350
#
# _framework density 24.556072
#
# number of rings (size 3 to 8) (size 9 to 14) (size 15 to 20)
#    0.600    2.000    1.000    1.200    1.400    2.400 
#    0.000    5.000    0.000    0.000    0.000    0.000 
#    0.000    0.000    0.000    0.000    0.000    0.000 
#
# Total GULP energy -111536.079371 kJ/mol
# GULP energy per Si atom -5576.803969 kJ/mol
# Density = 2.450018 g / cm^3
# Si number density = 24.556072 Si / 1000 Ang^3
#
#
#
# Elastic Constant Matrix: (Units=GPa)
#
#
# Indices 1 2 3 4 5 6 
#
# 1 90.3534 15.0039 -14.3416 0.0000 0.0000 0.0000
# 2 15.0039 119.7167 -12.0368 0.0000 0.0000 0.0000
# 3 -14.3416 -12.0368 67.3536 0.0000 0.0000 0.0000
# 4 0.0000 0.0000 0.0000 41.7904 0.0000 0.0000
# 5 0.0000 0.0000 0.0000 0.0000 6.4881 0.0000
# 6 0.0000 0.0000 0.0000 0.0000 0.0000 8.8898
#
#
#
# Elastic Compliance Matrix: (Units=1/GPa)
#
#
# Indices 1 2 3 4 5 6 
#
# 1 0.011630 -0.001231 0.002256 0.000000 0.000000 0.000000
# 2 -0.001231 0.008636 0.001281 0.000000 0.000000 0.000000
# 3 0.002256 0.001281 0.015556 0.000000 0.000000 0.000000
# 4 0.000000 0.000000 0.000000 0.023929 0.000000 0.000000
# 5 0.000000 0.000000 0.000000 0.000000 0.154128 0.000000
# 6 0.000000 0.000000 0.000000 0.000000 0.000000 0.112488
#
#
# Mechanical properties :
#
#
# Convention : Reuss Voigt Hill
#
# Bulk Modulus (GPa) = 24.72989 28.29719 26.51354
# Shear Modulus (GPa) = 14.91502 30.68690 22.80096
#
# Velocity S-wave (km/s) = 2.46719 3.53890 3.05048
# Velocity P-wave (km/s) = 4.26717 5.31478 4.81952
#
# Compressibility (1/GPa) = 0.04043689
#
# Stress axis : x y z
#
# Youngs Moduli (GPa) = 85.98319 115.79266 64.28198
#
# Poissons Ratio (x) = 0.14251 -0.14505
# Poissons Ratio (y) = 0.10582 -0.08237
# Poissons Ratio (z) = -0.19402 -0.14837
#
# Static dielectric constant tensor:
#      x y z
#    x 1.928920 0.000000 0.000000 
#    y 0.000000 1.911940 0.000000 
#    z 0.000000 0.000000 2.073950 
# 
# From -- ./inp_files/2569.got.cif
#   From: 2010.05.17/outbox.cif.g08.bks.cpg/sg36_2_cif.got.tgz:2569.got - 2010.06.03 17:41:39.
