data_PCOD9351890
_publ_section_title
;
Structure prediction by ZEFSAII (Michael W. Deem and Ramdas Pophale) SiO2 
 PCOD9351890
Probable space group: C M C 21
;
_chemical_formula_sum "Si O2"
_cell_formula_units_Z 36
_cell_length_a 16.017711
_cell_length_b 11.553660
_cell_length_c 7.801364
_cell_angle_alpha 90.000000
_cell_angle_beta 90.000000
_cell_angle_gamma 90.000000
_cell_volume 1443.745284
_symmetry_space_group_name_H-M "C M C 21"
_symmetry_group_IT_number 36
_symmetry_cell_setting 'orthorhombic'
loop_
_space_group_symop_operation_xyz
x,y,z
-x,-y,1/2+z
x,-y,1/2+z
-x,y,z
1/2+x,1/2+y,z
1/2-x,1/2-y,1/2+z
1/2+x,1/2-y,1/2+z
1/2-x,1/2+y,z
loop_
_atom_site_type_symbol
_atom_site_label
_atom_site_fract_x
_atom_site_fract_y
_atom_site_fract_z
Si Si1 0.413104 0.184365 0.478450
Si Si2 0.872772 0.637123 0.843422
Si Si3 0.000000 0.413352 0.654538
Si Si4 0.181598 0.885594 0.350806
Si Si5 0.100361 0.119774 0.482691
O O1 0.500000 0.257216 0.486231
O O2 0.411180 0.113633 0.655130
O O3 0.428516 0.108443 0.310057
O O4 0.336924 0.270587 0.460433
O O5 0.779448 0.590238 0.850346
O O6 0.872729 0.777917 0.855425
O O7 0.928714 0.603065 0.003232
O O8 0.131214 0.995772 0.418805
O O9 0.144848 0.858508 0.163753
O O10 0.000000 0.124063 0.502996
#
# Coordination Sequence:
#
# PCOD9351890 Si02
#       5
#     8   8   4   8   8
#     4  10  20  36  63  98 132 173 225 277 347 404
#     4  12  22  43  69 105 137 181 229 294 342 409
#     4  10  20  42  66 100 130 184 228 286 338 432
#     4  12  25  39  66 107 142 180 233 290 346 409
#     4  12  23  44  69 102 145 181 228 288 348 414
#
# _framework density 24.935147000000001
#
# number of rings (size 3 to 8) (size 9 to 14) (size 15 to 20)
#    0.667    0.000    4.444    4.667    0.000    0.000 
#    4.000    0.000    0.000    1.333    8.667    0.000 
#    0.000    0.000    0.000    0.000    0.000    0.000 
#
# Total GULP energy -100339.374105 kJ/mol
# GULP energy per Si atom -5574.409672 kJ/mol
# Density = 2.487839 g / cm^3
# Si number density = 24.935147 Si / 1000 Ang^3
#
#
#
# Elastic Constant Matrix: (Units=GPa)
#
#
# Indices 1 2 3 4 5 6 
#
# 1 164.3403 7.4553 45.4493 0.0000 0.0000 0.0000
# 2 7.4553 84.8839 39.9782 0.0000 0.0000 0.0000
# 3 45.4493 39.9782 235.2320 0.0000 0.0000 0.0000
# 4 0.0000 0.0000 0.0000 49.4010 0.0000 0.0000
# 5 0.0000 0.0000 0.0000 0.0000 -13.5662 0.0000
# 6 0.0000 0.0000 0.0000 0.0000 0.0000 47.4599
#
#
#
# Elastic Compliance Matrix: (Units=1/GPa)
#
#
# Indices 1 2 3 4 5 6 
#
# 1 0.006428 0.000022 -0.001246 0.000000 0.000000 0.000000
# 2 0.000022 0.012806 -0.002181 0.000000 0.000000 0.000000
# 3 -0.001246 -0.002181 0.004862 0.000000 0.000000 0.000000
# 4 0.000000 0.000000 0.000000 0.020242 0.000000 0.000000
# 5 0.000000 0.000000 0.000000 0.000000 -0.073713 0.000000
# 6 0.000000 0.000000 0.000000 0.000000 0.000000 0.021070
#
#
# Mechanical properties :
#
#
# Convention : Reuss Voigt Hill
#
# Bulk Modulus (GPa) = 57.84323 74.46910 66.15617
# Shear Modulus (GPa) = 1171.36541 42.76384 607.06463
#
# Velocity S-wave (km/s) = 21.69757 4.14575 15.62005
# Velocity P-wave (km/s) = 25.51393 7.26955 18.75909
#
# Compressibility (1/GPa) = 0.01728811
#
# Stress axis : x y z
#
# Youngs Moduli (GPa) = 155.55805 78.08909 205.65830
#
# Poissons Ratio (x) = -0.00173 0.25621
# Poissons Ratio (y) = -0.00344 0.44847
# Poissons Ratio (z) = 0.19380 0.17029
#
# Static dielectric constant tensor:
#      x y z
#    x 2.065650 0.000000 0.000000 
#    y 0.000000 2.111520 0.000000 
#    z 0.000000 0.000000 1.968890 
# 
# From -- ./inp_files/3764.got.cif
#   From: 2010.05.17/outbox.cif.g08.bks.cpg/sg36_2_cif.got.tgz:3764.got - 2010.06.03 17:41:39.
