data_PCOD9351435
_publ_section_title
;
Structure prediction by ZEFSAII (Michael W. Deem and Ramdas Pophale) SiO2 
 PCOD9351435
Probable space group: C M C 21
;
_chemical_formula_sum "Si O2"
_cell_formula_units_Z 60
_cell_length_a 20.390354
_cell_length_b 11.080996
_cell_length_c 11.523953
_cell_angle_alpha 90.000000
_cell_angle_beta 90.000000
_cell_angle_gamma 90.000000
_cell_volume 2603.784529
_symmetry_space_group_name_H-M "C M C 21"
_symmetry_group_IT_number 36
_symmetry_cell_setting 'orthorhombic'
loop_
_space_group_symop_operation_xyz
x,y,z
-x,-y,1/2+z
x,-y,1/2+z
-x,y,z
1/2+x,1/2+y,z
1/2-x,1/2-y,1/2+z
1/2+x,1/2-y,1/2+z
1/2-x,1/2+y,z
loop_
_atom_site_type_symbol
_atom_site_label
_atom_site_fract_x
_atom_site_fract_y
_atom_site_fract_z
Si Si1 0.776004 0.684961 0.656680
Si Si2 0.923854 0.329514 0.730480
Si Si3 0.239283 0.937901 0.372702
Si Si4 0.500000 0.393940 0.517025
Si Si5 0.569469 0.542369 0.709863
Si Si6 0.843116 0.322033 0.529924
Si Si7 0.157453 0.144939 0.347731
Si Si8 0.868768 0.738771 0.452733
O O1 0.752865 0.571204 0.734265
O O2 0.712533 0.751106 0.603696
O O3 0.807496 0.770887 0.754903
O O4 0.833099 0.677584 0.561460
O O5 0.891638 0.386372 0.617598
O O6 0.883533 0.351055 0.846720
O O7 0.000000 0.357569 0.742391
O O8 0.916543 0.183808 0.706648
O O9 0.302973 0.907283 0.445361
O O10 0.183590 0.839492 0.407578
O O11 0.213465 0.067619 0.409773
O O12 0.555502 0.482916 0.585205
O O13 0.439405 0.302018 0.478504
O O14 0.500000 0.535103 0.780211
O O15 0.616134 0.454825 0.780203
O O16 0.877894 0.226170 0.443406
#
# Coordination Sequence:
#
# PCOD9351435 Si02
#       8
#     8   8   8   4   8   8   8   8
#     4  10  20  37  53  79 112 145 193 240 276 328
#     4  11  21  34  51  80 116 155 185 222 283 352
#     4  10  22  36  56  78 111 149 198 237 273 337
#     4  10  20  30  50  80 116 154 186 220 264 364
#     4   9  19  31  47  80 113 150 185 209 264 352
#     4  10  23  35  53  82 116 147 192 234 279 331
#     4  11  20  35  58  78 113 160 180 234 284 328
#     4  11  19  32  53  75 115 155 186 221 272 342
#
# _framework density 23.043379999999999
#
# number of rings (size 3 to 8) (size 9 to 14) (size 15 to 20)
#    0.400    1.333    4.667    0.000    1.867    2.667 
#    0.000    0.000    0.000    0.000    0.000    0.933 
#   20.000    0.000    0.000    0.000    0.000    0.000 
#
# Total GULP energy -167122.805498 kJ/mol
# GULP energy per Si atom -5570.760183 kJ/mol
# Density = 2.299093 g / cm^3
# Si number density = 23.043380 Si / 1000 Ang^3
#
#
#
# Elastic Constant Matrix: (Units=GPa)
#
#
# Indices 1 2 3 4 5 6 
#
# 1 105.7292 16.1250 34.8295 0.0000 0.0000 0.0000
# 2 16.1250 24.5617 13.0995 0.0000 0.0000 0.0000
# 3 34.8295 13.0995 80.3222 0.0000 0.0000 0.0000
# 4 0.0000 0.0000 0.0000 14.2056 0.0000 0.0000
# 5 0.0000 0.0000 0.0000 0.0000 42.8570 0.0000
# 6 0.0000 0.0000 0.0000 0.0000 0.0000 21.3576
#
#
#
# Elastic Compliance Matrix: (Units=1/GPa)
#
#
# Indices 1 2 3 4 5 6 
#
# 1 0.011660 -0.005431 -0.004170 0.000000 0.000000 0.000000
# 2 -0.005431 0.047122 -0.005330 0.000000 0.000000 0.000000
# 3 -0.004170 -0.005330 0.015128 0.000000 0.000000 0.000000
# 4 0.000000 0.000000 0.000000 0.070395 0.000000 0.000000
# 5 0.000000 0.000000 0.000000 0.000000 0.023333 0.000000
# 6 0.000000 0.000000 0.000000 0.000000 0.000000 0.046822
#
#
# Mechanical properties :
#
#
# Convention : Reuss Voigt Hill
#
# Bulk Modulus (GPa) = 22.70304 37.63568 30.16936
# Shear Modulus (GPa) = 19.30470 25.45465 22.37968
#
# Velocity S-wave (km/s) = 2.89754 3.32722 3.11979
# Velocity P-wave (km/s) = 4.58999 5.57929 5.10865
#
# Compressibility (1/GPa) = 0.04404696
#
# Stress axis : x y z
#
# Youngs Moduli (GPa) = 85.76163 21.22159 66.10469
#
# Poissons Ratio (x) = 0.11525 0.27569
# Poissons Ratio (y) = 0.46576 0.35234
# Poissons Ratio (z) = 0.35766 0.11311
#
# Static dielectric constant tensor:
#      x y z
#    x 1.901530 0.000000 0.000000 
#    y 0.000000 1.911840 0.000000 
#    z 0.000000 0.000000 1.954780 
# 
# From -- ./inp_files/9265.got.cif
#   From: 2010.05.17/outbox.cif.g08.bks.cpg/sg36_5_cif.got.tgz:9265.got - 2010.06.03 17:41:39.
