data_PCOD9351337
_publ_section_title
;
Structure prediction by ZEFSAII (Michael W. Deem and Ramdas Pophale) SiO2 
 PCOD9351337
Probable space group: C M C 21
;
_chemical_formula_sum "Si O2"
_cell_formula_units_Z 64
_cell_length_a 7.942053
_cell_length_b 25.306270
_cell_length_c 14.489332
_cell_angle_alpha 90.000000
_cell_angle_beta 90.000000
_cell_angle_gamma 90.000000
_cell_volume 2912.120100
_symmetry_space_group_name_H-M "C M C 21"
_symmetry_group_IT_number 36
_symmetry_cell_setting 'orthorhombic'
loop_
_space_group_symop_operation_xyz
x,y,z
-x,-y,1/2+z
x,-y,1/2+z
-x,y,z
1/2+x,1/2+y,z
1/2-x,1/2-y,1/2+z
1/2+x,1/2-y,1/2+z
1/2-x,1/2+y,z
loop_
_atom_site_type_symbol
_atom_site_label
_atom_site_fract_x
_atom_site_fract_y
_atom_site_fract_z
Si Si1 0.299714 0.160518 0.066440
Si Si2 0.203318 0.079315 0.788334
Si Si3 0.199992 0.044101 0.099022
Si Si4 0.295494 0.571620 0.574011
Si Si5 0.795758 0.809960 0.371012
Si Si6 0.190080 0.867361 0.907674
Si Si7 0.810674 0.535836 0.308672
Si Si8 0.303642 0.787959 0.755637
O O1 0.500000 0.154896 0.075458
O O2 0.230244 0.100898 0.053555
O O3 0.231956 0.186674 0.161534
O O4 0.259242 0.195510 0.976962
O O5 0.249229 0.081028 0.680184
O O6 0.259867 0.132280 0.837825
O O7 0.000000 0.075991 0.793844
O O8 0.275411 0.025223 0.827972
O O9 0.287067 0.044645 0.199144
O O10 0.000000 0.038636 0.114726
O O11 0.255376 0.989047 0.051116
O O12 0.500000 0.573949 0.566760
O O13 0.233273 0.617645 0.506643
O O14 0.732246 0.765732 0.299663
O O15 0.000000 0.808466 0.369590
O O16 0.186812 0.924750 0.859628
O O17 0.288706 0.830002 0.838350
O O18 0.000000 0.846241 0.916763
O O19 0.000000 0.550159 0.334999
O O20 0.500000 0.777653 0.735440
#
# Coordination Sequence:
#
# PCOD9351337 Si02
#       8
#     8   8   8   8   8   8   8   8
#     4  11  23  39  61  90 123 156 197 253 310 361
#     4   9  19  39  61  83 115 157 203 250 299 362
#     4  10  19  36  60  86 118 159 204 247 297 362
#     4   8  18  34  56  87 119 153 200 249 294 353
#     4  10  23  42  65  88 116 160 209 251 304 367
#     4  11  21  35  59  89 118 158 205 248 296 361
#     4  11  21  34  54  85 123 158 193 246 307 359
#     4  10  23  43  62  86 122 161 201 252 307 357
#
# _framework density 21.977115000000001
#
# number of rings (size 3 to 8) (size 9 to 14) (size 15 to 20)
#    0.000    2.000    1.250    3.000    1.750    2.500 
#    0.000    8.125    0.000    0.000    0.000    0.000 
#    0.000    0.000    0.000    0.000    0.000    0.000 
#
# Total GULP energy -178694.933361 kJ/mol
# GULP energy per Si atom -5584.216668 kJ/mol
# Density = 2.192709 g / cm^3
# Si number density = 21.977115 Si / 1000 Ang^3
#
#
#
# Elastic Constant Matrix: (Units=GPa)
#
#
# Indices 1 2 3 4 5 6 
#
# 1 42.0346 0.4399 -3.7735 0.0000 0.0000 0.0000
# 2 0.4399 85.9154 23.1489 0.0000 0.0000 0.0000
# 3 -3.7735 23.1489 69.8563 0.0000 0.0000 0.0000
# 4 0.0000 0.0000 0.0000 23.2889 0.0000 0.0000
# 5 0.0000 0.0000 0.0000 0.0000 11.2261 0.0000
# 6 0.0000 0.0000 0.0000 0.0000 0.0000 15.2781
#
#
#
# Elastic Compliance Matrix: (Units=1/GPa)
#
#
# Indices 1 2 3 4 5 6 
#
# 1 0.023927 -0.000517 0.001464 0.000000 0.000000 0.000000
# 2 -0.000517 0.012792 -0.004267 0.000000 0.000000 0.000000
# 3 0.001464 -0.004267 0.015808 0.000000 0.000000 0.000000
# 4 0.000000 0.000000 0.000000 0.042939 0.000000 0.000000
# 5 0.000000 0.000000 0.000000 0.000000 0.089078 0.000000
# 6 0.000000 0.000000 0.000000 0.000000 0.000000 0.065453
#
#
# Mechanical properties :
#
#
# Convention : Reuss Voigt Hill
#
# Bulk Modulus (GPa) = 21.79285 26.38188 24.08737
# Shear Modulus (GPa) = 18.38693 21.82468 20.10580
#
# Velocity S-wave (km/s) = 2.89561 3.15471 3.02793
# Velocity P-wave (km/s) = 4.59533 5.02990 4.81752
#
# Compressibility (1/GPa) = 0.04588660
#
# Stress axis : x y z
#
# Youngs Moduli (GPa) = 41.79427 78.17600 63.25871
#
# Poissons Ratio (x) = 0.04041 -0.09260
# Poissons Ratio (y) = 0.02160 0.26991
# Poissons Ratio (z) = -0.06118 0.33356
#
# Static dielectric constant tensor:
#      x y z
#    x 1.803650 0.000000 0.000000 
#    y 0.000000 1.801750 0.000000 
#    z 0.000000 0.000000 1.831420 
# 
# From -- ./inp_files/10944.got.cif
#   From: 2010.05.17/outbox.cif.g08.bks.cpg/sg36_6_cif.got.tgz:10944.got - 2010.06.03 17:41:39.
