data_PCOD9351718
_publ_section_title
;
Structure prediction by ZEFSAII (Michael W. Deem and Ramdas Pophale) SiO2 
 PCOD9351718
Probable space group: C M C 21
;
_chemical_formula_sum "Si O2"
_cell_formula_units_Z 64
_cell_length_a 27.584380
_cell_length_b 5.645900
_cell_length_c 18.506103
_cell_angle_alpha 90.000000
_cell_angle_beta 90.000000
_cell_angle_gamma 90.000000
_cell_volume 2882.115517
_symmetry_space_group_name_H-M "C M C 21"
_symmetry_group_IT_number 36
_symmetry_cell_setting 'orthorhombic'
loop_
_space_group_symop_operation_xyz
x,y,z
-x,-y,1/2+z
x,-y,1/2+z
-x,y,z
1/2+x,1/2+y,z
1/2-x,1/2-y,1/2+z
1/2+x,1/2-y,1/2+z
1/2-x,1/2+y,z
loop_
_atom_site_type_symbol
_atom_site_label
_atom_site_fract_x
_atom_site_fract_y
_atom_site_fract_z
Si Si1 0.362157 0.248483 0.678770
Si Si2 0.727302 0.669966 0.430626
Si Si3 0.861392 0.888304 0.424759
Si Si4 0.889542 0.527606 0.307846
Si Si5 0.093633 0.631674 0.074105
Si Si6 0.557005 0.730094 0.425586
Si Si7 0.054063 0.879737 0.207254
Si Si8 0.316687 0.502770 0.562150
O O1 0.402592 0.431837 0.706388
O O2 0.316910 0.375685 0.639358
O O3 0.354201 0.079825 0.746959
O O4 0.388948 0.099382 0.616156
O O5 0.744664 0.928859 0.408028
O O6 0.672289 0.615890 0.405250
O O7 0.725097 0.643401 0.519137
O O8 0.861455 0.694217 0.363800
O O9 0.915349 0.981442 0.437536
O O10 0.834937 0.818719 0.499473
O O11 0.920002 0.339932 0.353886
O O12 0.929071 0.684822 0.264862
O O13 0.056337 0.760846 0.127995
O O14 0.140018 0.805485 0.068561
O O15 0.071790 0.608976 0.994540
O O16 0.500000 0.704331 0.420721
O O17 0.000000 0.970738 0.221925
#
# Coordination Sequence:
#
# PCOD9351718 Si02
#       8
#     8   8   8   8   8   8   8   8
#     4  10  20  35  58  80 115 166 207 253 319 379
#     4  10  23  40  72 104 127 167 213 276 343 404
#     4   9  22  38  60  88 129 159 212 270 323 388
#     4  11  22  35  55  82 122 175 213 260 313 383
#     4   9  19  36  58  83 115 157 202 267 316 370
#     4  11  22  36  58  88 125 170 217 265 318 378
#     4  10  21  36  50  80 118 164 219 263 311 376
#     4   8  19  36  61  89 120 150 199 262 319 386
#
# _framework density 22.205911
#
# number of rings (size 3 to 8) (size 9 to 14) (size 15 to 20)
#    0.750    1.500    0.000    2.250    3.500    5.000 
#    0.000    0.000    0.000    1.500    0.000    0.000 
#    0.000    0.000    0.000    0.000    0.000    0.000 
#
# Total GULP energy -178413.673439 kJ/mol
# GULP energy per Si atom -5575.427295 kJ/mol
# Density = 2.215537 g / cm^3
# Si number density = 22.205911 Si / 1000 Ang^3
#
#
#
# Elastic Constant Matrix: (Units=GPa)
#
#
# Indices 1 2 3 4 5 6 
#
# 1 54.6423 16.2533 6.7777 0.0000 0.0000 0.0000
# 2 16.2533 49.6425 23.2124 0.0000 0.0000 0.0000
# 3 6.7777 23.2124 105.1949 0.0000 0.0000 0.0000
# 4 0.0000 0.0000 0.0000 46.2648 0.0000 0.0000
# 5 0.0000 0.0000 0.0000 0.0000 12.6049 0.0000
# 6 0.0000 0.0000 0.0000 0.0000 0.0000 14.4489
#
#
#
# Elastic Compliance Matrix: (Units=1/GPa)
#
#
# Indices 1 2 3 4 5 6 
#
# 1 0.020278 -0.006722 0.000177 0.000000 0.000000 0.000000
# 2 -0.006722 0.024690 -0.005015 0.000000 0.000000 0.000000
# 3 0.000177 -0.005015 0.010601 0.000000 0.000000 0.000000
# 4 0.000000 0.000000 0.000000 0.021615 0.000000 0.000000
# 5 0.000000 0.000000 0.000000 0.000000 0.079334 0.000000
# 6 0.000000 0.000000 0.000000 0.000000 0.000000 0.069209
#
#
# Mechanical properties :
#
#
# Convention : Reuss Voigt Hill
#
# Bulk Modulus (GPa) = 30.81741 33.55185 32.18463
# Shear Modulus (GPa) = 19.25563 25.54614 22.40088
#
# Velocity S-wave (km/s) = 2.94792 3.39546 3.17958
# Velocity P-wave (km/s) = 5.04927 5.52399 5.29196
#
# Compressibility (1/GPa) = 0.03244919
#
# Stress axis : x y z
#
# Youngs Moduli (GPa) = 49.31363 40.50258 94.32729
#
# Poissons Ratio (x) = 0.27226 -0.01667
# Poissons Ratio (y) = 0.33148 0.47305
# Poissons Ratio (z) = -0.00871 0.20312
#
# Static dielectric constant tensor:
#      x y z
#    x 1.818240 0.000000 0.000000 
#    y 0.000000 1.879660 0.000000 
#    z 0.000000 0.000000 1.853600 
# 
# From -- ./inp_files/15201.got.cif
#   From: 2010.05.17/outbox.cif.g08.bks.cpg/sg36_8_cif.got.tgz:15201.got - 2010.06.03 17:41:39.
