data_PCOD9351990
_publ_section_title
;
Structure prediction by ZEFSAII (Michael W. Deem and Ramdas Pophale) SiO2 
 PCOD9351990
Probable space group: C M C 21
;
_chemical_formula_sum "Si O2"
_cell_formula_units_Z 64
_cell_length_a 31.741809
_cell_length_b 8.497048
_cell_length_c 10.521838
_cell_angle_alpha 90.000000
_cell_angle_beta 90.000000
_cell_angle_gamma 90.000000
_cell_volume 2837.862548
_symmetry_space_group_name_H-M "C M C 21"
_symmetry_group_IT_number 36
_symmetry_cell_setting 'orthorhombic'
loop_
_space_group_symop_operation_xyz
x,y,z
-x,-y,1/2+z
x,-y,1/2+z
-x,y,z
1/2+x,1/2+y,z
1/2-x,1/2-y,1/2+z
1/2+x,1/2-y,1/2+z
1/2-x,1/2+y,z
loop_
_atom_site_type_symbol
_atom_site_label
_atom_site_fract_x
_atom_site_fract_y
_atom_site_fract_z
Si Si1 0.205128 0.414342 0.058200
Si Si2 0.047543 0.681345 0.228502
Si Si3 0.310583 0.833924 0.726731
Si Si4 0.122792 0.895621 0.126157
Si Si5 0.637952 0.953606 0.401694
Si Si6 0.047355 0.485994 0.474392
Si Si7 0.726747 0.389068 0.422721
Si Si8 0.648524 0.605140 0.357105
O O1 0.214475 0.512669 0.182371
O O2 0.157217 0.468516 0.029469
O O3 0.231793 0.516682 0.956772
O O4 0.214939 0.233032 0.038047
O O5 0.082846 0.801275 0.180618
O O6 0.050643 0.636791 0.378502
O O7 0.000000 0.742875 0.209740
O O8 0.050667 0.530568 0.128982
O O9 0.335145 0.716556 0.631787
O O10 0.278265 0.727376 0.804409
O O11 0.349398 0.905135 0.808182
O O12 0.132219 0.036889 0.223655
O O13 0.118233 0.934757 0.977566
O O14 0.589877 0.905532 0.425530
O O15 0.656872 0.790829 0.351479
O O16 0.000000 0.424613 0.445821
O O17 0.690678 0.514879 0.396658
#
# Coordination Sequence:
#
# PCOD9351990 Si02
#       8
#     8   8   8   8   8   8   8   8
#     4  11  22  41  63  91 130 166 218 271 332 388
#     4  10  20  39  66  96 133 170 213 275 334 395
#     4  10  22  40  66  90 129 167 216 276 325 394
#     4  11  22  44  62  94 129 174 218 270 330 395
#     4  11  21  39  64  97 123 171 212 266 330 393
#     4  10  20  37  67  99 129 165 213 269 329 392
#     4  10  25  41  60  94 124 170 221 268 329 385
#     4  11  24  43  67  91 133 177 216 271 325 396
#
# _framework density 22.552185000000001
#
# number of rings (size 3 to 8) (size 9 to 14) (size 15 to 20)
#    0.000    1.500    3.750    0.750    1.750    2.000 
#    6.750    1.250    0.000    0.000    0.000    0.000 
#    0.000    0.000    0.000    0.000    0.000    0.000 
#
# Total GULP energy -178151.125169 kJ/mol
# GULP energy per Si atom -5567.222662 kJ/mol
# Density = 2.250085 g / cm^3
# Si number density = 22.552185 Si / 1000 Ang^3
#
#
#
# Elastic Constant Matrix: (Units=GPa)
#
#
# Indices 1 2 3 4 5 6 
#
# 1 71.6238 16.2483 -4.0140 0.0000 0.0000 0.0000
# 2 16.2483 54.1259 2.3434 0.0000 0.0000 0.0000
# 3 -4.0140 2.3434 51.2214 0.0000 0.0000 0.0000
# 4 0.0000 0.0000 0.0000 38.9348 0.0000 0.0000
# 5 0.0000 0.0000 0.0000 0.0000 14.0195 0.0000
# 6 0.0000 0.0000 0.0000 0.0000 0.0000 24.3972
#
#
#
# Elastic Compliance Matrix: (Units=1/GPa)
#
#
# Indices 1 2 3 4 5 6 
#
# 1 0.015081 -0.004587 0.001392 0.000000 0.000000 0.000000
# 2 -0.004587 0.019908 -0.001270 0.000000 0.000000 0.000000
# 3 0.001392 -0.001270 0.019690 0.000000 0.000000 0.000000
# 4 0.000000 0.000000 0.000000 0.025684 0.000000 0.000000
# 5 0.000000 0.000000 0.000000 0.000000 0.071329 0.000000
# 6 0.000000 0.000000 0.000000 0.000000 0.000000 0.040988
#
#
# Mechanical properties :
#
#
# Convention : Reuss Voigt Hill
#
# Bulk Modulus (GPa) = 21.85962 22.90293 22.38127
# Shear Modulus (GPa) = 23.05633 26.29655 24.67644
#
# Velocity S-wave (km/s) = 3.20090 3.41842 3.31145
# Velocity P-wave (km/s) = 4.83476 5.07527 4.95648
#
# Compressibility (1/GPa) = 0.04574646
#
# Stress axis : x y z
#
# Youngs Moduli (GPa) = 66.31079 50.23229 50.78650
#
# Poissons Ratio (x) = 0.23043 -0.07068
# Poissons Ratio (y) = 0.30419 0.06451
# Poissons Ratio (z) = -0.09228 0.06381
#
# Static dielectric constant tensor:
#      x y z
#    x 1.876050 0.000000 0.000000 
#    y 0.000000 1.838410 0.000000 
#    z 0.000000 0.000000 2.052580 
# 
# From -- ./inp_files/9722.got.cif
#   From: 2010.05.17/outbox.cif.g08.bks.cpg/sg36_5_cif.got.tgz:9722.got - 2010.06.03 17:41:39.
