data_PCOD9351723
_publ_section_title
;
Structure prediction by ZEFSAII (Michael W. Deem and Ramdas Pophale) SiO2 
 PCOD9351723
Probable space group: C M C 21
;
_chemical_formula_sum "Si O2"
_cell_formula_units_Z 48
_cell_length_a 8.526843
_cell_length_b 19.477568
_cell_length_c 15.677242
_cell_angle_alpha 90.000000
_cell_angle_beta 90.000000
_cell_angle_gamma 90.000000
_cell_volume 2603.710283
_symmetry_space_group_name_H-M "C M C 21"
_symmetry_group_IT_number 36
_symmetry_cell_setting 'orthorhombic'
loop_
_space_group_symop_operation_xyz
x,y,z
-x,-y,1/2+z
x,-y,1/2+z
-x,y,z
1/2+x,1/2+y,z
1/2-x,1/2-y,1/2+z
1/2+x,1/2-y,1/2+z
1/2-x,1/2+y,z
loop_
_atom_site_type_symbol
_atom_site_label
_atom_site_fract_x
_atom_site_fract_y
_atom_site_fract_z
Si Si1 0.310087 0.423775 0.920560
Si Si2 0.689709 0.828757 0.263292
Si Si3 0.188125 0.827230 0.571741
Si Si4 0.812137 0.578176 0.921207
Si Si5 0.690553 0.328390 0.766026
Si Si6 0.688023 0.325596 0.074905
O O1 0.500000 0.425713 0.919259
O O2 0.248378 0.500756 0.921731
O O3 0.255377 0.381779 0.837068
O O4 0.262421 0.380753 0.004190
O O5 0.500000 0.829717 0.258729
O O6 0.741408 0.881099 0.336304
O O7 0.737208 0.750306 0.285298
O O8 0.754870 0.844563 0.169598
O O9 0.253743 0.879871 0.503133
O O10 0.239117 0.844135 0.668962
O O11 0.245245 0.749793 0.553886
O O12 0.000000 0.828262 0.569544
O O13 0.000000 0.578302 0.921173
O O14 0.500000 0.329405 0.767453
O O15 0.500000 0.321340 0.074076
#
# Coordination Sequence:
#
# PCOD9351723 Si02
#       6
#     8   8   8   8   8   8
#     4  10  21  37  55  77 110 148 182 219 270 330
#     4   9  19  37  58  79 106 142 183 230 280 324
#     4  10  20  36  59  84 110 143 182 225 275 327
#     4  11  23  37  54  79 112 147 184 227 274 323
#     4   8  16  34  58  78 100 136 179 220 266 322
#     4  10  20  35  58  85 110 142 184 227 271 324
#
# _framework density 18.435230000000001
#
# number of rings (size 3 to 8) (size 9 to 14) (size 15 to 20)
#    0.000    2.333    0.000    3.500    0.000    6.667 
#    0.000    9.167    0.000    0.000    0.000    0.000 
#    0.000    0.000    0.000    0.000    0.000    0.000 
#
# Total GULP energy -133983.318258 kJ/mol
# GULP energy per Si atom -5582.638261 kJ/mol
# Density = 1.839327 g / cm^3
# Si number density = 18.435230 Si / 1000 Ang^3
#
#
#
# Elastic Constant Matrix: (Units=GPa)
#
#
# Indices 1 2 3 4 5 6 
#
# 1 24.4943 34.9008 35.5757 0.0000 0.0000 0.0000
# 2 34.9008 178.7122 151.3079 0.0000 0.0000 0.0000
# 3 35.5757 151.3079 171.2275 0.0000 0.0000 0.0000
# 4 0.0000 0.0000 0.0000 -3.5052 0.0000 0.0000
# 5 0.0000 0.0000 0.0000 0.0000 27.9515 0.0000
# 6 0.0000 0.0000 0.0000 0.0000 0.0000 28.4888
#
#
#
# Elastic Compliance Matrix: (Units=1/GPa)
#
#
# Indices 1 2 3 4 5 6 
#
# 1 0.059396 -0.004571 -0.008301 0.000000 0.000000 0.000000
# 2 -0.004571 0.022571 -0.018995 0.000000 0.000000 0.000000
# 3 -0.008301 -0.018995 0.024350 0.000000 0.000000 0.000000
# 4 0.000000 0.000000 0.000000 -0.285291 0.000000 0.000000
# 5 0.000000 0.000000 0.000000 0.000000 0.035776 0.000000
# 6 0.000000 0.000000 0.000000 0.000000 0.000000 0.035101
#
#
# Mechanical properties :
#
#
# Convention : Reuss Voigt Hill
#
# Bulk Modulus (GPa) = 23.48429 90.88920 57.18674
# Shear Modulus (GPa) = -165.74338 20.76367 -72.48985
#
# Velocity S-wave (km/s) = -9.49215 3.35969 -6.27748
# Velocity P-wave (km/s) = 10.36186 8.02863 4.63191
#
# Compressibility (1/GPa) = 0.04258166
#
# Stress axis : x y z
#
# Youngs Moduli (GPa) = 16.83621 44.30519 41.06714
#
# Poissons Ratio (x) = 0.20252 0.34091
# Poissons Ratio (y) = 0.07696 0.78008
# Poissons Ratio (z) = 0.13976 0.84159
#
# Static dielectric constant tensor:
#      x y z
#    x 1.631380 0.000000 0.000000 
#    y 0.000000 1.599310 0.000000 
#    z 0.000000 0.000000 1.632140 
# 
# From -- ./inp_files/10352.got.cif
#   From: 2010.05.17/outbox.cif.g08.bks.cpg/sg36_6_cif.got.tgz:10352.got - 2010.06.03 17:41:39.
