data_PCOD9351867
_publ_section_title
;
Structure prediction by ZEFSAII (Michael W. Deem and Ramdas Pophale) SiO2 
 PCOD9351867
Probable space group: C M C 21
;
_chemical_formula_sum "Si O2"
_cell_formula_units_Z 64
_cell_length_a 32.599900
_cell_length_b 5.245148
_cell_length_c 13.760827
_cell_angle_alpha 90.000000
_cell_angle_beta 90.000000
_cell_angle_gamma 90.000000
_cell_volume 2352.981702
_symmetry_space_group_name_H-M "C M C 21"
_symmetry_group_IT_number 36
_symmetry_cell_setting 'orthorhombic'
loop_
_space_group_symop_operation_xyz
x,y,z
-x,-y,1/2+z
x,-y,1/2+z
-x,y,z
1/2+x,1/2+y,z
1/2-x,1/2-y,1/2+z
1/2+x,1/2-y,1/2+z
1/2-x,1/2+y,z
loop_
_atom_site_type_symbol
_atom_site_label
_atom_site_fract_x
_atom_site_fract_y
_atom_site_fract_z
Si Si1 0.373341 0.659743 0.550560
Si Si2 0.456308 0.684362 0.649754
Si Si3 0.545473 0.908352 0.871422
Si Si4 0.870003 0.853242 0.375413
Si Si5 0.350740 0.131300 0.655257
Si Si6 0.419133 0.703051 0.261131
Si Si7 0.723433 0.727006 0.916631
Si Si8 0.729193 0.663937 0.151611
O O1 0.418794 0.748285 0.580082
O O2 0.366642 0.614090 0.438086
O O3 0.364568 0.375384 0.591340
O O4 0.344499 0.880048 0.591811
O O5 0.500000 0.732241 0.603227
O O6 0.457481 0.807452 0.758316
O O7 0.449313 0.385799 0.676538
O O8 0.500000 0.859168 0.914034
O O9 0.588396 0.794184 0.913187
O O10 0.554317 0.207706 0.851952
O O11 0.823789 0.746979 0.378822
O O12 0.887561 0.968637 0.275897
O O13 0.386932 0.082171 0.730726
O O14 0.309786 0.222287 0.705517
O O15 0.747918 0.467658 0.889902
O O16 0.720983 0.704886 0.035519
O O17 0.735655 0.369244 0.172930
#
# Coordination Sequence:
#
# PCOD9351867 Si02
#       8
#     8   8   8   8   8   8   8   8
#     4  11  23  38  65  95 128 166 220 281 327 389
#     4   9  19  39  62  91 125 170 224 269 326 404
#     4  10  21  41  65  93 132 178 228 274 343 420
#     4  11  25  40  66  98 138 179 224 289 347 404
#     4  11  22  41  63  94 126 169 223 272 332 398
#     4  10  22  39  66  93 132 185 222 274 343 417
#     4  10  23  40  64  96 131 177 227 272 339 412
#     4  10  20  36  61  92 126 164 216 279 333 392
#
# _framework density 27.199532000000001
#
# number of rings (size 3 to 8) (size 9 to 14) (size 15 to 20)
#    0.000    1.750    2.500    1.125    7.000    1.000 
#    0.000    1.250    0.000    0.000    0.000    0.000 
#    0.000    0.000    0.000    0.000    0.000    0.000 
#
# Total GULP energy -178682.391831 kJ/mol
# GULP energy per Si atom -5583.824745 kJ/mol
# Density = 2.713762 g / cm^3
# Si number density = 27.199532 Si / 1000 Ang^3
#
#
#
# Elastic Constant Matrix: (Units=GPa)
#
#
# Indices 1 2 3 4 5 6 
#
# 1 221.1533 65.4245 14.6615 0.0000 0.0000 0.0000
# 2 65.4245 124.6792 6.5513 0.0000 0.0000 0.0000
# 3 14.6615 6.5513 48.7596 0.0000 0.0000 0.0000
# 4 0.0000 0.0000 0.0000 33.7986 0.0000 0.0000
# 5 0.0000 0.0000 0.0000 0.0000 32.0115 0.0000
# 6 0.0000 0.0000 0.0000 0.0000 0.0000 19.0755
#
#
#
# Elastic Compliance Matrix: (Units=1/GPa)
#
#
# Indices 1 2 3 4 5 6 
#
# 1 0.005428 -0.002782 -0.001258 0.000000 0.000000 0.000000
# 2 -0.002782 0.009504 -0.000440 0.000000 0.000000 0.000000
# 3 -0.001258 -0.000440 0.020946 0.000000 0.000000 0.000000
# 4 0.000000 0.000000 0.000000 0.029587 0.000000 0.000000
# 5 0.000000 0.000000 0.000000 0.000000 0.031239 0.000000
# 6 0.000000 0.000000 0.000000 0.000000 0.000000 0.052423
#
#
# Mechanical properties :
#
#
# Convention : Reuss Voigt Hill
#
# Bulk Modulus (GPa) = 37.15219 63.09629 50.12424
# Shear Modulus (GPa) = 29.92907 37.50743 33.71825
#
# Velocity S-wave (km/s) = 3.32075 3.71748 3.52470
# Velocity P-wave (km/s) = 5.32841 6.45555 5.91887
#
# Compressibility (1/GPa) = 0.02691631
#
# Stress axis : x y z
#
# Youngs Moduli (GPa) = 184.22038 105.22189 47.74105
#
# Poissons Ratio (x) = 0.29276 0.06008
# Poissons Ratio (y) = 0.51256 0.02102
# Poissons Ratio (z) = 0.23182 0.04633
#
# Static dielectric constant tensor:
#      x y z
#    x 2.156500 0.000000 0.000000 
#    y 0.000000 2.218840 0.000000 
#    z 0.000000 0.000000 2.291350 
# 
# From -- ./inp_files/15211.got.cif
#   From: 2010.05.17/outbox.cif.g08.bks.cpg/sg36_8_cif.got.tgz:15211.got - 2010.06.03 17:41:39.
