data_PCOD9351170
_publ_section_title
;
Structure prediction by ZEFSAII (Michael W. Deem and Ramdas Pophale) SiO2 
 PCOD9351170
Probable space group: C M C 21
;
_chemical_formula_sum "Si O2"
_cell_formula_units_Z 64
_cell_length_a 8.877965
_cell_length_b 20.587062
_cell_length_c 20.159505
_cell_angle_alpha 90.000000
_cell_angle_beta 90.000000
_cell_angle_gamma 90.000000
_cell_volume 3684.577241
_symmetry_space_group_name_H-M "C M C 21"
_symmetry_group_IT_number 36
_symmetry_cell_setting 'orthorhombic'
loop_
_space_group_symop_operation_xyz
x,y,z
-x,-y,1/2+z
x,-y,1/2+z
-x,y,z
1/2+x,1/2+y,z
1/2-x,1/2-y,1/2+z
1/2+x,1/2-y,1/2+z
1/2-x,1/2+y,z
loop_
_atom_site_type_symbol
_atom_site_label
_atom_site_fract_x
_atom_site_fract_y
_atom_site_fract_z
Si Si1 0.318550 0.270454 0.461140
Si Si2 0.320608 0.907229 0.452098
Si Si3 0.818849 0.281355 0.816000
Si Si4 0.820418 0.918300 0.836219
Si Si5 0.180246 0.040909 0.487071
Si Si6 0.181274 0.174783 0.708410
Si Si7 0.319215 0.561820 0.809787
Si Si8 0.679993 0.842842 0.065567
O O1 0.500000 0.278912 0.460411
O O2 0.241875 0.338707 0.477619
O O3 0.270776 0.247697 0.387345
O O4 0.280890 0.214149 0.513363
O O5 0.500000 0.909170 0.454419
O O6 0.263056 0.914191 0.376116
O O7 0.251899 0.969476 0.489647
O O8 0.759038 0.354199 0.810200
O O9 0.772143 0.233910 0.756550
O O10 0.000000 0.282445 0.816818
O O11 0.781863 0.930448 0.913783
O O12 0.000000 0.909373 0.832155
O O13 0.781582 0.986034 0.800115
O O14 0.244167 0.090797 0.540462
O O15 0.000000 0.036069 0.491380
O O16 0.214834 0.108600 0.748726
O O17 0.261685 0.175207 0.638144
O O18 0.000000 0.177949 0.699369
O O19 0.500000 0.565761 0.822732
O O20 0.500000 0.850244 0.065099
#
# Coordination Sequence:
#
# PCOD9351170 Si02
#       8
#     8   8   8   8   8   8   8   8
#     4  10  20  37  57  80 114 152 188 232 285 341
#     4  11  21  32  55  88 115 140 184 242 284 325
#     4  10  19  34  57  81 110 148 187 229 279 335
#     4   9  18  31  54  84 110 136 178 232 276 322
#     4  10  20  36  57  81 113 150 185 226 283 346
#     4  10  21  38  58  78 109 154 195 229 280 347
#     4   9  18  36  56  78 110 151 189 225 278 341
#     4  11  23  38  58  84 115 149 190 239 287 339
#
# _framework density 17.369700000000002
#
# number of rings (size 3 to 8) (size 9 to 14) (size 15 to 20)
#    0.000    2.000    2.500    2.625    0.000    4.500 
#    0.000    1.250    0.000    4.500    0.000    0.000 
#    0.000    0.000    0.000    0.000    0.000    0.000 
#
# Total GULP energy -178626.839142 kJ/mol
# GULP energy per Si atom -5582.088723 kJ/mol
# Density = 1.733017 g / cm^3
# Si number density = 17.369700 Si / 1000 Ang^3
#
#
#
# Elastic Constant Matrix: (Units=GPa)
#
#
# Indices 1 2 3 4 5 6 
#
# 1 38.1460 42.2196 31.9363 0.0000 0.0000 0.0000
# 2 42.2196 128.7218 39.0294 0.0000 0.0000 0.0000
# 3 31.9363 39.0294 69.8101 0.0000 0.0000 0.0000
# 4 0.0000 0.0000 0.0000 23.6214 0.0000 0.0000
# 5 0.0000 0.0000 0.0000 0.0000 26.1218 0.0000
# 6 0.0000 0.0000 0.0000 0.0000 0.0000 33.3641
#
#
#
# Elastic Compliance Matrix: (Units=1/GPa)
#
#
# Indices 1 2 3 4 5 6 
#
# 1 0.055608 -0.012674 -0.018354 0.000000 0.000000 0.000000
# 2 -0.012674 0.012243 -0.001047 0.000000 0.000000 0.000000
# 3 -0.018354 -0.001047 0.023306 0.000000 0.000000 0.000000
# 4 0.000000 0.000000 0.000000 0.042334 0.000000 0.000000
# 5 0.000000 0.000000 0.000000 0.000000 0.038282 0.000000
# 6 0.000000 0.000000 0.000000 0.000000 0.000000 0.029972
#
#
# Mechanical properties :
#
#
# Convention : Reuss Voigt Hill
#
# Bulk Modulus (GPa) = 37.02512 51.44983 44.23747
# Shear Modulus (GPa) = 18.18854 24.85432 21.52143
#
# Velocity S-wave (km/s) = 3.23947 3.78683 3.52379
# Velocity P-wave (km/s) = 5.94596 6.98605 6.48688
#
# Compressibility (1/GPa) = 0.02700869
#
# Stress axis : x y z
#
# Youngs Moduli (GPa) = 17.98287 81.67871 42.90727
#
# Poissons Ratio (x) = 1.03521 0.78750
# Poissons Ratio (y) = 0.22792 0.04491
# Poissons Ratio (z) = 0.33005 0.08550
#
# Static dielectric constant tensor:
#      x y z
#    x 1.581090 0.000000 0.000000 
#    y 0.000000 1.588590 0.000000 
#    z 0.000000 0.000000 1.567610 
# 
# From -- ./inp_files/13846.got.cif
#   From: 2010.05.17/outbox.cif.g08.bks.cpg/sg36_7_cif.got.tgz:13846.got - 2010.06.03 17:41:39.
