data_PCOD9351153
_publ_section_title
;
Structure prediction by ZEFSAII (Michael W. Deem and Ramdas Pophale) SiO2 
 PCOD9351153
Probable space group: C M C 21
;
_chemical_formula_sum "Si O2"
_cell_formula_units_Z 64
_cell_length_a 7.768642
_cell_length_b 25.374083
_cell_length_c 14.429313
_cell_angle_alpha 90.000000
_cell_angle_beta 90.000000
_cell_angle_gamma 90.000000
_cell_volume 2844.337446
_symmetry_space_group_name_H-M "C M C 21"
_symmetry_group_IT_number 36
_symmetry_cell_setting 'orthorhombic'
loop_
_space_group_symop_operation_xyz
x,y,z
-x,-y,1/2+z
x,-y,1/2+z
-x,y,z
1/2+x,1/2+y,z
1/2-x,1/2-y,1/2+z
1/2+x,1/2-y,1/2+z
1/2-x,1/2+y,z
loop_
_atom_site_type_symbol
_atom_site_label
_atom_site_fract_x
_atom_site_fract_y
_atom_site_fract_z
Si Si1 0.706026 0.839783 0.372030
Si Si2 0.194700 0.865313 0.712016
Si Si3 0.294786 0.957276 0.386640
Si Si4 0.199650 0.536349 0.106514
Si Si5 0.208593 0.078269 0.591831
Si Si6 0.300691 0.785517 0.558855
Si Si7 0.795306 0.925868 0.880326
Si Si8 0.791581 0.811542 0.174299
O O1 0.500000 0.845638 0.384113
O O2 0.773550 0.899815 0.356338
O O3 0.774169 0.812822 0.466494
O O4 0.739802 0.805186 0.281166
O O5 0.190038 0.921593 0.660751
O O6 0.292536 0.826586 0.643636
O O7 0.274517 0.881749 0.810482
O O8 0.000000 0.844743 0.723188
O O9 0.500000 0.958081 0.372864
O O10 0.259415 0.959598 0.497277
O O11 0.230925 0.013486 0.349163
O O12 0.226882 0.476066 0.134976
O O13 0.000000 0.550771 0.118894
O O14 0.269840 0.079445 0.485032
O O15 0.266466 0.130612 0.643021
O O16 0.000000 0.076521 0.591659
O O17 0.500000 0.774094 0.536045
O O18 0.225367 0.732107 0.602217
O O19 0.000000 0.917220 0.882471
O O20 0.000000 0.810121 0.171261
#
# Coordination Sequence:
#
# PCOD9351153 Si02
#       8
#     8   8   8   8   8   8   8   8
#     4  10  21  39  61  85 115 152 194 240 290 348
#     4  11  22  35  56  88 118 151 195 242 290 340
#     4   9  18  34  55  82 113 152 194 232 283 342
#     4  10  19  34  56  82 115 153 191 234 287 347
#     4   9  19  38  57  81 117 153 191 237 289 345
#     4  10  22  43  63  83 116 159 199 239 291 347
#     4   9  20  35  54  83 119 156 191 233 288 347
#     4  10  23  40  62  88 115 152 197 243 292 344
#
# _framework density 22.500845000000002
#
# number of rings (size 3 to 8) (size 9 to 14) (size 15 to 20)
#    0.000    2.250    1.250    0.750    1.750    4.500 
#    0.000    2.500    0.000    0.000    0.000    0.000 
#    0.000    0.000    0.000    0.000    0.000    0.000 
#
# Total GULP energy -178669.407635 kJ/mol
# GULP energy per Si atom -5583.418989 kJ/mol
# Density = 2.244963 g / cm^3
# Si number density = 22.500845 Si / 1000 Ang^3
#
#
#
# Elastic Constant Matrix: (Units=GPa)
#
#
# Indices 1 2 3 4 5 6 
#
# 1 21.3283 -5.8548 -0.2219 0.0000 0.0000 0.0000
# 2 -5.8548 86.7328 21.0822 0.0000 0.0000 0.0000
# 3 -0.2219 21.0822 75.0565 0.0000 0.0000 0.0000
# 4 0.0000 0.0000 0.0000 25.6748 0.0000 0.0000
# 5 0.0000 0.0000 0.0000 0.0000 10.8116 0.0000
# 6 0.0000 0.0000 0.0000 0.0000 0.0000 8.8614
#
#
#
# Elastic Compliance Matrix: (Units=1/GPa)
#
#
# Indices 1 2 3 4 5 6 
#
# 1 0.047818 0.003428 -0.000821 0.000000 0.000000 0.000000
# 2 0.003428 0.012620 -0.003535 0.000000 0.000000 0.000000
# 3 -0.000821 -0.003535 0.014314 0.000000 0.000000 0.000000
# 4 0.000000 0.000000 0.000000 0.038949 0.000000 0.000000
# 5 0.000000 0.000000 0.000000 0.000000 0.092493 0.000000
# 6 0.000000 0.000000 0.000000 0.000000 0.000000 0.112849
#
#
# Mechanical properties :
#
#
# Convention : Reuss Voigt Hill
#
# Bulk Modulus (GPa) = 13.71829 23.68096 18.69963
# Shear Modulus (GPa) = 14.48442 20.27705 17.38073
#
# Velocity S-wave (km/s) = 2.53993 3.00520 2.78231
# Velocity P-wave (km/s) = 3.83558 4.75279 4.31860
#
# Compressibility (1/GPa) = 0.07289536
#
# Stress axis : x y z
#
# Youngs Moduli (GPa) = 20.91243 79.23796 69.86313
#
# Poissons Ratio (x) = -0.27160 0.05739
# Poissons Ratio (y) = -0.07168 0.24694
# Poissons Ratio (z) = 0.01718 0.28008
#
# Static dielectric constant tensor:
#      x y z
#    x 1.831600 0.000000 0.000000 
#    y 0.000000 1.836740 0.000000 
#    z 0.000000 0.000000 1.858190 
# 
# From -- ./inp_files/11084.got.cif
#   From: 2010.05.17/outbox.cif.g08.bks.cpg/sg36_6_cif.got.tgz:11084.got - 2010.06.03 17:41:39.
