data_PCOD9351246
_publ_section_title
;
Structure prediction by ZEFSAII (Michael W. Deem and Ramdas Pophale) SiO2 
 PCOD9351246
Probable space group: C M C 21
;
_chemical_formula_sum "Si O2"
_cell_formula_units_Z 64
_cell_length_a 8.761516
_cell_length_b 21.045029
_cell_length_c 19.755126
_cell_angle_alpha 90.000000
_cell_angle_beta 90.000000
_cell_angle_gamma 90.000000
_cell_volume 3642.575741
_symmetry_space_group_name_H-M "C M C 21"
_symmetry_group_IT_number 36
_symmetry_cell_setting 'orthorhombic'
loop_
_space_group_symop_operation_xyz
x,y,z
-x,-y,1/2+z
x,-y,1/2+z
-x,y,z
1/2+x,1/2+y,z
1/2-x,1/2-y,1/2+z
1/2+x,1/2-y,1/2+z
1/2-x,1/2+y,z
loop_
_atom_site_type_symbol
_atom_site_label
_atom_site_fract_x
_atom_site_fract_y
_atom_site_fract_z
Si Si1 0.315935 0.440662 0.288360
Si Si2 0.317352 0.990396 0.004443
Si Si3 0.316805 0.636003 0.153186
Si Si4 0.682627 0.995247 0.158134
Si Si5 0.684561 0.692042 0.295558
Si Si6 0.682900 0.686000 0.870319
Si Si7 0.183434 0.064373 0.373333
Si Si8 0.683159 0.861507 0.506915
O O1 0.500000 0.442161 0.282428
O O2 0.242847 0.447770 0.214806
O O3 0.272718 0.377377 0.328592
O O4 0.266132 0.502852 0.330458
O O5 0.500000 0.987508 0.997314
O O6 0.242471 0.945892 0.948871
O O7 0.271326 0.064430 0.994176
O O8 0.277862 0.974322 0.081837
O O9 0.500000 0.634044 0.148570
O O10 0.257320 0.564677 0.168373
O O11 0.274393 0.680057 0.216954
O O12 0.247688 0.655689 0.080895
O O13 0.500000 0.002140 0.161957
O O14 0.500000 0.696815 0.299027
O O15 0.757611 0.753250 0.329772
O O16 0.732287 0.629104 0.337179
O O17 0.500000 0.687434 0.875593
O O18 0.752991 0.679665 0.945255
O O19 0.000000 0.063935 0.373724
O O20 0.500000 0.858845 0.508735
#
# Coordination Sequence:
#
# PCOD9351246 Si02
#       8
#     8   8   8   8   8   8   8   8
#     4  10  20  36  56  82 111 141 185 231 277 332
#     4   9  19  33  51  82 115 143 180 228 279 329
#     4  10  19  35  58  82 112 150 189 231 280 334
#     4  10  20  33  53  84 116 146 185 233 284 332
#     4  10  22  39  57  81 114 150 186 229 282 334
#     4  11  23  38  58  84 114 150 191 233 280 337
#     4  10  19  35  57  81 109 142 182 228 277 330
#     4  10  20  35  56  84 115 146 186 233 281 336
#
# _framework density 17.569984999999999
#
# number of rings (size 3 to 8) (size 9 to 14) (size 15 to 20)
#    0.000    2.000    2.500    2.250    0.000    5.500 
#    0.000    1.250    0.000    3.000    0.000    0.000 
#    0.000    0.000    0.000    0.000    0.000    0.000 
#
# Total GULP energy -178613.139117 kJ/mol
# GULP energy per Si atom -5581.660597 kJ/mol
# Density = 1.753000 g / cm^3
# Si number density = 17.569985 Si / 1000 Ang^3
#
#
#
# Elastic Constant Matrix: (Units=GPa)
#
#
# Indices 1 2 3 4 5 6 
#
# 1 34.9580 35.8917 47.8129 0.0000 0.0000 0.0000
# 2 35.8917 105.2475 77.6723 0.0000 0.0000 0.0000
# 3 47.8129 77.6723 169.0483 0.0000 0.0000 0.0000
# 4 0.0000 0.0000 0.0000 29.9179 0.0000 0.0000
# 5 0.0000 0.0000 0.0000 0.0000 29.9640 0.0000
# 6 0.0000 0.0000 0.0000 0.0000 0.0000 26.6928
#
#
#
# Elastic Compliance Matrix: (Units=1/GPa)
#
#
# Indices 1 2 3 4 5 6 
#
# 1 0.053625 -0.010734 -0.010235 0.000000 0.000000 0.000000
# 2 -0.010734 0.016525 -0.004557 0.000000 0.000000 0.000000
# 3 -0.010235 -0.004557 0.010904 0.000000 0.000000 0.000000
# 4 0.000000 0.000000 0.000000 0.033425 0.000000 0.000000
# 5 0.000000 0.000000 0.000000 0.000000 0.033373 0.000000
# 6 0.000000 0.000000 0.000000 0.000000 0.000000 0.037463
#
#
# Mechanical properties :
#
#
# Convention : Reuss Voigt Hill
#
# Bulk Modulus (GPa) = 33.33060 70.22309 51.77684
# Shear Modulus (GPa) = 20.29487 27.17341 23.73414
#
# Velocity S-wave (km/s) = 3.40235 3.93693 3.67936
# Velocity P-wave (km/s) = 5.86907 7.79232 6.89805
#
# Compressibility (1/GPa) = 0.03000246
#
# Stress axis : x y z
#
# Youngs Moduli (GPa) = 18.64793 60.51561 91.70924
#
# Poissons Ratio (x) = 0.64956 0.93867
# Poissons Ratio (y) = 0.20016 0.41789
# Poissons Ratio (z) = 0.19087 0.27575
#
# Static dielectric constant tensor:
#      x y z
#    x 1.592380 0.000000 0.000000 
#    y 0.000000 1.575270 0.000000 
#    z 0.000000 0.000000 1.602290 
# 
# From -- ./inp_files/13886.got.cif
#   From: 2010.05.17/outbox.cif.g08.bks.cpg/sg36_7_cif.got.tgz:13886.got - 2010.06.03 17:41:39.
