data_PCOD9351210
_publ_section_title
;
Structure prediction by ZEFSAII (Michael W. Deem and Ramdas Pophale) SiO2 
 PCOD9351210
Probable space group: C M C 21
;
_chemical_formula_sum "Si O2"
_cell_formula_units_Z 64
_cell_length_a 14.657951
_cell_length_b 9.239256
_cell_length_c 22.967553
_cell_angle_alpha 90.000000
_cell_angle_beta 90.000000
_cell_angle_gamma 90.000000
_cell_volume 3110.462669
_symmetry_space_group_name_H-M "C M C 21"
_symmetry_group_IT_number 36
_symmetry_cell_setting 'orthorhombic'
loop_
_space_group_symop_operation_xyz
x,y,z
-x,-y,1/2+z
x,-y,1/2+z
-x,y,z
1/2+x,1/2+y,z
1/2-x,1/2-y,1/2+z
1/2+x,1/2-y,1/2+z
1/2-x,1/2+y,z
loop_
_atom_site_type_symbol
_atom_site_label
_atom_site_fract_x
_atom_site_fract_y
_atom_site_fract_z
Si Si1 0.797862 0.899063 0.616250
Si Si2 0.399510 0.901576 0.580017
Si Si3 0.894875 0.211666 0.462762
Si Si4 0.600005 0.342275 0.179434
Si Si5 0.236865 0.510011 0.309505
Si Si6 0.720869 0.765166 0.232421
Si Si7 0.288515 0.256290 0.391509
Si Si8 0.893521 0.875757 0.498723
O O1 0.698880 0.965428 0.598247
O O2 0.858689 0.023296 0.644693
O O3 0.798160 0.776319 0.666112
O O4 0.841173 0.840369 0.557589
O O5 0.500000 0.977249 0.578821
O O6 0.387674 0.821089 0.517746
O O7 0.406814 0.781560 0.630741
O O8 0.815287 0.241312 0.416171
O O9 0.000000 0.221607 0.440936
O O10 0.881111 0.047435 0.485704
O O11 0.500000 0.374805 0.202604
O O12 0.670177 0.294028 0.228899
O O13 0.295680 0.624987 0.272206
O O14 0.183077 0.410185 0.262553
O O15 0.289485 0.394646 0.349192
O O16 0.185770 0.613948 0.354986
O O17 0.352340 0.285293 0.445990
O O18 0.000000 0.849239 0.505553
#
# Coordination Sequence:
#
# PCOD9351210 Si02
#       8
#     8   8   8   8   8   8   8   8
#     4  11  19  33  64  92 128 162 208 258 325 367
#     4   9  18  31  54  88 125 158 200 246 307 383
#     4  10  19  35  58  90 124 159 205 249 307 382
#     4  10  19  34  58  90 121 163 207 246 303 383
#     4  10  22  40  64  86 124 170 218 257 307 374
#     4  10  21  40  62  93 118 167 214 263 309 372
#     4  11  21  40  65  91 124 169 208 259 318 369
#     4  11  22  37  62  96 128 164 211 258 313 394
#
# _framework density 20.575717999999998
#
# number of rings (size 3 to 8) (size 9 to 14) (size 15 to 20)
#    0.000    1.750    5.000    0.375    0.000    0.000 
#    0.000    4.375    0.000   15.750    0.000    0.000 
#    0.000    0.000    0.000    0.000    0.000    0.000 
#
# Total GULP energy -178388.097710 kJ/mol
# GULP energy per Si atom -5574.628053 kJ/mol
# Density = 2.052889 g / cm^3
# Si number density = 20.575718 Si / 1000 Ang^3
#
#
#
# Elastic Constant Matrix: (Units=GPa)
#
#
# Indices 1 2 3 4 5 6 
#
# 1 90.3721 14.2038 39.6389 0.0000 0.0000 0.0000
# 2 14.2038 72.8393 34.3762 0.0000 0.0000 0.0000
# 3 39.6389 34.3762 124.5632 0.0000 0.0000 0.0000
# 4 0.0000 0.0000 0.0000 21.2288 0.0000 0.0000
# 5 0.0000 0.0000 0.0000 0.0000 -4.2650 0.0000
# 6 0.0000 0.0000 0.0000 0.0000 0.0000 -2.7986
#
#
#
# Elastic Compliance Matrix: (Units=1/GPa)
#
#
# Indices 1 2 3 4 5 6 
#
# 1 0.012888 -0.000664 -0.003918 0.000000 0.000000 0.000000
# 2 -0.000664 0.015819 -0.004154 0.000000 0.000000 0.000000
# 3 -0.003918 -0.004154 0.010421 0.000000 0.000000 0.000000
# 4 0.000000 0.000000 0.000000 0.047106 0.000000 0.000000
# 5 0.000000 0.000000 0.000000 0.000000 -0.234466 0.000000
# 6 0.000000 0.000000 0.000000 0.000000 0.000000 -0.357325
#
#
# Mechanical properties :
#
#
# Convention : Reuss Voigt Hill
#
# Bulk Modulus (GPa) = 46.17735 51.57916 48.87825
# Shear Modulus (GPa) = -10.39792 16.13677 2.86942
#
# Velocity S-wave (km/s) = -2.25044 2.80351 1.18220
# Velocity P-wave (km/s) = 3.96721 5.96674 5.06659
#
# Compressibility (1/GPa) = 0.02165564
#
# Stress axis : x y z
#
# Youngs Moduli (GPa) = 77.58984 63.21532 95.95691
#
# Poissons Ratio (x) = 0.04198 0.37597
# Poissons Ratio (y) = 0.05153 0.39863
# Poissons Ratio (z) = 0.30400 0.26261
#
# Static dielectric constant tensor:
#      x y z
#    x 1.761540 0.000000 0.000000 
#    y 0.000000 1.773290 0.000000 
#    z 0.000000 0.000000 1.741930 
# 
# From -- ./inp_files/16986.got.cif
#   From: 2010.05.17/outbox.cif.g08.bks.cpg/sg36_9_cif.got.tgz:16986.got - 2010.06.03 17:41:39.
