data_PCOD9351930
_publ_section_title
;
Structure prediction by ZEFSAII (Michael W. Deem and Ramdas Pophale) SiO2 
 PCOD9351930
Probable space group: C M C 21
;
_chemical_formula_sum "Si O2"
_cell_formula_units_Z 64
_cell_length_a 8.645696
_cell_length_b 23.203921
_cell_length_c 16.530101
_cell_angle_alpha 90.000000
_cell_angle_beta 90.000000
_cell_angle_gamma 90.000000
_cell_volume 3316.170458
_symmetry_space_group_name_H-M "C M C 21"
_symmetry_group_IT_number 36
_symmetry_cell_setting 'orthorhombic'
loop_
_space_group_symop_operation_xyz
x,y,z
-x,-y,1/2+z
x,-y,1/2+z
-x,y,z
1/2+x,1/2+y,z
1/2-x,1/2-y,1/2+z
1/2+x,1/2-y,1/2+z
1/2-x,1/2+y,z
loop_
_atom_site_type_symbol
_atom_site_label
_atom_site_fract_x
_atom_site_fract_y
_atom_site_fract_z
Si Si1 0.321881 0.892966 0.774100
Si Si2 0.678022 0.965959 0.936233
Si Si3 0.319295 0.411463 0.091766
Si Si4 0.184509 0.786510 0.449622
Si Si5 0.317751 0.533447 0.135821
Si Si6 0.685281 0.785220 0.109225
Si Si7 0.681599 0.911592 0.475608
Si Si8 0.313699 0.734199 0.283428
O O1 0.500000 0.890880 0.745153
O O2 0.319237 0.927021 0.857875
O O3 0.217022 0.928408 0.712814
O O4 0.256723 0.829432 0.785209
O O5 0.500000 0.966227 0.968030
O O6 0.717679 0.032821 0.919548
O O7 0.787143 0.937592 0.002983
O O8 0.500000 0.399560 0.103435
O O9 0.272865 0.466315 0.146985
O O10 0.229868 0.352071 0.101830
O O11 0.240124 0.750926 0.529857
O O12 0.223941 0.853712 0.461198
O O13 0.258757 0.765715 0.365288
O O14 0.000000 0.778304 0.443936
O O15 0.500000 0.534323 0.115153
O O16 0.222694 0.562320 0.063201
O O17 0.500000 0.779890 0.108564
O O18 0.737560 0.762144 0.197380
O O19 0.500000 0.897903 0.468986
O O20 0.500000 0.732223 0.283506
#
# Coordination Sequence:
#
# PCOD9351930 Si02
#       8
#     8   8   8   8   8   8   8   8
#     4  11  22  37  58  84 112 147 190 236 286 345
#     4   9  20  37  57  82 114 148 185 231 287 347
#     4  10  21  36  58  86 113 144 189 236 283 340
#     4  11  23  40  61  87 120 158 197 244 297 350
#     4  10  21  37  56  83 116 148 183 233 291 344
#     4  10  23  41  60  81 115 159 195 234 292 350
#     4  10  20  37  60  85 112 149 194 236 283 345
#     4  11  24  41  60  86 118 155 199 246 293 351
#
# _framework density 19.299368000000001
#
# number of rings (size 3 to 8) (size 9 to 14) (size 15 to 20)
#    0.000    1.750    0.000    3.750    0.000   10.000 
#    0.000    3.750    0.000    0.000    0.000    0.000 
#    0.000    0.000    0.000    0.000    0.000    0.000 
#
# Total GULP energy -178602.445182 kJ/mol
# GULP energy per Si atom -5581.326412 kJ/mol
# Density = 1.925544 g / cm^3
# Si number density = 19.299368 Si / 1000 Ang^3
#
#
#
# Elastic Constant Matrix: (Units=GPa)
#
#
# Indices 1 2 3 4 5 6 
#
# 1 23.9127 13.2237 15.9279 0.0000 0.0000 0.0000
# 2 13.2237 145.1977 53.9602 0.0000 0.0000 0.0000
# 3 15.9279 53.9602 83.7581 0.0000 0.0000 0.0000
# 4 0.0000 0.0000 0.0000 26.1487 0.0000 0.0000
# 5 0.0000 0.0000 0.0000 0.0000 26.7532 0.0000
# 6 0.0000 0.0000 0.0000 0.0000 0.0000 44.9838
#
#
#
# Elastic Compliance Matrix: (Units=1/GPa)
#
#
# Indices 1 2 3 4 5 6 
#
# 1 0.048067 -0.001289 -0.008310 0.000000 0.000000 0.000000
# 2 -0.001289 0.009090 -0.005611 0.000000 0.000000 0.000000
# 3 -0.008310 -0.005611 0.017134 0.000000 0.000000 0.000000
# 4 0.000000 0.000000 0.000000 0.038243 0.000000 0.000000
# 5 0.000000 0.000000 0.000000 0.000000 0.037379 0.000000
# 6 0.000000 0.000000 0.000000 0.000000 0.000000 0.022230
#
#
# Mechanical properties :
#
#
# Convention : Reuss Voigt Hill
#
# Bulk Modulus (GPa) = 22.79432 46.56578 34.68005
# Shear Modulus (GPa) = 23.02170 30.89426 26.95798
#
# Velocity S-wave (km/s) = 3.45755 4.00533 3.74148
# Velocity P-wave (km/s) = 5.27030 6.75061 6.05586
#
# Compressibility (1/GPa) = 0.04387057
#
# Stress axis : x y z
#
# Youngs Moduli (GPa) = 20.80428 110.01426 58.36315
#
# Poissons Ratio (x) = 0.14185 0.48500
# Poissons Ratio (y) = 0.02682 0.32746
# Poissons Ratio (z) = 0.17288 0.61726
#
# Static dielectric constant tensor:
#      x y z
#    x 1.671860 0.000000 0.000000 
#    y 0.000000 1.660500 0.000000 
#    z 0.000000 0.000000 1.672890 
# 
# From -- ./inp_files/13793.got.cif
#   From: 2010.05.17/outbox.cif.g08.bks.cpg/sg36_7_cif.got.tgz:13793.got - 2010.06.03 17:41:39.
