data_PCOD9351140
_publ_section_title
;
Structure prediction by ZEFSAII (Michael W. Deem and Ramdas Pophale) SiO2 
 PCOD9351140
Probable space group: C M C 21
;
_chemical_formula_sum "Si O2"
_cell_formula_units_Z 64
_cell_length_a 25.658261
_cell_length_b 5.029042
_cell_length_c 26.191717
_cell_angle_alpha 90.000000
_cell_angle_beta 90.000000
_cell_angle_gamma 90.000000
_cell_volume 3379.686763
_symmetry_space_group_name_H-M "C M C 21"
_symmetry_group_IT_number 36
_symmetry_cell_setting 'orthorhombic'
loop_
_space_group_symop_operation_xyz
x,y,z
-x,-y,1/2+z
x,-y,1/2+z
-x,y,z
1/2+x,1/2+y,z
1/2-x,1/2-y,1/2+z
1/2+x,1/2-y,1/2+z
1/2-x,1/2+y,z
loop_
_atom_site_type_symbol
_atom_site_label
_atom_site_fract_x
_atom_site_fract_y
_atom_site_fract_z
Si Si1 0.217309 0.970787 0.657870
Si Si2 0.937118 0.376510 0.410036
Si Si3 0.438353 0.843478 0.744020
Si Si4 0.897956 0.135389 0.635185
Si Si5 0.938665 0.359256 0.079080
Si Si6 0.936782 0.123468 0.971137
Si Si7 0.602086 0.345315 0.802929
Si Si8 0.782543 0.993806 0.280707
O O1 0.262884 0.178410 0.644441
O O2 0.162369 0.053421 0.634761
O O3 0.210782 0.988745 0.719307
O O4 0.920952 0.670541 0.426864
O O5 0.915764 0.270171 0.356930
O O6 0.000000 0.374719 0.406372
O O7 0.921458 0.171557 0.454869
O O8 0.500000 0.893973 0.738864
O O9 0.414622 0.740789 0.690859
O O10 0.428663 0.609107 0.785177
O O11 0.409713 0.111128 0.762274
O O12 0.910249 0.373667 0.596321
O O13 0.930323 0.872964 0.620491
O O14 0.000000 0.422501 0.074430
O O15 0.919467 0.234675 0.025670
O O16 0.000000 0.123724 0.973330
O O17 0.662620 0.422570 0.803787
O O18 0.736950 0.200987 0.294182
#
# Coordination Sequence:
#
# PCOD9351140 Si02
#       8
#     8   8   8   8   8   8   8   8
#     4  10  21  37  57  78 106 143 190 241 275 310
#     4  10  19  34  55  80 111 144 183 226 274 330
#     4  12  24  36  51  80 123 157 182 210 265 342
#     4  12  23  37  56  83 112 154 188 224 278 336
#     4  11  22  37  57  83 116 150 188 228 273 334
#     4   9  19  35  55  79 107 142 185 235 273 312
#     4  12  23  37  56  83 113 154 187 224 277 335
#     4  10  21  37  57  78 106 144 191 240 274 311
#
# _framework density 18.936665999999999
#
# number of rings (size 3 to 8) (size 9 to 14) (size 15 to 20)
#    0.000    1.250    1.250    6.000    3.500    3.000 
#    0.000    0.000    0.000    0.000    0.000   17.500 
#    0.000    0.000    0.000    0.000    0.000    0.000 
#
# Total GULP energy -178892.213059 kJ/mol
# GULP energy per Si atom -5590.381658 kJ/mol
# Density = 1.889356 g / cm^3
# Si number density = 18.936666 Si / 1000 Ang^3
#
#
#
# Elastic Constant Matrix: (Units=GPa)
#
#
# Indices 1 2 3 4 5 6 
#
# 1 58.1468 -4.3877 11.8936 0.0000 0.0000 0.0000
# 2 -4.3877 61.6734 -7.3941 0.0000 0.0000 0.0000
# 3 11.8936 -7.3941 37.4276 0.0000 0.0000 0.0000
# 4 0.0000 0.0000 0.0000 28.6774 0.0000 0.0000
# 5 0.0000 0.0000 0.0000 0.0000 0.9301 0.0000
# 6 0.0000 0.0000 0.0000 0.0000 0.0000 24.6533
#
#
#
# Elastic Compliance Matrix: (Units=1/GPa)
#
#
# Indices 1 2 3 4 5 6 
#
# 1 0.018417 0.000623 -0.005729 0.000000 0.000000 0.000000
# 2 0.000623 0.016629 0.003087 0.000000 0.000000 0.000000
# 3 -0.005729 0.003087 0.029149 0.000000 0.000000 0.000000
# 4 0.000000 0.000000 0.000000 0.034871 0.000000 0.000000
# 5 0.000000 0.000000 0.000000 0.000000 1.075118 0.000000
# 6 0.000000 0.000000 0.000000 0.000000 0.000000 0.040562
#
#
# Mechanical properties :
#
#
# Convention : Reuss Voigt Hill
#
# Bulk Modulus (GPa) = 16.62322 17.49681 17.06001
# Shear Modulus (GPa) = 4.03605 21.32791 12.68198
#
# Velocity S-wave (km/s) = 1.46150 3.35964 2.59067
# Velocity P-wave (km/s) = 3.41253 4.93045 4.23997
#
# Compressibility (1/GPa) = 0.06015682
#
# Stress axis : x y z
#
# Youngs Moduli (GPa) = 54.29838 60.13621 34.30682
#
# Poissons Ratio (x) = -0.03749 0.19655
# Poissons Ratio (y) = -0.03385 -0.10591
# Poissons Ratio (z) = 0.31109 -0.18565
#
# Static dielectric constant tensor:
#      x y z
#    x 1.628890 0.000000 0.000000 
#    y 0.000000 1.659720 0.000000 
#    z 0.000000 0.000000 1.669100 
# 
# From -- ./inp_files/17058.got.cif
#   From: 2010.05.17/outbox.cif.g08.bks.cpg/sg36_9_cif.got.tgz:17058.got - 2010.06.03 17:41:39.
