data_PCOD9351559
_publ_section_title
;
Structure prediction by ZEFSAII (Michael W. Deem and Ramdas Pophale) SiO2 
 PCOD9351559
Probable space group: C M C 21
;
_chemical_formula_sum "Si O2"
_cell_formula_units_Z 64
_cell_length_a 8.916634
_cell_length_b 19.869726
_cell_length_c 20.740363
_cell_angle_alpha 90.000000
_cell_angle_beta 90.000000
_cell_angle_gamma 90.000000
_cell_volume 3674.592397
_symmetry_space_group_name_H-M "C M C 21"
_symmetry_group_IT_number 36
_symmetry_cell_setting 'orthorhombic'
loop_
_space_group_symop_operation_xyz
x,y,z
-x,-y,1/2+z
x,-y,1/2+z
-x,y,z
1/2+x,1/2+y,z
1/2-x,1/2-y,1/2+z
1/2+x,1/2-y,1/2+z
1/2-x,1/2+y,z
loop_
_atom_site_type_symbol
_atom_site_label
_atom_site_fract_x
_atom_site_fract_y
_atom_site_fract_z
Si Si1 0.679377 0.827150 0.775150
Si Si2 0.178025 0.830487 0.274555
Si Si3 0.321463 0.327828 0.912389
Si Si4 0.820344 0.574041 0.516727
Si Si5 0.678322 0.079404 0.665171
Si Si6 0.320191 0.077996 0.156313
Si Si7 0.821038 0.926964 0.518628
Si Si8 0.178791 0.668963 0.911999
O O1 0.500000 0.834361 0.785027
O O2 0.710194 0.748475 0.761627
O O3 0.762545 0.845893 0.841095
O O4 0.722289 0.873257 0.714755
O O5 0.233588 0.875637 0.215735
O O6 0.261410 0.848992 0.340859
O O7 0.000000 0.837589 0.283639
O O8 0.500000 0.337199 0.916026
O O9 0.240840 0.372714 0.965794
O O10 0.288654 0.248397 0.921901
O O11 0.785098 0.595059 0.590514
O O12 0.746157 0.501211 0.505895
O O13 0.000000 0.567271 0.511983
O O14 0.500000 0.089433 0.674295
O O15 0.709963 0.999914 0.673797
O O16 0.500000 0.083746 0.145364
O O17 0.236678 0.093397 0.089743
O O18 0.758552 0.875708 0.465684
O O19 0.000000 0.929283 0.517114
O O20 0.000000 0.659490 0.915059
#
# Coordination Sequence:
#
# PCOD9351559 Si02
#       8
#     8   8   8   8   8   8   8   8
#     4   9  19  36  56  77 105 142 181 220 265 319
#     4  10  20  34  54  80 108 138 176 224 270 313
#     4  10  21  36  56  82 110 141 181 227 269 314
#     4  10  21  38  58  79 109 146 180 218 268 326
#     4   9  19  35  54  76 104 140 178 215 261 321
#     4   9  19  37  57  77 104 141 181 217 263 322
#     4  11  22  36  56  82 110 139 179 229 271 314
#     4  10  21  38  57  77 108 147 182 220 269 323
#
# _framework density 17.416898
#
# number of rings (size 3 to 8) (size 9 to 14) (size 15 to 20)
#    0.000    2.250    0.000    3.375    0.000    7.000 
#    0.000    7.500    0.000    0.000    0.000    0.000 
#    0.000    0.000    0.000    0.000    0.000    0.000 
#
# Total GULP energy -178658.044188 kJ/mol
# GULP energy per Si atom -5583.063881 kJ/mol
# Density = 1.737726 g / cm^3
# Si number density = 17.416898 Si / 1000 Ang^3
#
#
#
# Elastic Constant Matrix: (Units=GPa)
#
#
# Indices 1 2 3 4 5 6 
#
# 1 83.8643 65.4693 89.5015 0.0000 0.0000 0.0000
# 2 65.4693 81.9190 106.6617 0.0000 0.0000 0.0000
# 3 89.5015 106.6617 168.0650 0.0000 0.0000 0.0000
# 4 0.0000 0.0000 0.0000 42.4251 0.0000 0.0000
# 5 0.0000 0.0000 0.0000 0.0000 35.5448 0.0000
# 6 0.0000 0.0000 0.0000 0.0000 0.0000 28.6798
#
#
#
# Elastic Compliance Matrix: (Units=1/GPa)
#
#
# Indices 1 2 3 4 5 6 
#
# 1 0.032341 -0.019704 -0.004718 0.000000 0.000000 0.000000
# 2 -0.019704 0.082295 -0.041735 0.000000 0.000000 0.000000
# 3 -0.004718 -0.041735 0.034950 0.000000 0.000000 0.000000
# 4 0.000000 0.000000 0.000000 0.023571 0.000000 0.000000
# 5 0.000000 0.000000 0.000000 0.000000 0.028134 0.000000
# 6 0.000000 0.000000 0.000000 0.000000 0.000000 0.034868
#
#
# Mechanical properties :
#
#
# Convention : Reuss Voigt Hill
#
# Bulk Modulus (GPa) = 57.89750 95.23481 76.56615
# Shear Modulus (GPa) = 13.36076 26.14432 19.75254
#
# Velocity S-wave (km/s) = 2.77269 3.87859 3.37130
# Velocity P-wave (km/s) = 6.60036 8.65195 7.69483
#
# Compressibility (1/GPa) = 0.01727190
#
# Stress axis : x y z
#
# Youngs Moduli (GPa) = 30.92038 12.15134 28.61257
#
# Poissons Ratio (x) = 0.23943 0.13499
# Poissons Ratio (y) = 0.60925 1.19415
# Poissons Ratio (z) = 0.14588 0.50714
#
# Static dielectric constant tensor:
#      x y z
#    x 1.579290 0.000000 0.000000 
#    y 0.000000 1.572650 0.000000 
#    z 0.000000 0.000000 1.561610 
# 
# From -- ./inp_files/13834.got.cif
#   From: 2010.05.17/outbox.cif.g08.bks.cpg/sg36_7_cif.got.tgz:13834.got - 2010.06.03 17:41:39.
