data_PCOD9351173
_publ_section_title
;
Structure prediction by ZEFSAII (Michael W. Deem and Ramdas Pophale) SiO2 
 PCOD9351173
Probable space group: C M C 21
;
_chemical_formula_sum "Si O2"
_cell_formula_units_Z 64
_cell_length_a 8.740546
_cell_length_b 20.677912
_cell_length_c 20.326489
_cell_angle_alpha 90.000000
_cell_angle_beta 90.000000
_cell_angle_gamma 90.000000
_cell_volume 3673.733215
_symmetry_space_group_name_H-M "C M C 21"
_symmetry_group_IT_number 36
_symmetry_cell_setting 'orthorhombic'
loop_
_space_group_symop_operation_xyz
x,y,z
-x,-y,1/2+z
x,-y,1/2+z
-x,y,z
1/2+x,1/2+y,z
1/2-x,1/2-y,1/2+z
1/2+x,1/2-y,1/2+z
1/2-x,1/2+y,z
loop_
_atom_site_type_symbol
_atom_site_label
_atom_site_fract_x
_atom_site_fract_y
_atom_site_fract_z
Si Si1 0.184132 0.333161 0.662620
Si Si2 0.683611 0.665395 0.772648
Si Si3 0.316444 0.481022 0.284459
Si Si4 0.815906 0.417882 0.035855
Si Si5 0.315305 0.021777 0.143190
Si Si6 0.816186 0.585121 0.385500
Si Si7 0.317013 0.694442 0.620597
Si Si8 0.681793 0.299671 0.804966
O O1 0.222056 0.402724 0.632818
O O2 0.225329 0.270250 0.619865
O O3 0.262187 0.325307 0.733619
O O4 0.000000 0.330310 0.673233
O O5 0.500000 0.673568 0.777673
O O6 0.725343 0.593990 0.796925
O O7 0.721710 0.670460 0.694684
O O8 0.763458 0.725431 0.808136
O O9 0.500000 0.485977 0.284594
O O10 0.255946 0.499914 0.212257
O O11 0.247785 0.529730 0.337641
O O12 0.763027 0.475259 0.084368
O O13 0.762020 0.350780 0.067670
O O14 0.000000 0.419151 0.035666
O O15 0.765094 0.425160 0.960678
O O16 0.500000 0.016785 0.148573
O O17 0.757118 0.653746 0.358577
O O18 0.000000 0.584195 0.382510
O O19 0.500000 0.688964 0.613125
O O20 0.500000 0.303713 0.808970
#
# Coordination Sequence:
#
# PCOD9351173 Si02
#       8
#     8   8   8   8   8   8   8   8
#     4   9  18  33  54  80 111 145 176 220 284 330
#     4   9  19  35  55  81 114 144 174 223 287 335
#     4  11  21  35  57  86 113 143 188 234 279 336
#     4  10  22  37  55  80 110 149 192 229 277 339
#     4  10  19  34  57  82 110 147 186 227 278 332
#     4  11  23  39  55  76 115 158 190 230 285 337
#     4   9  17  32  53  78 108 143 179 221 277 331
#     4  11  21  33  54  83 109 139 189 236 271 328
#
# _framework density 17.420971999999999
#
# number of rings (size 3 to 8) (size 9 to 14) (size 15 to 20)
#    0.000    2.000    2.500    2.625    0.000    4.000 
#    0.000    1.250    0.000    1.500    0.000    0.000 
#    0.000    0.000    0.000    0.000    0.000    0.000 
#
# Total GULP energy -178586.994625 kJ/mol
# GULP energy per Si atom -5580.843582 kJ/mol
# Density = 1.738132 g / cm^3
# Si number density = 17.420972 Si / 1000 Ang^3
#
#
#
# Elastic Constant Matrix: (Units=GPa)
#
#
# Indices 1 2 3 4 5 6 
#
# 1 32.4349 41.9565 32.0729 0.0000 0.0000 0.0000
# 2 41.9565 159.6303 80.7710 0.0000 0.0000 0.0000
# 3 32.0729 80.7710 120.4118 0.0000 0.0000 0.0000
# 4 0.0000 0.0000 0.0000 22.5781 0.0000 0.0000
# 5 0.0000 0.0000 0.0000 0.0000 16.5168 0.0000
# 6 0.0000 0.0000 0.0000 0.0000 0.0000 28.1137
#
#
#
# Elastic Compliance Matrix: (Units=1/GPa)
#
#
# Indices 1 2 3 4 5 6 
#
# 1 0.050178 -0.009727 -0.006840 0.000000 0.000000 0.000000
# 2 -0.009727 0.011369 -0.005035 0.000000 0.000000 0.000000
# 3 -0.006840 -0.005035 0.013504 0.000000 0.000000 0.000000
# 4 0.000000 0.000000 0.000000 0.044291 0.000000 0.000000
# 5 0.000000 0.000000 0.000000 0.000000 0.060544 0.000000
# 6 0.000000 0.000000 0.000000 0.000000 0.000000 0.035570
#
#
# Mechanical properties :
#
#
# Convention : Reuss Voigt Hill
#
# Bulk Modulus (GPa) = 31.40170 69.11975 50.26072
# Shear Modulus (GPa) = 18.56824 23.95351 21.26087
#
# Velocity S-wave (km/s) = 3.26829 3.71210 3.49724
# Velocity P-wave (km/s) = 5.68389 7.62464 6.72465
#
# Compressibility (1/GPa) = 0.03184541
#
# Stress axis : x y z
#
# Youngs Moduli (GPa) = 19.92908 87.95921 74.05010
#
# Poissons Ratio (x) = 0.85561 0.50653
# Poissons Ratio (y) = 0.19386 0.37285
# Poissons Ratio (z) = 0.13632 0.44289
#
# Static dielectric constant tensor:
#      x y z
#    x 1.589710 0.000000 0.000000 
#    y 0.000000 1.607060 0.000000 
#    z 0.000000 0.000000 1.562310 
# 
# From -- ./inp_files/13854.got.cif
#   From: 2010.05.17/outbox.cif.g08.bks.cpg/sg36_7_cif.got.tgz:13854.got - 2010.06.03 17:41:39.
