data_PCOD9351884
_publ_section_title
;
Structure prediction by ZEFSAII (Michael W. Deem and Ramdas Pophale) SiO2 
 PCOD9351884
Probable space group: C M C 21
;
_chemical_formula_sum "Si O2"
_cell_formula_units_Z 64
_cell_length_a 16.962979
_cell_length_b 14.629165
_cell_length_c 11.898622
_cell_angle_alpha 90.000000
_cell_angle_beta 90.000000
_cell_angle_gamma 90.000000
_cell_volume 2952.693246
_symmetry_space_group_name_H-M "C M C 21"
_symmetry_group_IT_number 36
_symmetry_cell_setting 'orthorhombic'
loop_
_space_group_symop_operation_xyz
x,y,z
-x,-y,1/2+z
x,-y,1/2+z
-x,y,z
1/2+x,1/2+y,z
1/2-x,1/2-y,1/2+z
1/2+x,1/2-y,1/2+z
1/2-x,1/2+y,z
loop_
_atom_site_type_symbol
_atom_site_label
_atom_site_fract_x
_atom_site_fract_y
_atom_site_fract_z
Si Si1 0.410298 0.628650 0.853180
Si Si2 0.909634 0.643967 0.760791
Si Si3 0.410570 0.922993 0.739293
Si Si4 0.695710 0.873670 0.930531
Si Si5 0.215730 0.465358 0.577729
Si Si6 0.587698 0.310608 0.615217
Si Si7 0.171324 0.955128 0.767872
Si Si8 0.249725 0.682181 0.894404
O O1 0.500000 0.651325 0.814155
O O2 0.392902 0.522022 0.823113
O O3 0.326568 0.672596 0.812977
O O4 0.408041 0.658214 0.985354
O O5 0.904159 0.533593 0.755727
O O6 0.904089 0.703385 0.645398
O O7 0.835128 0.677650 0.834540
O O8 0.000000 0.662180 0.803383
O O9 0.500000 0.900499 0.712349
O O10 0.380073 0.871323 0.849596
O O11 0.348725 0.904188 0.641100
O O12 0.765451 0.921600 0.858329
O O13 0.732063 0.776013 0.959578
O O14 0.676675 0.945902 0.025509
O O15 0.278751 0.501697 0.667642
O O16 0.250483 0.402665 0.479864
O O17 0.500000 0.336920 0.650339
O O18 0.641119 0.367005 0.700499
#
# Coordination Sequence:
#
# PCOD9351884 Si02
#       8
#     8   8   8   8   8   8   8   8
#     4  11  24  41  64  95 134 178 223 279 340 409
#     4  10  21  40  68  96 126 171 227 284 341 406
#     4  10  23  42  66  96 134 174 221 284 345 403
#     4  11  23  39  67  94 128 177 221 272 338 406
#     4  11  23  40  63 100 130 175 229 270 339 413
#     4  10  20  36  62  97 128 165 225 277 334 408
#     4  11  19  41  63  92 128 171 217 279 337 396
#     4  12  22  41  66  92 132 179 218 277 342 403
#
# _framework density 21.675127
#
# number of rings (size 3 to 8) (size 9 to 14) (size 15 to 20)
#    0.000    1.250    5.000    1.125    1.750    1.500 
#    4.500    0.000    0.000    0.000    0.000    0.000 
#    0.000    0.000    0.000    0.000    0.000    0.000 
#
# Total GULP energy -178310.257782 kJ/mol
# GULP energy per Si atom -5572.195556 kJ/mol
# Density = 2.162579 g / cm^3
# Si number density = 21.675127 Si / 1000 Ang^3
#
#
#
# Elastic Constant Matrix: (Units=GPa)
#
#
# Indices 1 2 3 4 5 6 
#
# 1 136.5012 1.3227 22.0156 0.0000 0.0000 0.0000
# 2 1.3227 79.4492 23.8595 0.0000 0.0000 0.0000
# 3 22.0156 23.8595 40.3364 0.0000 0.0000 0.0000
# 4 0.0000 0.0000 0.0000 20.4633 0.0000 0.0000
# 5 0.0000 0.0000 0.0000 0.0000 21.5105 0.0000
# 6 0.0000 0.0000 0.0000 0.0000 0.0000 27.6981
#
#
#
# Elastic Compliance Matrix: (Units=1/GPa)
#
#
# Indices 1 2 3 4 5 6 
#
# 1 0.008171 0.001463 -0.005325 0.000000 0.000000 0.000000
# 2 0.001463 0.015568 -0.010007 0.000000 0.000000 0.000000
# 3 -0.005325 -0.010007 0.033617 0.000000 0.000000 0.000000
# 4 0.000000 0.000000 0.000000 0.048868 0.000000 0.000000
# 5 0.000000 0.000000 0.000000 0.000000 0.046489 0.000000
# 6 0.000000 0.000000 0.000000 0.000000 0.000000 0.036104
#
#
# Mechanical properties :
#
#
# Convention : Reuss Voigt Hill
#
# Bulk Modulus (GPa) = 33.76366 38.96470 36.36418
# Shear Modulus (GPa) = 22.08227 27.87364 24.97795
#
# Velocity S-wave (km/s) = 3.19530 3.58994 3.39835
# Velocity P-wave (km/s) = 5.40594 5.93290 5.67554
#
# Compressibility (1/GPa) = 0.02961764
#
# Stress axis : x y z
#
# Youngs Moduli (GPa) = 122.38996 64.23631 29.74670
#
# Poissons Ratio (x) = -0.09399 0.15840
# Poissons Ratio (y) = -0.17907 0.29767
# Poissons Ratio (z) = 0.65172 0.64281
#
# Static dielectric constant tensor:
#      x y z
#    x 1.831560 0.000000 0.000000 
#    y 0.000000 1.819420 0.000000 
#    z 0.000000 0.000000 1.807940 
# 
# From -- ./inp_files/9004.got.cif
#   From: 2010.05.17/outbox.cif.g08.bks.cpg/sg36_5_cif.got.tgz:9004.got - 2010.06.03 17:41:39.
