data_PCOD9351097
_publ_section_title
;
Structure prediction by ZEFSAII (Michael W. Deem and Ramdas Pophale) SiO2 
 PCOD9351097
Probable space group: C M C 21
;
_chemical_formula_sum "Si O2"
_cell_formula_units_Z 64
_cell_length_a 8.942413
_cell_length_b 23.371496
_cell_length_c 16.473202
_cell_angle_alpha 90.000000
_cell_angle_beta 90.000000
_cell_angle_gamma 90.000000
_cell_volume 3442.859183
_symmetry_space_group_name_H-M "C M C 21"
_symmetry_group_IT_number 36
_symmetry_cell_setting 'orthorhombic'
loop_
_space_group_symop_operation_xyz
x,y,z
-x,-y,1/2+z
x,-y,1/2+z
-x,y,z
1/2+x,1/2+y,z
1/2-x,1/2-y,1/2+z
1/2+x,1/2-y,1/2+z
1/2-x,1/2+y,z
loop_
_atom_site_type_symbol
_atom_site_label
_atom_site_fract_x
_atom_site_fract_y
_atom_site_fract_z
Si Si1 0.320003 0.412339 0.031450
Si Si2 0.330463 0.368279 0.622893
Si Si3 0.677106 0.686112 0.414026
Si Si4 0.178871 0.719298 0.243587
Si Si5 0.821136 0.536621 0.016065
Si Si6 0.169665 0.788582 0.466007
Si Si7 0.320576 0.114037 0.861902
Si Si8 0.180562 0.849763 0.200005
O O1 0.500000 0.419893 0.033125
O O2 0.279756 0.376554 0.112624
O O3 0.282637 0.374748 0.952048
O O4 0.241255 0.473196 0.026080
O O5 0.500000 0.381812 0.649564
O O6 0.242466 0.332292 0.689510
O O7 0.248793 0.423617 0.586445
O O8 0.338610 0.325468 0.546751
O O9 0.500000 0.688452 0.401365
O O10 0.760652 0.705624 0.333167
O O11 0.729126 0.733357 0.478983
O O12 0.226787 0.782966 0.212874
O O13 0.000000 0.718548 0.241906
O O14 0.782177 0.564441 0.927584
O O15 0.000000 0.537834 0.022331
O O16 0.249313 0.828757 0.400232
O O17 0.000000 0.774055 0.440912
O O18 0.500000 0.118420 0.858286
O O19 0.252757 0.112226 0.771900
O O20 0.000000 0.851408 0.207814
#
# Coordination Sequence:
#
# PCOD9351097 Si02
#       8
#     8   8   8   8   8   8   8   8
#     4  10  23  42  61  85 118 161 204 247 298 354
#     4  10  21  37  60  87 116 153 196 241 294 355
#     4  11  22  37  58  85 120 158 197 242 297 357
#     4  11  22  37  59  90 125 156 192 242 301 359
#     4  10  22  41  62  86 116 154 202 250 297 350
#     4  10  19  33  56  86 117 151 190 237 293 350
#     4  10  20  35  59  88 117 152 194 243 295 352
#     4  10  21  38  61  89 121 155 195 244 301 359
#
# _framework density 18.589200000000002
#
# number of rings (size 3 to 8) (size 9 to 14) (size 15 to 20)
#    0.000    1.750    1.250    3.000    0.000    6.000 
#    2.250    0.000    0.000    0.000    0.000    0.000 
#    0.000    0.000    0.000    0.000    0.000    0.000 
#
# Total GULP energy -178578.838309 kJ/mol
# GULP energy per Si atom -5580.588697 kJ/mol
# Density = 1.854689 g / cm^3
# Si number density = 18.589200 Si / 1000 Ang^3
#
#
#
# Elastic Constant Matrix: (Units=GPa)
#
#
# Indices 1 2 3 4 5 6 
#
# 1 56.5311 53.3575 42.6386 0.0000 0.0000 0.0000
# 2 53.3575 146.7081 60.9978 0.0000 0.0000 0.0000
# 3 42.6386 60.9978 82.3988 0.0000 0.0000 0.0000
# 4 0.0000 0.0000 0.0000 24.2111 0.0000 0.0000
# 5 0.0000 0.0000 0.0000 0.0000 31.2698 0.0000
# 6 0.0000 0.0000 0.0000 0.0000 0.0000 33.0216
#
#
#
# Elastic Compliance Matrix: (Units=1/GPa)
#
#
# Indices 1 2 3 4 5 6 
#
# 1 0.033568 -0.007204 -0.012038 0.000000 0.000000 0.000000
# 2 -0.007204 0.011393 -0.004706 0.000000 0.000000 0.000000
# 3 -0.012038 -0.004706 0.021849 0.000000 0.000000 0.000000
# 4 0.000000 0.000000 0.000000 0.041303 0.000000 0.000000
# 5 0.000000 0.000000 0.000000 0.000000 0.031980 0.000000
# 6 0.000000 0.000000 0.000000 0.000000 0.000000 0.030283
#
#
# Mechanical properties :
#
#
# Convention : Reuss Voigt Hill
#
# Bulk Modulus (GPa) = 52.86822 66.62511 59.74666
# Shear Modulus (GPa) = 22.26412 26.27678 24.27045
#
# Velocity S-wave (km/s) = 3.46452 3.76380 3.61726
# Velocity P-wave (km/s) = 6.67128 7.40316 7.04673
#
# Compressibility (1/GPa) = 0.01891496
#
# Stress axis : x y z
#
# Youngs Moduli (GPa) = 29.79025 87.77330 45.76850
#
# Poissons Ratio (x) = 0.63229 0.55094
# Poissons Ratio (y) = 0.21460 0.21540
# Poissons Ratio (z) = 0.35860 0.41309
#
# Static dielectric constant tensor:
#      x y z
#    x 1.639190 0.000000 0.000000 
#    y 0.000000 1.638630 0.000000 
#    z 0.000000 0.000000 1.687190 
# 
# From -- ./inp_files/13944.got.cif
#   From: 2010.05.17/outbox.cif.g08.bks.cpg/sg36_7_cif.got.tgz:13944.got - 2010.06.03 17:41:39.
