data_PCOD9351956
_publ_section_title
;
Structure prediction by ZEFSAII (Michael W. Deem and Ramdas Pophale) SiO2 
 PCOD9351956
Probable space group: C M C 21
;
_chemical_formula_sum "Si O2"
_cell_formula_units_Z 64
_cell_length_a 8.837809
_cell_length_b 25.054740
_cell_length_c 14.174017
_cell_angle_alpha 90.000000
_cell_angle_beta 90.000000
_cell_angle_gamma 90.000000
_cell_volume 3138.538505
_symmetry_space_group_name_H-M "C M C 21"
_symmetry_group_IT_number 36
_symmetry_cell_setting 'orthorhombic'
loop_
_space_group_symop_operation_xyz
x,y,z
-x,-y,1/2+z
x,-y,1/2+z
-x,y,z
1/2+x,1/2+y,z
1/2-x,1/2-y,1/2+z
1/2+x,1/2-y,1/2+z
1/2-x,1/2+y,z
loop_
_atom_site_type_symbol
_atom_site_label
_atom_site_fract_x
_atom_site_fract_y
_atom_site_fract_z
Si Si1 0.679059 0.042916 0.383070
Si Si2 0.175344 0.832944 0.392873
Si Si3 0.182131 0.910625 0.690193
Si Si4 0.178100 0.946570 0.487730
Si Si5 0.677865 0.819255 0.194479
Si Si6 0.824691 0.876488 0.028808
Si Si7 0.175133 0.705823 0.201837
Si Si8 0.171744 0.716706 0.429440
O O1 0.500000 0.046287 0.370497
O O2 0.757012 0.063297 0.286729
O O3 0.732673 0.080808 0.468484
O O4 0.730592 0.984813 0.418218
O O5 0.193401 0.885939 0.452453
O O6 0.281960 0.830804 0.302704
O O7 0.198646 0.778680 0.450778
O O8 0.000000 0.830277 0.358777
O O9 0.224076 0.945570 0.597817
O O10 0.247233 0.850614 0.678854
O O11 0.000000 0.907348 0.693622
O O12 0.000000 0.961292 0.482416
O O13 0.500000 0.819976 0.179574
O O14 0.741853 0.760129 0.170313
O O15 0.758588 0.863905 0.131203
O O16 0.795487 0.821206 0.973813
O O17 0.000000 0.890905 0.032123
O O18 0.175609 0.709885 0.316434
O O19 0.000000 0.706123 0.170769
O O20 0.000000 0.701924 0.459940
#
# Coordination Sequence:
#
# PCOD9351956 Si02
#       8
#     8   8   8   8   8   8   8   8
#     4  12  26  45  67  93 129 172 216 270 324 379
#     4   9  20  41  64  90 129 169 210 262 322 381
#     4  11  23  41  68  98 126 165 213 264 323 384
#     4  10  24  45  69  97 127 168 216 264 319 385
#     4  11  23  38  60  92 133 175 218 265 322 388
#     4  12  24  39  62  92 126 169 218 267 321 383
#     4  10  20  37  61  92 131 170 211 261 318 379
#     4   9  18  34  59  90 127 166 204 257 317 377
#
# _framework density 20.391656000000001
#
# number of rings (size 3 to 8) (size 9 to 14) (size 15 to 20)
#    0.000    1.500    1.250    4.875    1.750    4.500 
#    0.000    1.250    0.000    0.000    0.000    0.000 
#    0.000    0.000    0.000    0.000    0.000    0.000 
#
# Total GULP energy -178883.829587 kJ/mol
# GULP energy per Si atom -5590.119675 kJ/mol
# Density = 2.034524 g / cm^3
# Si number density = 20.391656 Si / 1000 Ang^3
#
#
#
# Elastic Constant Matrix: (Units=GPa)
#
#
# Indices 1 2 3 4 5 6 
#
# 1 83.6146 19.8801 15.4179 0.0000 0.0000 0.0000
# 2 19.8801 59.2155 1.4449 0.0000 0.0000 0.0000
# 3 15.4179 1.4449 54.4417 0.0000 0.0000 0.0000
# 4 0.0000 0.0000 0.0000 19.6635 0.0000 0.0000
# 5 0.0000 0.0000 0.0000 0.0000 22.3309 0.0000
# 6 0.0000 0.0000 0.0000 0.0000 0.0000 32.8565
#
#
#
# Elastic Compliance Matrix: (Units=1/GPa)
#
#
# Indices 1 2 3 4 5 6 
#
# 1 0.013728 -0.004517 -0.003768 0.000000 0.000000 0.000000
# 2 -0.004517 0.018385 0.000791 0.000000 0.000000 0.000000
# 3 -0.003768 0.000791 0.019414 0.000000 0.000000 0.000000
# 4 0.000000 0.000000 0.000000 0.050856 0.000000 0.000000
# 5 0.000000 0.000000 0.000000 0.000000 0.044781 0.000000
# 6 0.000000 0.000000 0.000000 0.000000 0.000000 0.030435
#
#
# Mechanical properties :
#
#
# Convention : Reuss Voigt Hill
#
# Bulk Modulus (GPa) = 27.36732 30.08418 28.72575
# Shear Modulus (GPa) = 24.41801 25.67211 25.04506
#
# Velocity S-wave (km/s) = 3.46417 3.55202 3.50837
# Velocity P-wave (km/s) = 5.42685 5.62207 5.52532
#
# Compressibility (1/GPa) = 0.03653993
#
# Stress axis : x y z
#
# Youngs Moduli (GPa) = 72.84187 54.39325 51.50822
#
# Poissons Ratio (x) = 0.24569 0.19408
# Poissons Ratio (y) = 0.32903 -0.04076
# Poissons Ratio (z) = 0.27447 -0.04304
#
# Static dielectric constant tensor:
#      x y z
#    x 1.700620 0.000000 0.000000 
#    y 0.000000 1.731640 0.000000 
#    z 0.000000 0.000000 1.741400 
# 
# From -- ./inp_files/11012.got.cif
#   From: 2010.05.17/outbox.cif.g08.bks.cpg/sg36_6_cif.got.tgz:11012.got - 2010.06.03 17:41:39.
