data_PCOD9351420
_publ_section_title
;
Structure prediction by ZEFSAII (Michael W. Deem and Ramdas Pophale) SiO2 
 PCOD9351420
Probable space group: C M C 21
;
_chemical_formula_sum "Si O2"
_cell_formula_units_Z 52
_cell_length_a 10.885261
_cell_length_b 8.465862
_cell_length_c 27.634333
_cell_angle_alpha 90.000000
_cell_angle_beta 90.000000
_cell_angle_gamma 90.000000
_cell_volume 2546.589935
_symmetry_space_group_name_H-M "C M C 21"
_symmetry_group_IT_number 36
_symmetry_cell_setting 'orthorhombic'
loop_
_space_group_symop_operation_xyz
x,y,z
-x,-y,1/2+z
x,-y,1/2+z
-x,y,z
1/2+x,1/2+y,z
1/2-x,1/2-y,1/2+z
1/2+x,1/2-y,1/2+z
1/2-x,1/2+y,z
loop_
_atom_site_type_symbol
_atom_site_label
_atom_site_fract_x
_atom_site_fract_y
_atom_site_fract_z
Si Si1 0.000000 0.538753 0.738690
Si Si2 0.871132 0.721593 0.084137
Si Si3 0.000000 0.216617 0.676326
Si Si4 0.135798 0.310799 0.959514
Si Si5 0.236931 0.573538 0.296182
Si Si6 0.000000 0.898318 0.739740
Si Si7 0.645489 0.656950 0.859081
Si Si8 0.194349 0.978188 0.524741
O O1 0.127754 0.520044 0.768871
O O2 0.000000 0.718738 0.718133
O O3 0.000000 0.382415 0.704886
O O4 0.000000 0.632163 0.075573
O O5 0.883565 0.777491 0.139447
O O6 0.763340 0.608428 0.068795
O O7 0.870014 0.873013 0.049293
O O8 0.000000 0.054768 0.706154
O O9 0.181855 0.240221 0.908898
O O10 0.129160 0.162112 0.996188
O O11 0.216198 0.442770 0.985257
O O12 0.000000 0.374995 0.950386
O O13 0.368885 0.590578 0.268981
O O14 0.273244 0.493529 0.347050
O O15 0.173112 0.736483 0.311909
O O16 0.500000 0.622481 0.861869
#
# Coordination Sequence:
#
# PCOD9351420 Si02
#       8
#     4   8   4   8   8   4   8   8
#     4  12  26  46  70  96 131 176 225 278 342 398
#     4   9  21  41  60  88 125 158 208 266 322 380
#     4  10  26  48  62 100 130 166 220 290 332 392
#     4  10  21  35  60  94 124 167 212 256 314 389
#     4  12  23  43  66  94 130 176 218 275 331 396
#     4  12  26  46  70  96 131 176 225 278 342 398
#     4  11  22  38  62  93 136 168 218 273 318 385
#     4  10  19  39  64  86 124 170 206 257 321 388
#
# _framework density 20.419463
#
# number of rings (size 3 to 8) (size 9 to 14) (size 15 to 20)
#    0.462    0.923    3.077    2.769    0.000    1.231 
#    5.538    0.000    3.385    0.000    0.000    0.000 
#    0.000    0.000    0.000    0.000    0.000    0.000 
#
# Total GULP energy -144736.674405 kJ/mol
# GULP energy per Si atom -5566.795169 kJ/mol
# Density = 2.037299 g / cm^3
# Si number density = 20.419463 Si / 1000 Ang^3
#
#
#
# Elastic Constant Matrix: (Units=GPa)
#
#
# Indices 1 2 3 4 5 6 
#
# 1 73.8928 20.8131 25.1086 0.0000 0.0000 0.0000
# 2 20.8131 83.6404 21.9376 0.0000 0.0000 0.0000
# 3 25.1086 21.9376 77.7176 0.0000 0.0000 0.0000
# 4 0.0000 0.0000 0.0000 32.5089 0.0000 0.0000
# 5 0.0000 0.0000 0.0000 0.0000 21.5529 0.0000
# 6 0.0000 0.0000 0.0000 0.0000 0.0000 -23.9638
#
#
#
# Elastic Compliance Matrix: (Units=1/GPa)
#
#
# Indices 1 2 3 4 5 6 
#
# 1 0.015786 -0.002798 -0.004310 0.000000 0.000000 0.000000
# 2 -0.002798 0.013408 -0.002881 0.000000 0.000000 0.000000
# 3 -0.004310 -0.002881 0.015073 0.000000 0.000000 0.000000
# 4 0.000000 0.000000 0.000000 0.030761 0.000000 0.000000
# 5 0.000000 0.000000 0.000000 0.000000 0.046398 0.000000
# 6 0.000000 0.000000 0.000000 0.000000 0.000000 -0.041730
#
#
# Mechanical properties :
#
#
# Convention : Reuss Voigt Hill
#
# Bulk Modulus (GPa) = 41.17113 41.21883 41.19498
# Shear Modulus (GPa) = 46.39567 17.17902 31.78735
#
# Velocity S-wave (km/s) = 4.77186 2.90367 3.94981
# Velocity P-wave (km/s) = 7.11107 5.60996 6.40464
#
# Compressibility (1/GPa) = 0.02428886
#
# Stress axis : x y z
#
# Youngs Moduli (GPa) = 63.34830 74.58403 66.34463
#
# Poissons Ratio (x) = 0.20866 0.28596
# Poissons Ratio (y) = 0.17722 0.19113
# Poissons Ratio (z) = 0.27305 0.21486
#
# Static dielectric constant tensor:
#      x y z
#    x 1.723330 0.000000 0.000000 
#    y 0.000000 1.740290 0.000000 
#    z 0.000000 0.000000 1.729670 
# 
# From -- ./inp_files/17164.got.cif
#   From: 2010.05.17/outbox.cif.g08.bks.cpg/sg36_9_cif.got.tgz:17164.got - 2010.06.03 17:41:39.
