data_PCOD9351046
_publ_section_title
;
Structure prediction by ZEFSAII (Michael W. Deem and Ramdas Pophale) SiO2 
 PCOD9351046
Probable space group: C M C 21
;
_chemical_formula_sum "Si O2"
_cell_formula_units_Z 64
_cell_length_a 7.548562
_cell_length_b 30.375637
_cell_length_c 12.297440
_cell_angle_alpha 90.000000
_cell_angle_beta 90.000000
_cell_angle_gamma 90.000000
_cell_volume 2819.709275
_symmetry_space_group_name_H-M "C M C 21"
_symmetry_group_IT_number 36
_symmetry_cell_setting 'orthorhombic'
loop_
_space_group_symop_operation_xyz
x,y,z
-x,-y,1/2+z
x,-y,1/2+z
-x,y,z
1/2+x,1/2+y,z
1/2-x,1/2-y,1/2+z
1/2+x,1/2-y,1/2+z
1/2-x,1/2+y,z
loop_
_atom_site_type_symbol
_atom_site_label
_atom_site_fract_x
_atom_site_fract_y
_atom_site_fract_z
Si Si1 0.202302 0.818990 0.281400
Si Si2 0.784279 0.723168 0.325180
Si Si3 0.293100 0.584242 0.794655
Si Si4 0.794368 0.639144 0.198440
Si Si5 0.213818 0.974734 0.094760
Si Si6 0.209764 0.430374 0.534034
Si Si7 0.202628 0.083956 0.407814
Si Si8 0.786662 0.669199 0.537835
O O1 0.284313 0.772667 0.316369
O O2 0.285699 0.866578 0.306369
O O3 0.205147 0.817431 0.151157
O O4 0.000000 0.819504 0.323998
O O5 0.718866 0.685863 0.239823
O O6 0.747049 0.703814 0.443529
O O7 0.000000 0.724520 0.313114
O O8 0.500000 0.590921 0.767115
O O9 0.220294 0.554276 0.696847
O O10 0.283138 0.563081 0.913303
O O11 0.716442 0.612500 0.096815
O O12 0.789155 0.605513 0.301523
O O13 0.000000 0.647511 0.173441
O O14 0.000000 0.971000 0.091542
O O15 0.257504 0.025886 0.103999
O O16 0.279521 0.956357 0.977696
O O17 0.000000 0.424875 0.523260
O O18 0.210209 0.123023 0.496788
O O19 0.000000 0.073966 0.377216
O O20 0.000000 0.665010 0.547526
#
# Coordination Sequence:
#
# PCOD9351046 Si02
#       8
#     8   8   8   8   8   8   8   8
#     4  10  19  36  60  84 112 153 199 240 286 344
#     4   8  17  34  57  81 112 154 192 233 288 344
#     4  10  22  41  61  85 118 152 193 242 291 344
#     4   9  20  39  57  83 121 155 189 238 296 343
#     4  10  22  40  60  84 113 148 195 245 291 340
#     4  11  25  40  58  86 121 158 195 235 293 357
#     4  10  19  35  60  85 107 143 194 242 286 343
#     4  10  19  33  53  82 116 149 187 239 297 343
#
# _framework density 22.697375999999998
#
# number of rings (size 3 to 8) (size 9 to 14) (size 15 to 20)
#    0.000    2.250    1.250    1.875    1.750    4.000 
#    0.000    3.125    0.000    0.000    0.000    0.000 
#    0.000    0.000    0.000    0.000    0.000    0.000 
#
# Total GULP energy -178586.894001 kJ/mol
# GULP energy per Si atom -5580.840438 kJ/mol
# Density = 2.264572 g / cm^3
# Si number density = 22.697376 Si / 1000 Ang^3
#
#
#
# Elastic Constant Matrix: (Units=GPa)
#
#
# Indices 1 2 3 4 5 6 
#
# 1 62.8003 -2.2329 -7.3246 0.0000 0.0000 0.0000
# 2 -2.2329 129.1762 26.7244 0.0000 0.0000 0.0000
# 3 -7.3246 26.7244 52.9757 0.0000 0.0000 0.0000
# 4 0.0000 0.0000 0.0000 22.6867 0.0000 0.0000
# 5 0.0000 0.0000 0.0000 0.0000 19.3060 0.0000
# 6 0.0000 0.0000 0.0000 0.0000 0.0000 16.4867
#
#
#
# Elastic Compliance Matrix: (Units=1/GPa)
#
#
# Indices 1 2 3 4 5 6 
#
# 1 0.016189 -0.000205 0.002342 0.000000 0.000000 0.000000
# 2 -0.000205 0.008646 -0.004390 0.000000 0.000000 0.000000
# 3 0.002342 -0.004390 0.021415 0.000000 0.000000 0.000000
# 4 0.000000 0.000000 0.000000 0.044079 0.000000 0.000000
# 5 0.000000 0.000000 0.000000 0.000000 0.051797 0.000000
# 6 0.000000 0.000000 0.000000 0.000000 0.000000 0.060655
#
#
# Mechanical properties :
#
#
# Convention : Reuss Voigt Hill
#
# Bulk Modulus (GPa) = 23.95528 31.03178 27.49353
# Shear Modulus (GPa) = 22.60378 26.88157 24.74267
#
# Velocity S-wave (km/s) = 3.15917 3.44517 3.30527
# Velocity P-wave (km/s) = 4.88716 5.43390 5.16776
#
# Compressibility (1/GPa) = 0.04174445
#
# Stress axis : x y z
#
# Youngs Moduli (GPa) = 61.76913 115.66012 46.69647
#
# Poissons Ratio (x) = 0.02366 -0.10935
# Poissons Ratio (y) = 0.01264 0.20499
# Poissons Ratio (z) = -0.14464 0.50774
#
# Static dielectric constant tensor:
#      x y z
#    x 1.879570 0.000000 0.000000 
#    y 0.000000 1.875860 0.000000 
#    z 0.000000 0.000000 1.818650 
# 
# From -- ./inp_files/7234.got.cif
#   From: 2010.05.17/outbox.cif.g08.bks.cpg/sg36_4_cif.got.tgz:7234.got - 2010.06.03 17:41:39.
