data_PCOD9351914
_publ_section_title
;
Structure prediction by ZEFSAII (Michael W. Deem and Ramdas Pophale) SiO2 
 PCOD9351914
Probable space group: C M C 21
;
_chemical_formula_sum "Si O2"
_cell_formula_units_Z 64
_cell_length_a 8.414842
_cell_length_b 29.829009
_cell_length_c 12.673605
_cell_angle_alpha 90.000000
_cell_angle_beta 90.000000
_cell_angle_gamma 90.000000
_cell_volume 3181.155938
_symmetry_space_group_name_H-M "C M C 21"
_symmetry_group_IT_number 36
_symmetry_cell_setting 'orthorhombic'
loop_
_space_group_symop_operation_xyz
x,y,z
-x,-y,1/2+z
x,-y,1/2+z
-x,y,z
1/2+x,1/2+y,z
1/2-x,1/2-y,1/2+z
1/2+x,1/2-y,1/2+z
1/2-x,1/2+y,z
loop_
_atom_site_type_symbol
_atom_site_label
_atom_site_fract_x
_atom_site_fract_y
_atom_site_fract_z
Si Si1 0.814777 0.224909 0.250000
Si Si2 0.690377 0.024855 0.532538
Si Si3 0.820723 0.318022 0.945021
Si Si4 0.307889 0.569161 0.970449
Si Si5 0.311454 0.419477 0.233236
Si Si6 0.183581 0.584799 0.344120
Si Si7 0.190520 0.134909 0.143949
Si Si8 0.310595 0.820922 0.192387
O O1 0.797805 0.207445 0.368699
O O2 0.745974 0.184016 0.178756
O O3 0.747585 0.274861 0.242564
O O4 0.000000 0.229355 0.220326
O O5 0.500000 0.025467 0.527035
O O6 0.739071 0.053340 0.635057
O O7 0.750779 0.047145 0.422438
O O8 0.752663 0.974431 0.533966
O O9 0.815478 0.370318 0.915351
O O10 0.000000 0.302046 0.920809
O O11 0.791582 0.313381 0.067589
O O12 0.500000 0.570101 0.968425
O O13 0.251183 0.566509 0.849516
O O14 0.253319 0.613411 0.034232
O O15 0.500000 0.426705 0.229526
O O16 0.274550 0.366752 0.222588
O O17 0.269880 0.599673 0.237415
O O18 0.000000 0.574071 0.317549
O O19 0.000000 0.138976 0.139403
O O20 0.500000 0.826753 0.213993
#
# Coordination Sequence:
#
# PCOD9351914 Si02
#       8
#     8   8   8   8   8   8   8   8
#     4   9  19  34  56  85 114 152 199 244 294 350
#     4  11  23  40  62  87 117 153 196 245 299 357
#     4   9  17  33  54  77 109 148 189 238 291 345
#     4  10  24  42  59  86 122 159 199 243 297 356
#     4  11  24  41  62  89 122 157 200 248 298 361
#     4   9  18  34  56  82 108 141 189 242 290 345
#     4   9  19  37  58  82 116 155 195 242 293 348
#     4  10  20  37  59  84 118 157 197 246 302 356
#
# _framework density 20.118473000000002
#
# number of rings (size 3 to 8) (size 9 to 14) (size 15 to 20)
#    0.000    2.250    1.250    0.750    1.750    4.500 
#    0.000    2.500    0.000    3.000    0.000    0.000 
#    0.000    0.000    0.000    0.000    0.000    0.000 
#
# Total GULP energy -178469.621172 kJ/mol
# GULP energy per Si atom -5577.175662 kJ/mol
# Density = 2.007268 g / cm^3
# Si number density = 20.118473 Si / 1000 Ang^3
#
#
#
# Elastic Constant Matrix: (Units=GPa)
#
#
# Indices 1 2 3 4 5 6 
#
# 1 5.9843 2.3070 3.7567 0.0000 0.0000 0.0000
# 2 2.3070 90.4383 19.9700 0.0000 0.0000 0.0000
# 3 3.7567 19.9700 40.0970 0.0000 0.0000 0.0000
# 4 0.0000 0.0000 0.0000 21.1690 0.0000 0.0000
# 5 0.0000 0.0000 0.0000 0.0000 19.0459 0.0000
# 6 0.0000 0.0000 0.0000 0.0000 0.0000 24.1432
#
#
#
# Elastic Compliance Matrix: (Units=1/GPa)
#
#
# Indices 1 2 3 4 5 6 
#
# 1 0.177620 -0.000962 -0.016162 0.000000 0.000000 0.000000
# 2 -0.000962 0.012429 -0.006100 0.000000 0.000000 0.000000
# 3 -0.016162 -0.006100 0.029492 0.000000 0.000000 0.000000
# 4 0.000000 0.000000 0.000000 0.047239 0.000000 0.000000
# 5 0.000000 0.000000 0.000000 0.000000 0.052505 0.000000
# 6 0.000000 0.000000 0.000000 0.000000 0.000000 0.041420
#
#
# Mechanical properties :
#
#
# Convention : Reuss Voigt Hill
#
# Bulk Modulus (GPa) = 5.77726 20.95412 13.36569
# Shear Modulus (GPa) = 10.75618 20.23735 15.49677
#
# Velocity S-wave (km/s) = 2.31474 3.17505 2.77839
# Velocity P-wave (km/s) = 3.16574 4.88664 4.11710
#
# Compressibility (1/GPa) = 0.17309230
#
# Stress axis : x y z
#
# Youngs Moduli (GPa) = 5.63000 80.45869 33.90782
#
# Poissons Ratio (x) = 0.07741 0.54802
# Poissons Ratio (y) = 0.00542 0.20683
# Poissons Ratio (z) = 0.09099 0.49079
#
# Static dielectric constant tensor:
#      x y z
#    x 1.714470 0.000000 0.000000 
#    y 0.000000 1.715210 0.000000 
#    z 0.000000 0.000000 1.712650 
# 
# From -- ./inp_files/7153.got.cif
#   From: 2010.05.17/outbox.cif.g08.bks.cpg/sg36_4_cif.got.tgz:7153.got - 2010.06.03 17:41:39.
