data_PCOD9351667
_publ_section_title
;
Structure prediction by ZEFSAII (Michael W. Deem and Ramdas Pophale) SiO2 
 PCOD9351667
Probable space group: C M C 21
;
_chemical_formula_sum "Si O2"
_cell_formula_units_Z 64
_cell_length_a 29.910463
_cell_length_b 5.463557
_cell_length_c 19.251695
_cell_angle_alpha 90.000000
_cell_angle_beta 90.000000
_cell_angle_gamma 90.000000
_cell_volume 3146.064243
_symmetry_space_group_name_H-M "C M C 21"
_symmetry_group_IT_number 36
_symmetry_cell_setting 'orthorhombic'
loop_
_space_group_symop_operation_xyz
x,y,z
-x,-y,1/2+z
x,-y,1/2+z
-x,y,z
1/2+x,1/2+y,z
1/2-x,1/2-y,1/2+z
1/2+x,1/2-y,1/2+z
1/2-x,1/2+y,z
loop_
_atom_site_type_symbol
_atom_site_label
_atom_site_fract_x
_atom_site_fract_y
_atom_site_fract_z
Si Si1 0.655896 0.916841 0.996530
Si Si2 0.582073 0.502143 0.269802
Si Si3 0.277253 0.093213 0.614630
Si Si4 0.450249 0.796383 0.391999
Si Si5 0.050846 0.301732 0.648889
Si Si6 0.132294 0.616232 0.700432
Si Si7 0.400977 0.417503 0.019238
Si Si8 0.128722 0.626879 0.351682
O O1 0.663334 0.897942 0.913560
O O2 0.702052 0.903993 0.037619
O O3 0.625645 0.676457 0.017492
O O4 0.632388 0.179231 0.014526
O O5 0.552211 0.684133 0.314549
O O6 0.551844 0.322111 0.225241
O O7 0.615645 0.610778 0.212904
O O8 0.615527 0.394209 0.327213
O O9 0.250339 0.344417 0.626575
O O10 0.321431 0.089780 0.662158
O O11 0.500000 0.874203 0.409098
O O12 0.432129 0.613942 0.451146
O O13 0.415896 0.018220 0.386979
O O14 0.090948 0.495484 0.659149
O O15 0.067738 0.126096 0.586615
O O16 0.000000 0.388303 0.634841
O O17 0.136749 0.509103 0.778743
#
# Coordination Sequence:
#
# PCOD9351667 Si02
#       8
#     8   8   8   8   8   8   8   8
#     4  11  22  45  68  96 130 172 220 279 336 403
#     4  10  20  38  62  90 126 182 221 273 331 385
#     4  12  27  46  74 104 130 173 224 280 351 413
#     4  10  20  35  55  93 134 178 233 274 314 390
#     4  11  23  37  60  96 134 182 228 271 327 395
#     4  10  23  43  66  95 138 175 222 282 337 403
#     4  11  22  40  64  93 134 182 216 278 329 382
#     4   9  21  38  65  91 127 180 216 271 343 389
#
# _framework density 20.342876
#
# number of rings (size 3 to 8) (size 9 to 14) (size 15 to 20)
#    0.000    1.500    2.500    2.250    3.500    5.500 
#    0.000    2.500    0.000    0.000    0.000    0.000 
#    0.000    0.000    0.000    0.000    0.000    0.000 
#
# Total GULP energy -178363.682858 kJ/mol
# GULP energy per Si atom -5573.865089 kJ/mol
# Density = 2.029657 g / cm^3
# Si number density = 20.342876 Si / 1000 Ang^3
#
#
#
# Elastic Constant Matrix: (Units=GPa)
#
#
# Indices 1 2 3 4 5 6 
#
# 1 116.2255 43.8773 31.3372 0.0000 0.0000 0.0000
# 2 43.8773 82.5870 15.8594 0.0000 0.0000 0.0000
# 3 31.3372 15.8594 87.8749 0.0000 0.0000 0.0000
# 4 0.0000 0.0000 0.0000 30.9379 0.0000 0.0000
# 5 0.0000 0.0000 0.0000 0.0000 26.6243 0.0000
# 6 0.0000 0.0000 0.0000 0.0000 0.0000 10.2766
#
#
#
# Elastic Compliance Matrix: (Units=1/GPa)
#
#
# Indices 1 2 3 4 5 6 
#
# 1 0.011531 -0.005528 -0.003114 0.000000 0.000000 0.000000
# 2 -0.005528 0.015193 -0.000771 0.000000 0.000000 0.000000
# 3 -0.003114 -0.000771 0.012629 0.000000 0.000000 0.000000
# 4 0.000000 0.000000 0.000000 0.032323 0.000000 0.000000
# 5 0.000000 0.000000 0.000000 0.000000 0.037560 0.000000
# 6 0.000000 0.000000 0.000000 0.000000 0.000000 0.097309
#
#
# Mechanical properties :
#
#
# Convention : Reuss Voigt Hill
#
# Bulk Modulus (GPa) = 48.71509 52.09281 50.40395
# Shear Modulus (GPa) = 21.53194 26.60865 24.07030
#
# Velocity S-wave (km/s) = 3.25691 3.62056 3.44354
# Velocity P-wave (km/s) = 6.17595 6.56818 6.37508
#
# Compressibility (1/GPa) = 0.02052752
#
# Stress axis : x y z
#
# Youngs Moduli (GPa) = 86.72603 65.81814 79.17978
#
# Poissons Ratio (x) = 0.36384 0.24659
# Poissons Ratio (y) = 0.47942 0.06102
# Poissons Ratio (z) = 0.27009 0.05073
#
# Static dielectric constant tensor:
#      x y z
#    x 1.698310 0.000000 0.000000 
#    y 0.000000 1.814160 0.000000 
#    z 0.000000 0.000000 1.790730 
# 
# From -- ./inp_files/16364.got.cif
#   From: 2010.05.17/outbox.cif.g08.bks.cpg/sg36_9_cif.got.tgz:16364.got - 2010.06.03 17:41:39.
