data_PCOD9351952
_publ_section_title
;
Structure prediction by ZEFSAII (Michael W. Deem and Ramdas Pophale) SiO2 
 PCOD9351952
Probable space group: C M C 21
;
_chemical_formula_sum "Si O2"
_cell_formula_units_Z 64
_cell_length_a 16.047541
_cell_length_b 10.049188
_cell_length_c 20.861941
_cell_angle_alpha 90.000000
_cell_angle_beta 90.000000
_cell_angle_gamma 90.000000
_cell_volume 3364.295834
_symmetry_space_group_name_H-M "C M C 21"
_symmetry_group_IT_number 36
_symmetry_cell_setting 'orthorhombic'
loop_
_space_group_symop_operation_xyz
x,y,z
-x,-y,1/2+z
x,-y,1/2+z
-x,y,z
1/2+x,1/2+y,z
1/2-x,1/2-y,1/2+z
1/2+x,1/2-y,1/2+z
1/2-x,1/2+y,z
loop_
_atom_site_type_symbol
_atom_site_label
_atom_site_fract_x
_atom_site_fract_y
_atom_site_fract_z
Si Si1 0.597332 0.011040 0.462850
Si Si2 0.401831 0.782923 0.706186
Si Si3 0.593936 0.468154 0.698076
Si Si4 0.334614 0.200873 0.061150
Si Si5 0.908358 0.025591 0.549007
Si Si6 0.225052 0.407075 0.365294
Si Si7 0.261922 0.652037 0.281140
Si Si8 0.673559 0.700651 0.986581
O O1 0.500000 0.033568 0.454626
O O2 0.614835 0.904013 0.518634
O O3 0.639696 0.951965 0.399067
O O4 0.641870 0.149654 0.480982
O O5 0.500000 0.823370 0.711716
O O6 0.399443 0.623578 0.718023
O O7 0.367514 0.805061 0.633766
O O8 0.332118 0.846978 0.752299
O O9 0.500000 0.421560 0.715074
O O10 0.600415 0.471809 0.621180
O O11 0.668665 0.386106 0.728877
O O12 0.346985 0.352525 0.037362
O O13 0.237957 0.176348 0.045395
O O14 0.898222 0.905440 0.500357
O O15 0.000000 0.087159 0.545215
O O16 0.265617 0.538871 0.335486
O O17 0.279596 0.342471 0.422022
O O18 0.218139 0.295492 0.310921
#
# Coordination Sequence:
#
# PCOD9351952 Si02
#       8
#     8   8   8   8   8   8   8   8
#     4  11  23  40  61  89 126 157 199 259 312 363
#     4  10  21  39  64  92 123 162 202 247 314 373
#     4   9  20  39  63  90 120 156 199 249 301 365
#     4  10  20  38  63  91 121 153 198 246 299 366
#     4  10  20  37  61  90 118 148 194 242 295 358
#     4  11  25  41  60  86 118 158 209 249 301 356
#     4  12  22  43  63  87 120 160 210 254 298 365
#     4  11  22  39  60  87 120 162 194 244 306 362
#
# _framework density 19.023298
#
# number of rings (size 3 to 8) (size 9 to 14) (size 15 to 20)
#    0.000    1.500    2.500    4.500    1.750    2.000 
#    2.250    1.250    0.000    0.000    0.000    0.000 
#    0.000    0.000    0.000    0.000    0.000    0.000 
#
# Total GULP energy -178570.322017 kJ/mol
# GULP energy per Si atom -5580.322563 kJ/mol
# Density = 1.898000 g / cm^3
# Si number density = 19.023298 Si / 1000 Ang^3
#
#
#
# Elastic Constant Matrix: (Units=GPa)
#
#
# Indices 1 2 3 4 5 6 
#
# 1 116.8584 23.4864 30.7213 0.0000 0.0000 0.0000
# 2 23.4864 66.3266 25.8176 0.0000 0.0000 0.0000
# 3 30.7213 25.8176 34.2582 0.0000 0.0000 0.0000
# 4 0.0000 0.0000 0.0000 29.4915 0.0000 0.0000
# 5 0.0000 0.0000 0.0000 0.0000 15.0276 0.0000
# 6 0.0000 0.0000 0.0000 0.0000 0.0000 25.1117
#
#
#
# Elastic Compliance Matrix: (Units=1/GPa)
#
#
# Indices 1 2 3 4 5 6 
#
# 1 0.011197 -0.000080 -0.009981 0.000000 0.000000 0.000000
# 2 -0.000080 0.021336 -0.016008 0.000000 0.000000 0.000000
# 3 -0.009981 -0.016008 0.050205 0.000000 0.000000 0.000000
# 4 0.000000 0.000000 0.000000 0.033908 0.000000 0.000000
# 5 0.000000 0.000000 0.000000 0.000000 0.066544 0.000000
# 6 0.000000 0.000000 0.000000 0.000000 0.000000 0.039822
#
#
# Mechanical properties :
#
#
# Convention : Reuss Voigt Hill
#
# Bulk Modulus (GPa) = 32.67911 41.94375 37.31143
# Shear Modulus (GPa) = 17.52232 23.08736 20.30484
#
# Velocity S-wave (km/s) = 3.03825 3.48751 3.27060
# Velocity P-wave (km/s) = 5.43357 6.18978 5.82397
#
# Compressibility (1/GPa) = 0.03060059
#
# Stress axis : x y z
#
# Youngs Moduli (GPa) = 89.30644 46.86864 19.91848
#
# Poissons Ratio (x) = 0.00374 0.19881
# Poissons Ratio (y) = 0.00713 0.31885
# Poissons Ratio (z) = 0.89138 0.75026
#
# Static dielectric constant tensor:
#      x y z
#    x 1.650750 0.000000 0.000000 
#    y 0.000000 1.630450 0.000000 
#    z 0.000000 0.000000 1.662610 
# 
# From -- ./inp_files/16239.got.cif
#   From: 2010.05.17/outbox.cif.g08.bks.cpg/sg36_9_cif.got.tgz:16239.got - 2010.06.03 17:41:39.
