data_PCOD9351080
_publ_section_title
;
Structure prediction by ZEFSAII (Michael W. Deem and Ramdas Pophale) SiO2 
 PCOD9351080
Probable space group: C M C 21
;
_chemical_formula_sum "Si O2"
_cell_formula_units_Z 64
_cell_length_a 8.412616
_cell_length_b 25.650989
_cell_length_c 14.426165
_cell_angle_alpha 90.000000
_cell_angle_beta 90.000000
_cell_angle_gamma 90.000000
_cell_volume 3113.049850
_symmetry_space_group_name_H-M "C M C 21"
_symmetry_group_IT_number 36
_symmetry_cell_setting 'orthorhombic'
loop_
_space_group_symop_operation_xyz
x,y,z
-x,-y,1/2+z
x,-y,1/2+z
-x,y,z
1/2+x,1/2+y,z
1/2-x,1/2-y,1/2+z
1/2+x,1/2-y,1/2+z
1/2-x,1/2+y,z
loop_
_atom_site_type_symbol
_atom_site_label
_atom_site_fract_x
_atom_site_fract_y
_atom_site_fract_z
Si Si1 0.310618 0.165333 0.066440
Si Si2 0.192036 0.077679 0.788639
Si Si3 0.184966 0.049017 0.082516
Si Si4 0.310163 0.565128 0.575841
Si Si5 0.808385 0.812996 0.370407
Si Si6 0.316753 0.871343 0.913608
Si Si7 0.818091 0.529503 0.280608
Si Si8 0.305204 0.788672 0.764571
O O1 0.500000 0.168677 0.067075
O O2 0.264439 0.104133 0.059504
O O3 0.252101 0.189921 0.164304
O O4 0.246905 0.194854 0.975758
O O5 0.240705 0.077769 0.680484
O O6 0.246456 0.129935 0.838256
O O7 0.000000 0.075081 0.793941
O O8 0.264015 0.024309 0.826698
O O9 0.205105 0.041596 0.193550
O O10 0.000000 0.053692 0.055996
O O11 0.250413 0.992864 0.047358
O O12 0.500000 0.559906 0.577757
O O13 0.266439 0.611428 0.507365
O O14 0.758312 0.769139 0.296506
O O15 0.000000 0.813046 0.370422
O O16 0.500000 0.858433 0.934621
O O17 0.312436 0.922836 0.850289
O O18 0.250230 0.826110 0.848242
O O19 0.000000 0.525060 0.246165
O O20 0.500000 0.791287 0.762949
#
# Coordination Sequence:
#
# PCOD9351080 Si02
#       8
#     8   8   8   8   8   8   8   8
#     4  11  22  39  62  88 118 152 193 246 298 352
#     4   9  20  38  56  80 116 154 194 238 292 351
#     4  10  20  36  57  84 118 156 196 239 292 351
#     4   9  20  35  53  82 118 155 194 239 287 345
#     4  10  22  41  64  86 113 156 201 244 295 350
#     4  10  20  35  55  83 115 155 195 233 293 353
#     4  10  19  33  55  83 116 153 191 238 294 345
#     4   9  20  41  62  82 116 157 194 237 293 351
#
# _framework density 20.558617000000002
#
# number of rings (size 3 to 8) (size 9 to 14) (size 15 to 20)
#    0.000    2.250    1.250    1.875    1.750    5.000 
#    0.000    3.125    0.000    0.000    0.000    0.000 
#    0.000    0.000    0.000    0.000    0.000    0.000 
#
# Total GULP energy -178543.376601 kJ/mol
# GULP energy per Si atom -5579.480519 kJ/mol
# Density = 2.051182 g / cm^3
# Si number density = 20.558617 Si / 1000 Ang^3
#
#
#
# Elastic Constant Matrix: (Units=GPa)
#
#
# Indices 1 2 3 4 5 6 
#
# 1 6.2922 11.8053 2.7387 0.0000 0.0000 0.0000
# 2 11.8053 88.4917 23.3927 0.0000 0.0000 0.0000
# 3 2.7387 23.3927 77.5384 0.0000 0.0000 0.0000
# 4 0.0000 0.0000 0.0000 25.8854 0.0000 0.0000
# 5 0.0000 0.0000 0.0000 0.0000 25.8811 0.0000
# 6 0.0000 0.0000 0.0000 0.0000 0.0000 16.5884
#
#
#
# Elastic Compliance Matrix: (Units=1/GPa)
#
#
# Indices 1 2 3 4 5 6 
#
# 1 0.212077 -0.028592 0.001135 0.000000 0.000000 0.000000
# 2 -0.028592 0.016135 -0.003858 0.000000 0.000000 0.000000
# 3 0.001135 -0.003858 0.014021 0.000000 0.000000 0.000000
# 4 0.000000 0.000000 0.000000 0.038632 0.000000 0.000000
# 5 0.000000 0.000000 0.000000 0.000000 0.038638 0.000000
# 6 0.000000 0.000000 0.000000 0.000000 0.000000 0.060283
#
#
# Mechanical properties :
#
#
# Convention : Reuss Voigt Hill
#
# Bulk Modulus (GPa) = 5.56786 27.57732 16.57259
# Shear Modulus (GPa) = 9.95456 22.63002 16.29229
#
# Velocity S-wave (km/s) = 2.20285 3.32136 2.81816
# Velocity P-wave (km/s) = 3.03055 5.30582 4.32065
#
# Compressibility (1/GPa) = 0.17960233
#
# Stress axis : x y z
#
# Youngs Moduli (GPa) = 4.71528 61.97814 71.32364
#
# Poissons Ratio (x) = 1.77211 -0.08098
# Poissons Ratio (y) = 0.13482 0.27515
# Poissons Ratio (z) = -0.00535 0.23910
#
# Static dielectric constant tensor:
#      x y z
#    x 1.727500 0.000000 0.000000 
#    y 0.000000 1.742260 0.000000 
#    z 0.000000 0.000000 1.742320 
# 
# From -- ./inp_files/10946.got.cif
#   From: 2010.05.17/outbox.cif.g08.bks.cpg/sg36_6_cif.got.tgz:10946.got - 2010.06.03 17:41:39.
