data_PCOD9351720
_publ_section_title
;
Structure prediction by ZEFSAII (Michael W. Deem and Ramdas Pophale) SiO2 
 PCOD9351720
Probable space group: C M C 21
;
_chemical_formula_sum "Si O2"
_cell_formula_units_Z 48
_cell_length_a 8.993617
_cell_length_b 15.493385
_cell_length_c 19.361636
_cell_angle_alpha 90.000000
_cell_angle_beta 90.000000
_cell_angle_gamma 90.000000
_cell_volume 2697.880772
_symmetry_space_group_name_H-M "C M C 21"
_symmetry_group_IT_number 36
_symmetry_cell_setting 'orthorhombic'
loop_
_space_group_symop_operation_xyz
x,y,z
-x,-y,1/2+z
x,-y,1/2+z
-x,y,z
1/2+x,1/2+y,z
1/2-x,1/2-y,1/2+z
1/2+x,1/2-y,1/2+z
1/2-x,1/2+y,z
loop_
_atom_site_type_symbol
_atom_site_label
_atom_site_fract_x
_atom_site_fract_y
_atom_site_fract_z
Si Si1 0.178143 0.658904 0.923820
Si Si2 0.820847 0.501803 0.824821
Si Si3 0.677557 0.152171 0.583749
Si Si4 0.678709 0.156275 0.423961
Si Si5 0.322173 0.505337 0.674617
Si Si6 0.821656 0.851676 0.571384
O O1 0.220310 0.588034 0.866939
O O2 0.243909 0.753059 0.907752
O O3 0.000000 0.663021 0.927383
O O4 0.241404 0.632368 0.998666
O O5 0.779384 0.419340 0.871599
O O6 0.746996 0.499249 0.750312
O O7 0.000000 0.501267 0.817440
O O8 0.500000 0.140726 0.592591
O O9 0.714763 0.132473 0.503509
O O10 0.762553 0.089426 0.634940
O O11 0.712553 0.253477 0.594042
O O12 0.500000 0.168179 0.421532
O O13 0.500000 0.508041 0.679232
O O14 0.280280 0.422203 0.628192
O O15 0.000000 0.855478 0.560129
#
# Coordination Sequence:
#
# PCOD9351720 Si02
#       6
#     8   8   8   8   8   8
#     4  10  20  35  58  84 106 135 178 222 264 314
#     4  10  22  38  54  76 110 148 178 210 264 326
#     4   9  18  36  59  79 105 140 174 214 267 322
#     4   9  19  37  59  81 106 139 178 219 265 316
#     4  11  23  36  53  80 110 141 180 223 263 307
#     4   9  20  38  57  78 107 141 176 218 267 315
#
# _framework density 17.791743
#
# number of rings (size 3 to 8) (size 9 to 14) (size 15 to 20)
#    0.000    2.333    0.000    3.000    0.000    8.667 
#    0.000    5.000    0.000    0.000    0.000    0.000 
#    0.000    0.000    0.000    0.000    0.000    0.000 
#
# Total GULP energy -133997.996589 kJ/mol
# GULP energy per Si atom -5583.249858 kJ/mol
# Density = 1.775125 g / cm^3
# Si number density = 17.791743 Si / 1000 Ang^3
#
#
#
# Elastic Constant Matrix: (Units=GPa)
#
#
# Indices 1 2 3 4 5 6 
#
# 1 23.5055 34.8432 39.8519 0.0000 0.0000 0.0000
# 2 34.8432 89.9614 79.9107 0.0000 0.0000 0.0000
# 3 39.8519 79.9107 115.3922 0.0000 0.0000 0.0000
# 4 0.0000 0.0000 0.0000 -3.3186 0.0000 0.0000
# 5 0.0000 0.0000 0.0000 0.0000 30.2962 0.0000
# 6 0.0000 0.0000 0.0000 0.0000 0.0000 29.6773
#
#
#
# Elastic Compliance Matrix: (Units=1/GPa)
#
#
# Indices 1 2 3 4 5 6 
#
# 1 0.121565 -0.025439 -0.024366 0.000000 0.000000 0.000000
# 2 -0.025439 0.034207 -0.014903 0.000000 0.000000 0.000000
# 3 -0.024366 -0.014903 0.027402 0.000000 0.000000 0.000000
# 4 0.000000 0.000000 0.000000 -0.301331 0.000000 0.000000
# 5 0.000000 0.000000 0.000000 0.000000 0.033007 0.000000
# 6 0.000000 0.000000 0.000000 0.000000 0.000000 0.033696
#
#
# Mechanical properties :
#
#
# Convention : Reuss Voigt Hill
#
# Bulk Modulus (GPa) = 18.60267 59.78563 39.19415
# Shear Modulus (GPa) = 52.14746 16.28120 34.21433
#
# Velocity S-wave (km/s) = 5.41974 3.02834 4.39001
# Velocity P-wave (km/s) = 7.04579 6.77523 6.91184
#
# Compressibility (1/GPa) = 0.05375571
#
# Stress axis : x y z
#
# Youngs Moduli (GPa) = 8.22606 29.23384 36.49390
#
# Poissons Ratio (x) = 0.74369 0.88923
# Poissons Ratio (y) = 0.20927 0.54387
# Poissons Ratio (z) = 0.20044 0.43567
#
# Static dielectric constant tensor:
#      x y z
#    x 1.592330 0.000000 0.000000 
#    y 0.000000 1.598270 0.000000 
#    z 0.000000 0.000000 1.574480 
# 
# From -- ./inp_files/13473.got.cif
#   From: 2010.05.17/outbox.cif.g08.bks.cpg/sg36_7_cif.got.tgz:13473.got - 2010.06.03 17:41:39.
