data_PCOD9351456
_publ_section_title
;
Structure prediction by ZEFSAII (Michael W. Deem and Ramdas Pophale) SiO2 
 PCOD9351456
Probable space group: C M C 21
;
_chemical_formula_sum "Si O2"
_cell_formula_units_Z 48
_cell_length_a 7.488019
_cell_length_b 24.787418
_cell_length_c 12.192421
_cell_angle_alpha 90.000000
_cell_angle_beta 90.000000
_cell_angle_gamma 90.000000
_cell_volume 2263.018887
_symmetry_space_group_name_H-M "C M C 21"
_symmetry_group_IT_number 36
_symmetry_cell_setting 'orthorhombic'
loop_
_space_group_symop_operation_xyz
x,y,z
-x,-y,1/2+z
x,-y,1/2+z
-x,y,z
1/2+x,1/2+y,z
1/2-x,1/2-y,1/2+z
1/2+x,1/2-y,1/2+z
1/2-x,1/2+y,z
loop_
_atom_site_type_symbol
_atom_site_label
_atom_site_fract_x
_atom_site_fract_y
_atom_site_fract_z
Si Si1 0.793104 0.834416 0.699200
Si Si2 0.284440 0.143530 0.450046
Si Si3 0.718171 0.885550 0.298783
Si Si4 0.206806 0.425674 0.531672
Si Si5 0.218106 0.714380 0.655206
Si Si6 0.282074 0.043092 0.594198
O O1 0.779731 0.845676 0.828215
O O2 0.710794 0.882229 0.628349
O O3 0.718238 0.775028 0.673498
O O4 0.000000 0.833715 0.667109
O O5 0.500000 0.143885 0.447178
O O6 0.228572 0.188625 0.538706
O O7 0.229578 0.085850 0.500368
O O8 0.500000 0.883752 0.299583
O O9 0.782499 0.900298 0.419892
O O10 0.775004 0.827826 0.249453
O O11 0.771962 0.931001 0.210336
O O12 0.283560 0.483041 0.569827
O O13 0.000000 0.437376 0.505496
O O14 0.000000 0.715040 0.657363
O O15 0.500000 0.042544 0.597081
#
# Coordination Sequence:
#
# PCOD9351456 Si02
#       6
#     8   8   8   8   8   8
#     4  11  23  35  50  77 113 143 169 209 262 314
#     4   9  18  36  59  79 100 134 179 221 260 304
#     4   8  15  30  52  78 104 131 169 218 266 301
#     4  10  20  32  55  83 104 132 175 218 257 308
#     4   8  17  34  53  74 105 140 171 212 263 308
#     4   8  16  31  55  83 104 126 169 228 268 295
#
# _framework density 21.210605000000001
#
# number of rings (size 3 to 8) (size 9 to 14) (size 15 to 20)
#    0.000    3.000    0.000    2.500    4.667    0.000 
#    0.000    1.667    0.000    4.000    0.000    0.000 
#    0.000    0.000    0.000    0.000    0.000    0.000 
#
# Total GULP energy -133954.976511 kJ/mol
# GULP energy per Si atom -5581.457355 kJ/mol
# Density = 2.116233 g / cm^3
# Si number density = 21.210605 Si / 1000 Ang^3
#
#
#
# Elastic Constant Matrix: (Units=GPa)
#
#
# Indices 1 2 3 4 5 6 
#
# 1 54.4803 -4.0286 -11.7792 0.0000 0.0000 0.0000
# 2 -4.0286 188.9527 89.7987 0.0000 0.0000 0.0000
# 3 -11.7792 89.7987 134.3966 0.0000 0.0000 0.0000
# 4 0.0000 0.0000 0.0000 15.4864 0.0000 0.0000
# 5 0.0000 0.0000 0.0000 0.0000 1.7106 0.0000
# 6 0.0000 0.0000 0.0000 0.0000 0.0000 -8.7703
#
#
#
# Elastic Compliance Matrix: (Units=1/GPa)
#
#
# Indices 1 2 3 4 5 6 
#
# 1 0.018750 -0.000559 0.002017 0.000000 0.000000 0.000000
# 2 -0.000559 0.007771 -0.005242 0.000000 0.000000 0.000000
# 3 0.002017 -0.005242 0.011120 0.000000 0.000000 0.000000
# 4 0.000000 0.000000 0.000000 0.064573 0.000000 0.000000
# 5 0.000000 0.000000 0.000000 0.000000 0.584597 0.000000
# 6 0.000000 0.000000 0.000000 0.000000 0.000000 -0.114022
#
#
# Mechanical properties :
#
#
# Convention : Reuss Voigt Hill
#
# Bulk Modulus (GPa) = 33.25145 58.42348 45.83747
# Shear Modulus (GPa) = 8.46911 21.94125 15.20518
#
# Velocity S-wave (km/s) = 2.00038 3.21977 2.68034
# Velocity P-wave (km/s) = 4.58762 6.43637 5.58896
#
# Compressibility (1/GPa) = 0.03007388
#
# Stress axis : x y z
#
# Youngs Moduli (GPa) = 53.33344 128.67644 89.93131
#
# Poissons Ratio (x) = 0.07188 -0.18135
# Poissons Ratio (y) = 0.02979 0.47138
# Poissons Ratio (z) = -0.10755 0.67446
#
# Static dielectric constant tensor:
#      x y z
#    x 1.818770 0.000000 0.000000 
#    y 0.000000 1.747100 0.000000 
#    z 0.000000 0.000000 1.715550 
# 
# From -- ./inp_files/6715.got.cif
#   From: 2010.05.17/outbox.cif.g08.bks.cpg/sg36_4_cif.got.tgz:6715.got - 2010.06.03 17:41:39.
