data_PCOD9351664
_publ_section_title
;
Structure prediction by ZEFSAII (Michael W. Deem and Ramdas Pophale) SiO2 
 PCOD9351664
Probable space group: C M C 21
;
_chemical_formula_sum "Si O2"
_cell_formula_units_Z 64
_cell_length_a 7.577372
_cell_length_b 25.759355
_cell_length_c 14.054930
_cell_angle_alpha 90.000000
_cell_angle_beta 90.000000
_cell_angle_gamma 90.000000
_cell_volume 2743.356703
_symmetry_space_group_name_H-M "C M C 21"
_symmetry_group_IT_number 36
_symmetry_cell_setting 'orthorhombic'
loop_
_space_group_symop_operation_xyz
x,y,z
-x,-y,1/2+z
x,-y,1/2+z
-x,y,z
1/2+x,1/2+y,z
1/2-x,1/2-y,1/2+z
1/2+x,1/2-y,1/2+z
1/2-x,1/2+y,z
loop_
_atom_site_type_symbol
_atom_site_label
_atom_site_fract_x
_atom_site_fract_y
_atom_site_fract_z
Si Si1 0.299947 0.634922 0.333260
Si Si2 0.290368 0.430794 0.667611
Si Si3 0.209873 0.546242 0.671837
Si Si4 0.298863 0.076236 0.951850
Si Si5 0.715810 0.964057 0.950238
Si Si6 0.207049 0.164319 0.703609
Si Si7 0.717465 0.292037 0.999444
Si Si8 0.793805 0.312995 0.409496
O O1 0.500000 0.652877 0.314005
O O2 0.220214 0.615661 0.234069
O O3 0.300777 0.580955 0.390154
O O4 0.219499 0.674520 0.408581
O O5 0.500000 0.423557 0.654913
O O6 0.265753 0.489238 0.708063
O O7 0.199029 0.428690 0.565786
O O8 0.263195 0.545723 0.560433
O O9 0.268522 0.601826 0.712810
O O10 0.000000 0.546630 0.677110
O O11 0.500000 0.077213 0.914261
O O12 0.211212 0.130637 0.928018
O O13 0.222329 0.021330 0.920263
O O14 0.500000 0.961953 0.942770
O O15 0.275588 0.184292 0.600741
O O16 0.283381 0.193691 0.795591
O O17 0.000000 0.174877 0.704496
O O18 0.500000 0.294516 0.999356
O O19 0.774843 0.233728 0.974038
O O20 0.000000 0.316784 0.435559
#
# Coordination Sequence:
#
# PCOD9351664 Si02
#       8
#     8   8   8   8   8   8   8   8
#     4  10  20  35  55  83 116 155 194 234 291 350
#     4  10  21  34  54  86 121 158 197 241 295 350
#     4  10  20  36  57  83 117 156 196 240 294 352
#     4   9  20  38  56  80 115 154 195 237 290 351
#     4   9  18  32  52  80 111 146 189 238 285 338
#     4  11  22  38  61  89 117 151 196 247 296 350
#     4   9  20  40  62  83 116 157 195 238 292 350
#     4  10  22  41  63  86 115 157 200 243 297 351
#
# _framework density 23.329083000000001
#
# number of rings (size 3 to 8) (size 9 to 14) (size 15 to 20)
#    0.000    2.250    1.250    1.875    1.750    4.500 
#    0.000    1.875    0.000    0.000    0.000    0.000 
#    0.000    0.000    0.000    0.000    0.000    0.000 
#
# Total GULP energy -178614.629655 kJ/mol
# GULP energy per Si atom -5581.707177 kJ/mol
# Density = 2.327599 g / cm^3
# Si number density = 23.329083 Si / 1000 Ang^3
#
#
#
# Elastic Constant Matrix: (Units=GPa)
#
#
# Indices 1 2 3 4 5 6 
#
# 1 54.3548 -2.1609 -13.5143 0.0000 0.0000 0.0000
# 2 -2.1609 106.6478 18.7092 0.0000 0.0000 0.0000
# 3 -13.5143 18.7092 71.2781 0.0000 0.0000 0.0000
# 4 0.0000 0.0000 0.0000 32.6349 0.0000 0.0000
# 5 0.0000 0.0000 0.0000 0.0000 14.9744 0.0000
# 6 0.0000 0.0000 0.0000 0.0000 0.0000 -2.0349
#
#
#
# Elastic Compliance Matrix: (Units=1/GPa)
#
#
# Indices 1 2 3 4 5 6 
#
# 1 0.019315 -0.000263 0.003731 0.000000 0.000000 0.000000
# 2 -0.000263 0.009833 -0.002631 0.000000 0.000000 0.000000
# 3 0.003731 -0.002631 0.015428 0.000000 0.000000 0.000000
# 4 0.000000 0.000000 0.000000 0.030642 0.000000 0.000000
# 5 0.000000 0.000000 0.000000 0.000000 0.066781 0.000000
# 6 0.000000 0.000000 0.000000 0.000000 0.000000 -0.491421
#
#
# Mechanical properties :
#
#
# Convention : Reuss Voigt Hill
#
# Bulk Modulus (GPa) = 21.62186 26.48319 24.05252
# Shear Modulus (GPa) = -14.89512 24.39799 4.75144
#
# Velocity S-wave (km/s) = -2.52955 3.23742 1.42868
# Velocity P-wave (km/s) = 0.86994 5.03499 3.61303
#
# Compressibility (1/GPa) = 0.04624950
#
# Stress axis : x y z
#
# Youngs Moduli (GPa) = 51.77362 101.69982 64.81919
#
# Poissons Ratio (x) = 0.02677 -0.24185
# Poissons Ratio (y) = 0.01363 0.17053
# Poissons Ratio (z) = -0.19318 0.26756
#
# Static dielectric constant tensor:
#      x y z
#    x 1.836310 0.000000 0.000000 
#    y 0.000000 1.885630 0.000000 
#    z 0.000000 0.000000 1.906690 
# 
# From -- ./inp_files/10934.got.cif
#   From: 2010.05.17/outbox.cif.g08.bks.cpg/sg36_6_cif.got.tgz:10934.got - 2010.06.03 17:41:39.
