data_PCOD9351366
_publ_section_title
;
Structure prediction by ZEFSAII (Michael W. Deem and Ramdas Pophale) SiO2 
 PCOD9351366
Probable space group: C M C 21
;
_chemical_formula_sum "Si O2"
_cell_formula_units_Z 64
_cell_length_a 8.823740
_cell_length_b 23.097988
_cell_length_c 16.400740
_cell_angle_alpha 90.000000
_cell_angle_beta 90.000000
_cell_angle_gamma 90.000000
_cell_volume 3342.645326
_symmetry_space_group_name_H-M "C M C 21"
_symmetry_group_IT_number 36
_symmetry_cell_setting 'orthorhombic'
loop_
_space_group_symop_operation_xyz
x,y,z
-x,-y,1/2+z
x,-y,1/2+z
-x,y,z
1/2+x,1/2+y,z
1/2-x,1/2-y,1/2+z
1/2+x,1/2-y,1/2+z
1/2-x,1/2+y,z
loop_
_atom_site_type_symbol
_atom_site_label
_atom_site_fract_x
_atom_site_fract_y
_atom_site_fract_z
Si Si1 0.181883 0.466534 0.914380
Si Si2 0.318165 0.153966 0.104907
Si Si3 0.672579 0.175671 0.826394
Si Si4 0.320863 0.716332 0.660504
Si Si5 0.679315 0.591757 0.946399
Si Si6 0.823472 0.106893 0.268543
Si Si7 0.325752 0.863217 0.032929
Si Si8 0.331950 0.702989 0.402943
O O1 0.245134 0.529078 0.936315
O O2 0.252653 0.439664 0.831459
O O3 0.000000 0.467258 0.906001
O O4 0.218989 0.423006 0.989325
O O5 0.500000 0.151442 0.097823
O O6 0.275733 0.221689 0.120632
O O7 0.263609 0.117869 0.184325
O O8 0.245659 0.126330 0.024180
O O9 0.500000 0.154448 0.816677
O O10 0.733411 0.202985 0.743401
O O11 0.777487 0.127121 0.865056
O O12 0.670547 0.229353 0.888645
O O13 0.500000 0.719411 0.675609
O O14 0.279124 0.662621 0.602593
O O15 0.500000 0.586304 0.955146
O O16 0.818756 0.167256 0.319187
O O17 0.000000 0.093154 0.253068
O O18 0.500000 0.866170 0.059759
O O19 0.302596 0.817404 0.959973
O O20 0.500000 0.687643 0.437559
#
# Coordination Sequence:
#
# PCOD9351366 Si02
#       8
#     8   8   8   8   8   8   8   8
#     4  10  22  43  65  88 120 161 208 255 308 372
#     4  11  23  40  63  93 128 165 206 255 312 370
#     4  11  22  39  61  87 124 163 199 247 309 369
#     4  11  23  38  60  92 128 161 201 250 306 370
#     4  12  26  43  63  90 123 164 212 262 311 366
#     4  10  19  36  63  94 123 158 203 253 303 361
#     4  10  21  36  60  89 118 155 199 247 300 360
#     4   9  18  33  57  87 120 155 192 239 299 360
#
# _framework density 19.146512000000001
#
# number of rings (size 3 to 8) (size 9 to 14) (size 15 to 20)
#    0.000    1.500    1.250    4.125    0.000    7.500 
#    2.250    0.000    0.000    0.000    0.000    0.000 
#    0.000    0.000    0.000    0.000    0.000    0.000 
#
# Total GULP energy -178679.401540 kJ/mol
# GULP energy per Si atom -5583.731298 kJ/mol
# Density = 1.910293 g / cm^3
# Si number density = 19.146512 Si / 1000 Ang^3
#
#
#
# Elastic Constant Matrix: (Units=GPa)
#
#
# Indices 1 2 3 4 5 6 
#
# 1 68.6339 41.1236 23.7238 0.0000 0.0000 0.0000
# 2 41.1236 109.4419 42.8195 0.0000 0.0000 0.0000
# 3 23.7238 42.8195 56.1570 0.0000 0.0000 0.0000
# 4 0.0000 0.0000 0.0000 23.1933 0.0000 0.0000
# 5 0.0000 0.0000 0.0000 0.0000 37.8097 0.0000
# 6 0.0000 0.0000 0.0000 0.0000 0.0000 16.3686
#
#
#
# Elastic Compliance Matrix: (Units=1/GPa)
#
#
# Indices 1 2 3 4 5 6 
#
# 1 0.019341 -0.005802 -0.003747 0.000000 0.000000 0.000000
# 2 -0.005802 0.014762 -0.008805 0.000000 0.000000 0.000000
# 3 -0.003747 -0.008805 0.026104 0.000000 0.000000 0.000000
# 4 0.000000 0.000000 0.000000 0.043116 0.000000 0.000000
# 5 0.000000 0.000000 0.000000 0.000000 0.026448 0.000000
# 6 0.000000 0.000000 0.000000 0.000000 0.000000 0.061093
#
#
# Mechanical properties :
#
#
# Convention : Reuss Voigt Hill
#
# Bulk Modulus (GPa) = 42.55350 49.95186 46.25268
# Shear Modulus (GPa) = 21.23986 23.91205 22.57595
#
# Velocity S-wave (km/s) = 3.33428 3.53781 3.43755
# Velocity P-wave (km/s) = 6.09070 6.54477 6.32182
#
# Compressibility (1/GPa) = 0.02349983
#
# Stress axis : x y z
#
# Youngs Moduli (GPa) = 51.70231 67.73972 38.30792
#
# Poissons Ratio (x) = 0.39300 0.14355
# Poissons Ratio (y) = 0.29996 0.33731
# Poissons Ratio (z) = 0.19374 0.59647
#
# Static dielectric constant tensor:
#      x y z
#    x 1.654450 0.000000 0.000000 
#    y 0.000000 1.651880 0.000000 
#    z 0.000000 0.000000 1.695750 
# 
# From -- ./inp_files/11075.got.cif
#   From: 2010.05.17/outbox.cif.g08.bks.cpg/sg36_6_cif.got.tgz:11075.got - 2010.06.03 17:41:39.
