data_PCOD9351078
_publ_section_title
;
Structure prediction by ZEFSAII (Michael W. Deem and Ramdas Pophale) SiO2 
 PCOD9351078
Probable space group: C M C 21
;
_chemical_formula_sum "Si O2"
_cell_formula_units_Z 64
_cell_length_a 8.777396
_cell_length_b 20.933056
_cell_length_c 19.872328
_cell_angle_alpha 90.000000
_cell_angle_beta 90.000000
_cell_angle_gamma 90.000000
_cell_volume 3651.296278
_symmetry_space_group_name_H-M "C M C 21"
_symmetry_group_IT_number 36
_symmetry_cell_setting 'orthorhombic'
loop_
_space_group_symop_operation_xyz
x,y,z
-x,-y,1/2+z
x,-y,1/2+z
-x,y,z
1/2+x,1/2+y,z
1/2-x,1/2-y,1/2+z
1/2+x,1/2-y,1/2+z
1/2-x,1/2+y,z
loop_
_atom_site_type_symbol
_atom_site_label
_atom_site_fract_x
_atom_site_fract_y
_atom_site_fract_z
Si Si1 0.183606 0.056888 0.829570
Si Si2 0.180854 0.565120 0.255360
Si Si3 0.817511 0.190346 0.758750
Si Si4 0.317710 0.611868 0.120987
Si Si5 0.317587 0.252763 0.119372
Si Si6 0.683668 0.385104 0.468543
Si Si7 0.683129 0.743838 0.468368
Si Si8 0.181967 0.813328 0.831225
O O1 0.221656 0.121753 0.789131
O O2 0.000000 0.048976 0.827689
O O3 0.259403 0.996506 0.794872
O O4 0.229931 0.069328 0.907174
O O5 0.246601 0.569618 0.179770
O O6 0.238493 0.628025 0.294475
O O7 0.000000 0.565460 0.252367
O O8 0.784407 0.198725 0.679582
O O9 0.730690 0.247329 0.796003
O O10 0.000000 0.199482 0.768544
O O11 0.500000 0.609030 0.125538
O O12 0.263785 0.685056 0.131883
O O13 0.271078 0.594997 0.044253
O O14 0.500000 0.240897 0.120014
O O15 0.275253 0.275420 0.044465
O O16 0.500000 0.381019 0.467319
O O17 0.746969 0.313897 0.456303
O O18 0.500000 0.750024 0.465188
O O19 0.727657 0.695544 0.409360
O O20 0.000000 0.821680 0.826646
#
# Coordination Sequence:
#
# PCOD9351078 Si02
#       8
#     8   8   8   8   8   8   8   8
#     4  10  21  38  57  81 113 148 185 229 279 334
#     4  12  25  39  55  78 111 152 193 235 279 326
#     4  10  19  33  57  83 110 141 178 225 277 331
#     4  10  19  33  55  83 110 142 183 227 276 331
#     4   9  17  31  52  82 114 144 178 218 272 331
#     4   9  18  33  56  83 111 142 179 223 275 334
#     4   9  18  31  51  81 114 144 178 222 270 324
#     4  11  21  34  55  81 111 145 184 229 274 325
#
# _framework density 17.528023000000001
#
# number of rings (size 3 to 8) (size 9 to 14) (size 15 to 20)
#    0.000    2.000    2.500    1.875    0.000    2.000 
#    0.000    1.250    0.000    4.500    0.000    0.000 
#    0.000    0.000    0.000    0.000    0.000    0.000 
#
# Total GULP energy -178547.231756 kJ/mol
# GULP energy per Si atom -5579.600992 kJ/mol
# Density = 1.748813 g / cm^3
# Si number density = 17.528023 Si / 1000 Ang^3
#
#
#
# Elastic Constant Matrix: (Units=GPa)
#
#
# Indices 1 2 3 4 5 6 
#
# 1 40.9817 38.8335 50.1757 0.0000 0.0000 0.0000
# 2 38.8335 87.2895 69.9685 0.0000 0.0000 0.0000
# 3 50.1757 69.9685 167.3036 0.0000 0.0000 0.0000
# 4 0.0000 0.0000 0.0000 28.0084 0.0000 0.0000
# 5 0.0000 0.0000 0.0000 0.0000 21.0678 0.0000
# 6 0.0000 0.0000 0.0000 0.0000 0.0000 28.1334
#
#
#
# Elastic Compliance Matrix: (Units=1/GPa)
#
#
# Indices 1 2 3 4 5 6 
#
# 1 0.048916 -0.015047 -0.008378 0.000000 0.000000 0.000000
# 2 -0.015047 0.021862 -0.004630 0.000000 0.000000 0.000000
# 3 -0.008378 -0.004630 0.010426 0.000000 0.000000 0.000000
# 4 0.000000 0.000000 0.000000 0.035704 0.000000 0.000000
# 5 0.000000 0.000000 0.000000 0.000000 0.047466 0.000000
# 6 0.000000 0.000000 0.000000 0.000000 0.000000 0.035545
#
#
# Mechanical properties :
#
#
# Convention : Reuss Voigt Hill
#
# Bulk Modulus (GPa) = 39.84878 68.17001 54.00940
# Shear Modulus (GPa) = 18.91128 24.54838 21.72983
#
# Velocity S-wave (km/s) = 3.28825 3.74641 3.52478
# Velocity P-wave (km/s) = 6.09922 7.59543 6.88807
#
# Compressibility (1/GPa) = 0.02509487
#
# Stress axis : x y z
#
# Youngs Moduli (GPa) = 20.44305 45.74243 95.91351
#
# Poissons Ratio (x) = 0.68828 0.80353
# Poissons Ratio (y) = 0.30760 0.44409
# Poissons Ratio (z) = 0.17126 0.21179
#
# Static dielectric constant tensor:
#      x y z
#    x 1.587650 0.000000 0.000000 
#    y 0.000000 1.544140 0.000000 
#    z 0.000000 0.000000 1.644030 
# 
# From -- ./inp_files/15807.got.cif
#   From: 2010.05.17/outbox.cif.g08.bks.cpg/sg36_8_cif.got.tgz:15807.got - 2010.06.03 17:41:39.
