data_PCOD9351317
_publ_section_title
;
Structure prediction by ZEFSAII (Michael W. Deem and Ramdas Pophale) SiO2 
 PCOD9351317
Probable space group: C M C 21
;
_chemical_formula_sum "Si O2"
_cell_formula_units_Z 60
_cell_length_a 16.458613
_cell_length_b 34.421635
_cell_length_c 5.226700
_cell_angle_alpha 90.000000
_cell_angle_beta 90.000000
_cell_angle_gamma 90.000000
_cell_volume 2961.094735
_symmetry_space_group_name_H-M "C M C 21"
_symmetry_group_IT_number 36
_symmetry_cell_setting 'orthorhombic'
loop_
_space_group_symop_operation_xyz
x,y,z
-x,-y,1/2+z
x,-y,1/2+z
-x,y,z
1/2+x,1/2+y,z
1/2-x,1/2-y,1/2+z
1/2+x,1/2-y,1/2+z
1/2-x,1/2+y,z
loop_
_atom_site_type_symbol
_atom_site_label
_atom_site_fract_x
_atom_site_fract_y
_atom_site_fract_z
Si Si1 0.705412 0.766425 0.657820
Si Si2 0.678919 0.973488 0.093054
Si Si3 0.087593 0.206194 0.830752
Si Si4 0.000000 0.474760 0.180474
Si Si5 0.809506 0.083474 0.820275
Si Si6 0.911606 0.868718 0.976408
Si Si7 0.277983 0.657152 0.107662
Si Si8 0.594626 0.525467 0.140945
O O1 0.736039 0.749944 0.384476
O O2 0.619926 0.746104 0.716224
O O3 0.705986 0.813272 0.670106
O O4 0.587730 0.955801 0.126325
O O5 0.748557 0.942742 0.157380
O O6 0.685256 0.006755 0.314378
O O7 0.082809 0.172562 0.618447
O O8 0.000000 0.210100 0.955652
O O9 0.154593 0.188361 0.015912
O O10 0.000000 0.489762 0.473137
O O11 0.891509 0.097222 0.675761
O O12 0.843024 0.058876 0.060811
O O13 0.764576 0.123403 0.902121
O O14 0.000000 0.875105 0.848367
O O15 0.828154 0.865078 0.822953
O O16 0.606888 0.492951 0.919629
O O17 0.500000 0.537634 0.124084
#
# Coordination Sequence:
#
# PCOD9351317 Si02
#       8
#     8   8   8   4   8   8   8   8
#     4  10  19  36  57  81 108 144 182 231 278 328
#     4  10  21  37  61  87 112 144 194 240 286 343
#     4   9  18  34  55  82 107 142 189 234 275 327
#     4   8  16  34  58  86 108 130 176 240 288 324
#     4  11  23  34  53  81 113 154 186 237 284 338
#     4  10  20  34  52  80 113 146 191 233 278 330
#     4  10  21  34  54  80 114 151 188 232 284 340
#     4  10  22  38  53  73 106 149 195 232 272 325
#
# _framework density 20.262775000000001
#
# number of rings (size 3 to 8) (size 9 to 14) (size 15 to 20)
#    0.000    2.133    1.333    1.600    3.733    1.600 
#    0.000    0.000    1.467    0.000    1.733    0.000 
#    0.000    0.000    0.000    0.000    0.000    0.000 
#
# Total GULP energy -167267.495554 kJ/mol
# GULP energy per Si atom -5575.583185 kJ/mol
# Density = 2.021666 g / cm^3
# Si number density = 20.262775 Si / 1000 Ang^3
#
#
#
# Elastic Constant Matrix: (Units=GPa)
#
#
# Indices 1 2 3 4 5 6 
#
# 1 72.9307 39.8746 -5.0064 0.0000 0.0000 0.0000
# 2 39.8746 99.6105 15.9029 0.0000 0.0000 0.0000
# 3 -5.0064 15.9029 67.0544 0.0000 0.0000 0.0000
# 4 0.0000 0.0000 0.0000 22.4183 0.0000 0.0000
# 5 0.0000 0.0000 0.0000 0.0000 40.3623 0.0000
# 6 0.0000 0.0000 0.0000 0.0000 0.0000 -29.9165
#
#
#
# Elastic Compliance Matrix: (Units=1/GPa)
#
#
# Indices 1 2 3 4 5 6 
#
# 1 0.018194 -0.007795 0.003207 0.000000 0.000000 0.000000
# 2 -0.007795 0.013774 -0.003849 0.000000 0.000000 0.000000
# 3 0.003207 -0.003849 0.016065 0.000000 0.000000 0.000000
# 4 0.000000 0.000000 0.000000 0.044606 0.000000 0.000000
# 5 0.000000 0.000000 0.000000 0.000000 0.024776 0.000000
# 6 0.000000 0.000000 0.000000 0.000000 0.000000 -0.033426
#
#
# Mechanical properties :
#
#
# Convention : Reuss Voigt Hill
#
# Bulk Modulus (GPa) = 32.09260 37.90422 34.99841
# Shear Modulus (GPa) = 44.94427 19.16109 32.05268
#
# Velocity S-wave (km/s) = 4.71475 3.07845 3.98156
# Velocity P-wave (km/s) = 6.74619 5.60203 6.20056
#
# Compressibility (1/GPa) = 0.03115983
#
# Stress axis : x y z
#
# Youngs Moduli (GPa) = 54.96397 72.60077 62.24527
#
# Poissons Ratio (x) = 0.56593 -0.19963
# Poissons Ratio (y) = 0.42845 0.23956
# Poissons Ratio (z) = -0.17627 0.27942
#
# Static dielectric constant tensor:
#      x y z
#    x 1.236630 0.000000 0.000000 
#    y 0.000000 1.739850 0.000000 
#    z 0.000000 0.000000 1.809720 
# 
# From -- ./inp_files/1221.got.cif
#   From: 2010.05.17/outbox.cif.g08.bks.cpg/sg36_1_cif.got.tgz:1221.got - 2010.06.03 17:41:39.
