data_PCOD9351673
_publ_section_title
;
Structure prediction by ZEFSAII (Michael W. Deem and Ramdas Pophale) SiO2 
 PCOD9351673
Probable space group: C M C 21
;
_chemical_formula_sum "Si O2"
_cell_formula_units_Z 64
_cell_length_a 8.805912
_cell_length_b 20.487259
_cell_length_c 20.556853
_cell_angle_alpha 90.000000
_cell_angle_beta 90.000000
_cell_angle_gamma 90.000000
_cell_volume 3708.641290
_symmetry_space_group_name_H-M "C M C 21"
_symmetry_group_IT_number 36
_symmetry_cell_setting 'orthorhombic'
loop_
_space_group_symop_operation_xyz
x,y,z
-x,-y,1/2+z
x,-y,1/2+z
-x,y,z
1/2+x,1/2+y,z
1/2-x,1/2-y,1/2+z
1/2+x,1/2-y,1/2+z
1/2-x,1/2+y,z
loop_
_atom_site_type_symbol
_atom_site_label
_atom_site_fract_x
_atom_site_fract_y
_atom_site_fract_z
Si Si1 0.181150 0.324173 0.507980
Si Si2 0.817376 0.072412 0.108179
Si Si3 0.682151 0.929612 0.112532
Si Si4 0.181790 0.324548 0.860235
Si Si5 0.316774 0.325288 0.366215
Si Si6 0.318084 0.424218 0.757775
Si Si7 0.183260 0.318308 0.009145
Si Si8 0.316644 0.426089 0.253391
O O1 0.248786 0.376045 0.558329
O O2 0.240120 0.339747 0.435250
O O3 0.241427 0.251373 0.523569
O O4 0.000000 0.325392 0.509758
O O5 0.774023 0.089487 0.182848
O O6 0.000000 0.072105 0.104006
O O7 0.755866 0.999451 0.095834
O O8 0.500000 0.936182 0.112996
O O9 0.740661 0.910906 0.184309
O O10 0.723831 0.874092 0.060486
O O11 0.223793 0.249040 0.847168
O O12 0.250874 0.374151 0.809022
O O13 0.226075 0.337850 0.935276
O O14 0.000000 0.329264 0.856406
O O15 0.500000 0.327510 0.374952
O O16 0.274761 0.375893 0.309981
O O17 0.500000 0.420625 0.761170
O O18 0.274295 0.499467 0.771318
O O19 0.000000 0.309596 0.010178
O O20 0.500000 0.424266 0.245153
#
# Coordination Sequence:
#
# PCOD9351673 Si02
#       8
#     8   8   8   8   8   8   8   8
#     4  11  22  35  55  82 107 135 179 226 263 310
#     4  10  21  38  56  75 107 146 178 215 268 324
#     4  10  20  35  56  81 108 138 178 226 266 309
#     4   9  18  33  53  75 102 136 170 210 259 309
#     4   9  19  37  56  74 103 141 176 213 263 318
#     4   9  19  34  52  75 102 133 171 213 255 306
#     4   9  20  38  55  76 109 143 173 212 268 322
#     4   9  19  36  55  76 104 140 179 215 260 318
#
# _framework density 17.256993000000001
#
# number of rings (size 3 to 8) (size 9 to 14) (size 15 to 20)
#    0.000    2.500    0.000    3.375    0.000    8.000 
#    0.000    5.000    0.000    0.000    0.000    0.000 
#    0.000    0.000    0.000    0.000    0.000    0.000 
#
# Total GULP energy -178542.256046 kJ/mol
# GULP energy per Si atom -5579.445501 kJ/mol
# Density = 1.721772 g / cm^3
# Si number density = 17.256993 Si / 1000 Ang^3
#
#
#
# Elastic Constant Matrix: (Units=GPa)
#
#
# Indices 1 2 3 4 5 6 
#
# 1 46.3462 59.4904 61.0472 0.0000 0.0000 0.0000
# 2 59.4904 153.3885 147.7618 0.0000 0.0000 0.0000
# 3 61.0472 147.7618 163.2338 0.0000 0.0000 0.0000
# 4 0.0000 0.0000 0.0000 44.2667 0.0000 0.0000
# 5 0.0000 0.0000 0.0000 0.0000 31.4163 0.0000
# 6 0.0000 0.0000 0.0000 0.0000 0.0000 29.3351
#
#
#
# Elastic Compliance Matrix: (Units=1/GPa)
#
#
# Indices 1 2 3 4 5 6 
#
# 1 0.044240 -0.009531 -0.007918 0.000000 0.000000 0.000000
# 2 -0.009531 0.052990 -0.044403 0.000000 0.000000 0.000000
# 3 -0.007918 -0.044403 0.049282 0.000000 0.000000 0.000000
# 4 0.000000 0.000000 0.000000 0.022590 0.000000 0.000000
# 5 0.000000 0.000000 0.000000 0.000000 0.031831 0.000000
# 6 0.000000 0.000000 0.000000 0.000000 0.000000 0.034089
#
#
# Mechanical properties :
#
#
# Convention : Reuss Voigt Hill
#
# Bulk Modulus (GPa) = 43.84349 99.95192 71.89771
# Shear Modulus (GPa) = 13.64901 27.31490 20.48195
#
# Velocity S-wave (km/s) = 2.81539 3.98280 3.44885
# Velocity P-wave (km/s) = 6.00250 8.89919 7.59031
#
# Compressibility (1/GPa) = 0.02280840
#
# Stress axis : x y z
#
# Youngs Moduli (GPa) = 22.60419 18.87145 20.29153
#
# Poissons Ratio (x) = 0.17986 0.16066
# Poissons Ratio (y) = 0.21544 0.90101
# Poissons Ratio (z) = 0.17897 0.83795
#
# Static dielectric constant tensor:
#      x y z
#    x 1.581200 0.000000 0.000000 
#    y 0.000000 1.564770 0.000000 
#    z 0.000000 0.000000 1.565390 
# 
# From -- ./inp_files/13802.got.cif
#   From: 2010.05.17/outbox.cif.g08.bks.cpg/sg36_7_cif.got.tgz:13802.got - 2010.06.03 17:41:39.
