data_PCOD9351739
_publ_section_title
;
Structure prediction by ZEFSAII (Michael W. Deem and Ramdas Pophale) SiO2 
 PCOD9351739
Probable space group: C M C 21
;
_chemical_formula_sum "Si O2"
_cell_formula_units_Z 56
_cell_length_a 15.380818
_cell_length_b 20.030708
_cell_length_c 9.471586
_cell_angle_alpha 90.000000
_cell_angle_beta 90.000000
_cell_angle_gamma 90.000000
_cell_volume 2918.088373
_symmetry_space_group_name_H-M "C M C 21"
_symmetry_group_IT_number 36
_symmetry_cell_setting 'orthorhombic'
loop_
_space_group_symop_operation_xyz
x,y,z
-x,-y,1/2+z
x,-y,1/2+z
-x,y,z
1/2+x,1/2+y,z
1/2-x,1/2-y,1/2+z
1/2+x,1/2-y,1/2+z
1/2-x,1/2+y,z
loop_
_atom_site_type_symbol
_atom_site_label
_atom_site_fract_x
_atom_site_fract_y
_atom_site_fract_z
Si Si1 0.840573 0.329895 0.077780
Si Si2 0.601085 0.442180 0.755007
Si Si3 0.161069 0.175798 0.745727
Si Si4 0.500000 0.929322 0.080412
Si Si5 0.000000 0.429322 0.742064
Si Si6 0.601085 0.557821 0.567464
Si Si7 0.161068 0.824203 0.576748
Si Si8 0.659428 0.170104 0.244696
O O1 0.757364 0.333649 0.179667
O O2 0.915319 0.383331 0.112099
O O3 0.869286 0.252424 0.091127
O O4 0.816749 0.338360 0.911238
O O5 0.500000 0.459814 0.772291
O O6 0.644084 0.500001 0.661236
O O7 0.605010 0.374221 0.668920
O O8 0.639815 0.436669 0.911236
O O9 0.105010 0.125781 0.653550
O O10 0.130714 0.252425 0.731348
O O11 0.159982 0.158745 0.911237
O O12 0.500000 1.000000 0.161238
O O13 0.500000 0.941180 0.911238
O O14 0.915318 0.383331 0.710378
O O15 0.500000 0.540187 0.550181
O O16 0.257363 0.833649 0.642809
#
# Coordination Sequence:
#
# PCOD9351739 Si02
#       8
#     8   8   8   4   4   8   8   8
#     4   9  20  38  58  81 113 149 190 234 282 340
#     4  10  21  36  54  80 113 147 184 227 276 333
#     4  10  20  35  59  85 112 148 189 234 285 338
#     4  10  22  40  60  84 113 152 193 238 289 340
#     4  10  22  40  60  84 113 152 193 238 289 340
#     4  10  21  36  54  80 113 147 184 227 276 333
#     4  10  20  35  59  85 112 148 189 234 285 338
#     4   9  20  38  58  81 113 149 190 234 282 340
#
# _framework density 19.190646999999998
#
# number of rings (size 3 to 8) (size 9 to 14) (size 15 to 20)
#    0.000    2.286    0.000    1.714    2.000    5.143 
#    0.000    2.857    0.000    0.000    0.000    0.000 
#    0.000    0.000    0.000    0.000    0.000    0.000 
#
# Total GULP energy -156075.038578 kJ/mol
# GULP energy per Si atom -5574.108521 kJ/mol
# Density = 1.914697 g / cm^3
# Si number density = 19.190647 Si / 1000 Ang^3
#
#
#
# Elastic Constant Matrix: (Units=GPa)
#
#
# Indices 1 2 3 4 5 6 
#
# 1 40.6755 47.4845 28.8973 0.0000 0.0000 0.0000
# 2 47.4845 123.1005 81.7974 0.0000 0.0000 0.0000
# 3 28.8973 81.7974 139.4741 0.0000 0.0000 0.0000
# 4 0.0000 0.0000 0.0000 32.2050 0.0000 0.0000
# 5 0.0000 0.0000 0.0000 0.0000 -46.8944 0.0000
# 6 0.0000 0.0000 0.0000 0.0000 0.0000 57.3683
#
#
#
# Elastic Compliance Matrix: (Units=1/GPa)
#
#
# Indices 1 2 3 4 5 6 
#
# 1 0.044891 -0.018247 0.001400 0.000000 0.000000 0.000000
# 2 -0.018247 0.020727 -0.008375 0.000000 0.000000 0.000000
# 3 0.001400 -0.008375 0.011792 0.000000 0.000000 0.000000
# 4 0.000000 0.000000 0.000000 0.031051 0.000000 0.000000
# 5 0.000000 0.000000 0.000000 0.000000 -0.021324 0.000000
# 6 0.000000 0.000000 0.000000 0.000000 0.000000 0.017431
#
#
# Mechanical properties :
#
#
# Convention : Reuss Voigt Hill
#
# Bulk Modulus (GPa) = 37.08331 68.84537 52.96434
# Shear Modulus (GPa) = 30.48786 18.20718 24.34752
#
# Velocity S-wave (km/s) = 3.99015 3.08352 3.56577
# Velocity P-wave (km/s) = 6.37134 6.97351 6.67922
#
# Compressibility (1/GPa) = 0.02696631
#
# Stress axis : x y z
#
# Youngs Moduli (GPa) = 22.27612 48.24619 84.80636
#
# Poissons Ratio (x) = 0.88033 -0.11874
# Poissons Ratio (y) = 0.40646 0.71028
# Poissons Ratio (z) = -0.03119 0.40408
#
# Static dielectric constant tensor:
#      x y z
#    x 1.692440 0.000000 0.000000 
#    y 0.000000 1.667040 0.000000 
#    z 0.000000 0.000000 1.688720 
# 
# From -- ./inp_files/4247.got.cif
#   From: 2010.05.17/outbox.cif.g08.bks.cpg/sg36_3_cif.got.tgz:4247.got - 2010.06.03 17:41:39.
