data_PCOD9351556
_publ_section_title
;
Structure prediction by ZEFSAII (Michael W. Deem and Ramdas Pophale) SiO2 
 PCOD9351556
Probable space group: C M C 21
;
_chemical_formula_sum "Si O2"
_cell_formula_units_Z 64
_cell_length_a 8.695962
_cell_length_b 20.506854
_cell_length_c 20.597281
_cell_angle_alpha 90.000000
_cell_angle_beta 90.000000
_cell_angle_gamma 90.000000
_cell_volume 3673.047686
_symmetry_space_group_name_H-M "C M C 21"
_symmetry_group_IT_number 36
_symmetry_cell_setting 'orthorhombic'
loop_
_space_group_symop_operation_xyz
x,y,z
-x,-y,1/2+z
x,-y,1/2+z
-x,y,z
1/2+x,1/2+y,z
1/2-x,1/2-y,1/2+z
1/2+x,1/2-y,1/2+z
1/2-x,1/2+y,z
loop_
_atom_site_type_symbol
_atom_site_label
_atom_site_fract_x
_atom_site_fract_y
_atom_site_fract_z
Si Si1 0.313954 0.175714 0.206020
Si Si2 0.684787 0.071289 0.462045
Si Si3 0.315419 0.673800 0.711905
Si Si4 0.684405 0.680828 0.063781
Si Si5 0.184059 0.424320 0.316882
Si Si6 0.815647 0.175842 0.561941
Si Si7 0.686522 0.926533 0.813851
Si Si8 0.684488 0.572385 0.958544
O O1 0.500000 0.172452 0.200888
O O2 0.275325 0.250379 0.224248
O O3 0.244718 0.162411 0.135268
O O4 0.259842 0.124834 0.260338
O O5 0.500000 0.071201 0.464463
O O6 0.750029 0.122717 0.512900
O O7 0.733072 0.088419 0.387950
O O8 0.744800 0.998222 0.474724
O O9 0.500000 0.667421 0.717938
O O10 0.236429 0.625632 0.762095
O O11 0.273396 0.660103 0.636854
O O12 0.500000 0.685077 0.064876
O O13 0.751896 0.751987 0.047658
O O14 0.729910 0.626814 0.010959
O O15 0.231427 0.498736 0.299715
O O16 0.257736 0.409050 0.386716
O O17 0.000000 0.423599 0.323696
O O18 0.000000 0.177398 0.558350
O O19 0.500000 0.924328 0.812842
O O20 0.500000 0.567196 0.958202
#
# Coordination Sequence:
#
# PCOD9351556 Si02
#       8
#     8   8   8   8   8   8   8   8
#     4   9  18  35  56  75 101 137 174 214 263 316
#     4  10  20  35  56  81 109 141 179 222 264 313
#     4   9  19  34  52  75 104 138 171 209 261 319
#     4  10  21  36  54  78 106 137 178 223 264 311
#     4  10  20  34  54  79 105 135 175 221 264 313
#     4  10  21  37  56  79 108 141 177 217 266 321
#     4   8  17  34  53  75 102 133 171 212 257 308
#     4  10  21  37  55  76 107 144 179 220 269 319
#
# _framework density 17.424223000000001
#
# number of rings (size 3 to 8) (size 9 to 14) (size 15 to 20)
#    0.000    2.500    0.000    3.375    0.000    6.500 
#    0.000    8.750    0.000    0.000    0.000    0.000 
#    0.000    0.000    0.000    0.000    0.000    0.000 
#
# Total GULP energy -178537.525886 kJ/mol
# GULP energy per Si atom -5579.297684 kJ/mol
# Density = 1.738456 g / cm^3
# Si number density = 17.424223 Si / 1000 Ang^3
#
#
#
# Elastic Constant Matrix: (Units=GPa)
#
#
# Indices 1 2 3 4 5 6 
#
# 1 43.5130 48.8969 50.8268 0.0000 0.0000 0.0000
# 2 48.8969 142.4253 138.2041 0.0000 0.0000 0.0000
# 3 50.8268 138.2041 154.7246 0.0000 0.0000 0.0000
# 4 0.0000 0.0000 0.0000 43.7653 0.0000 0.0000
# 5 0.0000 0.0000 0.0000 0.0000 31.2942 0.0000
# 6 0.0000 0.0000 0.0000 0.0000 0.0000 29.9419
#
#
#
# Elastic Compliance Matrix: (Units=1/GPa)
#
#
# Indices 1 2 3 4 5 6 
#
# 1 0.038209 -0.007041 -0.006263 0.000000 0.000000 0.000000
# 2 -0.007041 0.053991 -0.045913 0.000000 0.000000 0.000000
# 3 -0.006263 -0.045913 0.049531 0.000000 0.000000 0.000000
# 4 0.000000 0.000000 0.000000 0.022849 0.000000 0.000000
# 5 0.000000 0.000000 0.000000 0.000000 0.031955 0.000000
# 6 0.000000 0.000000 0.000000 0.000000 0.000000 0.033398
#
#
# Mechanical properties :
#
#
# Convention : Reuss Voigt Hill
#
# Bulk Modulus (GPa) = 42.92244 90.72428 66.82336
# Shear Modulus (GPa) = 14.03976 27.84928 20.94452
#
# Velocity S-wave (km/s) = 2.84167 4.00222 3.47080
# Velocity P-wave (km/s) = 5.95433 8.57543 7.38214
#
# Compressibility (1/GPa) = 0.02329784
#
# Stress axis : x y z
#
# Youngs Moduli (GPa) = 26.17206 18.52167 20.18930
#
# Poissons Ratio (x) = 0.13041 0.12644
# Poissons Ratio (y) = 0.18427 0.92695
# Poissons Ratio (z) = 0.16390 0.85039
#
# Static dielectric constant tensor:
#      x y z
#    x 1.588170 0.000000 0.000000 
#    y 0.000000 1.571920 0.000000 
#    z 0.000000 0.000000 1.572930 
# 
# From -- ./inp_files/15701.got.cif
#   From: 2010.05.17/outbox.cif.g08.bks.cpg/sg36_8_cif.got.tgz:15701.got - 2010.06.03 17:41:39.
