data_PCOD9351832
_publ_section_title
;
Structure prediction by ZEFSAII (Michael W. Deem and Ramdas Pophale) SiO2 
 PCOD9351832
Probable space group: C M C 21
;
_chemical_formula_sum "Si O2"
_cell_formula_units_Z 64
_cell_length_a 8.722646
_cell_length_b 15.166479
_cell_length_c 23.663549
_cell_angle_alpha 90.000000
_cell_angle_beta 90.000000
_cell_angle_gamma 90.000000
_cell_volume 3130.494140
_symmetry_space_group_name_H-M "C M C 21"
_symmetry_group_IT_number 36
_symmetry_cell_setting 'orthorhombic'
loop_
_space_group_symop_operation_xyz
x,y,z
-x,-y,1/2+z
x,-y,1/2+z
-x,y,z
1/2+x,1/2+y,z
1/2-x,1/2-y,1/2+z
1/2+x,1/2-y,1/2+z
1/2-x,1/2+y,z
loop_
_atom_site_type_symbol
_atom_site_label
_atom_site_fract_x
_atom_site_fract_y
_atom_site_fract_z
Si Si1 0.182988 0.405836 0.340670
Si Si2 0.315344 0.347535 0.019370
Si Si3 0.181795 0.818162 0.571812
Si Si4 0.315553 0.437722 0.903747
Si Si5 0.314648 0.294104 0.810223
Si Si6 0.682787 0.067924 0.714404
Si Si7 0.684127 0.505275 0.605989
Si Si8 0.681908 0.239961 0.191288
O O1 0.256901 0.465161 0.388875
O O2 0.228673 0.303050 0.334564
O O3 0.220431 0.450248 0.279717
O O4 0.000000 0.407187 0.347626
O O5 0.500000 0.346549 0.018751
O O6 0.258016 0.248739 0.028201
O O7 0.267681 0.406651 0.073091
O O8 0.261722 0.395901 0.962690
O O9 0.219844 0.921325 0.566977
O O10 0.236649 0.793020 0.634783
O O11 0.000000 0.807893 0.568035
O O12 0.500000 0.440372 0.905420
O O13 0.270791 0.369954 0.853978
O O14 0.500000 0.293603 0.803454
O O15 0.239389 0.305455 0.748919
O O16 0.500000 0.082208 0.711114
O O17 0.770455 0.158095 0.699438
O O18 0.735102 0.000003 0.666654
O O19 0.500000 0.507145 0.614522
O O20 0.500000 0.231582 0.185063
#
# Coordination Sequence:
#
# PCOD9351832 Si02
#       8
#     8   8   8   8   8   8   8   8
#     4   9  20  37  56  83 118 151 190 239 290 347
#     4  10  22  42  61  84 118 157 199 248 296 349
#     4  11  23  38  58  87 118 156 199 245 298 353
#     4  10  22  39  62  86 115 156 202 243 292 349
#     4   9  20  39  58  83 118 157 193 238 294 354
#     4  10  20  36  59  87 122 156 193 241 297 355
#     4  10  22  38  58  85 119 156 195 242 298 353
#     4  11  21  35  58  87 120 155 193 244 299 352
#
# _framework density 20.444057000000001
#
# number of rings (size 3 to 8) (size 9 to 14) (size 15 to 20)
#    0.000    2.000    1.250    2.625    1.750    5.500 
#    0.000    0.000    0.000    0.000    0.000    0.000 
#    0.000    0.000    0.000    0.000    0.000    0.000 
#
# Total GULP energy -178741.930681 kJ/mol
# GULP energy per Si atom -5585.685334 kJ/mol
# Density = 2.039753 g / cm^3
# Si number density = 20.444057 Si / 1000 Ang^3
#
#
#
# Elastic Constant Matrix: (Units=GPa)
#
#
# Indices 1 2 3 4 5 6 
#
# 1 6.6588 8.4480 0.0448 0.0000 0.0000 0.0000
# 2 8.4480 45.0460 -12.0096 0.0000 0.0000 0.0000
# 3 0.0448 -12.0096 25.6530 0.0000 0.0000 0.0000
# 4 0.0000 0.0000 0.0000 25.3114 0.0000 0.0000
# 5 0.0000 0.0000 0.0000 0.0000 25.9340 0.0000
# 6 0.0000 0.0000 0.0000 0.0000 0.0000 21.4084
#
#
#
# Elastic Compliance Matrix: (Units=1/GPa)
#
#
# Indices 1 2 3 4 5 6 
#
# 1 0.206636 -0.044389 -0.021142 0.000000 0.000000 0.000000
# 2 -0.044389 0.034901 0.016417 0.000000 0.000000 0.000000
# 3 -0.021142 0.016417 0.046704 0.000000 0.000000 0.000000
# 4 0.000000 0.000000 0.000000 0.039508 0.000000 0.000000
# 5 0.000000 0.000000 0.000000 0.000000 0.038559 0.000000
# 6 0.000000 0.000000 0.000000 0.000000 0.000000 0.046711
#
#
# Mechanical properties :
#
#
# Convention : Reuss Voigt Hill
#
# Bulk Modulus (GPa) = 5.26282 7.81379 6.53830
# Shear Modulus (GPa) = 8.70193 19.92239 14.31216
#
# Velocity S-wave (km/s) = 2.06536 3.12506 2.64874
# Velocity P-wave (km/s) = 2.87532 4.10508 3.54394
#
# Compressibility (1/GPa) = 0.19001234
#
# Stress axis : x y z
#
# Youngs Moduli (GPa) = 4.83944 28.65233 21.41135
#
# Poissons Ratio (x) = 1.27186 0.45267
# Poissons Ratio (y) = 0.21482 -0.35150
# Poissons Ratio (z) = 0.10231 -0.47037
#
# Static dielectric constant tensor:
#      x y z
#    x 1.685530 0.000000 0.000000 
#    y 0.000000 1.754810 0.000000 
#    z 0.000000 0.000000 1.726340 
# 
# From -- ./inp_files/16603.got.cif
#   From: 2010.05.17/outbox.cif.g08.bks.cpg/sg36_9_cif.got.tgz:16603.got - 2010.06.03 17:41:39.
