data_PCOD9351888
_publ_section_title
;
Structure prediction by ZEFSAII (Michael W. Deem and Ramdas Pophale) SiO2 
 PCOD9351888
Probable space group: C M C 21
;
_chemical_formula_sum "Si O2"
_cell_formula_units_Z 56
_cell_length_a 22.546749
_cell_length_b 7.365593
_cell_length_c 16.938987
_cell_angle_alpha 90.000000
_cell_angle_beta 90.000000
_cell_angle_gamma 90.000000
_cell_volume 2813.060563
_symmetry_space_group_name_H-M "C M C 21"
_symmetry_group_IT_number 36
_symmetry_cell_setting 'orthorhombic'
loop_
_space_group_symop_operation_xyz
x,y,z
-x,-y,1/2+z
x,-y,1/2+z
-x,y,z
1/2+x,1/2+y,z
1/2-x,1/2-y,1/2+z
1/2+x,1/2-y,1/2+z
1/2-x,1/2+y,z
loop_
_atom_site_type_symbol
_atom_site_label
_atom_site_fract_x
_atom_site_fract_y
_atom_site_fract_z
Si Si1 0.430774 0.825166 0.889070
Si Si2 0.194148 0.564055 0.102149
Si Si3 0.121879 0.298786 0.453048
Si Si4 0.828036 0.328819 0.772855
Si Si5 0.803322 0.750420 0.806607
Si Si6 0.826411 0.857050 0.636599
Si Si7 0.433052 0.461897 0.530326
O O1 0.500000 0.823190 0.866368
O O2 0.387083 0.769246 0.817745
O O3 0.422918 0.690786 0.963244
O O4 0.411219 0.026076 0.917341
O O5 0.175422 0.686529 0.178016
O O6 0.173840 0.357929 0.116961
O O7 0.265502 0.565513 0.100595
O O8 0.165216 0.635344 0.022610
O O9 0.162302 0.203628 0.386145
O O10 0.076542 0.154916 0.488753
O O11 0.822103 0.545118 0.787020
O O12 0.767908 0.250679 0.811065
O O13 0.821130 0.872261 0.731360
O O14 0.884353 0.939966 0.598016
O O15 0.500000 0.442424 0.560172
#
# Coordination Sequence:
#
# PCOD9351888 Si02
#       7
#     8   8   8   8   8   8   8
#     4  10  22  41  60  82 121 158 197 247 290 359
#     4  10  20  36  63  90 121 157 194 261 299 355
#     4  11  22  39  64  90 117 156 206 251 306 343
#     4   9  20  37  58  88 120 155 198 239 310 353
#     4   9  21  35  60  90 119 156 190 257 301 354
#     4  10  20  40  58  90 126 156 202 243 308 357
#     4  11  24  40  61  86 119 160 201 244 294 363
#
# _framework density 19.907143999999999
#
# number of rings (size 3 to 8) (size 9 to 14) (size 15 to 20)
#    0.000    2.000    1.429    1.286    4.000    2.286 
#    0.000    8.571    0.000    0.000    0.000    0.000 
#    0.000    0.000    0.000    0.000    0.000    0.000 
#
# Total GULP energy -156470.166491 kJ/mol
# GULP energy per Si atom -5588.220232 kJ/mol
# Density = 1.986183 g / cm^3
# Si number density = 19.907144 Si / 1000 Ang^3
#
#
#
# Elastic Constant Matrix: (Units=GPa)
#
#
# Indices 1 2 3 4 5 6 
#
# 1 153.6898 13.7235 77.0051 0.0000 0.0000 0.0000
# 2 13.7235 50.3122 5.2408 0.0000 0.0000 0.0000
# 3 77.0051 5.2408 68.5854 0.0000 0.0000 0.0000
# 4 0.0000 0.0000 0.0000 18.7601 0.0000 0.0000
# 5 0.0000 0.0000 0.0000 0.0000 253.4914 0.0000
# 6 0.0000 0.0000 0.0000 0.0000 0.0000 24.2304
#
#
#
# Elastic Compliance Matrix: (Units=1/GPa)
#
#
# Indices 1 2 3 4 5 6 
#
# 1 0.015151 -0.002380 -0.016830 0.000000 0.000000 0.000000
# 2 -0.002380 0.020409 0.001112 0.000000 0.000000 0.000000
# 3 -0.016830 0.001112 0.033391 0.000000 0.000000 0.000000
# 4 0.000000 0.000000 0.000000 0.053305 0.000000 0.000000
# 5 0.000000 0.000000 0.000000 0.000000 0.003945 0.000000
# 6 0.000000 0.000000 0.000000 0.000000 0.000000 0.041271
#
#
# Mechanical properties :
#
#
# Convention : Reuss Voigt Hill
#
# Bulk Modulus (GPa) = 30.52725 51.61402 41.07064
# Shear Modulus (GPa) = 23.30079 71.07091 47.18585
#
# Velocity S-wave (km/s) = 3.42493 5.98153 4.87385
# Velocity P-wave (km/s) = 5.56851 8.58421 7.23522
#
# Compressibility (1/GPa) = 0.03275762
#
# Stress axis : x y z
#
# Youngs Moduli (GPa) = 66.00009 48.99764 29.94812
#
# Poissons Ratio (x) = 0.11660 0.50402
# Poissons Ratio (y) = 0.15706 -0.03331
# Poissons Ratio (z) = 1.11076 -0.05450
#
# Static dielectric constant tensor:
#      x y z
#    x 1.555150 0.000000 0.000000 
#    y 0.000000 1.737790 0.000000 
#    z 0.000000 0.000000 1.707880 
# 
# From -- ./inp_files/12853.got.cif
#   From: 2010.05.17/outbox.cif.g08.bks.cpg/sg36_7_cif.got.tgz:12853.got - 2010.06.03 17:41:39.
