data_PCOD9351475
_publ_section_title
;
Structure prediction by ZEFSAII (Michael W. Deem and Ramdas Pophale) SiO2 
 PCOD9351475
Probable space group: C M C 21
;
_chemical_formula_sum "Si O2"
_cell_formula_units_Z 56
_cell_length_a 23.362051
_cell_length_b 24.761289
_cell_length_c 5.012246
_cell_angle_alpha 90.000000
_cell_angle_beta 90.000000
_cell_angle_gamma 90.000000
_cell_volume 2899.456481
_symmetry_space_group_name_H-M "C M C 21"
_symmetry_group_IT_number 36
_symmetry_cell_setting 'orthorhombic'
loop_
_space_group_symop_operation_xyz
x,y,z
-x,-y,1/2+z
x,-y,1/2+z
-x,y,z
1/2+x,1/2+y,z
1/2-x,1/2-y,1/2+z
1/2+x,1/2-y,1/2+z
1/2-x,1/2+y,z
loop_
_atom_site_type_symbol
_atom_site_label
_atom_site_fract_x
_atom_site_fract_y
_atom_site_fract_z
Si Si1 0.768439 0.964831 0.820140
Si Si2 0.714116 0.878500 0.184831
Si Si3 0.341143 0.656305 0.826670
Si Si4 0.000000 0.962992 0.960929
Si Si5 0.873164 0.539762 0.929683
Si Si6 0.210984 0.739607 0.517186
Si Si7 0.000000 0.464723 0.501823
Si Si8 0.116160 0.098003 0.328634
O O1 0.834183 0.946991 0.851701
O O2 0.758409 0.985757 0.523551
O O3 0.731231 0.915602 0.932012
O O4 0.775167 0.865444 0.327460
O O5 0.668892 0.911398 0.359550
O O6 0.691486 0.820504 0.088736
O O7 0.335849 0.718295 0.912890
O O8 0.365873 0.644676 0.535972
O O9 0.378072 0.622130 0.034433
O O10 0.943874 0.928021 0.900303
O O11 0.000000 0.013874 0.759361
O O12 0.865824 0.493469 0.703392
O O13 0.938926 0.560923 0.932631
O O14 0.241755 0.763384 0.781164
O O15 0.000000 0.481863 0.811685
#
# Coordination Sequence:
#
# PCOD9351475 Si02
#       8
#     8   8   8   4   8   8   4   8
#     4  11  20  31  46  72 108 139 163 203 261 320
#     4  10  21  33  53  80 107 138 175 217 266 320
#     4  10  21  37  55  78 107 141 178 226 282 327
#     4  12  24  40  60  86 112 148 198 238 272 336
#     4  10  20  33  50  76 105 139 174 209 252 313
#     4  10  20  35  54  77 106 139 178 220 267 328
#     4   8  16  32  50  66  96 134 168 198 234 282
#     4  11  22  38  57  77 107 146 183 225 275 324
#
# _framework density 19.313963000000001
#
# number of rings (size 3 to 8) (size 9 to 14) (size 15 to 20)
#    0.000    1.714    0.000    6.857    0.000    5.714 
#    0.000    0.000    0.000    1.714    0.000    2.000 
#    0.000    0.000    0.000    0.000    0.000    0.000 
#
# Total GULP energy -156512.528066 kJ/mol
# GULP energy per Si atom -5589.733145 kJ/mol
# Density = 1.927000 g / cm^3
# Si number density = 19.313963 Si / 1000 Ang^3
#
#
#
# Elastic Constant Matrix: (Units=GPa)
#
#
# Indices 1 2 3 4 5 6 
#
# 1 89.5172 25.3240 -4.7029 0.0000 0.0000 0.0000
# 2 25.3240 100.8776 7.0089 0.0000 0.0000 0.0000
# 3 -4.7029 7.0089 77.9187 0.0000 0.0000 0.0000
# 4 0.0000 0.0000 0.0000 25.0420 0.0000 0.0000
# 5 0.0000 0.0000 0.0000 0.0000 18.3118 0.0000
# 6 0.0000 0.0000 0.0000 0.0000 0.0000 19.9953
#
#
#
# Elastic Compliance Matrix: (Units=1/GPa)
#
#
# Indices 1 2 3 4 5 6 
#
# 1 0.012104 -0.003109 0.001010 0.000000 0.000000 0.000000
# 2 -0.003109 0.010774 -0.001157 0.000000 0.000000 0.000000
# 3 0.001010 -0.001157 0.012999 0.000000 0.000000 0.000000
# 4 0.000000 0.000000 0.000000 0.039933 0.000000 0.000000
# 5 0.000000 0.000000 0.000000 0.000000 0.054610 0.000000
# 6 0.000000 0.000000 0.000000 0.000000 0.000000 0.050012
#
#
# Mechanical properties :
#
#
# Convention : Reuss Voigt Hill
#
# Bulk Modulus (GPa) = 34.05322 35.95259 35.00290
# Shear Modulus (GPa) = 25.41563 28.71539 27.06551
#
# Velocity S-wave (km/s) = 3.63150 3.86005 3.74751
# Velocity P-wave (km/s) = 5.93745 6.20660 6.07352
#
# Compressibility (1/GPa) = 0.02936580
#
# Stress axis : x y z
#
# Youngs Moduli (GPa) = 82.62057 92.81822 76.92948
#
# Poissons Ratio (x) = 0.28854 -0.07771
# Poissons Ratio (y) = 0.25684 0.08899
# Poissons Ratio (z) = -0.08346 0.10737
#
# Static dielectric constant tensor:
#      x y z
#    x 1.703480 0.000000 0.000000 
#    y 0.000000 1.671610 0.000000 
#    z 0.000000 0.000000 1.701790 
# 
# From -- ./inp_files/1655.got.cif
#   From: 2010.05.17/outbox.cif.g08.bks.cpg/sg36_1_cif.got.tgz:1655.got - 2010.06.03 17:41:39.
