data_PCOD9351883
_publ_section_title
;
Structure prediction by ZEFSAII (Michael W. Deem and Ramdas Pophale) SiO2 
 PCOD9351883
Probable space group: C M C 21
;
_chemical_formula_sum "Si O2"
_cell_formula_units_Z 52
_cell_length_a 7.737733
_cell_length_b 14.779365
_cell_length_c 21.084639
_cell_angle_alpha 90.000000
_cell_angle_beta 90.000000
_cell_angle_gamma 90.000000
_cell_volume 2411.213599
_symmetry_space_group_name_H-M "C M C 21"
_symmetry_group_IT_number 36
_symmetry_cell_setting 'orthorhombic'
loop_
_space_group_symop_operation_xyz
x,y,z
-x,-y,1/2+z
x,-y,1/2+z
-x,y,z
1/2+x,1/2+y,z
1/2-x,1/2-y,1/2+z
1/2+x,1/2-y,1/2+z
1/2-x,1/2+y,z
loop_
_atom_site_type_symbol
_atom_site_label
_atom_site_fract_x
_atom_site_fract_y
_atom_site_fract_z
Si Si1 0.695399 0.879477 0.800390
Si Si2 0.700163 0.624599 0.884520
Si Si3 0.690458 0.005959 0.489429
Si Si4 0.801517 0.697628 0.748864
Si Si5 0.289744 0.013851 0.690643
Si Si6 0.000000 0.968470 0.586608
Si Si7 0.803393 0.813218 0.933380
O O1 0.500000 0.891138 0.823623
O O2 0.700600 0.791082 0.754952
O O3 0.803981 0.855189 0.862265
O O4 0.744783 0.963849 0.757583
O O5 0.500000 0.602847 0.873610
O O6 0.785601 0.651051 0.817963
O O7 0.714177 0.716179 0.926550
O O8 0.791840 0.544761 0.922029
O O9 0.500000 0.987680 0.515994
O O10 0.848147 0.971769 0.531364
O O11 0.713902 0.113048 0.477651
O O12 0.750313 0.620766 0.699013
O O13 0.000000 0.721546 0.736906
O O14 0.000000 0.504374 0.679232
O O15 0.155745 0.973991 0.640655
O O16 0.000000 0.800027 0.954617
#
# Coordination Sequence:
#
# PCOD9351883 Si02
#       7
#     8   8   8   8   8   4   8
#     4  10  20  36  62  97 128 159 197 253 324 384
#     4  11  21  37  64 100 130 163 201 256 328 389
#     4  12  24  44  66  89 129 164 216 266 311 367
#     4  10  20  36  62  97 128 159 197 253 324 384
#     4  10  24  42  64  87 127 164 212 260 311 361
#     4  12  26  44  66  86 116 178 226 262 292 362
#     4  11  21  37  64 100 130 163 201 256 328 389
#
# _framework density 21.565904
#
# number of rings (size 3 to 8) (size 9 to 14) (size 15 to 20)
#    0.000    1.231    1.538    6.923    4.308    1.231 
#    0.000    1.538    0.000    0.000    0.000    0.000 
#    0.000    0.000    0.000    0.000    0.000    0.000 
#
# Total GULP energy -144748.125353 kJ/mol
# GULP energy per Si atom -5567.235590 kJ/mol
# Density = 2.151682 g / cm^3
# Si number density = 21.565904 Si / 1000 Ang^3
#
#
#
# Elastic Constant Matrix: (Units=GPa)
#
#
# Indices 1 2 3 4 5 6 
#
# 1 124.6808 -2.5946 7.3708 0.0000 0.0000 0.0000
# 2 -2.5946 72.3958 -6.3793 0.0000 0.0000 0.0000
# 3 7.3708 -6.3793 11.2208 0.0000 0.0000 0.0000
# 4 0.0000 0.0000 0.0000 -11.1424 0.0000 0.0000
# 5 0.0000 0.0000 0.0000 0.0000 40.7109 0.0000
# 6 0.0000 0.0000 0.0000 0.0000 0.0000 22.3961
#
#
#
# Elastic Compliance Matrix: (Units=1/GPa)
#
#
# Indices 1 2 3 4 5 6 
#
# 1 0.008347 -0.000194 -0.005593 0.000000 0.000000 0.000000
# 2 -0.000194 0.014546 0.008397 0.000000 0.000000 0.000000
# 3 -0.005593 0.008397 0.097568 0.000000 0.000000 0.000000
# 4 0.000000 0.000000 0.000000 -0.089748 0.000000 0.000000
# 5 0.000000 0.000000 0.000000 0.000000 0.024563 0.000000
# 6 0.000000 0.000000 0.000000 0.000000 0.000000 0.044651
#
#
# Mechanical properties :
#
#
# Convention : Reuss Voigt Hill
#
# Bulk Modulus (GPa) = 7.95663 22.78790 15.37227
# Shear Modulus (GPa) = 36.60272 24.38628 30.49450
#
# Velocity S-wave (km/s) = 4.12424 3.36635 3.76442
# Velocity P-wave (km/s) = 5.13581 5.06945 5.10274
#
# Compressibility (1/GPa) = 0.12568137
#
# Stress axis : x y z
#
# Youngs Moduli (GPa) = 119.80190 68.74776 10.24922
#
# Poissons Ratio (x) = 0.01332 0.05733
# Poissons Ratio (y) = 0.02321 -0.08606
# Poissons Ratio (z) = 0.67008 -0.57727
#
# Static dielectric constant tensor:
#      x y z
#    x 1.760950 0.000000 0.000000 
#    y 0.000000 1.808620 0.000000 
#    z 0.000000 0.000000 1.772790 
# 
# From -- ./inp_files/15403.got.cif
#   From: 2010.05.17/outbox.cif.g08.bks.cpg/sg36_8_cif.got.tgz:15403.got - 2010.06.03 17:41:39.
