data_PCOD9351818
_publ_section_title
;
Structure prediction by ZEFSAII (Michael W. Deem and Ramdas Pophale) SiO2 
 PCOD9351818
Probable space group: C M C 21
;
_chemical_formula_sum "Si O2"
_cell_formula_units_Z 64
_cell_length_a 7.686886
_cell_length_b 33.086532
_cell_length_c 11.429449
_cell_angle_alpha 90.000000
_cell_angle_beta 90.000000
_cell_angle_gamma 90.000000
_cell_volume 2906.879190
_symmetry_space_group_name_H-M "C M C 21"
_symmetry_group_IT_number 36
_symmetry_cell_setting 'orthorhombic'
loop_
_space_group_symop_operation_xyz
x,y,z
-x,-y,1/2+z
x,-y,1/2+z
-x,y,z
1/2+x,1/2+y,z
1/2-x,1/2-y,1/2+z
1/2+x,1/2-y,1/2+z
1/2-x,1/2+y,z
loop_
_atom_site_type_symbol
_atom_site_label
_atom_site_fract_x
_atom_site_fract_y
_atom_site_fract_z
Si Si1 0.299551 0.647605 0.897090
Si Si2 0.302932 0.764448 0.459320
Si Si3 0.293816 0.221907 0.216692
Si Si4 0.291801 0.421178 0.234204
Si Si5 0.208610 0.487900 0.427176
Si Si6 0.290287 0.081336 0.084718
Si Si7 0.790323 0.364560 0.796924
Si Si8 0.204281 0.575055 0.468307
O O1 0.500000 0.659371 0.875515
O O2 0.200640 0.687468 0.935493
O O3 0.228972 0.621462 0.788614
O O4 0.291342 0.614576 0.999638
O O5 0.500000 0.748768 0.462398
O O6 0.224994 0.760000 0.592059
O O7 0.224649 0.745418 0.340156
O O8 0.500000 0.218379 0.193233
O O9 0.220233 0.177011 0.243533
O O10 0.500000 0.418743 0.230034
O O11 0.245583 0.458229 0.319418
O O12 0.219624 0.427560 0.106522
O O13 0.267624 0.462722 0.542021
O O14 0.281001 0.533003 0.419872
O O15 0.000000 0.491732 0.435836
O O16 0.500000 0.083215 0.069417
O O17 0.254038 0.097359 0.212950
O O18 0.000000 0.357778 0.801275
O O19 0.726016 0.382191 0.920088
O O20 0.000000 0.575422 0.436087
#
# Coordination Sequence:
#
# PCOD9351818 Si02
#       8
#     8   8   8   8   8   8   8   8
#     4  10  20  36  59  84 111 147 191 236 287 348
#     4  11  23  40  64  92 121 156 199 252 307 365
#     4  10  22  41  62  88 124 159 199 250 305 367
#     4  10  22  38  54  78 118 156 190 238 293 352
#     4   9  19  33  57  86 111 145 194 244 285 337
#     4   9  16  32  57  82 110 144 185 234 284 337
#     4   9  18  35  58  82 114 150 186 235 292 346
#     4  10  21  35  57  86 115 151 196 245 293 344
#
# _framework density 22.016739000000001
#
# number of rings (size 3 to 8) (size 9 to 14) (size 15 to 20)
#    0.000    2.250    1.250    1.125    1.750    4.000 
#    0.000    3.750    0.000    0.000    0.000    0.000 
#    0.000    0.000    0.000    0.000    0.000    0.000 
#
# Total GULP energy -178359.145474 kJ/mol
# GULP energy per Si atom -5573.723296 kJ/mol
# Density = 2.196663 g / cm^3
# Si number density = 22.016739 Si / 1000 Ang^3
#
#
#
# Elastic Constant Matrix: (Units=GPa)
#
#
# Indices 1 2 3 4 5 6 
#
# 1 33.4872 4.9434 -3.5938 0.0000 0.0000 0.0000
# 2 4.9434 65.5618 46.4394 0.0000 0.0000 0.0000
# 3 -3.5938 46.4394 110.2233 0.0000 0.0000 0.0000
# 4 0.0000 0.0000 0.0000 6.8960 0.0000 0.0000
# 5 0.0000 0.0000 0.0000 0.0000 -12.4837 0.0000
# 6 0.0000 0.0000 0.0000 0.0000 0.0000 10.0743
#
#
#
# Elastic Compliance Matrix: (Units=1/GPa)
#
#
# Indices 1 2 3 4 5 6 
#
# 1 0.030804 -0.004325 0.002826 0.000000 0.000000 0.000000
# 2 -0.004325 0.022348 -0.009557 0.000000 0.000000 0.000000
# 3 0.002826 -0.009557 0.013191 0.000000 0.000000 0.000000
# 4 0.000000 0.000000 0.000000 0.145012 0.000000 0.000000
# 5 0.000000 0.000000 0.000000 0.000000 -0.080105 0.000000
# 6 0.000000 0.000000 0.000000 0.000000 0.000000 0.099263
#
#
# Mechanical properties :
#
#
# Convention : Reuss Voigt Hill
#
# Bulk Modulus (GPa) = 22.60749 33.87227 28.23988
# Shear Modulus (GPa) = 18.70088 11.66288 15.18188
#
# Velocity S-wave (km/s) = 2.91760 2.30408 2.62880
# Velocity P-wave (km/s) = 4.65193 4.74305 4.69771
#
# Compressibility (1/GPa) = 0.04423313
#
# Stress axis : x y z
#
# Youngs Moduli (GPa) = 32.46345 44.74628 75.80855
#
# Poissons Ratio (x) = 0.19351 -0.21427
# Poissons Ratio (y) = 0.14039 0.72449
# Poissons Ratio (z) = -0.09176 0.42763
#
# Static dielectric constant tensor:
#      x y z
#    x 1.833930 0.000000 0.000000 
#    y 0.000000 1.885100 0.000000 
#    z 0.000000 0.000000 1.856120 
# 
# From -- ./inp_files/7205.got.cif
#   From: 2010.05.17/outbox.cif.g08.bks.cpg/sg36_4_cif.got.tgz:7205.got - 2010.06.03 17:41:39.
