data_PCOD9351907
_publ_section_title
;
Structure prediction by ZEFSAII (Michael W. Deem and Ramdas Pophale) SiO2 
 PCOD9351907
Probable space group: C M C 21
;
_chemical_formula_sum "Si O2"
_cell_formula_units_Z 64
_cell_length_a 9.008000
_cell_length_b 25.190581
_cell_length_c 14.354732
_cell_angle_alpha 90.000000
_cell_angle_beta 90.000000
_cell_angle_gamma 90.000000
_cell_volume 3257.329185
_symmetry_space_group_name_H-M "C M C 21"
_symmetry_group_IT_number 36
_symmetry_cell_setting 'orthorhombic'
loop_
_space_group_symop_operation_xyz
x,y,z
-x,-y,1/2+z
x,-y,1/2+z
-x,y,z
1/2+x,1/2+y,z
1/2-x,1/2-y,1/2+z
1/2+x,1/2-y,1/2+z
1/2-x,1/2+y,z
loop_
_atom_site_type_symbol
_atom_site_label
_atom_site_fract_x
_atom_site_fract_y
_atom_site_fract_z
Si Si1 0.322912 0.331796 0.101330
Si Si2 0.823264 0.541382 0.126681
Si Si3 0.179362 0.915111 0.817154
Si Si4 0.179386 0.055851 0.521658
Si Si5 0.176341 0.792848 0.806661
Si Si6 0.171169 0.881172 0.483364
Si Si7 0.332914 0.729571 0.089687
Si Si8 0.179269 0.817263 0.314787
O O1 0.500000 0.332825 0.100298
O O2 0.271002 0.276877 0.056903
O O3 0.273682 0.328598 0.208948
O O4 0.272650 0.385298 0.052753
O O5 0.753340 0.561116 0.224510
O O6 0.000000 0.538947 0.135000
O O7 0.755817 0.486334 0.088967
O O8 0.773279 0.582340 0.046023
O O9 0.213524 0.947869 0.911283
O O10 0.222289 0.852883 0.832758
O O11 0.000000 0.915042 0.804071
O O12 0.000000 0.051458 0.531027
O O13 0.202163 0.788529 0.695032
O O14 0.256893 0.740133 0.844166
O O15 0.000000 0.788486 0.825039
O O16 0.169781 0.823057 0.529468
O O17 0.222084 0.866937 0.379458
O O18 0.000000 0.901527 0.483584
O O19 0.500000 0.751171 0.090292
O O20 0.000000 0.813776 0.318745
#
# Coordination Sequence:
#
# PCOD9351907 Si02
#       8
#     8   8   8   8   8   8   8   8
#     4   9  19  36  56  85 120 151 195 246 296 355
#     4  12  26  42  62  90 123 157 200 261 314 355
#     4  10  21  41  65  87 115 158 207 249 297 368
#     4  10  23  42  65  88 116 162 209 251 301 365
#     4   9  17  32  55  83 117 154 195 244 293 346
#     4  10  20  37  58  83 119 165 208 239 288 365
#     4   9  17  31  53  80 114 155 193 240 295 347
#     4   9  19  33  54  86 124 162 197 240 292 353
#
# _framework density 19.647998999999999
#
# number of rings (size 3 to 8) (size 9 to 14) (size 15 to 20)
#    0.000    2.250    1.250    1.125    1.750    3.500 
#    0.000    2.500    0.000    0.000    0.000    0.000 
#    0.000    0.000    0.000    0.000    0.000    0.000 
#
# Total GULP energy -178525.368207 kJ/mol
# GULP energy per Si atom -5578.917756 kJ/mol
# Density = 1.960328 g / cm^3
# Si number density = 19.647999 Si / 1000 Ang^3
#
#
#
# Elastic Constant Matrix: (Units=GPa)
#
#
# Indices 1 2 3 4 5 6 
#
# 1 33.3469 28.1374 26.2771 0.0000 0.0000 0.0000
# 2 28.1374 80.4866 26.4967 0.0000 0.0000 0.0000
# 3 26.2771 26.4967 73.9944 0.0000 0.0000 0.0000
# 4 0.0000 0.0000 0.0000 23.7265 0.0000 0.0000
# 5 0.0000 0.0000 0.0000 0.0000 13.6476 0.0000
# 6 0.0000 0.0000 0.0000 0.0000 0.0000 31.6087
#
#
#
# Elastic Compliance Matrix: (Units=1/GPa)
#
#
# Indices 1 2 3 4 5 6 
#
# 1 0.052424 -0.013828 -0.013665 0.000000 0.000000 0.000000
# 2 -0.013828 0.017732 -0.001439 0.000000 0.000000 0.000000
# 3 -0.013665 -0.001439 0.018883 0.000000 0.000000 0.000000
# 4 0.000000 0.000000 0.000000 0.042147 0.000000 0.000000
# 5 0.000000 0.000000 0.000000 0.000000 0.073273 0.000000
# 6 0.000000 0.000000 0.000000 0.000000 0.000000 0.031637
#
#
# Mechanical properties :
#
#
# Convention : Reuss Voigt Hill
#
# Bulk Modulus (GPa) = 32.07807 38.85004 35.46405
# Shear Modulus (GPa) = 16.42834 20.92433 18.67633
#
# Velocity S-wave (km/s) = 2.89473 3.26691 3.08644
# Velocity P-wave (km/s) = 5.24733 5.83492 5.54891
#
# Compressibility (1/GPa) = 0.03117395
#
# Stress axis : x y z
#
# Youngs Moduli (GPa) = 19.07529 56.39389 52.95864
#
# Poissons Ratio (x) = 0.77983 0.72369
# Poissons Ratio (y) = 0.26378 0.07621
# Poissons Ratio (z) = 0.26067 0.08115
#
# Static dielectric constant tensor:
#      x y z
#    x 1.664290 0.000000 0.000000 
#    y 0.000000 1.687360 0.000000 
#    z 0.000000 0.000000 1.734410 
# 
# From -- ./inp_files/11101.got.cif
#   From: 2010.05.17/outbox.cif.g08.bks.cpg/sg36_6_cif.got.tgz:11101.got - 2010.06.03 17:41:39.
