data_PCOD9351168
_publ_section_title
;
Structure prediction by ZEFSAII (Michael W. Deem and Ramdas Pophale) SiO2 
 PCOD9351168
Probable space group: C M C 21
;
_chemical_formula_sum "Si O2"
_cell_formula_units_Z 64
_cell_length_a 8.933064
_cell_length_b 21.176478
_cell_length_c 18.322562
_cell_angle_alpha 90.000000
_cell_angle_beta 90.000000
_cell_angle_gamma 90.000000
_cell_volume 3466.094321
_symmetry_space_group_name_H-M "C M C 21"
_symmetry_group_IT_number 36
_symmetry_cell_setting 'orthorhombic'
loop_
_space_group_symop_operation_xyz
x,y,z
-x,-y,1/2+z
x,-y,1/2+z
-x,y,z
1/2+x,1/2+y,z
1/2-x,1/2-y,1/2+z
1/2+x,1/2-y,1/2+z
1/2-x,1/2+y,z
loop_
_atom_site_type_symbol
_atom_site_label
_atom_site_fract_x
_atom_site_fract_y
_atom_site_fract_z
Si Si1 0.181463 0.377007 0.173460
Si Si2 0.182002 0.610930 0.842392
Si Si3 0.178783 0.606296 0.207416
Si Si4 0.327551 0.753023 0.365327
Si Si5 0.820902 0.624566 0.377196
Si Si6 0.821633 0.000348 0.607803
Si Si7 0.326904 0.735885 0.188838
Si Si8 0.318637 0.002327 0.954061
O O1 0.226400 0.391449 0.257634
O O2 0.256489 0.430109 0.124552
O O3 0.221241 0.303881 0.157169
O O4 0.000000 0.381517 0.168703
O O5 0.234593 0.676804 0.878158
O O6 0.223320 0.550775 0.889848
O O7 0.000000 0.614425 0.841358
O O8 0.220917 0.608222 0.293316
O O9 0.258300 0.548751 0.167150
O O10 0.229395 0.673910 0.174521
O O11 0.000000 0.599023 0.202205
O O12 0.500000 0.750277 0.388793
O O13 0.242203 0.693059 0.396304
O O14 0.324980 0.746215 0.276845
O O15 0.773171 0.567897 0.429370
O O16 0.000000 0.627484 0.378731
O O17 0.000000 0.000944 0.609129
O O18 0.758641 0.980110 0.529301
O O19 0.500000 0.724111 0.168268
O O20 0.500000 0.003969 0.962039
#
# Coordination Sequence:
#
# PCOD9351168 Si02
#       8
#     8   8   8   8   8   8   8   8
#     4   9  17  34  59  82 105 135 170 209 259 313
#     4   8  15  31  57  82 100 127 170 211 249 304
#     4  10  19  34  57  81 105 135 171 210 256 309
#     4   8  14  27  50  79 107 130 155 198 254 305
#     4   9  18  32  54  81 103 128 166 209 251 304
#     4  12  25  37  49  72 106 140 179 221 258 301
#     4   8  15  29  52  82 110 132 160 205 257 307
#     4  10  20  36  54  71  98 137 177 213 254 303
#
# _framework density 18.464586000000001
#
# number of rings (size 3 to 8) (size 9 to 14) (size 15 to 20)
#    0.000    2.750    0.000    3.750    0.000    3.500 
#    0.000    5.625    0.000    3.000    0.000    0.000 
#    0.000    0.000    0.000    0.000    0.000    0.000 
#
# Total GULP energy -178406.062425 kJ/mol
# GULP energy per Si atom -5575.189451 kJ/mol
# Density = 1.842256 g / cm^3
# Si number density = 18.464586 Si / 1000 Ang^3
#
#
#
# Elastic Constant Matrix: (Units=GPa)
#
#
# Indices 1 2 3 4 5 6 
#
# 1 31.8211 17.1970 8.0552 0.0000 0.0000 0.0000
# 2 17.1970 67.5354 -4.0055 0.0000 0.0000 0.0000
# 3 8.0552 -4.0055 18.5471 0.0000 0.0000 0.0000
# 4 0.0000 0.0000 0.0000 2.2246 0.0000 0.0000
# 5 0.0000 0.0000 0.0000 0.0000 14.5095 0.0000
# 6 0.0000 0.0000 0.0000 0.0000 0.0000 30.8753
#
#
#
# Elastic Compliance Matrix: (Units=1/GPa)
#
#
# Indices 1 2 3 4 5 6 
#
# 1 0.043584 -0.012379 -0.021603 0.000000 0.000000 0.000000
# 2 -0.012379 0.018515 0.009375 0.000000 0.000000 0.000000
# 3 -0.021603 0.009375 0.065324 0.000000 0.000000 0.000000
# 4 0.000000 0.000000 0.000000 0.449527 0.000000 0.000000
# 5 0.000000 0.000000 0.000000 0.000000 0.068920 0.000000
# 6 0.000000 0.000000 0.000000 0.000000 0.000000 0.032388
#
#
# Mechanical properties :
#
#
# Convention : Reuss Voigt Hill
#
# Bulk Modulus (GPa) = 12.78615 17.82189 15.30402
# Shear Modulus (GPa) = 6.63532 15.96565 11.30048
#
# Velocity S-wave (km/s) = 1.89772 2.94371 2.47656
# Velocity P-wave (km/s) = 3.42659 4.60725 4.06006
#
# Compressibility (1/GPa) = 0.07820963
#
# Stress axis : x y z
#
# Youngs Moduli (GPa) = 22.94398 54.00923 15.30833
#
# Poissons Ratio (x) = 0.66860 0.33070
# Poissons Ratio (y) = 0.28403 -0.14352
# Poissons Ratio (z) = 0.49565 -0.50635
#
# Static dielectric constant tensor:
#      x y z
#    x 1.619040 0.000000 0.000000 
#    y 0.000000 1.655630 0.000000 
#    z 0.000000 0.000000 1.635750 
# 
# From -- ./inp_files/13771.got.cif
#   From: 2010.05.17/outbox.cif.g08.bks.cpg/sg36_7_cif.got.tgz:13771.got - 2010.06.03 17:41:39.
