data_PCOD9351200
_publ_section_title
;
Structure prediction by ZEFSAII (Michael W. Deem and Ramdas Pophale) SiO2 
 PCOD9351200
Probable space group: C M C 21
;
_chemical_formula_sum "Si O2"
_cell_formula_units_Z 64
_cell_length_a 17.279608
_cell_length_b 5.060142
_cell_length_c 35.279969
_cell_angle_alpha 90.000000
_cell_angle_beta 90.000000
_cell_angle_gamma 90.000000
_cell_volume 3084.784182
_symmetry_space_group_name_H-M "C M C 21"
_symmetry_group_IT_number 36
_symmetry_cell_setting 'orthorhombic'
loop_
_space_group_symop_operation_xyz
x,y,z
-x,-y,1/2+z
x,-y,1/2+z
-x,y,z
1/2+x,1/2+y,z
1/2-x,1/2-y,1/2+z
1/2+x,1/2-y,1/2+z
1/2-x,1/2+y,z
loop_
_atom_site_type_symbol
_atom_site_label
_atom_site_fract_x
_atom_site_fract_y
_atom_site_fract_z
Si Si1 0.589299 0.058716 0.369720
Si Si2 0.197771 0.260853 0.642555
Si Si3 0.195279 0.629569 0.061021
Si Si4 0.195515 0.366773 0.724712
Si Si5 0.592346 0.883433 0.487688
Si Si6 0.092577 0.896623 0.439584
Si Si7 0.911360 0.863095 0.288827
Si Si8 0.306413 0.719196 0.328785
O O1 0.500000 0.989380 0.378693
O O2 0.640236 0.797081 0.364542
O O3 0.621931 0.254255 0.401583
O O4 0.589940 0.208780 0.329240
O O5 0.272120 0.459995 0.642486
O O6 0.157905 0.326305 0.602673
O O7 0.159367 0.324321 0.682822
O O8 0.236171 0.345381 0.058789
O O9 0.136705 0.663202 0.026621
O O10 0.234576 0.653032 0.727494
O O11 0.136121 0.295032 0.757513
O O12 0.500000 0.844564 0.492377
O O13 0.620453 0.675661 0.455641
O O14 0.604565 0.178819 0.472393
O O15 0.000000 0.925528 0.433229
O O16 0.000000 0.901615 0.278010
O O17 0.869064 0.141391 0.296959
O O18 0.249848 0.469490 0.326752
#
# Coordination Sequence:
#
# PCOD9351200 Si02
#       8
#     8   8   8   8   8   8   8   8
#     4  10  23  42  63  85 112 154 202 248 292 344
#     4   8  16  32  55  82 109 146 189 223 269 341
#     4  10  19  34  58  84 114 148 184 229 279 336
#     4  10  21  38  60  84 114 151 191 235 283 342
#     4  10  20  36  57  84 111 146 189 232 279 338
#     4   9  20  37  59  80 109 150 193 231 278 342
#     4  11  24  40  61  89 118 153 197 245 296 347
#     4  12  24  41  59  82 113 148 191 237 290 342
#
# _framework density 20.746994000000001
#
# number of rings (size 3 to 8) (size 9 to 14) (size 15 to 20)
#    0.000    2.000    1.250    1.875    3.500    0.000 
#    0.000    4.375    0.000    0.000    0.000   10.500 
#    0.000    0.000    0.000    0.000    0.000    0.000 
#
# Total GULP energy -178651.837532 kJ/mol
# GULP energy per Si atom -5582.869923 kJ/mol
# Density = 2.069977 g / cm^3
# Si number density = 20.746994 Si / 1000 Ang^3
#
#
#
# Elastic Constant Matrix: (Units=GPa)
#
#
# Indices 1 2 3 4 5 6 
#
# 1 54.8226 13.5415 21.7300 0.0000 0.0000 0.0000
# 2 13.5415 101.4630 3.1584 0.0000 0.0000 0.0000
# 3 21.7300 3.1584 123.8384 0.0000 0.0000 0.0000
# 4 0.0000 0.0000 0.0000 25.2715 0.0000 0.0000
# 5 0.0000 0.0000 0.0000 0.0000 23.2994 0.0000
# 6 0.0000 0.0000 0.0000 0.0000 0.0000 16.2663
#
#
#
# Elastic Compliance Matrix: (Units=1/GPa)
#
#
# Indices 1 2 3 4 5 6 
#
# 1 0.020265 -0.002596 -0.003490 0.000000 0.000000 0.000000
# 2 -0.002596 0.010196 0.000195 0.000000 0.000000 0.000000
# 3 -0.003490 0.000195 0.008682 0.000000 0.000000 0.000000
# 4 0.000000 0.000000 0.000000 0.039570 0.000000 0.000000
# 5 0.000000 0.000000 0.000000 0.000000 0.042919 0.000000
# 6 0.000000 0.000000 0.000000 0.000000 0.000000 0.061477
#
#
# Mechanical properties :
#
#
# Convention : Reuss Voigt Hill
#
# Bulk Modulus (GPa) = 36.54544 39.66487 38.10515
# Shear Modulus (GPa) = 24.50837 29.08038 26.79438
#
# Velocity S-wave (km/s) = 3.44073 3.74795 3.59762
# Velocity P-wave (km/s) = 5.78255 6.15543 5.97190
#
# Compressibility (1/GPa) = 0.02736320
#
# Stress axis : x y z
#
# Youngs Moduli (GPa) = 49.34591 98.07580 115.17554
#
# Poissons Ratio (x) = 0.25461 0.40193
# Poissons Ratio (y) = 0.12810 -0.02251
# Poissons Ratio (z) = 0.17220 -0.01917
#
# Static dielectric constant tensor:
#      x y z
#    x 1.726190 0.000000 0.000000 
#    y 0.000000 1.783860 0.000000 
#    z 0.000000 0.000000 1.809490 
# 
# From -- ./inp_files/17429.got.cif
#   From: 2010.05.17/outbox.cif.g08.bks.cpg/sg36_9_cif.got.tgz:17429.got - 2010.06.03 17:41:39.
