data_PCOD9351902
_publ_section_title
;
Structure prediction by ZEFSAII (Michael W. Deem and Ramdas Pophale) SiO2 
 PCOD9351902
Probable space group: C M C 21
;
_chemical_formula_sum "Si O2"
_cell_formula_units_Z 64
_cell_length_a 9.172778
_cell_length_b 29.173919
_cell_length_c 14.305977
_cell_angle_alpha 90.000000
_cell_angle_beta 90.000000
_cell_angle_gamma 90.000000
_cell_volume 3828.363598
_symmetry_space_group_name_H-M "C M C 21"
_symmetry_group_IT_number 36
_symmetry_cell_setting 'orthorhombic'
loop_
_space_group_symop_operation_xyz
x,y,z
-x,-y,1/2+z
x,-y,1/2+z
-x,y,z
1/2+x,1/2+y,z
1/2-x,1/2-y,1/2+z
1/2+x,1/2-y,1/2+z
1/2-x,1/2+y,z
loop_
_atom_site_type_symbol
_atom_site_label
_atom_site_fract_x
_atom_site_fract_y
_atom_site_fract_z
Si Si1 0.828681 0.076758 0.779830
Si Si2 0.326839 0.297459 0.535202
Si Si3 0.330375 0.841460 0.373321
Si Si4 0.175786 0.832130 0.739578
Si Si5 0.327891 0.512439 0.403535
Si Si6 0.174103 0.569602 0.246847
Si Si7 0.325447 0.494233 0.121931
Si Si8 0.829374 0.760036 0.894420
O O1 0.737880 0.121317 0.805648
O O2 0.790305 0.050676 0.683778
O O3 0.000000 0.088288 0.777433
O O4 0.806723 0.038088 0.859685
O O5 0.500000 0.298011 0.522965
O O6 0.255655 0.337870 0.471900
O O7 0.292685 0.305222 0.643303
O O8 0.260248 0.251720 0.487888
O O9 0.500000 0.851076 0.389897
O O10 0.318202 0.788608 0.338737
O O11 0.257873 0.880138 0.738288
O O12 0.218023 0.801403 0.828943
O O13 0.000000 0.839265 0.743138
O O14 0.500000 0.523740 0.390391
O O15 0.231307 0.546931 0.343180
O O16 0.295232 0.512466 0.513053
O O17 0.239245 0.536602 0.166392
O O18 0.000000 0.570516 0.243139
O O19 0.500000 0.502457 0.133481
O O20 0.000000 0.766035 0.917705
#
# Coordination Sequence:
#
# PCOD9351902 Si02
#       8
#     8   8   8   8   8   8   8   8
#     4   9  17  30  51  78 103 132 177 220 259 311
#     4   9  18  32  54  79 101 131 174 218 259 311
#     4   9  18  32  50  73 105 134 165 210 264 314
#     4  10  20  37  58  76 106 148 183 216 266 326
#     4   9  19  37  57  75 104 144 183 220 264 323
#     4  11  23  35  52  84 115 140 180 228 275 319
#     4   9  19  36  56  77 104 143 186 220 261 324
#     4   8  18  35  52  74 104 136 170 214 266 318
#
# _framework density 16.717324999999999
#
# number of rings (size 3 to 8) (size 9 to 14) (size 15 to 20)
#    0.750    2.000    0.000    2.250    1.750    4.000 
#    0.000    1.250    0.000    3.000    0.000    0.000 
#    0.000    0.000    0.000    0.000    0.000    0.000 
#
# Total GULP energy -178163.485469 kJ/mol
# GULP energy per Si atom -5567.608921 kJ/mol
# Density = 1.667928 g / cm^3
# Si number density = 16.717325 Si / 1000 Ang^3
#
#
#
# Elastic Constant Matrix: (Units=GPa)
#
#
# Indices 1 2 3 4 5 6 
#
# 1 54.8538 32.3582 34.5443 0.0000 0.0000 0.0000
# 2 32.3582 40.4050 20.2116 0.0000 0.0000 0.0000
# 3 34.5443 20.2116 87.7931 0.0000 0.0000 0.0000
# 4 0.0000 0.0000 0.0000 9.8985 0.0000 0.0000
# 5 0.0000 0.0000 0.0000 0.0000 19.3878 0.0000
# 6 0.0000 0.0000 0.0000 0.0000 0.0000 21.8968
#
#
#
# Elastic Compliance Matrix: (Units=1/GPa)
#
#
# Indices 1 2 3 4 5 6 
#
# 1 0.040648 -0.027748 -0.009606 0.000000 0.000000 0.000000
# 2 -0.027748 0.046912 0.000118 0.000000 0.000000 0.000000
# 3 -0.009606 0.000118 0.015143 0.000000 0.000000 0.000000
# 4 0.000000 0.000000 0.000000 0.101025 0.000000 0.000000
# 5 0.000000 0.000000 0.000000 0.000000 0.051579 0.000000
# 6 0.000000 0.000000 0.000000 0.000000 0.000000 0.045669
#
#
# Mechanical properties :
#
#
# Convention : Reuss Voigt Hill
#
# Bulk Modulus (GPa) = 35.42116 39.69782 37.55949
# Shear Modulus (GPa) = 12.99183 16.63247 14.81215
#
# Velocity S-wave (km/s) = 2.79076 3.15766 2.97986
# Velocity P-wave (km/s) = 5.62306 6.09036 5.86137
#
# Compressibility (1/GPa) = 0.02823171
#
# Stress axis : x y z
#
# Youngs Moduli (GPa) = 24.60155 21.31654 66.03749
#
# Poissons Ratio (x) = 0.59148 0.63435
# Poissons Ratio (y) = 0.68263 -0.00779
# Poissons Ratio (z) = 0.23632 -0.00251
#
# Static dielectric constant tensor:
#      x y z
#    x 1.560020 0.000000 0.000000 
#    y 0.000000 1.553570 0.000000 
#    z 0.000000 0.000000 1.559390 
# 
# From -- ./inp_files/11182.got.cif
#   From: 2010.05.17/outbox.cif.g08.bks.cpg/sg36_6_cif.got.tgz:11182.got - 2010.06.03 17:41:39.
