data_PCOD9351653
_publ_section_title
;
Structure prediction by ZEFSAII (Michael W. Deem and Ramdas Pophale) SiO2 
 PCOD9351653
Probable space group: C M C 21
;
_chemical_formula_sum "Si O2"
_cell_formula_units_Z 48
_cell_length_a 8.823345
_cell_length_b 18.590567
_cell_length_c 16.882830
_cell_angle_alpha 90.000000
_cell_angle_beta 90.000000
_cell_angle_gamma 90.000000
_cell_volume 2769.307258
_symmetry_space_group_name_H-M "C M C 21"
_symmetry_group_IT_number 36
_symmetry_cell_setting 'orthorhombic'
loop_
_space_group_symop_operation_xyz
x,y,z
-x,-y,1/2+z
x,-y,1/2+z
-x,y,z
1/2+x,1/2+y,z
1/2-x,1/2-y,1/2+z
1/2+x,1/2-y,1/2+z
1/2-x,1/2+y,z
loop_
_atom_site_type_symbol
_atom_site_label
_atom_site_fract_x
_atom_site_fract_y
_atom_site_fract_z
Si Si1 0.317234 0.660856 0.394210
Si Si2 0.680023 0.922098 0.044410
Si Si3 0.673498 0.300175 0.138301
Si Si4 0.819977 0.077902 0.074874
Si Si5 0.326502 0.800173 0.480984
Si Si6 0.682766 0.160858 0.225073
O O1 0.500000 0.656405 0.395525
O O2 0.250786 0.612161 0.464635
O O3 0.275680 0.744195 0.413913
O O4 0.249995 0.640195 0.309642
O O5 0.500000 0.926012 0.036994
O O6 0.725385 0.867984 0.115770
O O7 0.749995 0.000001 0.059642
O O8 0.500000 0.323362 0.153098
O O9 0.671006 0.250000 0.059643
O O10 0.724321 0.244197 0.205372
O O11 0.774616 0.132017 0.003514
O O12 0.749222 0.112163 0.154649
O O13 0.000000 0.073984 0.082286
O O14 0.500000 0.823361 0.466188
O O15 0.500000 0.156406 0.223751
#
# Coordination Sequence:
#
# PCOD9351653 Si02
#       6
#     8   8   8   8   8   8
#     4  10  20  35  55  79 107 137 172 216 264 312
#     4  11  21  34  54  78 106 140 179 218 261 314
#     4   8  16  32  52  74 101 132 168 209 253 304
#     4  11  21  34  54  78 106 140 179 218 261 314
#     4   8  16  32  52  74 101 132 168 209 253 304
#     4  10  20  35  55  79 107 137 172 216 264 312
#
# _framework density 17.332854000000001
#
# number of rings (size 3 to 8) (size 9 to 14) (size 15 to 20)
#    0.000    2.333    0.000    6.000    0.000    7.333 
#    0.000    1.667    0.000    4.000    0.000    0.000 
#    0.000    0.000    0.000    0.000    0.000    0.000 
#
# Total GULP energy -133814.672519 kJ/mol
# GULP energy per Si atom -5575.611355 kJ/mol
# Density = 1.729340 g / cm^3
# Si number density = 17.332854 Si / 1000 Ang^3
#
#
#
# Elastic Constant Matrix: (Units=GPa)
#
#
# Indices 1 2 3 4 5 6 
#
# 1 117.0275 78.4901 42.1750 0.0000 0.0000 0.0000
# 2 78.4901 133.5273 49.0120 0.0000 0.0000 0.0000
# 3 42.1750 49.0120 82.0204 0.0000 0.0000 0.0000
# 4 0.0000 0.0000 0.0000 17.9941 0.0000 0.0000
# 5 0.0000 0.0000 0.0000 0.0000 25.3881 0.0000
# 6 0.0000 0.0000 0.0000 0.0000 0.0000 30.2551
#
#
#
# Elastic Compliance Matrix: (Units=1/GPa)
#
#
# Indices 1 2 3 4 5 6 
#
# 1 0.014684 -0.007507 -0.003065 0.000000 0.000000 0.000000
# 2 -0.007507 0.013431 -0.004166 0.000000 0.000000 0.000000
# 3 -0.003065 -0.004166 0.016257 0.000000 0.000000 0.000000
# 4 0.000000 0.000000 0.000000 0.055574 0.000000 0.000000
# 5 0.000000 0.000000 0.000000 0.000000 0.039388 0.000000
# 6 0.000000 0.000000 0.000000 0.000000 0.000000 0.033052
#
#
# Mechanical properties :
#
#
# Convention : Reuss Voigt Hill
#
# Bulk Modulus (GPa) = 67.12484 74.65882 70.89183
# Shear Modulus (GPa) = 24.17472 25.58735 24.88103
#
# Velocity S-wave (km/s) = 3.73867 3.84635 3.79289
# Velocity P-wave (km/s) = 7.57944 7.93051 7.75696
#
# Compressibility (1/GPa) = 0.01489761
#
# Stress axis : x y z
#
# Youngs Moduli (GPa) = 68.09986 74.45602 61.51061
#
# Poissons Ratio (x) = 0.55892 0.18853
# Poissons Ratio (y) = 0.51121 0.25623
# Poissons Ratio (z) = 0.20873 0.31016
#
# Static dielectric constant tensor:
#      x y z
#    x 1.578750 0.000000 0.000000 
#    y 0.000000 1.585730 0.000000 
#    z 0.000000 0.000000 1.602680 
# 
# From -- ./inp_files/13552.got.cif
#   From: 2010.05.17/outbox.cif.g08.bks.cpg/sg36_7_cif.got.tgz:13552.got - 2010.06.03 17:41:39.
