data_PCOD9351778
_publ_section_title
;
Structure prediction by ZEFSAII (Michael W. Deem and Ramdas Pophale) SiO2 
 PCOD9351778
Probable space group: C M C 21
;
_chemical_formula_sum "Si O2"
_cell_formula_units_Z 56
_cell_length_a 14.942472
_cell_length_b 18.529582
_cell_length_c 9.566617
_cell_angle_alpha 90.000000
_cell_angle_beta 90.000000
_cell_angle_gamma 90.000000
_cell_volume 2648.783488
_symmetry_space_group_name_H-M "C M C 21"
_symmetry_group_IT_number 36
_symmetry_cell_setting 'orthorhombic'
loop_
_space_group_symop_operation_xyz
x,y,z
-x,-y,1/2+z
x,-y,1/2+z
-x,y,z
1/2+x,1/2+y,z
1/2-x,1/2-y,1/2+z
1/2+x,1/2-y,1/2+z
1/2-x,1/2+y,z
loop_
_atom_site_type_symbol
_atom_site_label
_atom_site_fract_x
_atom_site_fract_y
_atom_site_fract_z
Si Si1 0.603635 0.627007 0.700230
Si Si2 0.605647 0.000438 0.957454
Si Si3 0.340673 0.284601 0.937926
Si Si4 0.292338 0.068602 0.703793
Si Si5 0.095014 0.295796 0.190991
Si Si6 0.597521 0.844561 0.601570
Si Si7 0.362078 0.225477 0.373811
O O1 0.500000 0.603799 0.717504
O O2 0.619525 0.656784 0.542834
O O3 0.685081 0.570210 0.720989
O O4 0.620157 0.696939 0.800699
O O5 0.500000 0.980428 0.942975
O O6 0.607691 0.075929 0.043704
O O7 0.666366 0.948141 0.051434
O O8 0.655254 0.017896 0.812612
O O9 0.397190 0.269175 0.799449
O O10 0.240739 0.296871 0.888045
O O11 0.335151 0.211323 0.031375
O O12 0.325180 0.150404 0.729257
O O13 0.000000 0.334890 0.213727
O O14 0.100861 0.274087 0.030203
O O15 0.500000 0.817350 0.553749
O O16 0.599527 0.834035 0.767199
#
# Coordination Sequence:
#
# PCOD9351778 Si02
#       7
#     8   8   8   8   8   8   8
#     4  11  23  43  64  89 127 171 209 251 308 375
#     4  11  24  42  63  89 123 162 208 266 324 373
#     4  11  19  36  59  89 125 160 199 246 308 373
#     4  12  25  42  62  90 125 164 212 257 313 378
#     4  12  21  34  58  91 126 157 197 250 307 372
#     4  10  20  36  56  81 117 161 198 241 306 371
#     4  11  20  35  57  93 127 159 200 249 307 374
#
# _framework density 21.141781000000002
#
# number of rings (size 3 to 8) (size 9 to 14) (size 15 to 20)
#    0.000    0.857    4.286    5.571    2.000    0.000 
#    0.000    0.714    0.000    0.000    0.000    0.000 
#    0.000    0.000    0.000    0.000    0.000    0.000 
#
# Total GULP energy -156386.291314 kJ/mol
# GULP energy per Si atom -5585.224690 kJ/mol
# Density = 2.109366 g / cm^3
# Si number density = 21.141781 Si / 1000 Ang^3
#
#
#
# Elastic Constant Matrix: (Units=GPa)
#
#
# Indices 1 2 3 4 5 6 
#
# 1 169.6173 19.0263 29.3264 0.0000 0.0000 0.0000
# 2 19.0263 26.6597 11.6508 0.0000 0.0000 0.0000
# 3 29.3264 11.6508 141.8021 0.0000 0.0000 0.0000
# 4 0.0000 0.0000 0.0000 26.1567 0.0000 0.0000
# 5 0.0000 0.0000 0.0000 0.0000 40.7986 0.0000
# 6 0.0000 0.0000 0.0000 0.0000 0.0000 19.8632
#
#
#
# Elastic Compliance Matrix: (Units=1/GPa)
#
#
# Indices 1 2 3 4 5 6 
#
# 1 0.006544 -0.004231 -0.001006 0.000000 0.000000 0.000000
# 2 -0.004231 0.041642 -0.002546 0.000000 0.000000 0.000000
# 3 -0.001006 -0.002546 0.007469 0.000000 0.000000 0.000000
# 4 0.000000 0.000000 0.000000 0.038231 0.000000 0.000000
# 5 0.000000 0.000000 0.000000 0.000000 0.024511 0.000000
# 6 0.000000 0.000000 0.000000 0.000000 0.000000 0.050344
#
#
# Mechanical properties :
#
#
# Convention : Reuss Voigt Hill
#
# Bulk Modulus (GPa) = 24.94427 50.89846 37.92136
# Shear Modulus (GPa) = 25.29461 35.90208 30.59834
#
# Velocity S-wave (km/s) = 3.46269 4.12534 3.80846
# Velocity P-wave (km/s) = 5.27363 6.84239 6.10858
#
# Compressibility (1/GPa) = 0.04008937
#
# Stress axis : x y z
#
# Youngs Moduli (GPa) = 152.80945 24.01425 133.88114
#
# Poissons Ratio (x) = 0.10160 0.13466
# Poissons Ratio (y) = 0.64650 0.34092
# Poissons Ratio (z) = 0.15369 0.06115
#
# Static dielectric constant tensor:
#      x y z
#    x 1.739510 0.000000 0.000000 
#    y 0.000000 1.778910 0.000000 
#    z 0.000000 0.000000 1.802190 
# 
# From -- ./inp_files/4184.got.cif
#   From: 2010.05.17/outbox.cif.g08.bks.cpg/sg36_3_cif.got.tgz:4184.got - 2010.06.03 17:41:39.
