data_PCOD9351022
_publ_section_title
;
Structure prediction by ZEFSAII (Michael W. Deem and Ramdas Pophale) SiO2 
 PCOD9351022
Probable space group: C M C 21
;
_chemical_formula_sum "Si O2"
_cell_formula_units_Z 56
_cell_length_a 13.937914
_cell_length_b 16.872042
_cell_length_c 10.294106
_cell_angle_alpha 90.000000
_cell_angle_beta 90.000000
_cell_angle_gamma 90.000000
_cell_volume 2420.772986
_symmetry_space_group_name_H-M "C M C 21"
_symmetry_group_IT_number 36
_symmetry_cell_setting 'orthorhombic'
loop_
_space_group_symop_operation_xyz
x,y,z
-x,-y,1/2+z
x,-y,1/2+z
-x,y,z
1/2+x,1/2+y,z
1/2-x,1/2-y,1/2+z
1/2+x,1/2-y,1/2+z
1/2-x,1/2+y,z
loop_
_atom_site_type_symbol
_atom_site_label
_atom_site_fract_x
_atom_site_fract_y
_atom_site_fract_z
Si Si1 0.399189 0.395501 0.640800
Si Si2 0.187652 0.415057 0.349617
Si Si3 0.395552 0.375256 0.342836
Si Si4 0.613204 0.941394 0.004273
Si Si5 0.106111 0.744677 0.798935
Si Si6 0.316394 0.797914 0.871599
Si Si7 0.191108 0.581036 0.151355
O O1 0.500000 0.423934 0.699212
O O2 0.401047 0.410814 0.488025
O O3 0.394578 0.301231 0.671908
O O4 0.301460 0.430679 0.693320
O O5 0.294018 0.406658 0.289757
O O6 0.150679 0.503007 0.384650
O O7 0.119914 0.349507 0.283863
O O8 0.194088 0.384937 0.502857
O O9 0.500000 0.387880 0.279153
O O10 0.377174 0.281734 0.363449
O O11 0.500000 0.932500 0.995888
O O12 0.662723 0.856930 0.989943
O O13 0.640497 0.996606 0.126329
O O14 0.203551 0.775403 0.867693
O O15 0.000000 0.757155 0.859989
O O16 0.346184 0.851034 0.746030
#
# Coordination Sequence:
#
# PCOD9351022 Si02
#       7
#     8   8   8   8   8   8   8
#     4   8  14  28  51  75  95 119 152 191 236 278
#     4   8  17  32  49  70  95 123 158 193 227 280
#     4   9  16  29  50  74  96 120 154 194 235 275
#     4  10  20  33  47  68  95 126 161 194 233 279
#     4   9  16  30  52  74  96 123 155 192 233 278
#     4  10  19  33  49  70  98 124 159 196 232 280
#     4   8  18  33  48  67  93 129 159 188 232 284
#
# _framework density 23.133108
#
# number of rings (size 3 to 8) (size 9 to 14) (size 15 to 20)
#    0.857    2.286    0.000    0.857    0.000    1.143 
#    2.571    1.429    0.000    0.000    0.000    0.000 
#    0.000    0.000    0.000    0.000    0.000    0.000 
#
# Total GULP energy -155870.521122 kJ/mol
# GULP energy per Si atom -5566.804326 kJ/mol
# Density = 2.308046 g / cm^3
# Si number density = 23.133108 Si / 1000 Ang^3
#
#
#
# Elastic Constant Matrix: (Units=GPa)
#
#
# Indices 1 2 3 4 5 6 
#
# 1 136.4890 23.0365 -13.9177 0.0000 0.0000 0.0000
# 2 23.0365 119.6548 5.2603 0.0000 0.0000 0.0000
# 3 -13.9177 5.2603 31.7078 0.0000 0.0000 0.0000
# 4 0.0000 0.0000 0.0000 18.9737 0.0000 0.0000
# 5 0.0000 0.0000 0.0000 0.0000 11.0981 0.0000
# 6 0.0000 0.0000 0.0000 0.0000 0.0000 4.6499
#
#
#
# Elastic Compliance Matrix: (Units=1/GPa)
#
#
# Indices 1 2 3 4 5 6 
#
# 1 0.008002 -0.001707 0.003796 0.000000 0.000000 0.000000
# 2 -0.001707 0.008783 -0.002207 0.000000 0.000000 0.000000
# 3 0.003796 -0.002207 0.033570 0.000000 0.000000 0.000000
# 4 0.000000 0.000000 0.000000 0.052705 0.000000 0.000000
# 5 0.000000 0.000000 0.000000 0.000000 0.090106 0.000000
# 6 0.000000 0.000000 0.000000 0.000000 0.000000 0.215058
#
#
# Mechanical properties :
#
#
# Convention : Reuss Voigt Hill
#
# Bulk Modulus (GPa) = 19.95288 35.17887 27.56587
# Shear Modulus (GPa) = 11.76010 25.17583 18.46796
#
# Velocity S-wave (km/s) = 2.25714 3.30252 2.82855
# Velocity P-wave (km/s) = 3.92898 5.45732 4.75496
#
# Compressibility (1/GPa) = 0.05011809
#
# Stress axis : x y z
#
# Youngs Moduli (GPa) = 124.97187 113.85505 29.78849
#
# Poissons Ratio (x) = 0.19440 -0.11306
# Poissons Ratio (y) = 0.21338 0.06573
# Poissons Ratio (z) = -0.47434 0.25123
#
# Static dielectric constant tensor:
#      x y z
#    x 1.901800 0.000000 0.000000 
#    y 0.000000 1.896700 0.000000 
#    z 0.000000 0.000000 2.042930 
# 
# From -- ./inp_files/12305.got.cif
#   From: 2010.05.17/outbox.cif.g08.bks.cpg/sg36_7_cif.got.tgz:12305.got - 2010.06.03 17:41:39.
