data_PCOD9351180
_publ_section_title
;
Structure prediction by ZEFSAII (Michael W. Deem and Ramdas Pophale) SiO2 
 PCOD9351180
Probable space group: C M C 21
;
_chemical_formula_sum "Si O2"
_cell_formula_units_Z 64
_cell_length_a 8.980928
_cell_length_b 20.483464
_cell_length_c 19.930502
_cell_angle_alpha 90.000000
_cell_angle_beta 90.000000
_cell_angle_gamma 90.000000
_cell_volume 3666.425420
_symmetry_space_group_name_H-M "C M C 21"
_symmetry_group_IT_number 36
_symmetry_cell_setting 'orthorhombic'
loop_
_space_group_symop_operation_xyz
x,y,z
-x,-y,1/2+z
x,-y,1/2+z
-x,y,z
1/2+x,1/2+y,z
1/2-x,1/2-y,1/2+z
1/2+x,1/2-y,1/2+z
1/2-x,1/2+y,z
loop_
_atom_site_type_symbol
_atom_site_label
_atom_site_fract_x
_atom_site_fract_y
_atom_site_fract_z
Si Si1 0.677213 0.320066 0.635460
Si Si2 0.675723 0.653199 0.759641
Si Si3 0.178232 0.483803 0.257821
Si Si4 0.822140 0.427287 0.020224
Si Si5 0.178668 0.030322 0.118069
Si Si6 0.822023 0.595593 0.365774
Si Si7 0.324797 0.687889 0.602254
Si Si8 0.323013 0.286909 0.790622
O O1 0.500000 0.309750 0.626825
O O2 0.714762 0.392887 0.611897
O O3 0.764957 0.261741 0.599893
O O4 0.708505 0.314270 0.715338
O O5 0.500000 0.648242 0.772605
O O6 0.758779 0.586720 0.777835
O O7 0.696011 0.664463 0.679433
O O8 0.744239 0.716834 0.794710
O O9 0.252349 0.504428 0.187604
O O10 0.214693 0.537982 0.313611
O O11 0.000000 0.480724 0.249871
O O12 0.743874 0.486919 0.058432
O O13 0.764829 0.361082 0.055120
O O14 0.000000 0.432533 0.028102
O O15 0.785832 0.424637 0.941530
O O16 0.000000 0.023373 0.121166
O O17 0.739169 0.660893 0.342813
O O18 0.000000 0.606851 0.361891
O O19 0.500000 0.684949 0.587137
O O20 0.500000 0.279539 0.796931
#
# Coordination Sequence:
#
# PCOD9351180 Si02
#       8
#     8   8   8   8   8   8   8   8
#     4   9  19  34  55  83 114 144 182 232 285 336
#     4  10  20  34  55  84 117 146 185 236 283 332
#     4  11  21  35  58  85 114 150 192 237 287 340
#     4  11  23  39  58  81 115 156 193 234 286 345
#     4  11  21  36  57  86 117 146 188 238 287 341
#     4  10  23  40  57  82 116 153 193 235 287 346
#     4  10  20  34  55  83 113 145 187 234 279 335
#     4  10  19  34  57  84 112 146 188 232 284 339
#
# _framework density 17.455693
#
# number of rings (size 3 to 8) (size 9 to 14) (size 15 to 20)
#    0.000    1.750    2.500    2.250    0.000    4.000 
#    0.000    1.250    0.000    3.000    0.000    0.000 
#    0.000    0.000    0.000    0.000    0.000    0.000 
#
# Total GULP energy -178734.672082 kJ/mol
# GULP energy per Si atom -5585.458503 kJ/mol
# Density = 1.741596 g / cm^3
# Si number density = 17.455693 Si / 1000 Ang^3
#
#
#
# Elastic Constant Matrix: (Units=GPa)
#
#
# Indices 1 2 3 4 5 6 
#
# 1 51.0880 42.8101 24.6732 0.0000 0.0000 0.0000
# 2 42.8101 111.5323 13.7307 0.0000 0.0000 0.0000
# 3 24.6732 13.7307 33.8639 0.0000 0.0000 0.0000
# 4 0.0000 0.0000 0.0000 21.3107 0.0000 0.0000
# 5 0.0000 0.0000 0.0000 0.0000 20.3055 0.0000
# 6 0.0000 0.0000 0.0000 0.0000 0.0000 35.6542
#
#
#
# Elastic Compliance Matrix: (Units=1/GPa)
#
#
# Indices 1 2 3 4 5 6 
#
# 1 0.043564 -0.013487 -0.026272 0.000000 0.000000 0.000000
# 2 -0.013487 0.013613 0.004307 0.000000 0.000000 0.000000
# 3 -0.026272 0.004307 0.046925 0.000000 0.000000 0.000000
# 4 0.000000 0.000000 0.000000 0.046925 0.000000 0.000000
# 5 0.000000 0.000000 0.000000 0.000000 0.049248 0.000000
# 6 0.000000 0.000000 0.000000 0.000000 0.000000 0.028047
#
#
# Mechanical properties :
#
#
# Convention : Reuss Voigt Hill
#
# Bulk Modulus (GPa) = 30.12228 39.87914 35.00071
# Shear Modulus (GPa) = 16.11386 23.13877 19.62632
#
# Velocity S-wave (km/s) = 3.04160 3.64479 3.35677
# Velocity P-wave (km/s) = 5.44325 6.37245 5.92609
#
# Compressibility (1/GPa) = 0.03319802
#
# Stress axis : x y z
#
# Youngs Moduli (GPa) = 22.95470 73.46149 21.31040
#
# Poissons Ratio (x) = 0.99078 0.55987
# Poissons Ratio (y) = 0.30959 -0.09179
# Poissons Ratio (z) = 0.60307 -0.31641
#
# Static dielectric constant tensor:
#      x y z
#    x 1.579550 0.000000 0.000000 
#    y 0.000000 1.579840 0.000000 
#    z 0.000000 0.000000 1.569110 
# 
# From -- ./inp_files/13919.got.cif
#   From: 2010.05.17/outbox.cif.g08.bks.cpg/sg36_7_cif.got.tgz:13919.got - 2010.06.03 17:41:39.
