data_PCOD9351061
_publ_section_title
;
Structure prediction by ZEFSAII (Michael W. Deem and Ramdas Pophale) SiO2 
 PCOD9351061
Probable space group: C M C 21
;
_chemical_formula_sum "Si O2"
_cell_formula_units_Z 64
_cell_length_a 8.004877
_cell_length_b 29.028925
_cell_length_c 12.900651
_cell_angle_alpha 90.000000
_cell_angle_beta 90.000000
_cell_angle_gamma 90.000000
_cell_volume 2997.762640
_symmetry_space_group_name_H-M "C M C 21"
_symmetry_group_IT_number 36
_symmetry_cell_setting 'orthorhombic'
loop_
_space_group_symop_operation_xyz
x,y,z
-x,-y,1/2+z
x,-y,1/2+z
-x,y,z
1/2+x,1/2+y,z
1/2-x,1/2-y,1/2+z
1/2+x,1/2-y,1/2+z
1/2-x,1/2+y,z
loop_
_atom_site_type_symbol
_atom_site_label
_atom_site_fract_x
_atom_site_fract_y
_atom_site_fract_z
Si Si1 0.797803 0.224310 0.212370
Si Si2 0.688330 0.017418 0.489021
Si Si3 0.191901 0.331624 0.897576
Si Si4 0.692396 0.574242 0.914606
Si Si5 0.693777 0.425078 0.186248
Si Si6 0.689602 0.577932 0.303237
Si Si7 0.204911 0.129971 0.102349
Si Si8 0.302525 0.823850 0.140772
O O1 0.734189 0.211230 0.325735
O O2 0.744494 0.181147 0.139288
O O3 0.739861 0.275124 0.182865
O O4 0.000000 0.224582 0.209914
O O5 0.500000 0.000537 0.495972
O O6 0.723185 0.049980 0.587692
O O7 0.713193 0.045134 0.381525
O O8 0.802477 0.972608 0.480509
O O9 0.309661 0.373001 0.861990
O O10 0.000000 0.346428 0.878894
O O11 0.210408 0.321382 0.017134
O O12 0.500000 0.587224 0.894106
O O13 0.766433 0.564582 0.800779
O O14 0.764052 0.613761 0.989493
O O15 0.500000 0.439222 0.182128
O O16 0.711081 0.370075 0.175248
O O17 0.500000 0.560239 0.292754
O O18 0.756718 0.592540 0.190221
O O19 0.000000 0.129058 0.103313
O O20 0.500000 0.829079 0.167030
#
# Coordination Sequence:
#
# PCOD9351061 Si02
#       8
#     8   8   8   8   8   8   8   8
#     4   9  19  36  58  85 118 163 206 248 306 367
#     4  12  25  40  60  88 122 158 199 250 309 367
#     4  10  19  33  54  84 116 153 198 252 304 353
#     4  10  23  42  63  89 120 160 207 253 305 366
#     4  11  24  41  64  91 122 160 208 254 302 371
#     4  10  19  35  61  87 112 150 198 249 299 358
#     4   8  17  36  61  86 116 153 200 251 298 353
#     4  10  21  37  59  86 122 161 200 253 315 363
#
# _framework density 21.349254999999999
#
# number of rings (size 3 to 8) (size 9 to 14) (size 15 to 20)
#    0.000    2.000    1.250    3.000    1.750    3.000 
#    0.000    5.000    0.000    1.500    0.000    0.000 
#    0.000    0.000    0.000    0.000    0.000    0.000 
#
# Total GULP energy -178592.702046 kJ/mol
# GULP energy per Si atom -5581.021939 kJ/mol
# Density = 2.130066 g / cm^3
# Si number density = 21.349255 Si / 1000 Ang^3
#
#
#
# Elastic Constant Matrix: (Units=GPa)
#
#
# Indices 1 2 3 4 5 6 
#
# 1 30.8870 -4.2182 12.9975 0.0000 0.0000 0.0000
# 2 -4.2182 75.9438 39.0362 0.0000 0.0000 0.0000
# 3 12.9975 39.0362 75.2944 0.0000 0.0000 0.0000
# 4 0.0000 0.0000 0.0000 18.1485 0.0000 0.0000
# 5 0.0000 0.0000 0.0000 0.0000 -9.4860 0.0000
# 6 0.0000 0.0000 0.0000 0.0000 0.0000 19.4923
#
#
#
# Elastic Compliance Matrix: (Units=1/GPa)
#
#
# Indices 1 2 3 4 5 6 
#
# 1 0.037753 0.007426 -0.010367 0.000000 0.000000 0.000000
# 2 0.007426 0.019412 -0.011346 0.000000 0.000000 0.000000
# 3 -0.010367 -0.011346 0.020953 0.000000 0.000000 0.000000
# 4 0.000000 0.000000 0.000000 0.055101 0.000000 0.000000
# 5 0.000000 0.000000 0.000000 0.000000 -0.105419 0.000000
# 6 0.000000 0.000000 0.000000 0.000000 0.000000 0.051302
#
#
# Mechanical properties :
#
#
# Convention : Reuss Voigt Hill
#
# Bulk Modulus (GPa) = 20.18433 30.86182 25.52307
# Shear Modulus (GPa) = 40.26074 14.58496 27.42285
#
# Velocity S-wave (km/s) = 4.34731 2.61657 3.58786
# Velocity P-wave (km/s) = 5.88843 4.85959 5.39858
#
# Compressibility (1/GPa) = 0.04954339
#
# Stress axis : x y z
#
# Youngs Moduli (GPa) = 26.48828 51.51434 47.72577
#
# Poissons Ratio (x) = -0.38252 0.49476
# Poissons Ratio (y) = -0.19669 0.54150
# Poissons Ratio (z) = 0.27460 0.58448
#
# Static dielectric constant tensor:
#      x y z
#    x 1.775940 0.000000 0.000000 
#    y 0.000000 1.764620 0.000000 
#    z 0.000000 0.000000 1.798960 
# 
# From -- ./inp_files/7152.got.cif
#   From: 2010.05.17/outbox.cif.g08.bks.cpg/sg36_4_cif.got.tgz:7152.got - 2010.06.03 17:41:39.
