data_PCOD9351486
_publ_section_title
;
Structure prediction by ZEFSAII (Michael W. Deem and Ramdas Pophale) SiO2 
 PCOD9351486
Probable space group: C M C 21
;
_chemical_formula_sum "Si O2"
_cell_formula_units_Z 64
_cell_length_a 7.921297
_cell_length_b 23.687922
_cell_length_c 16.442368
_cell_angle_alpha 90.000000
_cell_angle_beta 90.000000
_cell_angle_gamma 90.000000
_cell_volume 3085.230566
_symmetry_space_group_name_H-M "C M C 21"
_symmetry_group_IT_number 36
_symmetry_cell_setting 'orthorhombic'
loop_
_space_group_symop_operation_xyz
x,y,z
-x,-y,1/2+z
x,-y,1/2+z
-x,y,z
1/2+x,1/2+y,z
1/2-x,1/2-y,1/2+z
1/2+x,1/2-y,1/2+z
1/2-x,1/2+y,z
loop_
_atom_site_type_symbol
_atom_site_label
_atom_site_fract_x
_atom_site_fract_y
_atom_site_fract_z
Si Si1 0.695064 0.788141 0.456730
Si Si2 0.702146 0.035470 0.130831
Si Si3 0.707912 0.721928 0.686251
Si Si4 0.799335 0.457143 0.980545
Si Si5 0.203500 0.171946 0.512204
Si Si6 0.202213 0.989462 0.308058
Si Si7 0.804312 0.662036 0.138250
Si Si8 0.695224 0.636589 0.819348
O O1 0.500000 0.788916 0.429167
O O2 0.761207 0.723815 0.454701
O O3 0.694538 0.809526 0.549359
O O4 0.795351 0.833421 0.405528
O O5 0.500000 0.039019 0.117964
O O6 0.767455 0.995904 0.056333
O O7 0.732490 0.011699 0.221325
O O8 0.771611 0.099719 0.131650
O O9 0.500000 0.724896 0.687053
O O10 0.756685 0.691224 0.602416
O O11 0.769143 0.786698 0.691680
O O12 0.770103 0.681684 0.757253
O O13 0.755652 0.391390 0.992979
O O14 0.000000 0.462113 0.982508
O O15 0.743672 0.477215 0.890941
O O16 0.000000 0.174057 0.510534
O O17 0.269861 0.925634 0.319079
O O18 0.000000 0.989455 0.302174
O O19 0.000000 0.654001 0.164298
O O20 0.500000 0.629610 0.794978
#
# Coordination Sequence:
#
# PCOD9351486 Si02
#       8
#     8   8   8   8   8   8   8   8
#     4   9  18  33  55  80 106 139 176 220 273 331
#     4  10  21  37  58  84 113 148 191 237 285 335
#     4   8  15  30  53  77 101 134 173 214 265 327
#     4  11  23  38  58  83 114 152 192 237 284 333
#     4   9  18  35  57  79 106 141 182 224 273 333
#     4  11  24  39  56  81 114 152 194 238 284 339
#     4   8  15  31  54  77 102 135 175 217 267 326
#     4  10  20  33  51  77 106 137 177 223 271 324
#
# _framework density 20.743991000000001
#
# number of rings (size 3 to 8) (size 9 to 14) (size 15 to 20)
#    0.000    2.500    0.000    3.750    0.000    5.500 
#    0.000    2.500    0.000    1.500    0.000    0.000 
#    0.000    0.000    0.000    0.000    0.000    0.000 
#
# Total GULP energy -178342.187043 kJ/mol
# GULP energy per Si atom -5573.193345 kJ/mol
# Density = 2.069678 g / cm^3
# Si number density = 20.743991 Si / 1000 Ang^3
#
#
#
# Elastic Constant Matrix: (Units=GPa)
#
#
# Indices 1 2 3 4 5 6 
#
# 1 21.4661 5.7417 -5.9560 0.0000 0.0000 0.0000
# 2 5.7417 157.1934 26.5858 0.0000 0.0000 0.0000
# 3 -5.9560 26.5858 47.5120 0.0000 0.0000 0.0000
# 4 0.0000 0.0000 0.0000 30.6952 0.0000 0.0000
# 5 0.0000 0.0000 0.0000 0.0000 7.5362 0.0000
# 6 0.0000 0.0000 0.0000 0.0000 0.0000 3.1894
#
#
#
# Elastic Compliance Matrix: (Units=1/GPa)
#
#
# Indices 1 2 3 4 5 6 
#
# 1 0.049650 -0.003166 0.007995 0.000000 0.000000 0.000000
# 2 -0.003166 0.007228 -0.004442 0.000000 0.000000 0.000000
# 3 0.007995 -0.004442 0.024535 0.000000 0.000000 0.000000
# 4 0.000000 0.000000 0.000000 0.032578 0.000000 0.000000
# 5 0.000000 0.000000 0.000000 0.000000 0.132692 0.000000
# 6 0.000000 0.000000 0.000000 0.000000 0.000000 0.313536
#
#
# Mechanical properties :
#
#
# Convention : Reuss Voigt Hill
#
# Bulk Modulus (GPa) = 12.16698 30.99051 21.57875
# Shear Modulus (GPa) = 8.52020 21.60417 15.06219
#
# Velocity S-wave (km/s) = 2.02885 3.23068 2.69755
# Velocity P-wave (km/s) = 3.37140 5.37478 4.48635
#
# Compressibility (1/GPa) = 0.08218964
#
# Stress axis : x y z
#
# Youngs Moduli (GPa) = 20.14092 138.34281 40.75823
#
# Poissons Ratio (x) = 0.43796 -0.32588
# Poissons Ratio (y) = 0.06376 0.18103
# Poissons Ratio (z) = -0.16104 0.61446
#
# Static dielectric constant tensor:
#      x y z
#    x 1.760530 0.000000 0.000000 
#    y 0.000000 1.778880 0.000000 
#    z 0.000000 0.000000 1.741140 
# 
# From -- ./inp_files/13936.got.cif
#   From: 2010.05.17/outbox.cif.g08.bks.cpg/sg36_7_cif.got.tgz:13936.got - 2010.06.03 17:41:39.
