data_PCOD9351765
_publ_section_title
;
Structure prediction by ZEFSAII (Michael W. Deem and Ramdas Pophale) SiO2 
 PCOD9351765
Probable space group: C M C 21
;
_chemical_formula_sum "Si O2"
_cell_formula_units_Z 64
_cell_length_a 8.264873
_cell_length_b 25.525933
_cell_length_c 14.703388
_cell_angle_alpha 90.000000
_cell_angle_beta 90.000000
_cell_angle_gamma 90.000000
_cell_volume 3101.953100
_symmetry_space_group_name_H-M "C M C 21"
_symmetry_group_IT_number 36
_symmetry_cell_setting 'orthorhombic'
loop_
_space_group_symop_operation_xyz
x,y,z
-x,-y,1/2+z
x,-y,1/2+z
-x,y,z
1/2+x,1/2+y,z
1/2-x,1/2-y,1/2+z
1/2+x,1/2-y,1/2+z
1/2-x,1/2+y,z
loop_
_atom_site_type_symbol
_atom_site_label
_atom_site_fract_x
_atom_site_fract_y
_atom_site_fract_z
Si Si1 0.311439 0.627449 0.373100
Si Si2 0.305952 0.433528 0.712267
Si Si3 0.304686 0.549479 0.694620
Si Si4 0.310693 0.084220 0.009507
Si Si5 0.813158 0.977466 0.987953
Si Si6 0.307552 0.166460 0.719341
Si Si7 0.695820 0.292056 0.023549
Si Si8 0.802285 0.310083 0.416670
O O1 0.500000 0.643654 0.360106
O O2 0.238858 0.613205 0.275211
O O3 0.307401 0.570891 0.420869
O O4 0.241829 0.667928 0.445651
O O5 0.500000 0.434600 0.725396
O O6 0.249614 0.493116 0.734242
O O7 0.271022 0.422112 0.607518
O O8 0.500000 0.552278 0.702982
O O9 0.263786 0.543690 0.587274
O O10 0.235824 0.604682 0.727409
O O11 0.500000 0.092262 0.025045
O O12 0.248044 0.133564 0.953677
O O13 0.284472 0.028674 0.960711
O O14 0.000000 0.994439 0.995879
O O15 0.500000 0.170703 0.716965
O O16 0.245359 0.190283 0.624394
O O17 0.248633 0.195165 0.811644
O O18 0.500000 0.294388 0.023315
O O19 0.747014 0.235143 0.986964
O O20 0.000000 0.309483 0.414755
#
# Coordination Sequence:
#
# PCOD9351765 Si02
#       8
#     8   8   8   8   8   8   8   8
#     4   9  17  32  57  83 106 140 188 232 273 322
#     4   9  19  34  54  83 115 148 189 234 276 327
#     4   9  17  32  53  79 112 148 186 223 273 333
#     4  10  20  36  53  77 113 151 185 222 277 337
#     4   9  17  32  54  81 109 141 186 231 271 324
#     4  11  22  37  57  85 114 141 182 235 279 327
#     4  10  20  41  64  80 107 152 193 229 277 330
#     4   9  22  40  58  80 112 153 189 222 276 344
#
# _framework density 20.632162999999998
#
# number of rings (size 3 to 8) (size 9 to 14) (size 15 to 20)
#    0.000    2.500    1.250    1.500    1.750    3.000 
#    0.000    6.875    0.000    0.000    0.000    0.000 
#    0.000    0.000    0.000    0.000    0.000    0.000 
#
# Total GULP energy -178391.365990 kJ/mol
# GULP energy per Si atom -5574.730187 kJ/mol
# Density = 2.058520 g / cm^3
# Si number density = 20.632163 Si / 1000 Ang^3
#
#
#
# Elastic Constant Matrix: (Units=GPa)
#
#
# Indices 1 2 3 4 5 6 
#
# 1 7.4820 11.9602 4.9346 0.0000 0.0000 0.0000
# 2 11.9602 81.5294 34.5642 0.0000 0.0000 0.0000
# 3 4.9346 34.5642 72.1332 0.0000 0.0000 0.0000
# 4 0.0000 0.0000 0.0000 26.1006 0.0000 0.0000
# 5 0.0000 0.0000 0.0000 0.0000 17.2005 0.0000
# 6 0.0000 0.0000 0.0000 0.0000 0.0000 18.2539
#
#
#
# Elastic Compliance Matrix: (Units=1/GPa)
#
#
# Indices 1 2 3 4 5 6 
#
# 1 0.174607 -0.025789 0.000413 0.000000 0.000000 0.000000
# 2 -0.025789 0.019202 -0.007437 0.000000 0.000000 0.000000
# 3 0.000413 -0.007437 0.017398 0.000000 0.000000 0.000000
# 4 0.000000 0.000000 0.000000 0.038313 0.000000 0.000000
# 5 0.000000 0.000000 0.000000 0.000000 0.058138 0.000000
# 6 0.000000 0.000000 0.000000 0.000000 0.000000 0.054783
#
#
# Mechanical properties :
#
#
# Convention : Reuss Voigt Hill
#
# Bulk Modulus (GPa) = 6.86907 29.34030 18.10468
# Shear Modulus (GPa) = 10.49111 19.62337 15.05724
#
# Velocity S-wave (km/s) = 2.25740 3.08735 2.70440
# Velocity P-wave (km/s) = 3.18293 5.19235 4.30648
#
# Compressibility (1/GPa) = 0.14558020
#
# Stress axis : x y z
#
# Youngs Moduli (GPa) = 5.72715 52.07926 57.47653
#
# Poissons Ratio (x) = 1.34310 -0.02373
# Poissons Ratio (y) = 0.14770 0.42743
# Poissons Ratio (z) = -0.00236 0.38729
#
# Static dielectric constant tensor:
#      x y z
#    x 1.734030 0.000000 0.000000 
#    y 0.000000 1.746960 0.000000 
#    z 0.000000 0.000000 1.769740 
# 
# From -- ./inp_files/10935.got.cif
#   From: 2010.05.17/outbox.cif.g08.bks.cpg/sg36_6_cif.got.tgz:10935.got - 2010.06.03 17:41:39.
