data_PCOD9351372
_publ_section_title
;
Structure prediction by ZEFSAII (Michael W. Deem and Ramdas Pophale) SiO2 
 PCOD9351372
Probable space group: C M C 21
;
_chemical_formula_sum "Si O2"
_cell_formula_units_Z 56
_cell_length_a 19.286399
_cell_length_b 9.775365
_cell_length_c 13.652894
_cell_angle_alpha 90.000000
_cell_angle_beta 90.000000
_cell_angle_gamma 90.000000
_cell_volume 2574.001811
_symmetry_space_group_name_H-M "C M C 21"
_symmetry_group_IT_number 36
_symmetry_cell_setting 'orthorhombic'
loop_
_space_group_symop_operation_xyz
x,y,z
-x,-y,1/2+z
x,-y,1/2+z
-x,y,z
1/2+x,1/2+y,z
1/2-x,1/2-y,1/2+z
1/2+x,1/2-y,1/2+z
1/2-x,1/2+y,z
loop_
_atom_site_type_symbol
_atom_site_label
_atom_site_fract_x
_atom_site_fract_y
_atom_site_fract_z
Si Si1 0.705696 0.756570 0.003070
Si Si2 0.918425 0.395200 0.304455
Si Si3 0.578206 0.148619 0.026753
Si Si4 0.919333 0.874892 0.186838
Si Si5 0.714828 0.026522 0.099116
Si Si6 0.822831 0.341089 0.789522
Si Si7 0.582487 0.687881 0.131617
O O1 0.747321 0.618927 0.019404
O O2 0.627174 0.724978 0.036494
O O3 0.733744 0.870834 0.079235
O O4 0.711127 0.810714 0.893464
O O5 0.908063 0.332427 0.412256
O O6 0.877999 0.536861 0.302632
O O7 0.897309 0.291258 0.219095
O O8 0.000000 0.421845 0.291978
O O9 0.500000 0.094531 0.038559
O O10 0.582885 0.290090 0.085287
O O11 0.633371 0.046812 0.074655
O O12 0.864784 0.793353 0.254015
O O13 0.000000 0.866302 0.222512
O O14 0.902773 0.032712 0.166451
O O15 0.726162 0.096400 0.204405
O O16 0.500000 0.698249 0.114584
#
# Coordination Sequence:
#
# PCOD9351372 Si02
#       7
#     8   8   8   8   8   8   8
#     4  12  27  45  68 100 135 180 227 277 342 402
#     4  10  19  36  68 102 132 173 226 284 336 391
#     4   9  19  38  67  96 131 174 222 276 332 393
#     4   9  20  39  63  99 141 177 218 274 343 399
#     4  11  26  45  66  97 136 173 226 279 336 398
#     4  11  23  43  68  99 129 181 223 278 337 411
#     4  10  23  42  66  99 139 178 226 288 336 396
#
# _framework density 21.756005999999999
#
# number of rings (size 3 to 8) (size 9 to 14) (size 15 to 20)
#    0.000    1.714    2.857    0.429    4.000    5.714 
#    0.000    2.857    0.000    0.000    0.000    0.000 
#    0.000    0.000    0.000    0.000    0.000    0.000 
#
# Total GULP energy -156562.293752 kJ/mol
# GULP energy per Si atom -5591.510491 kJ/mol
# Density = 2.170649 g / cm^3
# Si number density = 21.756006 Si / 1000 Ang^3
#
#
#
# Elastic Constant Matrix: (Units=GPa)
#
#
# Indices 1 2 3 4 5 6 
#
# 1 37.0215 11.6009 18.6733 0.0000 0.0000 0.0000
# 2 11.6009 96.1565 4.4800 0.0000 0.0000 0.0000
# 3 18.6733 4.4800 91.3850 0.0000 0.0000 0.0000
# 4 0.0000 0.0000 0.0000 13.0958 0.0000 0.0000
# 5 0.0000 0.0000 0.0000 0.0000 21.5016 0.0000
# 6 0.0000 0.0000 0.0000 0.0000 0.0000 21.7667
#
#
#
# Elastic Compliance Matrix: (Units=1/GPa)
#
#
# Indices 1 2 3 4 5 6 
#
# 1 0.031235 -0.003479 -0.006212 0.000000 0.000000 0.000000
# 2 -0.003479 0.010811 0.000181 0.000000 0.000000 0.000000
# 3 -0.006212 0.000181 0.012203 0.000000 0.000000 0.000000
# 4 0.000000 0.000000 0.000000 0.076361 0.000000 0.000000
# 5 0.000000 0.000000 0.000000 0.000000 0.046508 0.000000
# 6 0.000000 0.000000 0.000000 0.000000 0.000000 0.045942
#
#
# Mechanical properties :
#
#
# Convention : Reuss Voigt Hill
#
# Bulk Modulus (GPa) = 28.38567 32.67461 30.53014
# Shear Modulus (GPa) = 19.69883 23.92672 21.81278
#
# Velocity S-wave (km/s) = 3.01232 3.31988 3.16984
# Velocity P-wave (km/s) = 5.01741 5.45406 5.24028
#
# Compressibility (1/GPa) = 0.03522904
#
# Stress axis : x y z
#
# Youngs Moduli (GPa) = 32.01573 92.49837 81.94605
#
# Poissons Ratio (x) = 0.32180 0.50903
# Poissons Ratio (y) = 0.11138 -0.01482
# Poissons Ratio (z) = 0.19888 -0.01673
#
# Static dielectric constant tensor:
#      x y z
#    x 1.822820 0.000000 0.000000 
#    y 0.000000 1.761940 0.000000 
#    z 0.000000 0.000000 1.789490 
# 
# From -- ./inp_files/12843.got.cif
#   From: 2010.05.17/outbox.cif.g08.bks.cpg/sg36_7_cif.got.tgz:12843.got - 2010.06.03 17:41:39.
