data_PCOD9351076
_publ_section_title
;
Structure prediction by ZEFSAII (Michael W. Deem and Ramdas Pophale) SiO2 
 PCOD9351076
Probable space group: C M C 21
;
_chemical_formula_sum "Si O2"
_cell_formula_units_Z 64
_cell_length_a 8.886643
_cell_length_b 16.665587
_cell_length_c 20.812723
_cell_angle_alpha 90.000000
_cell_angle_beta 90.000000
_cell_angle_gamma 90.000000
_cell_volume 3082.387629
_symmetry_space_group_name_H-M "C M C 21"
_symmetry_group_IT_number 36
_symmetry_cell_setting 'orthorhombic'
loop_
_space_group_symop_operation_xyz
x,y,z
-x,-y,1/2+z
x,-y,1/2+z
-x,y,z
1/2+x,1/2+y,z
1/2-x,1/2-y,1/2+z
1/2+x,1/2-y,1/2+z
1/2-x,1/2+y,z
loop_
_atom_site_type_symbol
_atom_site_label
_atom_site_fract_x
_atom_site_fract_y
_atom_site_fract_z
Si Si1 0.317932 0.990676 0.894630
Si Si2 0.670806 0.666259 0.681695
Si Si3 0.680655 0.847991 0.320849
Si Si4 0.666660 0.981554 0.151784
Si Si5 0.830841 0.104504 0.225303
Si Si6 0.171283 0.417798 0.520538
Si Si7 0.818133 0.315538 0.843454
Si Si8 0.165646 0.792372 0.596772
O O1 0.500000 0.988244 0.892220
O O2 0.271924 0.063594 0.846739
O O3 0.272423 0.898189 0.881025
O O4 0.272542 0.024192 0.964393
O O5 0.500000 0.681676 0.700028
O O6 0.767891 0.662148 0.746906
O O7 0.699212 0.580924 0.648951
O O8 0.724670 0.728021 0.627889
O O9 0.500000 0.842185 0.325119
O O10 0.753776 0.772893 0.359979
O O11 0.500000 0.945119 0.159793
O O12 0.708369 0.035838 0.212978
O O13 0.663469 0.032694 0.086863
O O14 0.757166 0.165867 0.274487
O O15 0.847303 0.145296 0.155916
O O16 0.000000 0.079387 0.245684
O O17 0.270219 0.340209 0.536262
O O18 0.000000 0.393074 0.504045
O O19 0.000000 0.311956 0.841114
O O20 0.000000 0.758323 0.583790
#
# Coordination Sequence:
#
# PCOD9351076 Si02
#       8
#     8   8   8   8   8   8   8   8
#     4   9  21  41  63  85 118 164 208 249 301 365
#     4  12  23  36  57  87 122 155 196 245 303 372
#     4  11  22  39  62  91 125 160 202 255 310 364
#     4  10  20  34  57  85 116 151 193 244 301 358
#     4  10  19  33  55  82 114 149 189 236 293 356
#     4   9  19  40  63  82 111 157 204 242 293 362
#     4  11  21  36  60  88 120 160 204 249 303 366
#     4  10  20  35  57  84 116 150 188 240 300 351
#
# _framework density 20.763124000000001
#
# number of rings (size 3 to 8) (size 9 to 14) (size 15 to 20)
#    0.000    1.750    1.250    3.750    0.000    2.500 
#    2.250    4.375    0.000    0.000    0.000    0.000 
#    0.000    0.000    0.000    0.000    0.000    0.000 
#
# Total GULP energy -178364.562195 kJ/mol
# GULP energy per Si atom -5573.892569 kJ/mol
# Density = 2.071587 g / cm^3
# Si number density = 20.763124 Si / 1000 Ang^3
#
#
#
# Elastic Constant Matrix: (Units=GPa)
#
#
# Indices 1 2 3 4 5 6 
#
# 1 73.0573 9.4668 9.3885 0.0000 0.0000 0.0000
# 2 9.4668 62.4976 2.4778 0.0000 0.0000 0.0000
# 3 9.3885 2.4778 27.5198 0.0000 0.0000 0.0000
# 4 0.0000 0.0000 0.0000 15.0672 0.0000 0.0000
# 5 0.0000 0.0000 0.0000 0.0000 -0.4767 0.0000
# 6 0.0000 0.0000 0.0000 0.0000 0.0000 35.8981
#
#
#
# Elastic Compliance Matrix: (Units=1/GPa)
#
#
# Indices 1 2 3 4 5 6 
#
# 1 0.014564 -0.002016 -0.004787 0.000000 0.000000 0.000000
# 2 -0.002016 0.016337 -0.000783 0.000000 0.000000 0.000000
# 3 -0.004787 -0.000783 0.038041 0.000000 0.000000 0.000000
# 4 0.000000 0.000000 0.000000 0.066369 0.000000 0.000000
# 5 0.000000 0.000000 0.000000 0.000000 -2.097612 0.000000
# 6 0.000000 0.000000 0.000000 0.000000 0.000000 0.027857
#
#
# Mechanical properties :
#
#
# Convention : Reuss Voigt Hill
#
# Bulk Modulus (GPa) = 18.59790 22.86009 20.72900
# Shear Modulus (GPa) = -2.62971 19.54716 8.45872
#
# Velocity S-wave (km/s) = -1.12662 3.07161 2.02058
# Velocity P-wave (km/s) = 2.69894 4.85938 3.93051
#
# Compressibility (1/GPa) = 0.05376950
#
# Stress axis : x y z
#
# Youngs Moduli (GPa) = 68.66082 61.21042 26.28737
#
# Poissons Ratio (x) = 0.12342 0.12584
# Poissons Ratio (y) = 0.13844 0.02058
# Poissons Ratio (z) = 0.32869 0.04793
#
# Static dielectric constant tensor:
#      x y z
#    x 1.740130 0.000000 0.000000 
#    y 0.000000 1.843040 0.000000 
#    z 0.000000 0.000000 1.750930 
# 
# From -- ./inp_files/15661.got.cif
#   From: 2010.05.17/outbox.cif.g08.bks.cpg/sg36_8_cif.got.tgz:15661.got - 2010.06.03 17:41:39.
