data_PCOD9351126
_publ_section_title
;
Structure prediction by ZEFSAII (Michael W. Deem and Ramdas Pophale) SiO2 
 PCOD9351126
Probable space group: C M C 21
;
_chemical_formula_sum "Si O2"
_cell_formula_units_Z 56
_cell_length_a 20.553411
_cell_length_b 9.043200
_cell_length_c 15.926803
_cell_angle_alpha 90.000000
_cell_angle_beta 90.000000
_cell_angle_gamma 90.000000
_cell_volume 2960.292677
_symmetry_space_group_name_H-M "C M C 21"
_symmetry_group_IT_number 36
_symmetry_cell_setting 'orthorhombic'
loop_
_space_group_symop_operation_xyz
x,y,z
-x,-y,1/2+z
x,-y,1/2+z
-x,y,z
1/2+x,1/2+y,z
1/2-x,1/2-y,1/2+z
1/2+x,1/2-y,1/2+z
1/2-x,1/2+y,z
loop_
_atom_site_type_symbol
_atom_site_label
_atom_site_fract_x
_atom_site_fract_y
_atom_site_fract_z
Si Si1 0.924809 0.066186 0.065080
Si Si2 0.306613 0.312677 0.912602
Si Si3 0.264388 0.941361 0.521002
Si Si4 0.153166 0.104539 0.708416
Si Si5 0.669407 0.201278 0.610928
Si Si6 0.423844 0.494863 0.867677
Si Si7 0.755099 0.828650 0.741161
O O1 0.883662 0.951304 0.124094
O O2 0.000000 0.042664 0.085528
O O3 0.899810 0.228828 0.091124
O O4 0.918776 0.056091 0.963629
O O5 0.283099 0.444338 0.973709
O O6 0.375891 0.354399 0.873520
O O7 0.252205 0.310085 0.840464
O O8 0.306147 0.157280 0.958282
O O9 0.311296 0.043301 0.576221
O O10 0.219251 0.821571 0.568272
O O11 0.107048 0.088786 0.790484
O O12 0.188020 0.264073 0.703607
O O13 0.213318 0.988932 0.722940
O O14 0.687874 0.220176 0.707365
O O15 0.500000 0.466787 0.851356
#
# Coordination Sequence:
#
# PCOD9351126 Si02
#       7
#     8   8   8   8   8   8   8
#     4  10  20  35  55  78 108 146 186 220 265 328
#     4  10  19  34  50  81 105 144 175 228 275 329
#     4  10  20  30  54  76 112 134 174 228 282 318
#     4  10  21  36  54  86 107 140 176 234 272 332
#     4  10  19  34  50  81 105 144 175 228 275 329
#     4  10  20  35  55  78 108 146 186 220 265 328
#     4  10  20  32  52  78 110 132 178 218 286 326
#
# _framework density 18.91705
#
# number of rings (size 3 to 8) (size 9 to 14) (size 15 to 20)
#    0.000    2.000    1.429    3.857    4.000    0.000 
#    0.000    0.714    0.000    0.000    0.000    2.000 
#    0.000    0.000    0.000    0.000    0.000    0.000 
#
# Total GULP energy -155915.466490 kJ/mol
# GULP energy per Si atom -5568.409517 kJ/mol
# Density = 1.887399 g / cm^3
# Si number density = 18.917050 Si / 1000 Ang^3
#
#
#
# Elastic Constant Matrix: (Units=GPa)
#
#
# Indices 1 2 3 4 5 6 
#
# 1 101.6456 31.9616 34.1821 0.0000 0.0000 0.0000
# 2 31.9616 76.9344 21.8369 0.0000 0.0000 0.0000
# 3 34.1821 21.8369 89.8438 0.0000 0.0000 0.0000
# 4 0.0000 0.0000 0.0000 25.9729 0.0000 0.0000
# 5 0.0000 0.0000 0.0000 0.0000 31.8784 0.0000
# 6 0.0000 0.0000 0.0000 0.0000 0.0000 22.7114
#
#
#
# Elastic Compliance Matrix: (Units=1/GPa)
#
#
# Indices 1 2 3 4 5 6 
#
# 1 0.012372 -0.004086 -0.003714 0.000000 0.000000 0.000000
# 2 -0.004086 0.015310 -0.002167 0.000000 0.000000 0.000000
# 3 -0.003714 -0.002167 0.013070 0.000000 0.000000 0.000000
# 4 0.000000 0.000000 0.000000 0.038502 0.000000 0.000000
# 5 0.000000 0.000000 0.000000 0.000000 0.031369 0.000000
# 6 0.000000 0.000000 0.000000 0.000000 0.000000 0.044031
#
#
# Mechanical properties :
#
#
# Convention : Reuss Voigt Hill
#
# Bulk Modulus (GPa) = 48.03184 49.37611 48.70397
# Shear Modulus (GPa) = 27.54419 28.14208 27.84313
#
# Velocity S-wave (km/s) = 3.81996 3.86120 3.84064
# Velocity P-wave (km/s) = 6.70090 6.78502 6.74309
#
# Compressibility (1/GPa) = 0.02081952
#
# Stress axis : x y z
#
# Youngs Moduli (GPa) = 80.82954 65.31497 76.51045
#
# Poissons Ratio (x) = 0.26685 0.28416
# Poissons Ratio (y) = 0.33023 0.16579
# Poissons Ratio (z) = 0.30020 0.14153
#
# Static dielectric constant tensor:
#      x y z
#    x 1.668300 0.000000 0.000000 
#    y 0.000000 1.671160 0.000000 
#    z 0.000000 0.000000 1.771560 
# 
# From -- ./inp_files/14993.got.cif
#   From: 2010.05.17/outbox.cif.g08.bks.cpg/sg36_8_cif.got.tgz:14993.got - 2010.06.03 17:41:39.
