data_PCOD9351699
_publ_section_title
;
Structure prediction by ZEFSAII (Michael W. Deem and Ramdas Pophale) SiO2 
 PCOD9351699
Probable space group: C M C 21
;
_chemical_formula_sum "Si O2"
_cell_formula_units_Z 64
_cell_length_a 8.927610
_cell_length_b 20.981319
_cell_length_c 17.494660
_cell_angle_alpha 90.000000
_cell_angle_beta 90.000000
_cell_angle_gamma 90.000000
_cell_volume 3276.977831
_symmetry_space_group_name_H-M "C M C 21"
_symmetry_group_IT_number 36
_symmetry_cell_setting 'orthorhombic'
loop_
_space_group_symop_operation_xyz
x,y,z
-x,-y,1/2+z
x,-y,1/2+z
-x,y,z
1/2+x,1/2+y,z
1/2-x,1/2-y,1/2+z
1/2+x,1/2-y,1/2+z
1/2-x,1/2+y,z
loop_
_atom_site_type_symbol
_atom_site_label
_atom_site_fract_x
_atom_site_fract_y
_atom_site_fract_z
Si Si1 0.677066 0.741093 0.336380
Si Si2 0.323455 0.496867 0.576843
Si Si3 0.825939 0.845611 0.434137
Si Si4 0.322769 0.258418 0.181199
Si Si5 0.822446 0.524288 0.914112
Si Si6 0.320699 0.116373 0.393249
Si Si7 0.673086 0.637203 0.117873
Si Si8 0.677416 0.637300 0.558833
O O1 0.500000 0.737009 0.337556
O O2 0.735080 0.784636 0.405765
O O3 0.736683 0.772937 0.258978
O O4 0.746734 0.670617 0.342097
O O5 0.500000 0.489631 0.553149
O O6 0.219404 0.488287 0.502943
O O7 0.293983 0.437449 0.632040
O O8 0.305311 0.569531 0.602459
O O9 0.763050 0.910395 0.395835
O O10 0.814454 0.853578 0.525900
O O11 0.000000 0.837197 0.414989
O O12 0.500000 0.265897 0.192385
O O13 0.281397 0.186726 0.157533
O O14 0.275004 0.304934 0.112440
O O15 0.778292 0.457134 0.875015
O O16 0.000000 0.533518 0.905478
O O17 0.500000 0.120925 0.389973
O O18 0.265168 0.131764 0.479462
O O19 0.500000 0.650629 0.139477
O O20 0.500000 0.644708 0.541038
#
# Coordination Sequence:
#
# PCOD9351699 Si02
#       8
#     8   8   8   8   8   8   8   8
#     4  12  25  39  55  75 105 145 187 229 271 320
#     4   8  15  30  52  78 107 137 173 217 262 310
#     4  10  20  36  59  84 111 142 177 220 268 319
#     4  11  23  37  53  75 106 142 179 223 271 319
#     4   9  17  30  52  83 113 139 172 216 265 316
#     4  10  20  35  57  84 113 142 176 222 270 318
#     4   9  18  33  55  81 107 137 172 213 261 315
#     4   9  18  34  57  82 106 138 180 220 262 317
#
# _framework density 19.530190000000001
#
# number of rings (size 3 to 8) (size 9 to 14) (size 15 to 20)
#    0.000    2.250    0.000    4.125    0.000    7.000 
#    0.000    1.250    0.000    4.500    0.000    0.000 
#    0.000    0.000    0.000    0.000    0.000    0.000 
#
# Total GULP energy -178524.102600 kJ/mol
# GULP energy per Si atom -5578.878206 kJ/mol
# Density = 1.948574 g / cm^3
# Si number density = 19.530190 Si / 1000 Ang^3
#
#
#
# Elastic Constant Matrix: (Units=GPa)
#
#
# Indices 1 2 3 4 5 6 
#
# 1 59.5771 20.3057 8.5293 0.0000 0.0000 0.0000
# 2 20.3057 74.1892 4.3751 0.0000 0.0000 0.0000
# 3 8.5293 4.3751 17.6110 0.0000 0.0000 0.0000
# 4 0.0000 0.0000 0.0000 4.5811 0.0000 0.0000
# 5 0.0000 0.0000 0.0000 0.0000 23.3534 0.0000
# 6 0.0000 0.0000 0.0000 0.0000 0.0000 29.8113
#
#
#
# Elastic Compliance Matrix: (Units=1/GPa)
#
#
# Indices 1 2 3 4 5 6 
#
# 1 0.019638 -0.004886 -0.008297 0.000000 0.000000 0.000000
# 2 -0.004886 0.014895 -0.001334 0.000000 0.000000 0.000000
# 3 -0.008297 -0.001334 0.061133 0.000000 0.000000 0.000000
# 4 0.000000 0.000000 0.000000 0.218290 0.000000 0.000000
# 5 0.000000 0.000000 0.000000 0.000000 0.042820 0.000000
# 6 0.000000 0.000000 0.000000 0.000000 0.000000 0.033544
#
#
# Mechanical properties :
#
#
# Convention : Reuss Voigt Hill
#
# Bulk Modulus (GPa) = 15.00792 24.19974 19.60383
# Shear Modulus (GPa) = 11.32336 19.42697 15.37516
#
# Velocity S-wave (km/s) = 2.41049 3.15733 2.80884
# Velocity P-wave (km/s) = 3.93045 5.07045 4.53640
#
# Compressibility (1/GPa) = 0.06663150
#
# Stress axis : x y z
#
# Youngs Moduli (GPa) = 50.92160 67.13687 16.35783
#
# Poissons Ratio (x) = 0.32801 0.13573
# Poissons Ratio (y) = 0.24879 0.02182
# Poissons Ratio (z) = 0.42251 0.08957
#
# Static dielectric constant tensor:
#      x y z
#    x 1.652620 0.000000 0.000000 
#    y 0.000000 1.726110 0.000000 
#    z 0.000000 0.000000 1.690980 
# 
# From -- ./inp_files/13908.got.cif
#   From: 2010.05.17/outbox.cif.g08.bks.cpg/sg36_7_cif.got.tgz:13908.got - 2010.06.03 17:41:39.
