data_PCOD9351399
_publ_section_title
;
Structure prediction by ZEFSAII (Michael W. Deem and Ramdas Pophale) SiO2 
 PCOD9351399
Probable space group: C M C 21
;
_chemical_formula_sum "Si O2"
_cell_formula_units_Z 52
_cell_length_a 15.942586
_cell_length_b 20.610808
_cell_length_c 8.539843
_cell_angle_alpha 90.000000
_cell_angle_beta 90.000000
_cell_angle_gamma 90.000000
_cell_volume 2806.103417
_symmetry_space_group_name_H-M "C M C 21"
_symmetry_group_IT_number 36
_symmetry_cell_setting 'orthorhombic'
loop_
_space_group_symop_operation_xyz
x,y,z
-x,-y,1/2+z
x,-y,1/2+z
-x,y,z
1/2+x,1/2+y,z
1/2-x,1/2-y,1/2+z
1/2+x,1/2-y,1/2+z
1/2-x,1/2+y,z
loop_
_atom_site_type_symbol
_atom_site_label
_atom_site_fract_x
_atom_site_fract_y
_atom_site_fract_z
Si Si1 0.500000 0.070486 0.898480
Si Si2 0.676737 0.205367 0.084406
Si Si3 0.846400 0.785402 0.776219
Si Si4 0.098575 0.072537 0.357441
Si Si5 0.202870 0.973903 0.143263
Si Si6 0.185072 0.435671 0.421786
Si Si7 0.000000 0.686110 0.116870
Si Si8 0.500000 0.204495 0.755938
O O1 0.409261 0.037750 0.890338
O O2 0.500000 0.126709 0.763704
O O3 0.500000 0.110474 0.064348
O O4 0.759765 0.211870 0.184112
O O5 0.589964 0.204863 0.184653
O O6 0.672637 0.259563 0.950520
O O7 0.676785 0.136394 0.992624
O O8 0.886474 0.856469 0.786349
O O9 0.914645 0.736855 0.698525
O O10 0.140813 0.019610 0.243384
O O11 0.000000 0.060413 0.377829
O O12 0.148248 0.067089 0.521289
O O13 0.259831 0.934186 0.264608
O O14 0.265415 0.019345 0.043325
O O15 0.000000 0.720049 0.944091
#
# Coordination Sequence:
#
# PCOD9351399 Si02
#       8
#     4   8   8   8   8   8   4   4
#     4   8  16  32  60  76 112 144 176 228 284 331
#     4  10  20  35  57  82 110 143 185 232 282 326
#     4  11  20  34  59  84 106 148 185 226 281 340
#     4  11  22  38  60  81 112 152 192 233 281 338
#     4  10  23  37  56  82 115 146 196 229 279 332
#     4  10  19  38  55  81 112 148 183 238 276 335
#     4   6  14  32  51  71 104 141 168 212 275 323
#     4   8  16  32  51  79 106 141 176 214 279 336
#
# _framework density 18.531036
#
# number of rings (size 3 to 8) (size 9 to 14) (size 15 to 20)
#    0.462    1.846    3.846    0.462    2.154    0.615 
#    0.000    0.769    1.692    0.923    0.000    0.000 
#    0.000    0.000    0.000    0.000    0.000    0.000 
#
# Total GULP energy -144788.986607 kJ/mol
# GULP energy per Si atom -5568.807177 kJ/mol
# Density = 1.848886 g / cm^3
# Si number density = 18.531036 Si / 1000 Ang^3
#
#
#
# Elastic Constant Matrix: (Units=GPa)
#
#
# Indices 1 2 3 4 5 6 
#
# 1 186.5490 16.7579 39.9191 0.0000 0.0000 0.0000
# 2 16.7579 23.2982 -3.8858 0.0000 0.0000 0.0000
# 3 39.9191 -3.8858 38.0811 0.0000 0.0000 0.0000
# 4 0.0000 0.0000 0.0000 10.6722 0.0000 0.0000
# 5 0.0000 0.0000 0.0000 0.0000 27.3654 0.0000
# 6 0.0000 0.0000 0.0000 0.0000 0.0000 9.7917
#
#
#
# Elastic Compliance Matrix: (Units=1/GPa)
#
#
# Indices 1 2 3 4 5 6 
#
# 1 0.007952 -0.007233 -0.009074 0.000000 0.000000 0.000000
# 2 -0.007233 0.050244 0.012709 0.000000 0.000000 0.000000
# 3 -0.009074 0.012709 0.037068 0.000000 0.000000 0.000000
# 4 0.000000 0.000000 0.000000 0.093702 0.000000 0.000000
# 5 0.000000 0.000000 0.000000 0.000000 0.036542 0.000000
# 6 0.000000 0.000000 0.000000 0.000000 0.000000 0.102127
#
#
# Mechanical properties :
#
#
# Convention : Reuss Voigt Hill
#
# Bulk Modulus (GPa) = 11.35476 39.27896 25.31686
# Shear Modulus (GPa) = 13.72921 22.57501 18.15211
#
# Velocity S-wave (km/s) = 2.72486 3.49410 3.13317
# Velocity P-wave (km/s) = 4.00506 6.12541 5.17500
#
# Compressibility (1/GPa) = 0.08806878
#
# Stress axis : x y z
#
# Youngs Moduli (GPa) = 125.75515 19.90288 26.97714
#
# Poissons Ratio (x) = 0.14396 0.24479
# Poissons Ratio (y) = 0.90960 -0.34286
# Poissons Ratio (z) = 1.14108 -0.25295
#
# Static dielectric constant tensor:
#      x y z
#    x 1.675030 0.000000 0.000000 
#    y 0.000000 1.650460 0.000000 
#    z 0.000000 0.000000 1.630280 
# 
# From -- ./inp_files/4169.got.cif
#   From: 2010.05.17/outbox.cif.g08.bks.cpg/sg36_3_cif.got.tgz:4169.got - 2010.06.03 17:41:39.
