data_PCOD9351980
_publ_section_title
;
Structure prediction by ZEFSAII (Michael W. Deem and Ramdas Pophale) SiO2 
 PCOD9351980
Probable space group: C M C 21
;
_chemical_formula_sum "Si O2"
_cell_formula_units_Z 60
_cell_length_a 26.789275
_cell_length_b 5.411102
_cell_length_c 17.204251
_cell_angle_alpha 90.000000
_cell_angle_beta 90.000000
_cell_angle_gamma 90.000000
_cell_volume 2493.919615
_symmetry_space_group_name_H-M "C M C 21"
_symmetry_group_IT_number 36
_symmetry_cell_setting 'orthorhombic'
loop_
_space_group_symop_operation_xyz
x,y,z
-x,-y,1/2+z
x,-y,1/2+z
-x,y,z
1/2+x,1/2+y,z
1/2-x,1/2-y,1/2+z
1/2+x,1/2-y,1/2+z
1/2-x,1/2+y,z
loop_
_atom_site_type_symbol
_atom_site_label
_atom_site_fract_x
_atom_site_fract_y
_atom_site_fract_z
Si Si1 0.945025 0.197604 0.903310
Si Si2 0.774502 0.144975 0.855895
Si Si3 0.059951 0.216117 0.583045
Si Si4 0.414421 0.211307 0.672102
Si Si5 0.000000 0.429197 0.294050
Si Si6 0.370553 0.374221 0.817708
Si Si7 0.765731 0.391378 0.532744
Si Si8 0.125575 0.434025 0.464714
O O1 0.923317 0.995175 0.844795
O O2 0.903404 0.306117 0.960639
O O3 0.000000 0.124604 0.936484
O O4 0.957925 0.434455 0.849641
O O5 0.755176 0.405395 0.826419
O O6 0.831062 0.090146 0.834401
O O7 0.764674 0.138674 0.949963
O O8 0.085389 0.453222 0.625624
O O9 0.084932 0.240706 0.498621
O O10 0.000000 0.253296 0.583346
O O11 0.072696 0.954919 0.622043
O O12 0.457745 0.165095 0.733812
O O13 0.369259 0.281104 0.729664
O O14 0.358392 0.162281 0.880094
O O15 0.743542 0.631125 0.573454
O O16 0.823879 0.429535 0.513956
#
# Coordination Sequence:
#
# PCOD9351980 Si02
#       8
#     8   8   8   8   4   8   8   8
#     4  10  23  37  63 103 140 167 229 301 344 387
#     4  10  20  37  64 103 131 166 213 291 353 409
#     4  12  28  46  66  94 145 191 233 275 348 416
#     4  12  26  46  68  93 136 193 230 279 336 421
#     4  10  20  42  64  90 128 182 234 264 342 396
#     4  12  24  39  76 103 133 176 246 292 346 419
#     4  10  20  38  65  98 131 170 215 283 350 417
#     4  12  25  41  68 105 137 178 237 292 348 419
#
# _framework density 24.058516000000001
#
# number of rings (size 3 to 8) (size 9 to 14) (size 15 to 20)
#    0.400    0.533    5.333    2.800    2.800    1.067 
#    0.000    0.000    0.000    4.800    0.000    0.000 
#    0.000    0.000    0.000    0.000    0.000    0.000 
#
# Total GULP energy -167147.847623 kJ/mol
# GULP energy per Si atom -5571.594921 kJ/mol
# Density = 2.400376 g / cm^3
# Si number density = 24.058516 Si / 1000 Ang^3
#
#
#
# Elastic Constant Matrix: (Units=GPa)
#
#
# Indices 1 2 3 4 5 6 
#
# 1 78.4232 24.0465 14.0898 0.0000 0.0000 0.0000
# 2 24.0465 142.5366 27.4002 0.0000 0.0000 0.0000
# 3 14.0898 27.4002 64.9734 0.0000 0.0000 0.0000
# 4 0.0000 0.0000 0.0000 42.0225 0.0000 0.0000
# 5 0.0000 0.0000 0.0000 0.0000 -38.7920 0.0000
# 6 0.0000 0.0000 0.0000 0.0000 0.0000 35.7175
#
#
#
# Elastic Compliance Matrix: (Units=1/GPa)
#
#
# Indices 1 2 3 4 5 6 
#
# 1 0.013724 -0.001897 -0.002176 0.000000 0.000000 0.000000
# 2 -0.001897 0.007897 -0.002919 0.000000 0.000000 0.000000
# 3 -0.002176 -0.002919 0.017094 0.000000 0.000000 0.000000
# 4 0.000000 0.000000 0.000000 0.023797 0.000000 0.000000
# 5 0.000000 0.000000 0.000000 0.000000 -0.025779 0.000000
# 6 0.000000 0.000000 0.000000 0.000000 0.000000 0.027998
#
#
# Mechanical properties :
#
#
# Convention : Reuss Voigt Hill
#
# Bulk Modulus (GPa) = 40.43561 46.33401 43.38481
# Shear Modulus (GPa) = 57.49916 22.48271 39.99093
#
# Velocity S-wave (km/s) = 4.89404 3.06028 4.08148
# Velocity P-wave (km/s) = 6.98421 5.63806 6.34692
#
# Compressibility (1/GPa) = 0.02473068
#
# Stress axis : x y z
#
# Youngs Moduli (GPa) = 72.86527 126.63255 58.50094
#
# Poissons Ratio (x) = 0.24022 0.12731
# Poissons Ratio (y) = 0.13822 0.17076
# Poissons Ratio (z) = 0.15856 0.36962
#
# Static dielectric constant tensor:
#      x y z
#    x 2.272210 0.000000 0.000000 
#    y 0.000000 1.992810 0.000000 
#    z 0.000000 0.000000 1.960610 
# 
# From -- ./inp_files/15191.got.cif
#   From: 2010.05.17/outbox.cif.g08.bks.cpg/sg36_8_cif.got.tgz:15191.got - 2010.06.03 17:41:39.
