data_PCOD9351414
_publ_section_title
;
Structure prediction by ZEFSAII (Michael W. Deem and Ramdas Pophale) SiO2 
 PCOD9351414
Probable space group: C M C 21
;
_chemical_formula_sum "Si O2"
_cell_formula_units_Z 52
_cell_length_a 7.175960
_cell_length_b 18.816327
_cell_length_c 13.953313
_cell_angle_alpha 90.000000
_cell_angle_beta 90.000000
_cell_angle_gamma 90.000000
_cell_volume 1884.049017
_symmetry_space_group_name_H-M "C M C 21"
_symmetry_group_IT_number 36
_symmetry_cell_setting 'orthorhombic'
loop_
_space_group_symop_operation_xyz
x,y,z
-x,-y,1/2+z
x,-y,1/2+z
-x,y,z
1/2+x,1/2+y,z
1/2-x,1/2-y,1/2+z
1/2+x,1/2-y,1/2+z
1/2-x,1/2+y,z
loop_
_atom_site_type_symbol
_atom_site_label
_atom_site_fract_x
_atom_site_fract_y
_atom_site_fract_z
Si Si1 0.710335 0.419875 0.679010
Si Si2 0.207876 0.136515 0.688723
Si Si3 0.224908 0.276259 0.589329
Si Si4 0.275325 0.388214 0.878824
Si Si5 0.773816 0.275205 0.377416
Si Si6 0.225061 0.024051 0.976676
Si Si7 0.000000 0.555110 0.801914
O O1 0.500000 0.447241 0.685646
O O2 0.705146 0.334204 0.664058
O O3 0.801972 0.427428 0.783083
O O4 0.787879 0.447695 0.579462
O O5 0.280510 0.195806 0.613780
O O6 0.198257 0.184449 0.786032
O O7 0.338660 0.072726 0.719321
O O8 0.000000 0.114386 0.660042
O O9 0.280758 0.300850 0.483226
O O10 0.000000 0.276227 0.593105
O O11 0.500000 0.386170 0.870281
O O12 0.216772 0.307353 0.879831
O O13 0.235244 0.439514 0.966767
O O14 0.000000 0.280388 0.369385
O O15 0.000000 0.034513 0.966468
O O16 0.338212 0.056127 0.888157
#
# Coordination Sequence:
#
# PCOD9351414 Si02
#       7
#     8   8   8   8   8   8   4
#     4  10  20  37  67  94 124 171 220 270 323 395
#     4  11  23  40  61  96 132 167 212 268 331 387
#     4  10  22  36  60  94 129 169 211 265 333 390
#     4   9  19  40  67  92 129 175 221 265 323 389
#     4  10  19  38  65  94 129 169 208 267 326 388
#     4  10  23  43  65  97 128 174 224 268 323 384
#     4  12  24  42  66  92 134 170 218 272 318 388
#
# _framework density 27.600131000000001
#
# number of rings (size 3 to 8) (size 9 to 14) (size 15 to 20)
#    0.000    1.846    2.308    1.385    4.308    1.846 
#    5.538    0.000    0.000    0.000    0.000    0.000 
#    0.000    0.000    0.000    0.000    0.000    0.000 
#
# Total GULP energy -145208.133255 kJ/mol
# GULP energy per Si atom -5584.928202 kJ/mol
# Density = 2.753731 g / cm^3
# Si number density = 27.600131 Si / 1000 Ang^3
#
#
#
# Elastic Constant Matrix: (Units=GPa)
#
#
# Indices 1 2 3 4 5 6 
#
# 1 168.3792 -10.6491 0.6468 0.0000 0.0000 0.0000
# 2 -10.6491 94.4111 13.1464 0.0000 0.0000 0.0000
# 3 0.6468 13.1464 111.3699 0.0000 0.0000 0.0000
# 4 0.0000 0.0000 0.0000 62.3350 0.0000 0.0000
# 5 0.0000 0.0000 0.0000 0.0000 144.3939 0.0000
# 6 0.0000 0.0000 0.0000 0.0000 0.0000 6.4726
#
#
#
# Elastic Compliance Matrix: (Units=1/GPa)
#
#
# Indices 1 2 3 4 5 6 
#
# 1 0.005983 0.000691 -0.000116 0.000000 0.000000 0.000000
# 2 0.000691 0.010849 -0.001285 0.000000 0.000000 0.000000
# 3 -0.000116 -0.001285 0.009131 0.000000 0.000000 0.000000
# 4 0.000000 0.000000 0.000000 0.016042 0.000000 0.000000
# 5 0.000000 0.000000 0.000000 0.000000 0.006926 0.000000
# 6 0.000000 0.000000 0.000000 0.000000 0.000000 0.154497
#
#
# Mechanical properties :
#
#
# Convention : Reuss Voigt Hill
#
# Bulk Modulus (GPa) = 40.74392 42.27207 41.50799
# Shear Modulus (GPa) = 23.47097 67.37472 45.42285
#
# Velocity S-wave (km/s) = 2.91931 4.94611 4.06118
# Velocity P-wave (km/s) = 5.11444 6.92588 6.08791
#
# Compressibility (1/GPa) = 0.02454354
#
# Stress axis : x y z
#
# Youngs Moduli (GPa) = 167.13668 92.17606 109.51223
#
# Poissons Ratio (x) = -0.06370 0.01274
# Poissons Ratio (y) = -0.11550 0.14068
# Poissons Ratio (z) = 0.01944 0.11841
#
# Static dielectric constant tensor:
#      x y z
#    x 2.082710 0.000000 0.000000 
#    y 0.000000 2.277590 0.000000 
#    z 0.000000 0.000000 2.076600 
# 
# From -- ./inp_files/10539.got.cif
#   From: 2010.05.17/outbox.cif.g08.bks.cpg/sg36_6_cif.got.tgz:10539.got - 2010.06.03 17:41:39.
