data_PCOD9351088
_publ_section_title
;
Structure prediction by ZEFSAII (Michael W. Deem and Ramdas Pophale) SiO2 
 PCOD9351088
Probable space group: C M C 21
;
_chemical_formula_sum "Si O2"
_cell_formula_units_Z 64
_cell_length_a 7.852080
_cell_length_b 23.471123
_cell_length_c 16.570993
_cell_angle_alpha 90.000000
_cell_angle_beta 90.000000
_cell_angle_gamma 90.000000
_cell_volume 3053.986542
_symmetry_space_group_name_H-M "C M C 21"
_symmetry_group_IT_number 36
_symmetry_cell_setting 'orthorhombic'
loop_
_space_group_symop_operation_xyz
x,y,z
-x,-y,1/2+z
x,-y,1/2+z
-x,y,z
1/2+x,1/2+y,z
1/2-x,1/2-y,1/2+z
1/2+x,1/2-y,1/2+z
1/2-x,1/2+y,z
loop_
_atom_site_type_symbol
_atom_site_label
_atom_site_fract_x
_atom_site_fract_y
_atom_site_fract_z
Si Si1 0.702078 0.462791 0.506270
Si Si2 0.692950 0.335343 0.167331
Si Si3 0.689633 0.215745 0.508154
Si Si4 0.290621 0.535815 0.661772
Si Si5 0.202963 0.333512 0.540252
Si Si6 0.792537 0.716609 0.215392
Si Si7 0.207959 0.987471 0.836096
Si Si8 0.302733 0.358367 0.864492
O O1 0.500000 0.473851 0.503969
O O2 0.767589 0.499967 0.582915
O O3 0.729082 0.395882 0.521279
O O4 0.767567 0.480062 0.417177
O O5 0.500000 0.343637 0.197320
O O6 0.768382 0.398306 0.160980
O O7 0.767356 0.282467 0.217642
O O8 0.689843 0.308355 0.077868
O O9 0.500000 0.214839 0.542368
O O10 0.734507 0.280689 0.485884
O O11 0.702379 0.174034 0.433494
O O12 0.500000 0.535080 0.659059
O O13 0.237328 0.509945 0.748243
O O14 0.252244 0.312801 0.630211
O O15 0.000000 0.335864 0.536003
O O16 0.714455 0.679143 0.285038
O O17 0.000000 0.716636 0.221121
O O18 0.258350 0.921885 0.846951
O O19 0.000000 0.990233 0.834511
O O20 0.500000 0.361984 0.890102
#
# Coordination Sequence:
#
# PCOD9351088 Si02
#       8
#     8   8   8   8   8   8   8   8
#     4  10  19  33  56  82 108 143 188 231 272 325
#     4   9  18  35  57  80 110 146 183 223 273 329
#     4  11  22  36  56  80 107 140 183 232 278 328
#     4   9  17  32  55  81 111 147 185 226 272 326
#     4  10  21  38  57  79 110 144 179 221 278 338
#     4   9  19  34  53  79 109 141 179 226 277 328
#     4   9  19  33  52  81 111 144 187 229 272 332
#     4  11  21  35  56  80 110 145 184 228 274 326
#
# _framework density 20.956216999999999
#
# number of rings (size 3 to 8) (size 9 to 14) (size 15 to 20)
#    0.000    2.250    0.000    4.125    0.000    6.500 
#    0.000    5.625    0.000    3.000    0.000    0.000 
#    0.000    0.000    0.000    0.000    0.000    0.000 
#
# Total GULP energy -178532.564898 kJ/mol
# GULP energy per Si atom -5579.142653 kJ/mol
# Density = 2.090852 g / cm^3
# Si number density = 20.956217 Si / 1000 Ang^3
#
#
#
# Elastic Constant Matrix: (Units=GPa)
#
#
# Indices 1 2 3 4 5 6 
#
# 1 29.9177 -7.0425 1.8234 0.0000 0.0000 0.0000
# 2 -7.0425 167.7600 51.7220 0.0000 0.0000 0.0000
# 3 1.8234 51.7220 77.5080 0.0000 0.0000 0.0000
# 4 0.0000 0.0000 0.0000 34.4216 0.0000 0.0000
# 5 0.0000 0.0000 0.0000 0.0000 12.0299 0.0000
# 6 0.0000 0.0000 0.0000 0.0000 0.0000 20.9714
#
#
#
# Elastic Compliance Matrix: (Units=1/GPa)
#
#
# Indices 1 2 3 4 5 6 
#
# 1 0.034057 0.002111 -0.002210 0.000000 0.000000 0.000000
# 2 0.002111 0.007636 -0.005145 0.000000 0.000000 0.000000
# 3 -0.002210 -0.005145 0.016387 0.000000 0.000000 0.000000
# 4 0.000000 0.000000 0.000000 0.029052 0.000000 0.000000
# 5 0.000000 0.000000 0.000000 0.000000 0.083126 0.000000
# 6 0.000000 0.000000 0.000000 0.000000 0.000000 0.047684
#
#
# Mechanical properties :
#
#
# Convention : Reuss Voigt Hill
#
# Bulk Modulus (GPa) = 21.01204 40.91016 30.96110
# Shear Modulus (GPa) = 20.46718 28.73009 24.59863
#
# Velocity S-wave (km/s) = 3.12855 3.70666 3.42981
# Velocity P-wave (km/s) = 4.80613 6.15494 5.52187
#
# Compressibility (1/GPa) = 0.04759177
#
# Stress axis : x y z
#
# Youngs Moduli (GPa) = 29.36280 130.96181 61.02284
#
# Poissons Ratio (x) = -0.27646 0.13486
# Poissons Ratio (y) = -0.06199 0.31397
# Poissons Ratio (z) = 0.06489 0.67382
#
# Static dielectric constant tensor:
#      x y z
#    x 1.767460 0.000000 0.000000 
#    y 0.000000 1.742080 0.000000 
#    z 0.000000 0.000000 1.745910 
# 
# From -- ./inp_files/10981.got.cif
#   From: 2010.05.17/outbox.cif.g08.bks.cpg/sg36_6_cif.got.tgz:10981.got - 2010.06.03 17:41:39.
