data_PCOD9351599
_publ_section_title
;
Structure prediction by ZEFSAII (Michael W. Deem and Ramdas Pophale) SiO2 
 PCOD9351599
Probable space group: C M C 21
;
_chemical_formula_sum "Si O2"
_cell_formula_units_Z 52
_cell_length_a 8.293504
_cell_length_b 19.597627
_cell_length_c 14.573449
_cell_angle_alpha 90.000000
_cell_angle_beta 90.000000
_cell_angle_gamma 90.000000
_cell_volume 2368.666356
_symmetry_space_group_name_H-M "C M C 21"
_symmetry_group_IT_number 36
_symmetry_cell_setting 'orthorhombic'
loop_
_space_group_symop_operation_xyz
x,y,z
-x,-y,1/2+z
x,-y,1/2+z
-x,y,z
1/2+x,1/2+y,z
1/2-x,1/2-y,1/2+z
1/2+x,1/2-y,1/2+z
1/2-x,1/2+y,z
loop_
_atom_site_type_symbol
_atom_site_label
_atom_site_fract_x
_atom_site_fract_y
_atom_site_fract_z
Si Si1 0.000000 0.066527 0.495021
Si Si2 0.500000 0.468472 0.799476
Si Si3 0.805952 0.654461 0.523808
Si Si4 0.315731 0.110268 0.148179
Si Si5 0.818658 0.313547 0.218217
Si Si6 0.684709 0.802040 0.823090
Si Si7 0.500000 0.578837 0.084285
Si Si8 0.674322 0.973134 0.256419
O O1 0.832693 0.097147 0.533771
O O2 0.000000 0.081349 0.385917
O O3 0.000000 0.987076 0.520331
O O4 0.500000 0.445287 0.692754
O O5 0.665518 0.510180 0.812051
O O6 0.785212 0.702704 0.612109
O O7 0.762011 0.688738 0.427072
O O8 0.000000 0.634598 0.524951
O O9 0.500000 0.132134 0.124862
O O10 0.255278 0.149452 0.240605
O O11 0.170712 0.117538 0.075870
O O12 0.327837 0.029945 0.175893
O O13 0.704728 0.274189 0.286776
O O14 0.814761 0.395247 0.224821
O O15 0.000000 0.290751 0.241020
O O16 0.500000 0.822868 0.826896
O O17 0.500000 0.981923 0.304848
#
# Coordination Sequence:
#
# PCOD9351599 Si02
#       8
#     4   4   8   8   8   8   4   8
#     4  12  24  36  66  98 118 166 210 250 322 372
#     4  10  20  34  56  86 118 152 190 245 306 349
#     4  10  22  40  59  89 125 159 213 263 300 371
#     4   9  18  35  58  84 116 154 196 245 301 363
#     4  10  22  38  63  91 120 168 211 258 319 367
#     4  10  22  38  63  91 120 168 211 258 319 367
#     4  10  20  34  56  86 118 152 190 245 306 349
#     4   9  18  35  58  84 116 154 196 245 301 363
#
# _framework density 21.953282000000002
#
# number of rings (size 3 to 8) (size 9 to 14) (size 15 to 20)
#    0.000    2.154    0.000    3.692    4.308    3.692 
#    0.000    1.538    0.000    3.692    0.000    0.000 
#    0.000    0.000    0.000    0.000    0.000    0.000 
#
# Total GULP energy -144765.560889 kJ/mol
# GULP energy per Si atom -5567.906188 kJ/mol
# Density = 2.190332 g / cm^3
# Si number density = 21.953282 Si / 1000 Ang^3
#
#
#
# Elastic Constant Matrix: (Units=GPa)
#
#
# Indices 1 2 3 4 5 6 
#
# 1 135.8089 0.9440 27.7374 0.0000 0.0000 0.0000
# 2 0.9440 32.2971 -5.1469 0.0000 0.0000 0.0000
# 3 27.7374 -5.1469 28.8396 0.0000 0.0000 0.0000
# 4 0.0000 0.0000 0.0000 19.0563 0.0000 0.0000
# 5 0.0000 0.0000 0.0000 0.0000 14.2641 0.0000
# 6 0.0000 0.0000 0.0000 0.0000 0.0000 29.0879
#
#
#
# Elastic Compliance Matrix: (Units=1/GPa)
#
#
# Indices 1 2 3 4 5 6 
#
# 1 0.009257 -0.001739 -0.009214 0.000000 0.000000 0.000000
# 2 -0.001739 0.032196 0.007418 0.000000 0.000000 0.000000
# 3 -0.009214 0.007418 0.044860 0.000000 0.000000 0.000000
# 4 0.000000 0.000000 0.000000 0.052476 0.000000 0.000000
# 5 0.000000 0.000000 0.000000 0.000000 0.070106 0.000000
# 6 0.000000 0.000000 0.000000 0.000000 0.000000 0.034379
#
#
# Mechanical properties :
#
#
# Convention : Reuss Voigt Hill
#
# Bulk Modulus (GPa) = 12.61925 27.11274 19.86599
# Shear Modulus (GPa) = 18.06641 24.04241 21.05441
#
# Velocity S-wave (km/s) = 2.87182 3.31291 3.10022
# Velocity P-wave (km/s) = 4.09355 5.19720 4.67804
#
# Compressibility (1/GPa) = 0.07924402
#
# Stress axis : x y z
#
# Youngs Moduli (GPa) = 108.02451 31.06017 22.29159
#
# Poissons Ratio (x) = 0.05401 0.20539
# Poissons Ratio (y) = 0.18784 -0.16536
# Poissons Ratio (z) = 0.99530 -0.23041
#
# Static dielectric constant tensor:
#      x y z
#    x 1.918160 0.000000 0.000000 
#    y 0.000000 1.819370 0.000000 
#    z 0.000000 0.000000 1.815280 
# 
# From -- ./inp_files/10622.got.cif
#   From: 2010.05.17/outbox.cif.g08.bks.cpg/sg36_6_cif.got.tgz:10622.got - 2010.06.03 17:41:39.
