data_PCOD9351771
_publ_section_title
;
Structure prediction by ZEFSAII (Michael W. Deem and Ramdas Pophale) SiO2 
 PCOD9351771
Probable space group: C M C 21
;
_chemical_formula_sum "Si O2"
_cell_formula_units_Z 64
_cell_length_a 27.305506
_cell_length_b 17.674662
_cell_length_c 5.658162
_cell_angle_alpha 90.000000
_cell_angle_beta 90.000000
_cell_angle_gamma 90.000000
_cell_volume 2730.717188
_symmetry_space_group_name_H-M "C M C 21"
_symmetry_group_IT_number 36
_symmetry_cell_setting 'orthorhombic'
loop_
_space_group_symop_operation_xyz
x,y,z
-x,-y,1/2+z
x,-y,1/2+z
-x,y,z
1/2+x,1/2+y,z
1/2-x,1/2-y,1/2+z
1/2+x,1/2-y,1/2+z
1/2-x,1/2+y,z
loop_
_atom_site_type_symbol
_atom_site_label
_atom_site_fract_x
_atom_site_fract_y
_atom_site_fract_z
Si Si1 0.683778 0.075151 0.902970
Si Si2 0.943564 0.820269 0.073660
Si Si3 0.275188 0.360165 0.635855
Si Si4 0.876530 0.681693 0.215241
Si Si5 0.944429 0.089724 0.077196
Si Si6 0.655039 0.469161 0.515604
Si Si7 0.221350 0.688982 0.509438
Si Si8 0.597173 0.968135 0.892757
O O1 0.701207 0.127356 0.689249
O O2 0.655254 0.995830 0.874130
O O3 0.733256 0.079987 0.059251
O O4 0.640237 0.126241 0.007200
O O5 0.906600 0.751299 0.115728
O O6 0.941713 0.865409 0.325555
O O7 0.000000 0.794341 0.049841
O O8 0.933396 0.864118 0.823120
O O9 0.326755 0.383084 0.533457
O O10 0.263085 0.273873 0.571292
O O11 0.270079 0.352704 0.914629
O O12 0.825357 0.701787 0.339176
O O13 0.905336 0.622792 0.384127
O O14 0.903064 0.026885 0.042584
O O15 0.000000 0.060964 0.101896
O O16 0.673762 0.498145 0.265057
O O17 0.577156 0.002201 0.644612
#
# Coordination Sequence:
#
# PCOD9351771 Si02
#       8
#     8   8   8   8   8   8   8   8
#     4  10  22  38  57  86 122 172 219 261 312 378
#     4  10  22  40  69 104 132 163 208 275 337 382
#     4  11  25  38  63  87 131 166 221 272 330 382
#     4  10  22  35  62  91 123 166 211 265 315 385
#     4  10  23  46  73  99 130 169 218 266 324 404
#     4  12  29  46  66 100 136 180 214 269 340 392
#     4  11  21  39  59  90 116 170 215 271 318 369
#     4  10  20  36  55  83 117 160 211 249 292 366
#
# _framework density 23.437063999999999
#
# number of rings (size 3 to 8) (size 9 to 14) (size 15 to 20)
#    0.000    1.500    2.500    1.500    5.250    3.500 
#    0.000    0.000    0.000    3.000    0.000    0.000 
#    0.000    0.000    0.000    0.000    0.000    0.000 
#
# Total GULP energy -178246.793357 kJ/mol
# GULP energy per Si atom -5570.212292 kJ/mol
# Density = 2.338372 g / cm^3
# Si number density = 23.437064 Si / 1000 Ang^3
#
#
#
# Elastic Constant Matrix: (Units=GPa)
#
#
# Indices 1 2 3 4 5 6 
#
# 1 30.5344 8.6357 14.1565 0.0000 0.0000 0.0000
# 2 8.6357 50.5359 23.7946 0.0000 0.0000 0.0000
# 3 14.1565 23.7946 128.5883 0.0000 0.0000 0.0000
# 4 0.0000 0.0000 0.0000 34.2849 0.0000 0.0000
# 5 0.0000 0.0000 0.0000 0.0000 21.3639 0.0000
# 6 0.0000 0.0000 0.0000 0.0000 0.0000 30.1506
#
#
#
# Elastic Compliance Matrix: (Units=1/GPa)
#
#
# Indices 1 2 3 4 5 6 
#
# 1 0.035472 -0.004626 -0.003049 0.000000 0.000000 0.000000
# 2 -0.004626 0.022280 -0.003613 0.000000 0.000000 0.000000
# 3 -0.003049 -0.003613 0.008781 0.000000 0.000000 0.000000
# 4 0.000000 0.000000 0.000000 0.029167 0.000000 0.000000
# 5 0.000000 0.000000 0.000000 0.000000 0.046808 0.000000
# 6 0.000000 0.000000 0.000000 0.000000 0.000000 0.033167
#
#
# Mechanical properties :
#
#
# Convention : Reuss Voigt Hill
#
# Bulk Modulus (GPa) = 22.75012 33.64800 28.19906
# Shear Modulus (GPa) = 23.48479 28.03134 25.75807
#
# Velocity S-wave (km/s) = 3.16893 3.46211 3.31876
# Velocity P-wave (km/s) = 4.80806 5.51086 5.17141
#
# Compressibility (1/GPa) = 0.04395581
#
# Stress axis : x y z
#
# Youngs Moduli (GPa) = 28.19132 44.88375 113.88091
#
# Poissons Ratio (x) = 0.20762 0.34724
# Poissons Ratio (y) = 0.13041 0.41151
# Poissons Ratio (z) = 0.08596 0.16219
#
# Static dielectric constant tensor:
#      x y z
#    x 1.892580 0.000000 0.000000 
#    y 0.000000 1.921420 0.000000 
#    z 0.000000 0.000000 2.114370 
# 
# From -- ./inp_files/1907.got.cif
#   From: 2010.05.17/outbox.cif.g08.bks.cpg/sg36_1_cif.got.tgz:1907.got - 2010.06.03 17:41:39.
