data_PCOD9351440
_publ_section_title
;
Structure prediction by ZEFSAII (Michael W. Deem and Ramdas Pophale) SiO2 
 PCOD9351440
Probable space group: C M C 21
;
_chemical_formula_sum "Si O2"
_cell_formula_units_Z 64
_cell_length_a 8.992668
_cell_length_b 23.616997
_cell_length_c 18.003501
_cell_angle_alpha 90.000000
_cell_angle_beta 90.000000
_cell_angle_gamma 90.000000
_cell_volume 3823.580179
_symmetry_space_group_name_H-M "C M C 21"
_symmetry_group_IT_number 36
_symmetry_cell_setting 'orthorhombic'
loop_
_space_group_symop_operation_xyz
x,y,z
-x,-y,1/2+z
x,-y,1/2+z
-x,y,z
1/2+x,1/2+y,z
1/2-x,1/2-y,1/2+z
1/2+x,1/2-y,1/2+z
1/2-x,1/2+y,z
loop_
_atom_site_type_symbol
_atom_site_label
_atom_site_fract_x
_atom_site_fract_y
_atom_site_fract_z
Si Si1 0.321326 0.943105 0.990990
Si Si2 0.677976 0.269899 0.612553
Si Si3 0.179105 0.935929 0.522460
Si Si4 0.322606 0.384139 0.683134
Si Si5 0.668643 0.718000 0.392309
Si Si6 0.321095 0.828012 0.467854
Si Si7 0.324539 0.888237 0.833326
Si Si8 0.829260 0.163420 0.558322
O O1 0.500000 0.947867 0.995546
O O2 0.280863 0.923044 0.907159
O O3 0.263497 0.893570 0.045564
O O4 0.241836 0.001857 0.008773
O O5 0.500000 0.263352 0.609916
O O6 0.716434 0.317389 0.673491
O O7 0.735144 0.299805 0.537132
O O8 0.755788 0.208968 0.613620
O O9 0.218682 0.915714 0.606525
O O10 0.256388 0.891088 0.466561
O O11 0.000000 0.933547 0.515371
O O12 0.500000 0.387432 0.689324
O O13 0.249990 0.407836 0.757240
O O14 0.500000 0.711999 0.363502
O O15 0.705902 0.784364 0.400176
O O16 0.775625 0.676531 0.348471
O O17 0.668851 0.693912 0.477048
O O18 0.500000 0.828394 0.480430
O O19 0.500000 0.891636 0.826221
O O20 0.000000 0.151468 0.578130
#
# Coordination Sequence:
#
# PCOD9351440 Si02
#       8
#     8   8   8   8   8   8   8   8
#     4  10  20  33  49  72 100 131 168 210 249 293
#     4   9  16  27  44  68  95 122 152 189 234 285
#     4  10  20  33  50  73  98 130 170 210 249 294
#     4   9  19  33  49  70  98 129 161 199 248 300
#     4   8  15  27  44  66  93 122 150 183 231 284
#     4   9  16  27  45  69  94 122 153 190 236 283
#     4  10  20  31  48  73  98 126 162 202 248 297
#     4   9  16  27  45  69  94 122 154 191 235 282
#
# _framework density 16.738237999999999
#
# number of rings (size 3 to 8) (size 9 to 14) (size 15 to 20)
#    0.000    2.750    0.000    3.750    0.000    8.000 
#    0.000    0.000    0.000    1.500    0.000    8.750 
#    0.000    0.000    0.000    0.000    0.000    0.000 
#
# Total GULP energy -178169.226660 kJ/mol
# GULP energy per Si atom -5567.788333 kJ/mol
# Density = 1.670014 g / cm^3
# Si number density = 16.738238 Si / 1000 Ang^3
#
#
#
# Elastic Constant Matrix: (Units=GPa)
#
#
# Indices 1 2 3 4 5 6 
#
# 1 48.9317 37.1759 27.1127 0.0000 0.0000 0.0000
# 2 37.1759 123.1298 31.2784 0.0000 0.0000 0.0000
# 3 27.1127 31.2784 51.1287 0.0000 0.0000 0.0000
# 4 0.0000 0.0000 0.0000 12.0486 0.0000 0.0000
# 5 0.0000 0.0000 0.0000 0.0000 20.8329 0.0000
# 6 0.0000 0.0000 0.0000 0.0000 0.0000 30.6711
#
#
#
# Elastic Compliance Matrix: (Units=1/GPa)
#
#
# Indices 1 2 3 4 5 6 
#
# 1 0.032811 -0.006496 -0.013425 0.000000 0.000000 0.000000
# 2 -0.006496 0.010902 -0.003225 0.000000 0.000000 0.000000
# 3 -0.013425 -0.003225 0.028650 0.000000 0.000000 0.000000
# 4 0.000000 0.000000 0.000000 0.082998 0.000000 0.000000
# 5 0.000000 0.000000 0.000000 0.000000 0.048001 0.000000
# 6 0.000000 0.000000 0.000000 0.000000 0.000000 0.032604
#
#
# Mechanical properties :
#
#
# Convention : Reuss Voigt Hill
#
# Bulk Modulus (GPa) = 38.35588 46.03601 42.19594
# Shear Modulus (GPa) = 17.18526 21.21873 19.20199
#
# Velocity S-wave (km/s) = 3.20770 3.56431 3.39070
# Velocity P-wave (km/s) = 6.05673 6.67100 6.37128
#
# Compressibility (1/GPa) = 0.02607163
#
# Stress axis : x y z
#
# Youngs Moduli (GPa) = 30.47793 91.72661 34.90376
#
# Poissons Ratio (x) = 0.59586 0.46858
# Poissons Ratio (y) = 0.19799 0.11255
# Poissons Ratio (z) = 0.40916 0.29578
#
# Static dielectric constant tensor:
#      x y z
#    x 1.558770 0.000000 0.000000 
#    y 0.000000 1.585440 0.000000 
#    z 0.000000 0.000000 1.583090 
# 
# From -- ./inp_files/14105.got.cif
#   From: 2010.05.17/outbox.cif.g08.bks.cpg/sg36_8_cif.got.tgz:14105.got - 2010.06.03 17:41:39.
