data_PCOD9351034
_publ_section_title
;
Structure prediction by ZEFSAII (Michael W. Deem and Ramdas Pophale) SiO2 
 PCOD9351034
Probable space group: C M C 21
;
_chemical_formula_sum "Si O2"
_cell_formula_units_Z 64
_cell_length_a 21.815799
_cell_length_b 15.609428
_cell_length_c 10.192159
_cell_angle_alpha 90.000000
_cell_angle_beta 90.000000
_cell_angle_gamma 90.000000
_cell_volume 3470.757754
_symmetry_space_group_name_H-M "C M C 21"
_symmetry_group_IT_number 36
_symmetry_cell_setting 'orthorhombic'
loop_
_space_group_symop_operation_xyz
x,y,z
-x,-y,1/2+z
x,-y,1/2+z
-x,y,z
1/2+x,1/2+y,z
1/2-x,1/2-y,1/2+z
1/2+x,1/2-y,1/2+z
1/2-x,1/2+y,z
loop_
_atom_site_type_symbol
_atom_site_label
_atom_site_fract_x
_atom_site_fract_y
_atom_site_fract_z
Si Si1 0.256077 0.429202 0.892240
Si Si2 0.570168 0.731770 0.899152
Si Si3 0.810579 0.827171 0.114674
Si Si4 0.178700 0.105093 0.901097
Si Si5 0.434078 0.260310 0.081228
Si Si6 0.266943 0.859032 0.623597
Si Si7 0.100362 0.568647 0.099908
Si Si8 0.110162 0.574815 0.399695
O O1 0.301999 0.506830 0.927371
O O2 0.270664 0.395660 0.746084
O O3 0.182928 0.445806 0.888213
O O4 0.264247 0.361271 0.007695
O O5 0.500000 0.724425 0.947166
O O6 0.614200 0.651607 0.933933
O O7 0.567267 0.733399 0.740035
O O8 0.598379 0.825169 0.934215
O O9 0.812537 0.883333 0.245271
O O10 0.875868 0.816227 0.042088
O O11 0.793872 0.732457 0.164164
O O12 0.228372 0.152506 0.992094
O O13 0.500000 0.290077 0.032905
O O14 0.425202 0.159909 0.050156
O O15 0.325748 0.918653 0.597602
O O16 0.083428 0.559488 0.253366
O O17 0.083698 0.489339 0.008362
#
# Coordination Sequence:
#
# PCOD9351034 Si02
#       8
#     8   8   8   8   8   8   8   8
#     4  11  21  33  52  81 114 135 172 221 277 325
#     4   9  19  36  55  75 103 147 190 221 258 322
#     4  10  20  33  54  78 102 142 179 215 269 322
#     4  11  20  34  54  79 104 139 179 223 266 313
#     4   8  16  33  53  72 100 136 182 219 257 319
#     4  10  19  34  50  79 111 139 170 214 276 334
#     4   9  18  30  50  78 106 136 170 217 271 321
#     4  10  19  33  52  78 108 140 176 218 272 326
#
# _framework density 18.439778
#
# number of rings (size 3 to 8) (size 9 to 14) (size 15 to 20)
#    0.000    2.250    1.250    4.500    1.750    0.500 
#    0.000    0.625    0.000    4.500    0.000    0.000 
#    0.000    0.000    0.000    0.000    0.000    0.000 
#
# Total GULP energy -178166.059998 kJ/mol
# GULP energy per Si atom -5567.689375 kJ/mol
# Density = 1.839781 g / cm^3
# Si number density = 18.439778 Si / 1000 Ang^3
#
#
#
# Elastic Constant Matrix: (Units=GPa)
#
#
# Indices 1 2 3 4 5 6 
#
# 1 67.6709 15.2212 12.0994 0.0000 0.0000 0.0000
# 2 15.2212 53.6572 6.3284 0.0000 0.0000 0.0000
# 3 12.0994 6.3284 41.2172 0.0000 0.0000 0.0000
# 4 0.0000 0.0000 0.0000 23.8571 0.0000 0.0000
# 5 0.0000 0.0000 0.0000 0.0000 7.1214 0.0000
# 6 0.0000 0.0000 0.0000 0.0000 0.0000 12.8612
#
#
#
# Elastic Compliance Matrix: (Units=1/GPa)
#
#
# Indices 1 2 3 4 5 6 
#
# 1 0.016466 -0.004177 -0.004192 0.000000 0.000000 0.000000
# 2 -0.004177 0.020040 -0.001851 0.000000 0.000000 0.000000
# 3 -0.004192 -0.001851 0.025777 0.000000 0.000000 0.000000
# 4 0.000000 0.000000 0.000000 0.041916 0.000000 0.000000
# 5 0.000000 0.000000 0.000000 0.000000 0.140421 0.000000
# 6 0.000000 0.000000 0.000000 0.000000 0.000000 0.077753
#
#
# Mechanical properties :
#
#
# Convention : Reuss Voigt Hill
#
# Bulk Modulus (GPa) = 23.89883 25.53815 24.71849
# Shear Modulus (GPa) = 14.01497 17.36104 15.68800
#
# Velocity S-wave (km/s) = 2.75987 3.07171 2.91996
# Velocity P-wave (km/s) = 4.81087 5.14394 4.98019
#
# Compressibility (1/GPa) = 0.04184305
#
# Stress axis : x y z
#
# Youngs Moduli (GPa) = 60.72943 49.90040 38.79482
#
# Poissons Ratio (x) = 0.20842 0.16265
# Poissons Ratio (y) = 0.25365 0.07180
# Poissons Ratio (z) = 0.25461 0.09236
#
# Static dielectric constant tensor:
#      x y z
#    x 1.680440 0.000000 0.000000 
#    y 0.000000 1.644280 0.000000 
#    z 0.000000 0.000000 1.621890 
# 
# From -- ./inp_files/9334.got.cif
#   From: 2010.05.17/outbox.cif.g08.bks.cpg/sg36_5_cif.got.tgz:9334.got - 2010.06.03 17:41:39.
