data_PCOD9351541
_publ_section_title
;
Structure prediction by ZEFSAII (Michael W. Deem and Ramdas Pophale) SiO2 
 PCOD9351541
Probable space group: C M C 21
;
_chemical_formula_sum "Si O2"
_cell_formula_units_Z 64
_cell_length_a 7.731235
_cell_length_b 18.520689
_cell_length_c 21.896565
_cell_angle_alpha 90.000000
_cell_angle_beta 90.000000
_cell_angle_gamma 90.000000
_cell_volume 3135.320948
_symmetry_space_group_name_H-M "C M C 21"
_symmetry_group_IT_number 36
_symmetry_cell_setting 'orthorhombic'
loop_
_space_group_symop_operation_xyz
x,y,z
-x,-y,1/2+z
x,-y,1/2+z
-x,y,z
1/2+x,1/2+y,z
1/2-x,1/2-y,1/2+z
1/2+x,1/2-y,1/2+z
1/2-x,1/2+y,z
loop_
_atom_site_type_symbol
_atom_site_label
_atom_site_fract_x
_atom_site_fract_y
_atom_site_fract_z
Si Si1 0.197742 0.907736 0.440840
Si Si2 0.789141 0.918459 0.573334
Si Si3 0.712165 0.579940 0.809015
Si Si4 0.704132 0.072524 0.444788
Si Si5 0.796089 0.412226 0.077233
Si Si6 0.201248 0.163572 0.192142
Si Si7 0.300348 0.326071 0.195127
Si Si8 0.290980 0.412386 0.813241
O O1 0.274985 0.890215 0.507149
O O2 0.273725 0.889207 0.374533
O O3 0.000000 0.881459 0.440785
O O4 0.199599 0.995611 0.440206
O O5 0.725351 0.872954 0.631066
O O6 0.000000 0.916291 0.570593
O O7 0.737400 0.001948 0.581293
O O8 0.500000 0.579783 0.809964
O O9 0.769675 0.625831 0.750977
O O10 0.764053 0.495961 0.804073
O O11 0.500000 0.056178 0.451107
O O12 0.759135 0.109172 0.508263
O O13 0.731580 0.111700 0.380554
O O14 0.709067 0.370776 0.132596
O O15 0.000000 0.398425 0.083071
O O16 0.211049 0.249262 0.188808
O O17 0.273841 0.134017 0.256090
O O18 0.000000 0.141363 0.192617
O O19 0.500000 0.310491 0.209162
O O20 0.500000 0.410749 0.814639
#
# Coordination Sequence:
#
# PCOD9351541 Si02
#       8
#     8   8   8   8   8   8   8   8
#     4   8  14  28  51  75  97 124 161 202 246 299
#     4   9  17  32  56  79  99 130 168 204 248 305
#     4   8  15  30  52  76  97 122 162 206 245 290
#     4   9  17  29  48  76 104 125 154 204 256 299
#     4  10  20  34  53  77 104 131 164 211 259 301
#     4  10  21  36  51  72 105 139 172 211 255 299
#     4  11  22  35  51  71 101 140 178 213 250 299
#     4   9  17  32  54  74  97 131 167 205 249 302
#
# _framework density 20.412583999999999
#
# number of rings (size 3 to 8) (size 9 to 14) (size 15 to 20)
#    0.000    2.750    0.000    2.625    0.000    4.500 
#    0.000    8.750    0.000    3.000    0.000    0.000 
#    0.000    0.000    0.000    0.000    0.000    0.000 
#
# Total GULP energy -178362.450158 kJ/mol
# GULP energy per Si atom -5573.826567 kJ/mol
# Density = 2.036612 g / cm^3
# Si number density = 20.412584 Si / 1000 Ang^3
#
#
#
# Elastic Constant Matrix: (Units=GPa)
#
#
# Indices 1 2 3 4 5 6 
#
# 1 37.0728 -8.0060 1.3003 0.0000 0.0000 0.0000
# 2 -8.0060 52.2099 67.5006 0.0000 0.0000 0.0000
# 3 1.3003 67.5006 223.4151 0.0000 0.0000 0.0000
# 4 0.0000 0.0000 0.0000 -5.9181 0.0000 0.0000
# 5 0.0000 0.0000 0.0000 0.0000 8.6845 0.0000
# 6 0.0000 0.0000 0.0000 0.0000 0.0000 12.2159
#
#
#
# Elastic Compliance Matrix: (Units=1/GPa)
#
#
# Indices 1 2 3 4 5 6 
#
# 1 0.028696 0.007575 -0.002456 0.000000 0.000000 0.000000
# 2 0.007575 0.033431 -0.010144 0.000000 0.000000 0.000000
# 3 -0.002456 -0.010144 0.007555 0.000000 0.000000 0.000000
# 4 0.000000 0.000000 0.000000 -0.168974 0.000000 0.000000
# 5 0.000000 0.000000 0.000000 0.000000 0.115148 0.000000
# 6 0.000000 0.000000 0.000000 0.000000 0.000000 0.081860
#
#
# Mechanical properties :
#
#
# Convention : Reuss Voigt Hill
#
# Bulk Modulus (GPa) = 16.76960 48.25417 32.51188
# Shear Modulus (GPa) = 39.17181 19.79000 29.48090
#
# Velocity S-wave (km/s) = 4.38540 3.11706 3.80445
# Velocity P-wave (km/s) = 5.82026 6.05355 5.93805
#
# Compressibility (1/GPa) = 0.05963173
#
# Stress axis : x y z
#
# Youngs Moduli (GPa) = 34.84811 29.91279 132.35877
#
# Poissons Ratio (x) = -0.22660 0.32503
# Poissons Ratio (y) = -0.26398 1.34271
# Poissons Ratio (z) = 0.08558 0.30345
#
# Static dielectric constant tensor:
#      x y z
#    x 1.761780 0.000000 0.000000 
#    y 0.000000 1.659040 0.000000 
#    z 0.000000 0.000000 1.792980 
# 
# From -- ./inp_files/16746.got.cif
#   From: 2010.05.17/outbox.cif.g08.bks.cpg/sg36_9_cif.got.tgz:16746.got - 2010.06.03 17:41:39.
