data_PCOD9351063
_publ_section_title
;
Structure prediction by ZEFSAII (Michael W. Deem and Ramdas Pophale) SiO2 
 PCOD9351063
Probable space group: C M C 21
;
_chemical_formula_sum "Si O2"
_cell_formula_units_Z 64
_cell_length_a 8.042083
_cell_length_b 21.621208
_cell_length_c 19.015839
_cell_angle_alpha 90.000000
_cell_angle_beta 90.000000
_cell_angle_gamma 90.000000
_cell_volume 3306.465515
_symmetry_space_group_name_H-M "C M C 21"
_symmetry_group_IT_number 36
_symmetry_cell_setting 'orthorhombic'
loop_
_space_group_symop_operation_xyz
x,y,z
-x,-y,1/2+z
x,-y,1/2+z
-x,y,z
1/2+x,1/2+y,z
1/2-x,1/2-y,1/2+z
1/2+x,1/2-y,1/2+z
1/2-x,1/2+y,z
loop_
_atom_site_type_symbol
_atom_site_label
_atom_site_fract_x
_atom_site_fract_y
_atom_site_fract_z
Si Si1 0.195597 0.635961 0.017800
Si Si2 0.698028 0.002007 0.860561
Si Si3 0.201903 0.637254 0.855257
Si Si4 0.304971 0.754283 0.100423
Si Si5 0.204306 0.249119 0.259826
Si Si6 0.301396 0.631712 0.506340
Si Si7 0.700938 0.370882 0.844903
Si Si8 0.692403 0.499047 0.520423
O O1 0.278813 0.687275 0.065973
O O2 0.222032 0.565051 0.041571
O O3 0.000000 0.649149 0.017259
O O4 0.256762 0.641771 0.936746
O O5 0.500000 0.003302 0.875073
O O6 0.740908 0.938849 0.821363
O O7 0.744084 0.068351 0.828202
O O8 0.791382 0.998941 0.935380
O O9 0.260563 0.693091 0.807081
O O10 0.000000 0.640815 0.856673
O O11 0.500000 0.767040 0.104464
O O12 0.237803 0.754759 0.179779
O O13 0.231491 0.807835 0.051570
O O14 0.257210 0.185160 0.296072
O O15 0.000000 0.249089 0.259687
O O16 0.500000 0.623638 0.501153
O O17 0.239879 0.638713 0.425796
O O18 0.237913 0.566962 0.540050
O O19 0.500000 0.370483 0.845453
O O20 0.500000 0.494230 0.541208
#
# Coordination Sequence:
#
# PCOD9351063 Si02
#       8
#     8   8   8   8   8   8   8   8
#     4  10  19  33  55  78 101 130 165 209 257 301
#     4   9  16  27  48  78 105 126 156 204 257 300
#     4   8  15  30  52  73  93 124 163 200 240 289
#     4  11  22  33  49  73 102 136 170 207 249 299
#     4   9  18  33  50  69  96 131 170 206 244 293
#     4   9  18  33  54  76  99 130 164 204 251 296
#     4   9  17  32  54  74  95 129 169 207 249 297
#     4   9  17  31  52  77 103 130 165 207 251 299
#
# _framework density 19.356017000000001
#
# number of rings (size 3 to 8) (size 9 to 14) (size 15 to 20)
#    0.000    2.750    0.000    3.750    0.000    4.500 
#    0.000    2.500    0.000   13.500    0.000    0.000 
#    0.000    0.000    0.000    0.000    0.000    0.000 
#
# Total GULP energy -178335.059347 kJ/mol
# GULP energy per Si atom -5572.970605 kJ/mol
# Density = 1.931196 g / cm^3
# Si number density = 19.356017 Si / 1000 Ang^3
#
#
#
# Elastic Constant Matrix: (Units=GPa)
#
#
# Indices 1 2 3 4 5 6 
#
# 1 12.5481 -2.2230 4.7967 0.0000 0.0000 0.0000
# 2 -2.2230 97.3082 17.4976 0.0000 0.0000 0.0000
# 3 4.7967 17.4976 42.9796 0.0000 0.0000 0.0000
# 4 0.0000 0.0000 0.0000 -4.6216 0.0000 0.0000
# 5 0.0000 0.0000 0.0000 0.0000 11.2435 0.0000
# 6 0.0000 0.0000 0.0000 0.0000 0.0000 29.1469
#
#
#
# Elastic Compliance Matrix: (Units=1/GPa)
#
#
# Indices 1 2 3 4 5 6 
#
# 1 0.084606 0.003918 -0.011037 0.000000 0.000000 0.000000
# 2 0.003918 0.011270 -0.005025 0.000000 0.000000 0.000000
# 3 -0.011037 -0.005025 0.026545 0.000000 0.000000 0.000000
# 4 0.000000 0.000000 0.000000 -0.216375 0.000000 0.000000
# 5 0.000000 0.000000 0.000000 0.000000 0.088941 0.000000
# 6 0.000000 0.000000 0.000000 0.000000 0.000000 0.034309
#
#
# Mechanical properties :
#
#
# Convention : Reuss Voigt Hill
#
# Bulk Modulus (GPa) = 10.19051 21.44206 15.81628
# Shear Modulus (GPa) = 57.94065 16.00472 36.97268
#
# Velocity S-wave (km/s) = 5.47715 2.87864 4.37526
# Velocity P-wave (km/s) = 6.72868 4.70643 5.80627
#
# Compressibility (1/GPa) = 0.09813056
#
# Stress axis : x y z
#
# Youngs Moduli (GPa) = 11.81944 88.73309 37.67251
#
# Poissons Ratio (x) = -0.34761 0.41580
# Poissons Ratio (y) = -0.04630 0.18932
# Poissons Ratio (z) = 0.13045 0.44591
#
# Static dielectric constant tensor:
#      x y z
#    x 1.691090 0.000000 0.000000 
#    y 0.000000 1.703480 0.000000 
#    z 0.000000 0.000000 1.649030 
# 
# From -- ./inp_files/15823.got.cif
#   From: 2010.05.17/outbox.cif.g08.bks.cpg/sg36_8_cif.got.tgz:15823.got - 2010.06.03 17:41:39.
