data_PCOD9351092
_publ_section_title
;
Structure prediction by ZEFSAII (Michael W. Deem and Ramdas Pophale) SiO2 
 PCOD9351092
Probable space group: C M C 21
;
_chemical_formula_sum "Si O2"
_cell_formula_units_Z 64
_cell_length_a 7.921333
_cell_length_b 21.943791
_cell_length_c 14.367137
_cell_angle_alpha 90.000000
_cell_angle_beta 90.000000
_cell_angle_gamma 90.000000
_cell_volume 2497.354311
_symmetry_space_group_name_H-M "C M C 21"
_symmetry_group_IT_number 36
_symmetry_cell_setting 'orthorhombic'
loop_
_space_group_symop_operation_xyz
x,y,z
-x,-y,1/2+z
x,-y,1/2+z
-x,y,z
1/2+x,1/2+y,z
1/2-x,1/2-y,1/2+z
1/2+x,1/2-y,1/2+z
1/2-x,1/2+y,z
loop_
_atom_site_type_symbol
_atom_site_label
_atom_site_fract_x
_atom_site_fract_y
_atom_site_fract_z
Si Si1 0.805289 0.926076 0.974050
Si Si2 0.304544 0.039480 0.859136
Si Si3 0.299552 0.349771 0.796592
Si Si4 0.193647 0.217661 0.823345
Si Si5 0.802287 0.529668 0.190924
Si Si6 0.806907 0.350529 0.142489
Si Si7 0.304100 0.765628 0.531844
Si Si8 0.791468 0.603109 0.028492
O O1 0.699090 0.979874 0.926407
O O2 0.779224 0.867782 0.905799
O O3 0.000000 0.944061 0.963565
O O4 0.771076 0.904056 0.078737
O O5 0.500000 0.054624 0.842052
O O6 0.225359 0.019063 0.761880
O O7 0.230398 0.091785 0.923707
O O8 0.500000 0.349955 0.777099
O O9 0.222424 0.284179 0.776831
O O10 0.211477 0.405465 0.743814
O O11 0.238063 0.168274 0.744003
O O12 0.296071 0.224918 0.919830
O O13 0.000000 0.211288 0.850054
O O14 0.727980 0.547677 0.091978
O O15 0.000000 0.515192 0.178223
O O16 0.000000 0.366693 0.155211
O O17 0.791841 0.290064 0.078153
O O18 0.500000 0.756367 0.557297
O O19 0.240128 0.831454 0.566207
O O20 0.000000 0.602563 0.028432
#
# Coordination Sequence:
#
# PCOD9351092 Si02
#       8
#     8   8   8   8   8   8   8   8
#     4  10  20  36  58  83 115 149 188 242 298 347
#     4   9  18  35  58  84 113 149 200 249 291 349
#     4  10  19  33  56  83 114 148 192 243 293 348
#     4  12  24  38  57  84 121 160 199 242 300 363
#     4   9  17  32  57  84 112 151 200 246 298 349
#     4  12  24  39  61  89 119 157 202 245 301 364
#     4  11  22  39  60  87 125 162 202 250 302 361
#     4   9  19  36  57  84 117 156 199 247 297 351
#
# _framework density 25.627120999999999
#
# number of rings (size 3 to 8) (size 9 to 14) (size 15 to 20)
#    0.000    1.750    1.250    4.125    0.000    2.000 
#    2.250    2.500    0.000    0.000    0.000    0.000 
#    0.000    0.000    0.000    0.000    0.000    0.000 
#
# Total GULP energy -178998.693911 kJ/mol
# GULP energy per Si atom -5593.709185 kJ/mol
# Density = 2.556879 g / cm^3
# Si number density = 25.627121 Si / 1000 Ang^3
#
#
#
# Elastic Constant Matrix: (Units=GPa)
#
#
# Indices 1 2 3 4 5 6 
#
# 1 72.8888 2.3449 -3.8173 0.0000 0.0000 0.0000
# 2 2.3449 91.7917 25.8434 0.0000 0.0000 0.0000
# 3 -3.8173 25.8434 145.0450 0.0000 0.0000 0.0000
# 4 0.0000 0.0000 0.0000 57.5126 0.0000 0.0000
# 5 0.0000 0.0000 0.0000 0.0000 18.2916 0.0000
# 6 0.0000 0.0000 0.0000 0.0000 0.0000 4.8263
#
#
#
# Elastic Compliance Matrix: (Units=1/GPa)
#
#
# Indices 1 2 3 4 5 6 
#
# 1 0.013758 -0.000477 0.000447 0.000000 0.000000 0.000000
# 2 -0.000477 0.011486 -0.002059 0.000000 0.000000 0.000000
# 3 0.000447 -0.002059 0.007273 0.000000 0.000000 0.000000
# 4 0.000000 0.000000 0.000000 0.017387 0.000000 0.000000
# 5 0.000000 0.000000 0.000000 0.000000 0.054670 0.000000
# 6 0.000000 0.000000 0.000000 0.000000 0.000000 0.207196
#
#
# Mechanical properties :
#
#
# Convention : Reuss Voigt Hill
#
# Bulk Modulus (GPa) = 35.28724 39.82975 37.55849
# Shear Modulus (GPa) = 15.36589 35.14975 25.25782
#
# Velocity S-wave (km/s) = 2.45132 3.70751 3.14282
# Velocity P-wave (km/s) = 4.67026 5.82265 5.27800
#
# Compressibility (1/GPa) = 0.02833886
#
# Stress axis : x y z
#
# Youngs Moduli (GPa) = 72.68336 87.06135 137.49369
#
# Poissons Ratio (x) = 0.04156 -0.06148
# Poissons Ratio (y) = 0.03470 0.28311
# Poissons Ratio (z) = -0.03250 0.17927
#
# Static dielectric constant tensor:
#      x y z
#    x 1.882880 0.000000 0.000000 
#    y 0.000000 2.054600 0.000000 
#    z 0.000000 0.000000 2.120990 
# 
# From -- ./inp_files/11008.got.cif
#   From: 2010.05.17/outbox.cif.g08.bks.cpg/sg36_6_cif.got.tgz:11008.got - 2010.06.03 17:41:39.
