data_PCOD9351861
_publ_section_title
;
Structure prediction by ZEFSAII (Michael W. Deem and Ramdas Pophale) SiO2 
 PCOD9351861
Probable space group: C M C 21
;
_chemical_formula_sum "Si O2"
_cell_formula_units_Z 64
_cell_length_a 25.280915
_cell_length_b 5.058435
_cell_length_c 20.163980
_cell_angle_alpha 90.000000
_cell_angle_beta 90.000000
_cell_angle_gamma 90.000000
_cell_volume 2578.607374
_symmetry_space_group_name_H-M "C M C 21"
_symmetry_group_IT_number 36
_symmetry_cell_setting 'orthorhombic'
loop_
_space_group_symop_operation_xyz
x,y,z
-x,-y,1/2+z
x,-y,1/2+z
-x,y,z
1/2+x,1/2+y,z
1/2-x,1/2-y,1/2+z
1/2+x,1/2-y,1/2+z
1/2-x,1/2+y,z
loop_
_atom_site_type_symbol
_atom_site_label
_atom_site_fract_x
_atom_site_fract_y
_atom_site_fract_z
Si Si1 0.443401 0.324500 0.170850
Si Si2 0.394401 0.072772 0.053985
Si Si3 0.722569 0.252342 0.280096
Si Si4 0.325875 0.579816 0.061822
Si Si5 0.319716 0.288997 0.423036
Si Si6 0.060210 0.570750 0.778811
Si Si7 0.393915 0.789172 0.416390
Si Si8 0.152697 0.851640 0.700483
O O1 0.500000 0.432658 0.153445
O O2 0.429496 0.093092 0.119457
O O3 0.396994 0.524668 0.161347
O O4 0.442628 0.219922 0.246214
O O5 0.343767 0.273036 0.062989
O O6 0.374271 0.777865 0.043684
O O7 0.421560 0.182188 0.987781
O O8 0.727314 0.943571 0.261427
O O9 0.716708 0.293236 0.358186
O O10 0.677137 0.410325 0.243090
O O11 0.309162 0.686600 0.135209
O O12 0.293332 0.630995 0.993506
O O13 0.366439 0.504233 0.409383
O O14 0.345745 0.999391 0.420927
O O15 0.069699 0.622169 0.855845
O O16 0.000000 0.675776 0.762626
O O17 0.116603 0.667167 0.747462
#
# Coordination Sequence:
#
# PCOD9351861 Si02
#       8
#     8   8   8   8   8   8   8   8
#     4  10  21  36  60  91 126 175 215 252 306 369
#     4   9  18  34  55  87 122 158 212 246 298 360
#     4  12  27  42  66  96 122 162 210 260 324 383
#     4   9  19  35  64  88 112 165 201 246 315 368
#     4  10  20  41  64  87 120 159 208 256 313 371
#     4  11  22  35  59  92 125 169 212 250 307 371
#     4  10  20  36  61  88 122 168 200 255 308 361
#     4  11  22  41  64  87 134 162 210 261 319 369
#
# _framework density 24.819597999999999
#
# number of rings (size 3 to 8) (size 9 to 14) (size 15 to 20)
#    0.000    1.750    2.500    1.875    1.750    0.500 
#    0.000    1.250    0.000    4.500    0.000    0.000 
#    0.000    0.000    0.000    0.000    0.000    0.000 
#
# Total GULP energy -178209.704067 kJ/mol
# GULP energy per Si atom -5569.053252 kJ/mol
# Density = 2.476311 g / cm^3
# Si number density = 24.819598 Si / 1000 Ang^3
#
#
#
# Elastic Constant Matrix: (Units=GPa)
#
#
# Indices 1 2 3 4 5 6 
#
# 1 43.6492 -16.3959 -26.1767 0.0000 0.0000 0.0000
# 2 -16.3959 59.8290 -19.0699 0.0000 0.0000 0.0000
# 3 -26.1767 -19.0699 116.1048 0.0000 0.0000 0.0000
# 4 0.0000 0.0000 0.0000 29.1737 0.0000 0.0000
# 5 0.0000 0.0000 0.0000 0.0000 9.7120 0.0000
# 6 0.0000 0.0000 0.0000 0.0000 0.0000 16.0475
#
#
#
# Elastic Compliance Matrix: (Units=1/GPa)
#
#
# Indices 1 2 3 4 5 6 
#
# 1 0.033120 0.012089 0.009453 0.000000 0.000000 0.000000
# 2 0.012089 0.022050 0.006347 0.000000 0.000000 0.000000
# 3 0.009453 0.006347 0.011787 0.000000 0.000000 0.000000
# 4 0.000000 0.000000 0.000000 0.034277 0.000000 0.000000
# 5 0.000000 0.000000 0.000000 0.000000 0.102965 0.000000
# 6 0.000000 0.000000 0.000000 0.000000 0.000000 0.062315
#
#
# Mechanical properties :
#
#
# Convention : Reuss Voigt Hill
#
# Bulk Modulus (GPa) = 8.14757 10.69979 9.42368
# Shear Modulus (GPa) = 19.86907 29.73503 24.80205
#
# Velocity S-wave (km/s) = 2.83245 3.46504 3.16459
# Velocity P-wave (km/s) = 3.73990 4.50877 4.14221
#
# Compressibility (1/GPa) = 0.12273595
#
# Stress axis : x y z
#
# Youngs Moduli (GPa) = 30.19333 45.35050 84.84178
#
# Poissons Ratio (x) = -0.54826 -0.80199
# Poissons Ratio (y) = -0.36502 -0.53852
# Poissons Ratio (z) = -0.28541 -0.28786
#
# Static dielectric constant tensor:
#      x y z
#    x 2.051690 0.000000 0.000000 
#    y 0.000000 1.971220 0.000000 
#    z 0.000000 0.000000 2.114630 
# 
# From -- ./inp_files/16372.got.cif
#   From: 2010.05.17/outbox.cif.g08.bks.cpg/sg36_9_cif.got.tgz:16372.got - 2010.06.03 17:41:39.
