data_PCOD9351549
_publ_section_title
;
Structure prediction by ZEFSAII (Michael W. Deem and Ramdas Pophale) SiO2 
 PCOD9351549
Probable space group: C M C 21
;
_chemical_formula_sum "Si O2"
_cell_formula_units_Z 64
_cell_length_a 7.790861
_cell_length_b 18.981749
_cell_length_c 21.257754
_cell_angle_alpha 90.000000
_cell_angle_beta 90.000000
_cell_angle_gamma 90.000000
_cell_volume 3143.685264
_symmetry_space_group_name_H-M "C M C 21"
_symmetry_group_IT_number 36
_symmetry_cell_setting 'orthorhombic'
loop_
_space_group_symop_operation_xyz
x,y,z
-x,-y,1/2+z
x,-y,1/2+z
-x,y,z
1/2+x,1/2+y,z
1/2-x,1/2-y,1/2+z
1/2+x,1/2-y,1/2+z
1/2-x,1/2+y,z
loop_
_atom_site_type_symbol
_atom_site_label
_atom_site_fract_x
_atom_site_fract_y
_atom_site_fract_z
Si Si1 0.205740 0.799962 0.648990
Si Si2 0.204130 0.547734 0.763624
Si Si3 0.793682 0.453912 0.501373
Si Si4 0.788979 0.291858 0.266742
Si Si5 0.707018 0.207371 0.008269
Si Si6 0.707210 0.042216 0.381793
Si Si7 0.793712 0.205909 0.389224
Si Si8 0.204556 0.960394 0.642324
O O1 0.268855 0.750506 0.704947
O O2 0.245123 0.772452 0.579211
O O3 0.272396 0.880482 0.652994
O O4 0.000000 0.803738 0.654982
O O5 0.270742 0.627449 0.766662
O O6 0.272109 0.497795 0.819412
O O7 0.232049 0.512226 0.696191
O O8 0.000000 0.552871 0.773655
O O9 0.730799 0.372959 0.496984
O O10 0.729890 0.502076 0.444416
O O11 0.750301 0.480979 0.571045
O O12 0.000000 0.451367 0.496684
O O13 0.733285 0.250540 0.329155
O O14 0.000000 0.292273 0.266185
O O15 0.500000 0.205692 0.005299
O O16 0.770573 0.259482 0.954087
O O17 0.500000 0.037992 0.381785
O O18 0.752077 0.124092 0.382558
O O19 0.000000 0.212033 0.389882
O O20 0.000000 0.957891 0.646885
#
# Coordination Sequence:
#
# PCOD9351549 Si02
#       8
#     8   8   8   8   8   8   8   8
#     4   9  18  33  53  75 101 134 168 205 251 302
#     4  10  20  35  55  77 102 136 177 216 254 303
#     4   9  18  35  56  76 102 138 177 213 250 300
#     4   9  18  34  55  75  97 132 175 210 246 299
#     4   9  18  33  54  77 100 131 170 209 249 296
#     4  10  21  35  53  78 105 134 172 215 256 303
#     4  10  20  35  55  77 103 135 170 211 259 307
#     4  10  20  34  53  79 108 136 169 211 261 312
#
# _framework density 20.358274000000002
#
# number of rings (size 3 to 8) (size 9 to 14) (size 15 to 20)
#    0.000    2.500    0.000    1.875    0.000    7.000 
#    0.000    5.625    0.000    3.000    0.000    0.000 
#    0.000    0.000    0.000    0.000    0.000    0.000 
#
# Total GULP energy -178665.920153 kJ/mol
# GULP energy per Si atom -5583.310005 kJ/mol
# Density = 2.031194 g / cm^3
# Si number density = 20.358274 Si / 1000 Ang^3
#
#
#
# Elastic Constant Matrix: (Units=GPa)
#
#
# Indices 1 2 3 4 5 6 
#
# 1 23.3084 -5.6276 -7.8279 0.0000 0.0000 0.0000
# 2 -5.6276 337.6261 308.1088 0.0000 0.0000 0.0000
# 3 -7.8279 308.1088 364.6584 0.0000 0.0000 0.0000
# 4 0.0000 0.0000 0.0000 42.7785 0.0000 0.0000
# 5 0.0000 0.0000 0.0000 0.0000 11.6270 0.0000
# 6 0.0000 0.0000 0.0000 0.0000 0.0000 21.9493
#
#
#
# Elastic Compliance Matrix: (Units=1/GPa)
#
#
# Indices 1 2 3 4 5 6 
#
# 1 0.043238 -0.000552 0.001394 0.000000 0.000000 0.000000
# 2 -0.000552 0.012944 -0.010949 0.000000 0.000000 0.000000
# 3 0.001394 -0.010949 0.012023 0.000000 0.000000 0.000000
# 4 0.000000 0.000000 0.000000 0.023376 0.000000 0.000000
# 5 0.000000 0.000000 0.000000 0.000000 0.086007 0.000000
# 6 0.000000 0.000000 0.000000 0.000000 0.000000 0.045560
#
#
# Mechanical properties :
#
#
# Convention : Reuss Voigt Hill
#
# Bulk Modulus (GPa) = 20.83635 146.09995 83.46815
# Shear Modulus (GPa) = 19.27841 44.00027 31.63934
#
# Velocity S-wave (km/s) = 3.08061 4.65402 3.94652
# Velocity P-wave (km/s) = 4.78650 10.03992 7.86481
#
# Compressibility (1/GPa) = 0.04799305
#
# Stress axis : x y z
#
# Youngs Moduli (GPa) = 23.12779 77.25544 83.17412
#
# Poissons Ratio (x) = 0.04263 -0.11598
# Poissons Ratio (y) = 0.01276 0.91064
# Poissons Ratio (z) = -0.03225 0.84584
#
# Static dielectric constant tensor:
#      x y z
#    x 1.757520 0.000000 0.000000 
#    y 0.000000 1.701200 0.000000 
#    z 0.000000 0.000000 1.699610 
# 
# From -- ./inp_files/15583.got.cif
#   From: 2010.05.17/outbox.cif.g08.bks.cpg/sg36_8_cif.got.tgz:15583.got - 2010.06.03 17:41:39.
