data_PCOD9351515
_publ_section_title
;
Structure prediction by ZEFSAII (Michael W. Deem and Ramdas Pophale) SiO2 
 PCOD9351515
Probable space group: C M C 21
;
_chemical_formula_sum "Si O2"
_cell_formula_units_Z 64
_cell_length_a 8.981203
_cell_length_b 29.873459
_cell_length_c 12.404990
_cell_angle_alpha 90.000000
_cell_angle_beta 90.000000
_cell_angle_gamma 90.000000
_cell_volume 3328.253850
_symmetry_space_group_name_H-M "C M C 21"
_symmetry_group_IT_number 36
_symmetry_cell_setting 'orthorhombic'
loop_
_space_group_symop_operation_xyz
x,y,z
-x,-y,1/2+z
x,-y,1/2+z
-x,y,z
1/2+x,1/2+y,z
1/2-x,1/2-y,1/2+z
1/2+x,1/2-y,1/2+z
1/2-x,1/2+y,z
loop_
_atom_site_type_symbol
_atom_site_label
_atom_site_fract_x
_atom_site_fract_y
_atom_site_fract_z
Si Si1 0.678095 0.434542 0.176580
Si Si2 0.665353 0.679744 0.149213
Si Si3 0.821472 0.864218 0.347996
Si Si4 0.171067 0.081632 0.060585
Si Si5 0.175994 0.280283 0.455526
Si Si6 0.173938 0.184034 0.401739
Si Si7 0.820058 0.916990 0.928893
Si Si8 0.323360 0.024999 0.237385
O O1 0.500000 0.440709 0.189658
O O2 0.715880 0.387648 0.235164
O O3 0.761374 0.474761 0.235481
O O4 0.710700 0.434244 0.049467
O O5 0.500000 0.693562 0.110125
O O6 0.671062 0.626342 0.133969
O O7 0.678767 0.690686 0.273443
O O8 0.788054 0.701351 0.073999
O O9 0.781716 0.899552 0.443795
O O10 0.747685 0.816790 0.375162
O O11 0.000000 0.858576 0.354870
O O12 0.271063 0.046558 0.123520
O O13 0.000000 0.065042 0.052780
O O14 0.238216 0.229828 0.448920
O O15 0.000000 0.278835 0.434807
O O16 0.234861 0.134628 0.424535
O O17 0.000000 0.181849 0.436424
O O18 0.748061 0.946746 0.835289
O O19 0.000000 0.917129 0.912217
O O20 0.500000 0.026055 0.246137
#
# Coordination Sequence:
#
# PCOD9351515 Si02
#       8
#     8   8   8   8   8   8   8   8
#     4  10  23  41  64  88 113 156 206 246 288 347
#     4   9  17  34  56  77 107 150 197 240 283 338
#     4   9  20  39  60  85 116 153 200 243 284 342
#     4   9  17  34  60  81 105 148 197 240 277 338
#     4  10  20  33  55  88 121 153 191 239 300 352
#     4   9  18  35  58  83 113 153 194 238 291 345
#     4  10  21  42  66  86 114 155 206 248 284 346
#     4  12  25  38  57  88 123 150 185 242 307 360
#
# _framework density 19.229302000000001
#
# number of rings (size 3 to 8) (size 9 to 14) (size 15 to 20)
#    0.000    2.250    1.250    2.250    1.750    4.000 
#    0.000    3.750    0.000    0.000    0.000    0.000 
#    0.000    0.000    0.000    0.000    0.000    0.000 
#
# Total GULP energy -178484.072893 kJ/mol
# GULP energy per Si atom -5577.627278 kJ/mol
# Density = 1.918554 g / cm^3
# Si number density = 19.229302 Si / 1000 Ang^3
#
#
#
# Elastic Constant Matrix: (Units=GPa)
#
#
# Indices 1 2 3 4 5 6 
#
# 1 41.7187 41.7532 27.5316 0.0000 0.0000 0.0000
# 2 41.7532 117.7462 32.4423 0.0000 0.0000 0.0000
# 3 27.5316 32.4423 43.2795 0.0000 0.0000 0.0000
# 4 0.0000 0.0000 0.0000 18.8730 0.0000 0.0000
# 5 0.0000 0.0000 0.0000 0.0000 14.2793 0.0000
# 6 0.0000 0.0000 0.0000 0.0000 0.0000 19.3899
#
#
#
# Elastic Compliance Matrix: (Units=1/GPa)
#
#
# Indices 1 2 3 4 5 6 
#
# 1 0.051460 -0.011630 -0.024017 0.000000 0.000000 0.000000
# 2 -0.011630 0.013332 -0.002595 0.000000 0.000000 0.000000
# 3 -0.024017 -0.002595 0.040329 0.000000 0.000000 0.000000
# 4 0.000000 0.000000 0.000000 0.052986 0.000000 0.000000
# 5 0.000000 0.000000 0.000000 0.000000 0.070032 0.000000
# 6 0.000000 0.000000 0.000000 0.000000 0.000000 0.051573
#
#
# Mechanical properties :
#
#
# Convention : Reuss Voigt Hill
#
# Bulk Modulus (GPa) = 34.92181 45.13317 40.02749
# Shear Modulus (GPa) = 13.67083 17.24293 15.45688
#
# Velocity S-wave (km/s) = 2.66923 2.99774 2.83825
# Velocity P-wave (km/s) = 5.26307 5.95852 5.62156
#
# Compressibility (1/GPa) = 0.02863540
#
# Stress axis : x y z
#
# Youngs Moduli (GPa) = 19.43262 75.00691 24.79600
#
# Poissons Ratio (x) = 0.87237 0.59553
# Poissons Ratio (y) = 0.22601 0.06435
# Poissons Ratio (z) = 0.46672 0.19466
#
# Static dielectric constant tensor:
#      x y z
#    x 1.654420 0.000000 0.000000 
#    y 0.000000 1.682020 0.000000 
#    z 0.000000 0.000000 1.671450 
# 
# From -- ./inp_files/7229.got.cif
#   From: 2010.05.17/outbox.cif.g08.bks.cpg/sg36_4_cif.got.tgz:7229.got - 2010.06.03 17:41:39.
