data_PCOD9351652
_publ_section_title
;
Structure prediction by ZEFSAII (Michael W. Deem and Ramdas Pophale) SiO2 
 PCOD9351652
Probable space group: C M C 21
;
_chemical_formula_sum "Si O2"
_cell_formula_units_Z 48
_cell_length_a 8.647031
_cell_length_b 18.838205
_cell_length_c 16.693957
_cell_angle_alpha 90.000000
_cell_angle_beta 90.000000
_cell_angle_gamma 90.000000
_cell_volume 2719.354490
_symmetry_space_group_name_H-M "C M C 21"
_symmetry_group_IT_number 36
_symmetry_cell_setting 'orthorhombic'
loop_
_space_group_symop_operation_xyz
x,y,z
-x,-y,1/2+z
x,-y,1/2+z
-x,y,z
1/2+x,1/2+y,z
1/2-x,1/2-y,1/2+z
1/2+x,1/2-y,1/2+z
1/2-x,1/2+y,z
loop_
_atom_site_type_symbol
_atom_site_label
_atom_site_fract_x
_atom_site_fract_y
_atom_site_fract_z
Si Si1 0.315781 0.081850 0.630270
Si Si2 0.682301 0.339140 0.285683
Si Si3 0.683551 0.155314 0.956905
Si Si4 0.313794 0.575571 0.113111
Si Si5 0.317664 0.291257 0.708495
Si Si6 0.183519 0.211869 0.555753
O O1 0.500000 0.084182 0.623694
O O2 0.264306 0.116343 0.715062
O O3 0.239821 0.131255 0.561116
O O4 0.254216 0.002197 0.624523
O O5 0.500000 0.347537 0.276566
O O6 0.737450 0.362091 0.373140
O O7 0.728174 0.256414 0.272468
O O8 0.500000 0.143664 0.951714
O O9 0.749628 0.110342 0.031271
O O10 0.708084 0.238779 0.978731
O O11 0.500000 0.573685 0.109194
O O12 0.271550 0.628317 0.187034
O O13 0.500000 0.288505 0.725874
O O14 0.280608 0.250610 0.625410
O O15 0.000000 0.214862 0.574913
#
# Coordination Sequence:
#
# PCOD9351652 Si02
#       6
#     8   8   8   8   8   8
#     4  11  21  34  54  78 107 141 178 217 259 312
#     4  11  21  34  54  78 106 138 174 218 264 310
#     4  10  20  35  55  79 106 136 173 217 264 312
#     4  10  20  35  55  79 107 139 176 215 262 317
#     4   9  17  31  52  75 100 131 168 209 251 303
#     4   9  17  31  52  75 100 131 169 210 252 304
#
# _framework density 17.651247000000001
#
# number of rings (size 3 to 8) (size 9 to 14) (size 15 to 20)
#    0.000    2.000    0.000    7.000    0.000    4.000 
#    0.000    1.667    0.000    6.000    0.000    0.000 
#    0.000    0.000    0.000    0.000    0.000    0.000 
#
# Total GULP energy -133805.007762 kJ/mol
# GULP energy per Si atom -5575.208657 kJ/mol
# Density = 1.761107 g / cm^3
# Si number density = 17.651247 Si / 1000 Ang^3
#
#
#
# Elastic Constant Matrix: (Units=GPa)
#
#
# Indices 1 2 3 4 5 6 
#
# 1 62.6679 27.3770 15.0877 0.0000 0.0000 0.0000
# 2 27.3770 129.3488 24.3460 0.0000 0.0000 0.0000
# 3 15.0877 24.3460 63.4701 0.0000 0.0000 0.0000
# 4 0.0000 0.0000 0.0000 15.3659 0.0000 0.0000
# 5 0.0000 0.0000 0.0000 0.0000 26.4245 0.0000
# 6 0.0000 0.0000 0.0000 0.0000 0.0000 27.3086
#
#
#
# Elastic Compliance Matrix: (Units=1/GPa)
#
#
# Indices 1 2 3 4 5 6 
#
# 1 0.018117 -0.003259 -0.003056 0.000000 0.000000 0.000000
# 2 -0.003259 0.008919 -0.002646 0.000000 0.000000 0.000000
# 3 -0.003056 -0.002646 0.017497 0.000000 0.000000 0.000000
# 4 0.000000 0.000000 0.000000 0.065079 0.000000 0.000000
# 5 0.000000 0.000000 0.000000 0.000000 0.037844 0.000000
# 6 0.000000 0.000000 0.000000 0.000000 0.000000 0.036619
#
#
# Mechanical properties :
#
#
# Convention : Reuss Voigt Hill
#
# Bulk Modulus (GPa) = 37.58150 43.23422 40.40786
# Shear Modulus (GPa) = 23.71154 26.39820 25.05487
#
# Velocity S-wave (km/s) = 3.66913 3.87142 3.77163
# Velocity P-wave (km/s) = 6.26796 6.67313 6.47372
#
# Compressibility (1/GPa) = 0.02660883
#
# Stress axis : x y z
#
# Youngs Moduli (GPa) = 55.19744 112.12080 57.15224
#
# Poissons Ratio (x) = 0.36542 0.17468
# Poissons Ratio (y) = 0.17990 0.15125
# Poissons Ratio (z) = 0.16871 0.29672
#
# Static dielectric constant tensor:
#      x y z
#    x 1.587160 0.000000 0.000000 
#    y 0.000000 1.631740 0.000000 
#    z 0.000000 0.000000 1.599240 
# 
# From -- ./inp_files/13556.got.cif
#   From: 2010.05.17/outbox.cif.g08.bks.cpg/sg36_7_cif.got.tgz:13556.got - 2010.06.03 17:41:39.
