data_PCOD9351634
_publ_section_title
;
Structure prediction by ZEFSAII (Michael W. Deem and Ramdas Pophale) SiO2 
 PCOD9351634
Probable space group: C M C 21
;
_chemical_formula_sum "Si O2"
_cell_formula_units_Z 52
_cell_length_a 16.543290
_cell_length_b 31.229269
_cell_length_c 4.903124
_cell_angle_alpha 90.000000
_cell_angle_beta 90.000000
_cell_angle_gamma 90.000000
_cell_volume 2533.124750
_symmetry_space_group_name_H-M "C M C 21"
_symmetry_group_IT_number 36
_symmetry_cell_setting 'orthorhombic'
loop_
_space_group_symop_operation_xyz
x,y,z
-x,-y,1/2+z
x,-y,1/2+z
-x,y,z
1/2+x,1/2+y,z
1/2-x,1/2-y,1/2+z
1/2+x,1/2-y,1/2+z
1/2-x,1/2+y,z
loop_
_atom_site_type_symbol
_atom_site_label
_atom_site_fract_x
_atom_site_fract_y
_atom_site_fract_z
Si Si1 0.904125 0.293219 0.951510
Si Si2 0.181962 0.029149 0.752936
Si Si3 0.000000 0.124953 0.188598
Si Si4 0.249340 0.663665 0.553984
Si Si5 0.500000 0.322700 0.184716
Si Si6 0.500000 0.475276 0.127999
Si Si7 0.684731 0.613314 0.049421
Si Si8 0.137177 0.238147 0.456304
O O1 0.847198 0.331423 0.058858
O O2 0.872922 0.278758 0.654174
O O3 0.000000 0.301601 0.943665
O O4 0.887612 0.253932 0.158721
O O5 0.198970 0.988922 0.952750
O O6 0.217384 0.070682 0.900329
O O7 0.086357 0.041068 0.722430
O O8 0.088997 0.107798 0.113241
O O9 0.000000 0.168179 0.003393
O O10 0.000000 0.133205 0.512645
O O11 0.292419 0.650616 0.835171
O O12 0.280673 0.711167 0.468668
O O13 0.276406 0.628690 0.331856
O O14 0.425002 0.296073 0.078160
O O15 0.500000 0.520206 0.301916
#
# Coordination Sequence:
#
# PCOD9351634 Si02
#       8
#     8   8   4   8   4   4   8   8
#     4  12  24  39  59  79 109 147 187 231 280 329
#     4  10  20  35  53  76 105 141 181 218 262 317
#     4  12  21  36  52  79 112 154 184 228 274 307
#     4  12  25  38  55  84 112 143 187 231 277 324
#     4  12  20  34  57  77 108 144 200 228 256 327
#     4   8  15  28  47  70 100 134 176 214 242 298
#     4  12  23  37  57  80 114 147 183 227 272 326
#     4  12  21  38  57  79 109 146 190 234 269 314
#
# _framework density 20.528003999999999
#
# number of rings (size 3 to 8) (size 9 to 14) (size 15 to 20)
#    0.000    0.615    4.615    5.077    0.000    0.000 
#    0.000    4.615    0.000    0.000    0.000    0.000 
#    0.000   12.308    0.000    0.000    0.000    0.000 
#
# Total GULP energy -145131.266579 kJ/mol
# GULP energy per Si atom -5581.971792 kJ/mol
# Density = 2.048128 g / cm^3
# Si number density = 20.528004 Si / 1000 Ang^3
#
#
#
# Elastic Constant Matrix: (Units=GPa)
#
#
# Indices 1 2 3 4 5 6 
#
# 1 93.8159 19.3734 5.9033 0.0000 0.0000 0.0000
# 2 19.3734 39.6718 5.8486 0.0000 0.0000 0.0000
# 3 5.9033 5.8486 97.6760 0.0000 0.0000 0.0000
# 4 0.0000 0.0000 0.0000 25.9405 0.0000 0.0000
# 5 0.0000 0.0000 0.0000 0.0000 13.3175 0.0000
# 6 0.0000 0.0000 0.0000 0.0000 0.0000 8.8530
#
#
#
# Elastic Compliance Matrix: (Units=1/GPa)
#
#
# Indices 1 2 3 4 5 6 
#
# 1 0.011868 -0.005741 -0.000374 0.000000 0.000000 0.000000
# 2 -0.005741 0.028208 -0.001342 0.000000 0.000000 0.000000
# 3 -0.000374 -0.001342 0.010341 0.000000 0.000000 0.000000
# 4 0.000000 0.000000 0.000000 0.038550 0.000000 0.000000
# 5 0.000000 0.000000 0.000000 0.000000 0.075089 0.000000
# 6 0.000000 0.000000 0.000000 0.000000 0.000000 0.112956
#
#
# Mechanical properties :
#
#
# Convention : Reuss Voigt Hill
#
# Bulk Modulus (GPa) = 28.16538 32.60158 30.38348
# Shear Modulus (GPa) = 16.46037 22.95809 19.70923
#
# Velocity S-wave (km/s) = 2.83477 3.34785 3.10193
# Velocity P-wave (km/s) = 4.94619 5.55518 5.25951
#
# Compressibility (1/GPa) = 0.03550458
#
# Stress axis : x y z
#
# Youngs Moduli (GPa) = 84.25917 35.45082 96.70368
#
# Poissons Ratio (x) = 0.20351 0.03612
# Poissons Ratio (y) = 0.48370 0.12978
# Poissons Ratio (z) = 0.03147 0.04758
#
# Static dielectric constant tensor:
#      x y z
#    x 1.822630 0.000000 0.000000 
#    y 0.000000 1.807510 0.000000 
#    z 0.000000 0.000000 1.751550 
# 
# From -- ./inp_files/1174.got.cif
#   From: 2010.05.17/outbox.cif.g08.bks.cpg/sg36_1_cif.got.tgz:1174.got - 2010.06.03 17:41:39.
