data_PCOD9351595
_publ_section_title
;
Structure prediction by ZEFSAII (Michael W. Deem and Ramdas Pophale) SiO2 
 PCOD9351595
Probable space group: C M C 21
;
_chemical_formula_sum "Si O2"
_cell_formula_units_Z 64
_cell_length_a 9.153047
_cell_length_b 29.867947
_cell_length_c 12.447675
_cell_angle_alpha 90.000000
_cell_angle_beta 90.000000
_cell_angle_gamma 90.000000
_cell_volume 3402.979283
_symmetry_space_group_name_H-M "C M C 21"
_symmetry_group_IT_number 36
_symmetry_cell_setting 'orthorhombic'
loop_
_space_group_symop_operation_xyz
x,y,z
-x,-y,1/2+z
x,-y,1/2+z
-x,y,z
1/2+x,1/2+y,z
1/2-x,1/2-y,1/2+z
1/2+x,1/2-y,1/2+z
1/2-x,1/2+y,z
loop_
_atom_site_type_symbol
_atom_site_label
_atom_site_fract_x
_atom_site_fract_y
_atom_site_fract_z
Si Si1 0.824708 0.974677 0.934710
Si Si2 0.332481 0.225636 0.731483
Si Si3 0.662711 0.168076 0.519973
Si Si4 0.668607 0.815309 0.773995
Si Si5 0.671790 0.409296 0.122351
Si Si6 0.176626 0.582370 0.244858
Si Si7 0.175610 0.633267 0.824739
Si Si8 0.674608 0.936296 0.498853
O O1 0.752774 0.946008 0.838714
O O2 0.000000 0.974456 0.922658
O O3 0.788924 0.952308 0.050844
O O4 0.760452 0.024353 0.939330
O O5 0.500000 0.233632 0.764301
O O6 0.330548 0.204699 0.612648
O O7 0.250564 0.272292 0.730870
O O8 0.272734 0.184396 0.804811
O O9 0.500000 0.146317 0.526986
O O10 0.675399 0.188103 0.402862
O O11 0.785590 0.131813 0.544300
O O12 0.500000 0.813606 0.738767
O O13 0.722677 0.865391 0.748531
O O14 0.500000 0.410332 0.145464
O O15 0.758672 0.398237 0.231043
O O16 0.209405 0.564934 0.125172
O O17 0.000000 0.581035 0.261121
O O18 0.000000 0.634345 0.810317
O O19 0.207630 0.610560 0.938722
O O20 0.500000 0.943753 0.488233
#
# Coordination Sequence:
#
# PCOD9351595 Si02
#       8
#     8   8   8   8   8   8   8   8
#     4  11  24  39  58  87 120 151 188 241 303 356
#     4   9  19  34  55  83 115 152 192 236 291 346
#     4   9  18  35  55  78 109 148 193 240 287 340
#     4  10  20  35  58  85 114 149 193 242 288 341
#     4  10  20  34  56  84 111 144 188 241 292 344
#     4  10  22  41  63  88 117 154 202 247 288 348
#     4   9  20  39  59  82 116 156 197 242 288 344
#     4  10  23  41  62  87 116 156 203 243 291 349
#
# _framework density 18.80705
#
# number of rings (size 3 to 8) (size 9 to 14) (size 15 to 20)
#    0.000    2.250    1.250    1.500    1.750    6.500 
#    0.000    1.250    0.000    0.000    0.000    0.000 
#    0.000    0.000    0.000    0.000    0.000    0.000 
#
# Total GULP energy -178442.941126 kJ/mol
# GULP energy per Si atom -5576.341910 kJ/mol
# Density = 1.876424 g / cm^3
# Si number density = 18.807050 Si / 1000 Ang^3
#
#
#
# Elastic Constant Matrix: (Units=GPa)
#
#
# Indices 1 2 3 4 5 6 
#
# 1 24.5371 33.9302 18.8227 0.0000 0.0000 0.0000
# 2 33.9302 115.8824 29.4833 0.0000 0.0000 0.0000
# 3 18.8227 29.4833 52.6086 0.0000 0.0000 0.0000
# 4 0.0000 0.0000 0.0000 11.2451 0.0000 0.0000
# 5 0.0000 0.0000 0.0000 0.0000 18.9164 0.0000
# 6 0.0000 0.0000 0.0000 0.0000 0.0000 29.4234
#
#
#
# Elastic Compliance Matrix: (Units=1/GPa)
#
#
# Indices 1 2 3 4 5 6 
#
# 1 0.081298 -0.019131 -0.018366 0.000000 0.000000 0.000000
# 2 -0.019131 0.014566 -0.001319 0.000000 0.000000 0.000000
# 3 -0.018366 -0.001319 0.026318 0.000000 0.000000 0.000000
# 4 0.000000 0.000000 0.000000 0.088927 0.000000 0.000000
# 5 0.000000 0.000000 0.000000 0.000000 0.052864 0.000000
# 6 0.000000 0.000000 0.000000 0.000000 0.000000 0.033987
#
#
# Mechanical properties :
#
#
# Convention : Reuss Voigt Hill
#
# Bulk Modulus (GPa) = 22.44585 39.72229 31.08407
# Shear Modulus (GPa) = 12.80600 19.30312 16.05456
#
# Velocity S-wave (km/s) = 2.61227 3.20719 2.92489
# Velocity P-wave (km/s) = 4.58904 5.90606 5.28871
#
# Compressibility (1/GPa) = 0.04455166
#
# Stress axis : x y z
#
# Youngs Moduli (GPa) = 12.30046 68.65079 37.99641
#
# Poissons Ratio (x) = 1.31337 0.69783
# Poissons Ratio (y) = 0.23532 0.05010
# Poissons Ratio (z) = 0.22591 0.09052
#
# Static dielectric constant tensor:
#      x y z
#    x 1.652080 0.000000 0.000000 
#    y 0.000000 1.649510 0.000000 
#    z 0.000000 0.000000 1.654460 
# 
# From -- ./inp_files/7249.got.cif
#   From: 2010.05.17/outbox.cif.g08.bks.cpg/sg36_4_cif.got.tgz:7249.got - 2010.06.03 17:41:39.
