data_PCOD9351881
_publ_section_title
;
Structure prediction by ZEFSAII (Michael W. Deem and Ramdas Pophale) SiO2 
 PCOD9351881
Probable space group: C M C 21
;
_chemical_formula_sum "Si O2"
_cell_formula_units_Z 64
_cell_length_a 8.801821
_cell_length_b 15.561587
_cell_length_c 23.789126
_cell_angle_alpha 90.000000
_cell_angle_beta 90.000000
_cell_angle_gamma 90.000000
_cell_volume 3258.403802
_symmetry_space_group_name_H-M "C M C 21"
_symmetry_group_IT_number 36
_symmetry_cell_setting 'orthorhombic'
loop_
_space_group_symop_operation_xyz
x,y,z
-x,-y,1/2+z
x,-y,1/2+z
-x,y,z
1/2+x,1/2+y,z
1/2-x,1/2-y,1/2+z
1/2+x,1/2-y,1/2+z
1/2-x,1/2+y,z
loop_
_atom_site_type_symbol
_atom_site_label
_atom_site_fract_x
_atom_site_fract_y
_atom_site_fract_z
Si Si1 0.319670 0.835099 0.668900
Si Si2 0.821817 0.100770 0.543076
Si Si3 0.817980 0.344932 0.435234
Si Si4 0.681486 0.347694 0.914901
Si Si5 0.819156 0.502973 0.848701
Si Si6 0.321749 0.605011 0.052958
Si Si7 0.179819 0.654226 0.656128
Si Si8 0.180754 0.999229 0.727294
O O1 0.500000 0.834681 0.675040
O O2 0.273646 0.860404 0.605259
O O3 0.251595 0.741315 0.679968
O O4 0.246864 0.907606 0.708224
O O5 0.784579 0.128490 0.479808
O O6 0.723017 0.146651 0.590401
O O7 0.000000 0.121288 0.553205
O O8 0.803175 0.998141 0.548689
O O9 0.783092 0.252747 0.407877
O O10 0.779606 0.423367 0.394043
O O11 0.733660 0.355593 0.494335
O O12 0.000000 0.346949 0.445798
O O13 0.500000 0.360392 0.906602
O O14 0.770792 0.411849 0.874803
O O15 0.732742 0.517452 0.790602
O O16 0.000000 0.506052 0.839127
O O17 0.500000 0.623144 0.062593
O O18 0.251243 0.571889 0.686646
O O19 0.000000 0.654451 0.663319
O O20 0.000000 0.998414 0.721948
#
# Coordination Sequence:
#
# PCOD9351881 Si02
#       8
#     8   8   8   8   8   8   8   8
#     4  12  25  43  67  95 129 168 211 263 321 381
#     4  10  20  36  62  94 132 170 209 257 314 375
#     4  10  22  39  63  92 127 167 210 257 313 376
#     4  10  21  40  63  90 124 167 209 256 314 375
#     4  11  24  42  63  91 124 162 212 267 317 373
#     4  11  21  36  63  97 131 166 209 258 315 379
#     4  12  25  42  67  98 131 168 211 260 317 383
#     4  12  26  46  68  91 124 168 217 268 319 376
#
# _framework density 19.641518999999999
#
# number of rings (size 3 to 8) (size 9 to 14) (size 15 to 20)
#    0.000    1.000    2.500    4.875    0.000    4.000 
#    0.000    3.750    0.000    0.000    0.000    0.000 
#    0.000    0.000    0.000    0.000    0.000    0.000 
#
# Total GULP energy -179092.739633 kJ/mol
# GULP energy per Si atom -5596.648114 kJ/mol
# Density = 1.959681 g / cm^3
# Si number density = 19.641519 Si / 1000 Ang^3
#
#
#
# Elastic Constant Matrix: (Units=GPa)
#
#
# Indices 1 2 3 4 5 6 
#
# 1 94.2118 14.4530 16.5356 0.0000 0.0000 0.0000
# 2 14.4530 59.6232 -13.9473 0.0000 0.0000 0.0000
# 3 16.5356 -13.9473 38.8232 0.0000 0.0000 0.0000
# 4 0.0000 0.0000 0.0000 3.5618 0.0000 0.0000
# 5 0.0000 0.0000 0.0000 0.0000 32.1684 0.0000
# 6 0.0000 0.0000 0.0000 0.0000 0.0000 30.9813
#
#
#
# Elastic Compliance Matrix: (Units=1/GPa)
#
#
# Indices 1 2 3 4 5 6 
#
# 1 0.012570 -0.004694 -0.007040 0.000000 0.000000 0.000000
# 2 -0.004694 0.020064 0.009207 0.000000 0.000000 0.000000
# 3 -0.007040 0.009207 0.032064 0.000000 0.000000 0.000000
# 4 0.000000 0.000000 0.000000 0.280757 0.000000 0.000000
# 5 0.000000 0.000000 0.000000 0.000000 0.031086 0.000000
# 6 0.000000 0.000000 0.000000 0.000000 0.000000 0.032278
#
#
# Mechanical properties :
#
#
# Convention : Reuss Voigt Hill
#
# Bulk Modulus (GPa) = 16.76622 25.19344 20.97983
# Shear Modulus (GPa) = 11.52728 25.05009 18.28868
#
# Velocity S-wave (km/s) = 2.42520 3.57510 3.05474
# Velocity P-wave (km/s) = 4.04929 5.46775 4.81108
#
# Compressibility (1/GPa) = 0.05964374
#
# Stress axis : x y z
#
# Youngs Moduli (GPa) = 79.55355 49.84149 31.18761
#
# Poissons Ratio (x) = 0.23395 0.21957
# Poissons Ratio (y) = 0.37342 -0.28715
# Poissons Ratio (z) = 0.56007 -0.45890
#
# Static dielectric constant tensor:
#      x y z
#    x 1.661200 0.000000 0.000000 
#    y 0.000000 1.690680 0.000000 
#    z 0.000000 0.000000 1.663000 
# 
# From -- ./inp_files/16666.got.cif
#   From: 2010.05.17/outbox.cif.g08.bks.cpg/sg36_9_cif.got.tgz:16666.got - 2010.06.03 17:41:39.
