data_PCOD9351125
_publ_section_title
;
Structure prediction by ZEFSAII (Michael W. Deem and Ramdas Pophale) SiO2 
 PCOD9351125
Probable space group: C M C 21
;
_chemical_formula_sum "Si O2"
_cell_formula_units_Z 52
_cell_length_a 10.048866
_cell_length_b 21.165682
_cell_length_c 11.969514
_cell_angle_alpha 90.000000
_cell_angle_beta 90.000000
_cell_angle_gamma 90.000000
_cell_volume 2545.809126
_symmetry_space_group_name_H-M "C M C 21"
_symmetry_group_IT_number 36
_symmetry_cell_setting 'orthorhombic'
loop_
_space_group_symop_operation_xyz
x,y,z
-x,-y,1/2+z
x,-y,1/2+z
-x,y,z
1/2+x,1/2+y,z
1/2-x,1/2-y,1/2+z
1/2+x,1/2-y,1/2+z
1/2-x,1/2+y,z
loop_
_atom_site_type_symbol
_atom_site_label
_atom_site_fract_x
_atom_site_fract_y
_atom_site_fract_z
Si Si1 0.260777 0.441638 0.082720
Si Si2 0.500000 0.232562 0.833809
Si Si3 0.154894 0.421111 0.639434
Si Si4 0.646182 0.578306 0.814169
Si Si5 0.732054 0.817770 0.464817
Si Si6 0.500000 0.730040 0.085668
Si Si7 0.000000 0.367216 0.148888
Si Si8 0.841280 0.065326 0.338488
O O1 0.228192 0.516858 0.087291
O O2 0.359891 0.422463 0.180999
O O3 0.126432 0.408457 0.121643
O O4 0.311650 0.416232 0.965055
O O5 0.500000 0.277295 0.722887
O O6 0.500000 0.163288 0.772691
O O7 0.368838 0.233531 0.911601
O O8 0.158991 0.363742 0.552422
O O9 0.245557 0.403804 0.746769
O O10 0.000000 0.435378 0.667095
O O11 0.500000 0.580077 0.866271
O O12 0.701687 0.508788 0.838097
O O13 0.723636 0.636789 0.863597
O O14 0.865650 0.794701 0.527624
O O15 0.500000 0.805442 0.071820
O O16 0.000000 0.069214 0.312886
#
# Coordination Sequence:
#
# PCOD9351125 Si02
#       8
#     8   4   8   8   8   4   4   8
#     4  11  20  38  64  93 141 169 222 274 342 419
#     4  10  24  47  69  98 126 175 234 281 347 400
#     4  11  24  37  63 104 130 177 220 277 349 408
#     4  10  19  33  61  94 127 179 220 266 330 410
#     4  12  21  44  72  94 134 171 234 282 334 414
#     4  10  26  46  69  98 129 180 238 289 335 386
#     4  10  22  41  62  96 129 173 218 276 330 396
#     4  10  23  37  55  94 144 178 212 267 341 414
#
# _framework density 20.425726000000001
#
# number of rings (size 3 to 8) (size 9 to 14) (size 15 to 20)
#    0.462    0.923    5.385    0.462    2.154    0.615 
#    2.769    0.769    1.692    0.000    0.000    0.000 
#    0.000    0.000    0.000    0.000    0.000    0.000 
#
# Total GULP energy -144893.708123 kJ/mol
# GULP energy per Si atom -5572.834928 kJ/mol
# Density = 2.037924 g / cm^3
# Si number density = 20.425726 Si / 1000 Ang^3
#
#
#
# Elastic Constant Matrix: (Units=GPa)
#
#
# Indices 1 2 3 4 5 6 
#
# 1 118.7026 17.6484 49.8853 0.0000 0.0000 0.0000
# 2 17.6484 24.0756 11.0091 0.0000 0.0000 0.0000
# 3 49.8853 11.0091 133.6136 0.0000 0.0000 0.0000
# 4 0.0000 0.0000 0.0000 23.3546 0.0000 0.0000
# 5 0.0000 0.0000 0.0000 0.0000 39.1068 0.0000
# 6 0.0000 0.0000 0.0000 0.0000 0.0000 56.8401
#
#
#
# Elastic Compliance Matrix: (Units=1/GPa)
#
#
# Indices 1 2 3 4 5 6 
#
# 1 0.010850 -0.006340 -0.003528 0.000000 0.000000 0.000000
# 2 -0.006340 0.046867 -0.001495 0.000000 0.000000 0.000000
# 3 -0.003528 -0.001495 0.008925 0.000000 0.000000 0.000000
# 4 0.000000 0.000000 0.000000 0.042818 0.000000 0.000000
# 5 0.000000 0.000000 0.000000 0.000000 0.025571 0.000000
# 6 0.000000 0.000000 0.000000 0.000000 0.000000 0.017593
#
#
# Mechanical properties :
#
#
# Convention : Reuss Voigt Hill
#
# Bulk Modulus (GPa) = 22.77102 48.16417 35.46760
# Shear Modulus (GPa) = 26.31742 37.05023 31.68383
#
# Velocity S-wave (km/s) = 3.59339 4.26361 3.94277
# Velocity P-wave (km/s) = 5.32813 6.91876 6.17487
#
# Compressibility (1/GPa) = 0.04391546
#
# Stress axis : x y z
#
# Youngs Moduli (GPa) = 92.16692 21.33710 112.04749
#
# Poissons Ratio (x) = 0.13528 0.39536
# Poissons Ratio (y) = 0.58433 0.16746
# Poissons Ratio (z) = 0.32521 0.03189
#
# Static dielectric constant tensor:
#      x y z
#    x 1.823960 0.000000 0.000000 
#    y 0.000000 1.748970 0.000000 
#    z 0.000000 0.000000 1.785500 
# 
# From -- ./inp_files/6936.got.cif
#   From: 2010.05.17/outbox.cif.g08.bks.cpg/sg36_4_cif.got.tgz:6936.got - 2010.06.03 17:41:39.
