data_PCOD9351755
_publ_section_title
;
Structure prediction by ZEFSAII (Michael W. Deem and Ramdas Pophale) SiO2 
 PCOD9351755
Probable space group: C M C 21
;
_chemical_formula_sum "Si O2"
_cell_formula_units_Z 64
_cell_length_a 9.070735
_cell_length_b 15.010923
_cell_length_c 23.720510
_cell_angle_alpha 90.000000
_cell_angle_beta 90.000000
_cell_angle_gamma 90.000000
_cell_volume 3229.787124
_symmetry_space_group_name_H-M "C M C 21"
_symmetry_group_IT_number 36
_symmetry_cell_setting 'orthorhombic'
loop_
_space_group_symop_operation_xyz
x,y,z
-x,-y,1/2+z
x,-y,1/2+z
-x,y,z
1/2+x,1/2+y,z
1/2-x,1/2-y,1/2+z
1/2+x,1/2-y,1/2+z
1/2-x,1/2+y,z
loop_
_atom_site_type_symbol
_atom_site_label
_atom_site_fract_x
_atom_site_fract_y
_atom_site_fract_z
Si Si1 0.169869 0.298005 0.867230
Si Si2 0.823374 0.069556 0.733148
Si Si3 0.327101 0.756880 0.255707
Si Si4 0.175257 0.830050 0.982174
Si Si5 0.824405 0.330895 0.555944
Si Si6 0.176533 0.962849 0.466671
Si Si7 0.171429 0.511613 0.849402
Si Si8 0.826346 0.897634 0.667907
O O1 0.261094 0.250511 0.818222
O O2 0.239473 0.288991 0.928865
O O3 0.175159 0.404061 0.854283
O O4 0.000000 0.268715 0.866209
O O5 0.759783 0.167023 0.722286
O O6 0.752193 0.039744 0.792382
O O7 0.000000 0.070463 0.738072
O O8 0.782951 0.997223 0.685818
O O9 0.500000 0.777604 0.257923
O O10 0.308708 0.663952 0.223061
O O11 0.000000 0.823711 0.970860
O O12 0.210007 0.934936 0.985696
O O13 0.208326 0.770541 0.036736
O O14 0.748235 0.395162 0.510358
O O15 0.763788 0.356996 0.616750
O O16 0.000000 0.342887 0.553927
O O17 0.245822 0.951919 0.404593
O O18 0.000000 0.952421 0.464553
O O19 0.000000 0.539175 0.848938
O O20 0.000000 0.897622 0.652971
#
# Coordination Sequence:
#
# PCOD9351755 Si02
#       8
#     8   8   8   8   8   8   8   8
#     4  10  20  35  60  92 125 160 201 250 303 363
#     4  11  23  40  62  90 121 160 206 251 307 369
#     4  11  23  40  62  90 123 161 203 253 308 365
#     4   9  21  40  60  86 121 162 201 245 304 363
#     4  11  24  41  64  90 120 160 207 256 305 361
#     4  10  21  39  62  88 122 162 204 248 303 366
#     4  10  20  36  60  91 127 161 200 252 307 362
#     4  10  24  45  64  85 121 164 206 251 305 367
#
# _framework density 19.815548
#
# number of rings (size 3 to 8) (size 9 to 14) (size 15 to 20)
#    0.000    1.750    1.250    2.250    1.750    5.500 
#    0.000    3.750    0.000    0.000    0.000    0.000 
#    0.000    0.000    0.000    0.000    0.000    0.000 
#
# Total GULP energy -178895.432960 kJ/mol
# GULP energy per Si atom -5590.482280 kJ/mol
# Density = 1.977045 g / cm^3
# Si number density = 19.815548 Si / 1000 Ang^3
#
#
#
# Elastic Constant Matrix: (Units=GPa)
#
#
# Indices 1 2 3 4 5 6 
#
# 1 53.8395 10.0844 7.1685 0.0000 0.0000 0.0000
# 2 10.0844 39.4654 -12.2153 0.0000 0.0000 0.0000
# 3 7.1685 -12.2153 29.3813 0.0000 0.0000 0.0000
# 4 0.0000 0.0000 0.0000 24.2187 0.0000 0.0000
# 5 0.0000 0.0000 0.0000 0.0000 38.6355 0.0000
# 6 0.0000 0.0000 0.0000 0.0000 0.0000 28.5170
#
#
#
# Elastic Compliance Matrix: (Units=1/GPa)
#
#
# Indices 1 2 3 4 5 6 
#
# 1 0.021219 -0.008062 -0.008529 0.000000 0.000000 0.000000
# 2 -0.008062 0.032144 0.015331 0.000000 0.000000 0.000000
# 3 -0.008529 0.015331 0.042490 0.000000 0.000000 0.000000
# 4 0.000000 0.000000 0.000000 0.041290 0.000000 0.000000
# 5 0.000000 0.000000 0.000000 0.000000 0.025883 0.000000
# 6 0.000000 0.000000 0.000000 0.000000 0.000000 0.035067
#
#
# Mechanical properties :
#
#
# Convention : Reuss Voigt Hill
#
# Bulk Modulus (GPa) = 10.71434 14.75128 12.73281
# Shear Modulus (GPa) = 21.57738 26.11748 23.84743
#
# Velocity S-wave (km/s) = 3.30345 3.63441 3.47287
# Velocity P-wave (km/s) = 4.46868 5.00723 4.74560
#
# Compressibility (1/GPa) = 0.09333289
#
# Stress axis : x y z
#
# Youngs Moduli (GPa) = 47.12683 31.11018 23.53504
#
# Poissons Ratio (x) = 0.25081 0.20073
# Poissons Ratio (y) = 0.37993 -0.36081
# Poissons Ratio (z) = 0.40194 -0.47694
#
# Static dielectric constant tensor:
#      x y z
#    x 1.658900 0.000000 0.000000 
#    y 0.000000 1.730360 0.000000 
#    z 0.000000 0.000000 1.653940 
# 
# From -- ./inp_files/16558.got.cif
#   From: 2010.05.17/outbox.cif.g08.bks.cpg/sg36_9_cif.got.tgz:16558.got - 2010.06.03 17:41:39.
