data_PCOD9351060
_publ_section_title
;
Structure prediction by ZEFSAII (Michael W. Deem and Ramdas Pophale) SiO2 
 PCOD9351060
Probable space group: C M C 21
;
_chemical_formula_sum "Si O2"
_cell_formula_units_Z 64
_cell_length_a 8.632104
_cell_length_b 30.073729
_cell_length_c 12.614607
_cell_angle_alpha 90.000000
_cell_angle_beta 90.000000
_cell_angle_gamma 90.000000
_cell_volume 3274.746381
_symmetry_space_group_name_H-M "C M C 21"
_symmetry_group_IT_number 36
_symmetry_cell_setting 'orthorhombic'
loop_
_space_group_symop_operation_xyz
x,y,z
-x,-y,1/2+z
x,-y,1/2+z
-x,y,z
1/2+x,1/2+y,z
1/2-x,1/2-y,1/2+z
1/2+x,1/2-y,1/2+z
1/2-x,1/2+y,z
loop_
_atom_site_type_symbol
_atom_site_label
_atom_site_fract_x
_atom_site_fract_y
_atom_site_fract_z
Si Si1 0.318896 0.416385 0.135900
Si Si2 0.816624 0.475174 0.957880
Si Si3 0.812897 0.066980 0.022939
Si Si4 0.320015 0.832480 0.036237
Si Si5 0.813690 0.133446 0.847732
Si Si6 0.687261 0.683644 0.313881
Si Si7 0.812763 0.082769 0.262038
Si Si8 0.818466 0.720545 0.749634
O O1 0.500000 0.428014 0.144016
O O2 0.292105 0.373516 0.061551
O O3 0.261212 0.398924 0.250403
O O4 0.231407 0.454489 0.071964
O O5 0.752204 0.445326 0.860895
O O6 0.000000 0.476446 0.949353
O O7 0.746970 0.524472 0.958965
O O8 0.761820 0.066351 0.145542
O O9 0.000000 0.065811 0.023528
O O10 0.765438 0.111226 0.958305
O O11 0.500000 0.847605 0.033265
O O12 0.302563 0.798170 0.131533
O O13 0.267977 0.812040 0.926926
O O14 0.759997 0.183515 0.824315
O O15 0.000000 0.133423 0.842959
O O16 0.500000 0.683198 0.322984
O O17 0.730628 0.634963 0.270498
O O18 0.734133 0.728470 0.253235
O O19 0.000000 0.079718 0.267247
O O20 0.000000 0.720059 0.777222
#
# Coordination Sequence:
#
# PCOD9351060 Si02
#       8
#     8   8   8   8   8   8   8   8
#     4  10  19  35  59  84 112 150 195 244 293 352
#     4  12  25  39  59  89 121 153 196 247 305 361
#     4  10  23  42  63  88 119 160 205 247 300 361
#     4  10  19  33  54  83 114 149 194 249 298 345
#     4   9  20  38  61  88 117 153 202 248 291 350
#     4  10  20  36  58  84 116 158 199 242 297 358
#     4  10  22  41  64  87 118 159 205 249 295 357
#     4   9  20  36  56  85 121 158 198 242 301 358
#
# _framework density 19.543498
#
# number of rings (size 3 to 8) (size 9 to 14) (size 15 to 20)
#    0.000    2.000    1.250    1.875    1.750    3.500 
#    0.000    2.500    0.000    0.000    0.000    0.000 
#    0.000    0.000    0.000    0.000    0.000    0.000 
#
# Total GULP energy -178514.874728 kJ/mol
# GULP energy per Si atom -5578.589835 kJ/mol
# Density = 1.949902 g / cm^3
# Si number density = 19.543498 Si / 1000 Ang^3
#
#
#
# Elastic Constant Matrix: (Units=GPa)
#
#
# Indices 1 2 3 4 5 6 
#
# 1 17.6172 20.6159 21.8372 0.0000 0.0000 0.0000
# 2 20.6159 114.9657 42.9205 0.0000 0.0000 0.0000
# 3 21.8372 42.9205 68.9823 0.0000 0.0000 0.0000
# 4 0.0000 0.0000 0.0000 12.7228 0.0000 0.0000
# 5 0.0000 0.0000 0.0000 0.0000 12.3754 0.0000
# 6 0.0000 0.0000 0.0000 0.0000 0.0000 24.0437
#
#
#
# Elastic Compliance Matrix: (Units=1/GPa)
#
#
# Indices 1 2 3 4 5 6 
#
# 1 0.098575 -0.007850 -0.026321 0.000000 0.000000 0.000000
# 2 -0.007850 0.011955 -0.004953 0.000000 0.000000 0.000000
# 3 -0.026321 -0.004953 0.025911 0.000000 0.000000 0.000000
# 4 0.000000 0.000000 0.000000 0.078599 0.000000 0.000000
# 5 0.000000 0.000000 0.000000 0.000000 0.080806 0.000000
# 6 0.000000 0.000000 0.000000 0.000000 0.000000 0.041591
#
#
# Mechanical properties :
#
#
# Convention : Reuss Voigt Hill
#
# Bulk Modulus (GPa) = 17.18454 41.36803 29.27628
# Shear Modulus (GPa) = 11.49208 17.57448 14.53328
#
# Velocity S-wave (km/s) = 2.42755 3.00200 2.72993
# Velocity P-wave (km/s) = 4.08282 5.76447 4.99492
#
# Compressibility (1/GPa) = 0.05819183
#
# Stress axis : x y z
#
# Youngs Moduli (GPa) = 10.14460 83.64540 38.59422
#
# Poissons Ratio (x) = 0.65663 1.01583
# Poissons Ratio (y) = 0.07964 0.19117
# Poissons Ratio (z) = 0.26701 0.41433
#
# Static dielectric constant tensor:
#      x y z
#    x 1.670940 0.000000 0.000000 
#    y 0.000000 1.696290 0.000000 
#    z 0.000000 0.000000 1.702750 
# 
# From -- ./inp_files/7231.got.cif
#   From: 2010.05.17/outbox.cif.g08.bks.cpg/sg36_4_cif.got.tgz:7231.got - 2010.06.03 17:41:39.
