data_PCOD9351379
_publ_section_title
;
Structure prediction by ZEFSAII (Michael W. Deem and Ramdas Pophale) SiO2 
 PCOD9351379
Probable space group: C M C 21
;
_chemical_formula_sum "Si O2"
_cell_formula_units_Z 64
_cell_length_a 25.215672
_cell_length_b 9.967237
_cell_length_c 13.265008
_cell_angle_alpha 90.000000
_cell_angle_beta 90.000000
_cell_angle_gamma 90.000000
_cell_volume 3333.902140
_symmetry_space_group_name_H-M "C M C 21"
_symmetry_group_IT_number 36
_symmetry_cell_setting 'orthorhombic'
loop_
_space_group_symop_operation_xyz
x,y,z
-x,-y,1/2+z
x,-y,1/2+z
-x,y,z
1/2+x,1/2+y,z
1/2-x,1/2-y,1/2+z
1/2+x,1/2-y,1/2+z
1/2-x,1/2+y,z
loop_
_atom_site_type_symbol
_atom_site_label
_atom_site_fract_x
_atom_site_fract_y
_atom_site_fract_z
Si Si1 0.750640 0.909372 0.284250
Si Si2 0.861153 0.403282 0.929955
Si Si3 0.752146 0.159250 0.420499
Si Si4 0.366336 0.347843 0.284227
Si Si5 0.631594 0.606795 0.417495
Si Si6 0.363280 0.143980 0.778402
Si Si7 0.062768 0.786207 0.098515
Si Si8 0.562920 0.964367 0.105949
O O1 0.749234 0.812752 0.383694
O O2 0.807533 0.874350 0.238232
O O3 0.695446 0.875126 0.230600
O O4 0.750183 0.063044 0.320871
O O5 0.802465 0.376897 0.975509
O O6 0.867273 0.293805 0.841815
O O7 0.862714 0.546764 0.875628
O O8 0.907302 0.398492 0.011235
O O9 0.809417 0.125419 0.465159
O O10 0.374388 0.460086 0.370180
O O11 0.409308 0.347865 0.196724
O O12 0.629845 0.708046 0.322272
O O13 0.588829 0.649760 0.499380
O O14 0.408980 0.096117 0.704284
O O15 0.072180 0.625108 0.100770
O O16 0.000000 0.807975 0.099874
O O17 0.500000 0.941318 0.105361
#
# Coordination Sequence:
#
# PCOD9351379 Si02
#       8
#     8   8   8   8   8   8   8   8
#     4   8  16  31  56  85 113 145 186 230 287 352
#     4  10  19  37  61  86 115 153 192 239 291 339
#     4   8  16  31  56  85 113 145 186 230 287 352
#     4  10  21  39  61  87 120 152 187 243 298 348
#     4  10  21  39  61  87 120 152 187 243 298 348
#     4  10  19  37  61  86 115 153 192 239 291 339
#     4  11  24  40  59  85 115 157 206 239 286 352
#     4  11  24  38  59  89 115 153 210 247 276 340
#
# _framework density 19.196724
#
# number of rings (size 3 to 8) (size 9 to 14) (size 15 to 20)
#    0.000    2.250    2.500    0.000    0.000    4.000 
#    0.000    1.250    0.000    0.000    0.000    0.000 
#    0.000    0.000    0.000    0.000    0.000    0.000 
#
# Total GULP energy -178449.754502 kJ/mol
# GULP energy per Si atom -5576.554828 kJ/mol
# Density = 1.915303 g / cm^3
# Si number density = 19.196724 Si / 1000 Ang^3
#
#
#
# Elastic Constant Matrix: (Units=GPa)
#
#
# Indices 1 2 3 4 5 6 
#
# 1 152.9136 14.1484 52.4731 0.0000 0.0000 0.0000
# 2 14.1484 57.2390 -0.4190 0.0000 0.0000 0.0000
# 3 52.4731 -0.4190 51.9679 0.0000 0.0000 0.0000
# 4 0.0000 0.0000 0.0000 17.6733 0.0000 0.0000
# 5 0.0000 0.0000 0.0000 0.0000 39.7018 0.0000
# 6 0.0000 0.0000 0.0000 0.0000 0.0000 27.4452
#
#
#
# Elastic Compliance Matrix: (Units=1/GPa)
#
#
# Indices 1 2 3 4 5 6 
#
# 1 0.010393 -0.002646 -0.010515 0.000000 0.000000 0.000000
# 2 -0.002646 0.018145 0.002818 0.000000 0.000000 0.000000
# 3 -0.010515 0.002818 0.029883 0.000000 0.000000 0.000000
# 4 0.000000 0.000000 0.000000 0.056583 0.000000 0.000000
# 5 0.000000 0.000000 0.000000 0.000000 0.025188 0.000000
# 6 0.000000 0.000000 0.000000 0.000000 0.000000 0.036436
#
#
# Mechanical properties :
#
#
# Convention : Reuss Voigt Hill
#
# Bulk Modulus (GPa) = 26.50098 43.83618 35.16858
# Shear Modulus (GPa) = 23.82180 30.02525 26.92353
#
# Velocity S-wave (km/s) = 3.52651 3.95914 3.74907
# Velocity P-wave (km/s) = 5.51512 6.61699 6.09102
#
# Compressibility (1/GPa) = 0.03773445
#
# Stress axis : x y z
#
# Youngs Moduli (GPa) = 96.22071 55.11090 33.46418
#
# Poissons Ratio (x) = 0.14582 0.35188
# Poissons Ratio (y) = 0.25459 -0.09430
# Poissons Ratio (z) = 1.01177 -0.15529
#
# Static dielectric constant tensor:
#      x y z
#    x 1.698760 0.000000 0.000000 
#    y 0.000000 1.644990 0.000000 
#    z 0.000000 0.000000 1.645190 
# 
# From -- ./inp_files/12985.got.cif
#   From: 2010.05.17/outbox.cif.g08.bks.cpg/sg36_7_cif.got.tgz:12985.got - 2010.06.03 17:41:39.
