data_PCOD9351853
_publ_section_title
;
Structure prediction by ZEFSAII (Michael W. Deem and Ramdas Pophale) SiO2 
 PCOD9351853
Probable space group: C M C 21
;
_chemical_formula_sum "Si O2"
_cell_formula_units_Z 48
_cell_length_a 8.230476
_cell_length_b 15.228667
_cell_length_c 19.181644
_cell_angle_alpha 90.000000
_cell_angle_beta 90.000000
_cell_angle_gamma 90.000000
_cell_volume 2404.211497
_symmetry_space_group_name_H-M "C M C 21"
_symmetry_group_IT_number 36
_symmetry_cell_setting 'orthorhombic'
loop_
_space_group_symop_operation_xyz
x,y,z
-x,-y,1/2+z
x,-y,1/2+z
-x,y,z
1/2+x,1/2+y,z
1/2-x,1/2-y,1/2+z
1/2+x,1/2-y,1/2+z
1/2-x,1/2+y,z
loop_
_atom_site_type_symbol
_atom_site_label
_atom_site_fract_x
_atom_site_fract_y
_atom_site_fract_z
Si Si1 0.196129 0.442772 0.823400
Si Si2 0.301547 0.743640 0.803404
Si Si3 0.307993 0.306129 0.146937
Si Si4 0.192016 0.495043 0.171916
Si Si5 0.304166 0.401840 0.414023
Si Si6 0.192236 0.143448 0.069222
O O1 0.250059 0.341611 0.824400
O O2 0.252903 0.486166 0.750445
O O3 0.253274 0.502909 0.886644
O O4 0.000000 0.442437 0.822144
O O5 0.500000 0.742279 0.803162
O O6 0.249822 0.721184 0.724682
O O7 0.245256 0.670303 0.857967
O O8 0.500000 0.289641 0.143385
O O9 0.274344 0.409138 0.139873
O O10 0.224347 0.243674 0.090792
O O11 0.223913 0.580582 0.125606
O O12 0.000000 0.478629 0.175516
O O13 0.500000 0.397606 0.414372
O O14 0.247775 0.379009 0.491689
O O15 0.000000 0.126290 0.072114
#
# Coordination Sequence:
#
# PCOD9351853 Si02
#       6
#     8   8   8   8   8   8
#     4  10  20  36  60  89 116 152 200 245 296 358
#     4   9  18  36  60  85 114 152 194 240 296 352
#     4  11  21  38  64  90 120 158 200 250 302 354
#     4  11  22  38  61  91 122 158 204 249 298 359
#     4  10  22  40  60  86 121 157 194 244 304 358
#     4  11  24  40  59  89 127 163 200 246 302 361
#
# _framework density 19.964966
#
# number of rings (size 3 to 8) (size 9 to 14) (size 15 to 20)
#    0.000    1.667    3.333    1.500    0.000    3.333 
#    0.000    2.500    0.000    0.000    0.000    0.000 
#    0.000    0.000    0.000    0.000    0.000    0.000 
#
# Total GULP energy -134109.009934 kJ/mol
# GULP energy per Si atom -5587.875414 kJ/mol
# Density = 1.991952 g / cm^3
# Si number density = 19.964966 Si / 1000 Ang^3
#
#
#
# Elastic Constant Matrix: (Units=GPa)
#
#
# Indices 1 2 3 4 5 6 
#
# 1 10.9668 -6.8899 7.0181 0.0000 0.0000 0.0000
# 2 -6.8899 67.4438 -25.9066 0.0000 0.0000 0.0000
# 3 7.0181 -25.9066 33.6633 0.0000 0.0000 0.0000
# 4 0.0000 0.0000 0.0000 28.3388 0.0000 0.0000
# 5 0.0000 0.0000 0.0000 0.0000 17.5082 0.0000
# 6 0.0000 0.0000 0.0000 0.0000 0.0000 30.0996
#
#
#
# Elastic Compliance Matrix: (Units=1/GPa)
#
#
# Indices 1 2 3 4 5 6 
#
# 1 0.105741 0.003314 -0.019495 0.000000 0.000000 0.000000
# 2 0.003314 0.021154 0.015588 0.000000 0.000000 0.000000
# 3 -0.019495 0.015588 0.045767 0.000000 0.000000 0.000000
# 4 0.000000 0.000000 0.000000 0.035287 0.000000 0.000000
# 5 0.000000 0.000000 0.000000 0.000000 0.057116 0.000000
# 6 0.000000 0.000000 0.000000 0.000000 0.000000 0.033223
#
#
# Mechanical properties :
#
#
# Convention : Reuss Voigt Hill
#
# Bulk Modulus (GPa) = 5.83168 6.72415 6.27792
# Shear Modulus (GPa) = 14.02009 24.37949 19.19979
#
# Velocity S-wave (km/s) = 2.65285 3.49823 3.10445
# Velocity P-wave (km/s) = 3.50867 4.43758 4.00018
#
# Compressibility (1/GPa) = 0.17147707
#
# Stress axis : x y z
#
# Youngs Moduli (GPa) = 9.45705 47.27341 21.84998
#
# Poissons Ratio (x) = -0.15666 0.42596
# Poissons Ratio (y) = -0.03134 -0.34061
# Poissons Ratio (z) = 0.18436 -0.73692
#
# Static dielectric constant tensor:
#      x y z
#    x 1.696180 0.000000 0.000000 
#    y 0.000000 1.674540 0.000000 
#    z 0.000000 0.000000 1.687790 
# 
# From -- ./inp_files/13471.got.cif
#   From: 2010.05.17/outbox.cif.g08.bks.cpg/sg36_7_cif.got.tgz:13471.got - 2010.06.03 17:41:39.
