data_PCOD9351753
_publ_section_title
;
Structure prediction by ZEFSAII (Michael W. Deem and Ramdas Pophale) SiO2 
 PCOD9351753
Probable space group: C M C 21
;
_chemical_formula_sum "Si O2"
_cell_formula_units_Z 64
_cell_length_a 9.065299
_cell_length_b 14.725197
_cell_length_c 21.882092
_cell_angle_alpha 90.000000
_cell_angle_beta 90.000000
_cell_angle_gamma 90.000000
_cell_volume 2921.003560
_symmetry_space_group_name_H-M "C M C 21"
_symmetry_group_IT_number 36
_symmetry_cell_setting 'orthorhombic'
loop_
_space_group_symop_operation_xyz
x,y,z
-x,-y,1/2+z
x,-y,1/2+z
-x,y,z
1/2+x,1/2+y,z
1/2-x,1/2-y,1/2+z
1/2+x,1/2-y,1/2+z
1/2-x,1/2+y,z
loop_
_atom_site_type_symbol
_atom_site_label
_atom_site_fract_x
_atom_site_fract_y
_atom_site_fract_z
Si Si1 0.826111 0.093043 0.823330
Si Si2 0.329746 0.404512 0.775353
Si Si3 0.175333 0.285151 0.424657
Si Si4 0.833467 0.006051 0.142268
Si Si5 0.326619 0.427171 0.507762
Si Si6 0.329057 0.172207 0.613540
Si Si7 0.168974 0.241198 0.725447
Si Si8 0.823032 0.382714 0.975523
O O1 0.730629 0.152398 0.869023
O O2 0.819542 0.143071 0.757822
O O3 0.000000 0.093905 0.840954
O O4 0.776581 0.988914 0.816137
O O5 0.500000 0.386890 0.791385
O O6 0.325012 0.440596 0.705289
O O7 0.241712 0.312080 0.771864
O O8 0.233484 0.344073 0.482021
O O9 0.253947 0.187032 0.427137
O O10 0.000000 0.274604 0.425022
O O11 0.818572 0.065697 0.081118
O O12 0.711351 0.928664 0.136953
O O13 0.000000 0.964260 0.138912
O O14 0.500000 0.418250 0.491522
O O15 0.259075 0.520484 0.480010
O O16 0.500000 0.193353 0.620434
O O17 0.241651 0.237380 0.658980
O O18 0.295725 0.165008 0.541748
O O19 0.000000 0.265713 0.718635
O O20 0.000000 0.393866 0.968153
#
# Coordination Sequence:
#
# PCOD9351753 Si02
#       8
#     8   8   8   8   8   8   8   8
#     4  10  23  45  65  83 121 167 207 256 310 363
#     4  10  21  39  62  90 122 160 203 248 303 366
#     4  12  26  42  64  92 124 165 213 259 307 369
#     4   9  18  36  61  89 125 162 198 245 304 365
#     4  10  21  39  64  93 127 164 204 253 310 369
#     4  10  20  35  60  91 126 162 200 250 306 364
#     4  11  23  39  61  91 123 161 204 252 307 365
#     4  10  22  41  63  91 126 165 209 257 309 365
#
# _framework density 21.910278000000002
#
# number of rings (size 3 to 8) (size 9 to 14) (size 15 to 20)
#    0.000    1.750    1.250    2.625    1.750    5.000 
#    0.000    2.500    0.000    0.000    0.000    0.000 
#    0.000    0.000    0.000    0.000    0.000    0.000 
#
# Total GULP energy -178901.246263 kJ/mol
# GULP energy per Si atom -5590.663946 kJ/mol
# Density = 2.186041 g / cm^3
# Si number density = 21.910278 Si / 1000 Ang^3
#
#
#
# Elastic Constant Matrix: (Units=GPa)
#
#
# Indices 1 2 3 4 5 6 
#
# 1 55.9318 24.9582 4.0534 0.0000 0.0000 0.0000
# 2 24.9582 79.2169 -5.5243 0.0000 0.0000 0.0000
# 3 4.0534 -5.5243 33.5118 0.0000 0.0000 0.0000
# 4 0.0000 0.0000 0.0000 35.9831 0.0000 0.0000
# 5 0.0000 0.0000 0.0000 0.0000 25.7407 0.0000
# 6 0.0000 0.0000 0.0000 0.0000 0.0000 31.2557
#
#
#
# Elastic Compliance Matrix: (Units=1/GPa)
#
#
# Indices 1 2 3 4 5 6 
#
# 1 0.021252 -0.006955 -0.003717 0.000000 0.000000 0.000000
# 2 -0.006955 0.015046 0.003322 0.000000 0.000000 0.000000
# 3 -0.003717 0.003322 0.030837 0.000000 0.000000 0.000000
# 4 0.000000 0.000000 0.000000 0.027791 0.000000 0.000000
# 5 0.000000 0.000000 0.000000 0.000000 0.038849 0.000000
# 6 0.000000 0.000000 0.000000 0.000000 0.000000 0.031994
#
#
# Mechanical properties :
#
#
# Convention : Reuss Voigt Hill
#
# Bulk Modulus (GPa) = 19.07121 23.95945 21.51533
# Shear Modulus (GPa) = 25.25913 28.27411 26.76662
#
# Velocity S-wave (km/s) = 3.39904 3.59618 3.49900
# Velocity P-wave (km/s) = 4.91200 5.31059 5.11518
#
# Compressibility (1/GPa) = 0.05243506
#
# Stress axis : x y z
#
# Youngs Moduli (GPa) = 47.05505 66.46115 32.42819
#
# Poissons Ratio (x) = 0.46222 0.12053
# Poissons Ratio (y) = 0.32726 -0.10771
# Poissons Ratio (z) = 0.17490 -0.22075
#
# Static dielectric constant tensor:
#      x y z
#    x 1.737680 0.000000 0.000000 
#    y 0.000000 1.809350 0.000000 
#    z 0.000000 0.000000 1.862950 
# 
# From -- ./inp_files/16681.got.cif
#   From: 2010.05.17/outbox.cif.g08.bks.cpg/sg36_9_cif.got.tgz:16681.got - 2010.06.03 17:41:39.
