data_PCOD9351731
_publ_section_title
;
Structure prediction by ZEFSAII (Michael W. Deem and Ramdas Pophale) SiO2 
 PCOD9351731
Probable space group: C M C 21
;
_chemical_formula_sum "Si O2"
_cell_formula_units_Z 64
_cell_length_a 8.771649
_cell_length_b 14.957016
_cell_length_c 25.310564
_cell_angle_alpha 90.000000
_cell_angle_beta 90.000000
_cell_angle_gamma 90.000000
_cell_volume 3320.687642
_symmetry_space_group_name_H-M "C M C 21"
_symmetry_group_IT_number 36
_symmetry_cell_setting 'orthorhombic'
loop_
_space_group_symop_operation_xyz
x,y,z
-x,-y,1/2+z
x,-y,1/2+z
-x,y,z
1/2+x,1/2+y,z
1/2-x,1/2-y,1/2+z
1/2+x,1/2-y,1/2+z
1/2-x,1/2+y,z
loop_
_atom_site_type_symbol
_atom_site_label
_atom_site_fract_x
_atom_site_fract_y
_atom_site_fract_z
Si Si1 0.815739 0.003208 0.150060
Si Si2 0.683428 0.500018 0.527026
Si Si3 0.682960 0.863112 0.231023
Si Si4 0.182378 0.842875 0.727076
Si Si5 0.815516 0.650292 0.452485
Si Si6 0.182015 0.650644 0.953122
Si Si7 0.324503 0.638485 0.842186
Si Si8 0.825500 0.643756 0.336257
O O1 0.773693 0.000693 0.088709
O O2 0.765861 0.094243 0.179458
O O3 0.000000 0.997823 0.153212
O O4 0.745191 0.923517 0.184087
O O5 0.500000 0.501934 0.523017
O O6 0.754058 0.584897 0.497094
O O7 0.747473 0.413306 0.497244
O O8 0.500000 0.866161 0.233001
O O9 0.733311 0.759969 0.222486
O O10 0.748923 0.892904 0.287795
O O11 0.234807 0.880182 0.783808
O O12 0.000000 0.841586 0.726790
O O13 0.748544 0.749480 0.459104
O O14 0.768024 0.615195 0.393957
O O15 0.000000 0.654539 0.452582
O O16 0.233552 0.616014 0.895228
O O17 0.000000 0.651834 0.956166
O O18 0.500000 0.609466 0.846017
O O19 0.323866 0.747440 0.839394
O O20 0.000000 0.614325 0.330009
#
# Coordination Sequence:
#
# PCOD9351731 Si02
#       8
#     8   8   8   8   8   8   8   8
#     4  10  23  41  57  78 111 151 195 238 283 341
#     4  11  24  41  59  82 114 155 203 248 291 344
#     4  10  20  35  58  87 115 146 187 235 287 341
#     4   9  19  36  57  81 111 146 181 223 277 335
#     4  10  21  39  61  86 118 153 190 238 295 350
#     4  11  22  38  61  89 119 151 191 240 295 352
#     4   9  17  33  57  85 117 151 186 228 284 347
#     4   8  16  31  54  84 113 141 177 224 278 338
#
# _framework density 19.273115000000001
#
# number of rings (size 3 to 8) (size 9 to 14) (size 15 to 20)
#    0.000    2.250    0.000    3.375    0.000    7.500 
#    0.000    3.750    0.000    0.000    0.000    0.000 
#    0.000    0.000    0.000    0.000    0.000    0.000 
#
# Total GULP energy -178720.774176 kJ/mol
# GULP energy per Si atom -5585.024193 kJ/mol
# Density = 1.922925 g / cm^3
# Si number density = 19.273115 Si / 1000 Ang^3
#
#
#
# Elastic Constant Matrix: (Units=GPa)
#
#
# Indices 1 2 3 4 5 6 
#
# 1 70.8034 42.1044 73.0010 0.0000 0.0000 0.0000
# 2 42.1044 108.5001 96.2153 0.0000 0.0000 0.0000
# 3 73.0010 96.2153 224.3231 0.0000 0.0000 0.0000
# 4 0.0000 0.0000 0.0000 35.8861 0.0000 0.0000
# 5 0.0000 0.0000 0.0000 0.0000 31.0800 0.0000
# 6 0.0000 0.0000 0.0000 0.0000 0.0000 25.5820
#
#
#
# Elastic Compliance Matrix: (Units=1/GPa)
#
#
# Indices 1 2 3 4 5 6 
#
# 1 0.022068 -0.003543 -0.005662 0.000000 0.000000 0.000000
# 2 -0.003543 0.015443 -0.005471 0.000000 0.000000 0.000000
# 3 -0.005662 -0.005471 0.008647 0.000000 0.000000 0.000000
# 4 0.000000 0.000000 0.000000 0.027866 0.000000 0.000000
# 5 0.000000 0.000000 0.000000 0.000000 0.032175 0.000000
# 6 0.000000 0.000000 0.000000 0.000000 0.000000 0.039090
#
#
# Mechanical properties :
#
#
# Convention : Reuss Voigt Hill
#
# Bulk Modulus (GPa) = 59.49990 91.80754 75.65372
# Shear Modulus (GPa) = 27.74053 31.33003 29.53528
#
# Velocity S-wave (km/s) = 3.79798 4.03622 3.91891
# Velocity P-wave (km/s) = 7.08321 8.33426 7.73407
#
# Compressibility (1/GPa) = 0.01680675
#
# Stress axis : x y z
#
# Youngs Moduli (GPa) = 45.31410 64.75595 115.64874
#
# Poissons Ratio (x) = 0.22942 0.65481
# Poissons Ratio (y) = 0.16054 0.63267
# Poissons Ratio (z) = 0.25657 0.35426
#
# Static dielectric constant tensor:
#      x y z
#    x 1.652700 0.000000 0.000000 
#    y 0.000000 1.700570 0.000000 
#    z 0.000000 0.000000 1.649700 
# 
# From -- ./inp_files/16640.got.cif
#   From: 2010.05.17/outbox.cif.g08.bks.cpg/sg36_9_cif.got.tgz:16640.got - 2010.06.03 17:41:39.
