data_PCOD9351326
_publ_section_title
;
Structure prediction by ZEFSAII (Michael W. Deem and Ramdas Pophale) SiO2 
 PCOD9351326
Probable space group: C M C 21
;
_chemical_formula_sum "Si O2"
_cell_formula_units_Z 64
_cell_length_a 16.431698
_cell_length_b 19.671377
_cell_length_c 8.273764
_cell_angle_alpha 90.000000
_cell_angle_beta 90.000000
_cell_angle_gamma 90.000000
_cell_volume 2674.362876
_symmetry_space_group_name_H-M "C M C 21"
_symmetry_group_IT_number 36
_symmetry_cell_setting 'orthorhombic'
loop_
_space_group_symop_operation_xyz
x,y,z
-x,-y,1/2+z
x,-y,1/2+z
-x,y,z
1/2+x,1/2+y,z
1/2-x,1/2-y,1/2+z
1/2+x,1/2-y,1/2+z
1/2-x,1/2+y,z
loop_
_atom_site_type_symbol
_atom_site_label
_atom_site_fract_x
_atom_site_fract_y
_atom_site_fract_z
Si Si1 0.904114 0.653432 0.769930
Si Si2 0.337753 0.775880 0.582082
Si Si3 0.901417 0.604707 0.266718
Si Si4 0.593952 0.651760 0.760213
Si Si5 0.597042 0.396423 0.776694
Si Si6 0.901590 0.976834 0.445373
Si Si7 0.348567 0.277221 0.576095
Si Si8 0.901327 0.526085 0.596227
O O1 0.870238 0.702337 0.631472
O O2 0.874156 0.576919 0.739619
O O3 0.000000 0.650435 0.747418
O O4 0.888099 0.689413 0.939232
O O5 0.356580 0.824677 0.735119
O O6 0.361557 0.699656 0.631946
O O7 0.244988 0.780605 0.528844
O O8 0.881792 0.565007 0.431539
O O9 0.874409 0.550592 0.128911
O O10 0.000000 0.615900 0.261719
O O11 0.500000 0.644285 0.709474
O O12 0.627913 0.578107 0.812348
O O13 0.597856 0.692791 0.931087
O O14 0.500000 0.383514 0.790858
O O15 0.626119 0.445834 0.919696
O O16 0.611935 0.443866 0.619017
O O17 0.638413 0.325848 0.732379
O O18 0.000000 0.979156 0.424472
O O19 0.000000 0.520383 0.599846
#
# Coordination Sequence:
#
# PCOD9351326 Si02
#       8
#     8   8   8   8   8   8   8   8
#     4  11  22  38  60  87 113 149 198 246 290 344
#     4  12  24  37  55  86 121 151 188 242 297 348
#     4  10  19  36  59  85 115 151 192 239 290 348
#     4  10  20  39  62  82 108 153 198 235 284 349
#     4   9  17  34  57  80 105 140 182 228 276 334
#     4   8  16  30  54  82 105 133 182 234 273 319
#     4  11  23  39  56  82 118 153 189 235 292 351
#     4   9  19  35  61  88 111 144 195 247 288 335
#
# _framework density 23.930933
#
# number of rings (size 3 to 8) (size 9 to 14) (size 15 to 20)
#    0.000    2.000    0.000    5.250    0.000    4.000 
#    0.000    8.750    0.000    0.000    0.000    0.000 
#    0.000    0.000    0.000    0.000    0.000    0.000 
#
# Total GULP energy -178922.397916 kJ/mol
# GULP energy per Si atom -5591.324935 kJ/mol
# Density = 2.387647 g / cm^3
# Si number density = 23.930933 Si / 1000 Ang^3
#
#
#
# Elastic Constant Matrix: (Units=GPa)
#
#
# Indices 1 2 3 4 5 6 
#
# 1 43.0390 3.2200 -7.5897 0.0000 0.0000 0.0000
# 2 3.2200 105.1029 -5.6027 0.0000 0.0000 0.0000
# 3 -7.5897 -5.6027 61.2847 0.0000 0.0000 0.0000
# 4 0.0000 0.0000 0.0000 40.4734 0.0000 0.0000
# 5 0.0000 0.0000 0.0000 0.0000 -0.7076 0.0000
# 6 0.0000 0.0000 0.0000 0.0000 0.0000 183.7631
#
#
#
# Elastic Compliance Matrix: (Units=1/GPa)
#
#
# Indices 1 2 3 4 5 6 
#
# 1 0.023788 -0.000575 0.002893 0.000000 0.000000 0.000000
# 2 -0.000575 0.009575 0.000804 0.000000 0.000000 0.000000
# 3 0.002893 0.000804 0.016749 0.000000 0.000000 0.000000
# 4 0.000000 0.000000 0.000000 0.024708 0.000000 0.000000
# 5 0.000000 0.000000 0.000000 0.000000 -1.413326 0.000000
# 6 0.000000 0.000000 0.000000 0.000000 0.000000 0.005442
#
#
# Mechanical properties :
#
#
# Convention : Reuss Voigt Hill
#
# Bulk Modulus (GPa) = 17.74361 21.05353 19.39857
# Shear Modulus (GPa) = -3.78637 59.33239 27.77301
#
# Velocity S-wave (km/s) = -1.25922 4.98468 3.41038
# Velocity P-wave (km/s) = 2.30573 6.47658 4.86120
#
# Compressibility (1/GPa) = 0.05635832
#
# Stress axis : x y z
#
# Youngs Moduli (GPa) = 42.03803 104.43910 59.70453
#
# Poissons Ratio (x) = 0.06000 -0.17275
# Poissons Ratio (y) = 0.02415 -0.04801
# Poissons Ratio (z) = -0.12164 -0.08399
#
# Static dielectric constant tensor:
#      x y z
#    x 1.839280 0.000000 0.000000 
#    y 0.000000 1.911110 0.000000 
#    z 0.000000 0.000000 1.998090 
# 
# From -- ./inp_files/4947.got.cif
#   From: 2010.05.17/outbox.cif.g08.bks.cpg/sg36_3_cif.got.tgz:4947.got - 2010.06.03 17:41:39.
