data_PCOD9351190
_publ_section_title
;
Structure prediction by ZEFSAII (Michael W. Deem and Ramdas Pophale) SiO2 
 PCOD9351190
Probable space group: C M C 21
;
_chemical_formula_sum "Si O2"
_cell_formula_units_Z 48
_cell_length_a 16.685141
_cell_length_b 8.595949
_cell_length_c 14.091086
_cell_angle_alpha 90.000000
_cell_angle_beta 90.000000
_cell_angle_gamma 90.000000
_cell_volume 2021.008670
_symmetry_space_group_name_H-M "C M C 21"
_symmetry_group_IT_number 36
_symmetry_cell_setting 'orthorhombic'
loop_
_space_group_symop_operation_xyz
x,y,z
-x,-y,1/2+z
x,-y,1/2+z
-x,y,z
1/2+x,1/2+y,z
1/2-x,1/2-y,1/2+z
1/2+x,1/2-y,1/2+z
1/2-x,1/2+y,z
loop_
_atom_site_type_symbol
_atom_site_label
_atom_site_fract_x
_atom_site_fract_y
_atom_site_fract_z
Si Si1 0.500000 0.683335 0.724951
Si Si2 0.500000 0.052364 0.780114
Si Si3 0.162866 0.197620 0.017793
Si Si4 0.832772 0.198539 0.789942
Si Si5 0.500000 0.811764 0.487261
Si Si6 0.669560 0.944107 0.282382
Si Si7 0.000000 0.002488 0.034150
Si Si8 0.332473 0.943669 0.513999
O O1 0.500000 0.868825 0.751464
O O2 0.416644 0.620515 0.765350
O O3 0.500000 0.622303 0.618761
O O4 0.500000 0.072789 0.894639
O O5 0.415490 0.125370 0.749450
O O6 0.080954 0.103564 0.037993
O O7 0.169699 0.199166 0.903433
O O8 0.247624 0.123731 0.049991
O O9 0.158402 0.378183 0.045084
O O10 0.752717 0.124754 0.749374
O O11 0.833125 0.375781 0.756674
O O12 0.415073 0.854297 0.537074
O O13 0.500000 0.631243 0.452011
O O14 0.671789 0.935679 0.398061
#
# Coordination Sequence:
#
# PCOD9351190 Si02
#       8
#     4   4   8   8   4   8   4   8
#     4  10  21  38  54  78 115 156 187 230 288 342
#     4   8  16  33  56  77 107 144 182 226 280 335
#     4  10  19  34  57  87 115 150 191 236 282 343
#     4   9  17  33  55  77 106 143 184 225 274 330
#     4  10  19  34  58  88 114 150 193 240 288 346
#     4   8  15  28  53  83 103 133 180 229 272 325
#     4  12  24  35  54  85 120 154 194 236 288 343
#     4   9  17  32  56  83 113 143 189 239 284 334
#
# _framework density 23.750516000000001
#
# number of rings (size 3 to 8) (size 9 to 14) (size 15 to 20)
#    0.000    2.667    0.000    3.000    0.000    5.333 
#    0.000    7.500    0.000    8.000    0.000    0.000 
#    0.000    0.000    0.000    0.000    0.000    0.000 
#
# Total GULP energy -133927.455011 kJ/mol
# GULP energy per Si atom -5580.310625 kJ/mol
# Density = 2.369646 g / cm^3
# Si number density = 23.750516 Si / 1000 Ang^3
#
#
#
# Elastic Constant Matrix: (Units=GPa)
#
#
# Indices 1 2 3 4 5 6 
#
# 1 320.7897 104.8566 11.0207 0.0000 0.0000 0.0000
# 2 104.8566 116.1681 -6.2644 0.0000 0.0000 0.0000
# 3 11.0207 -6.2644 39.6039 0.0000 0.0000 0.0000
# 4 0.0000 0.0000 0.0000 5.2520 0.0000 0.0000
# 5 0.0000 0.0000 0.0000 0.0000 8.3675 0.0000
# 6 0.0000 0.0000 0.0000 0.0000 0.0000 47.0370
#
#
#
# Elastic Compliance Matrix: (Units=1/GPa)
#
#
# Indices 1 2 3 4 5 6 
#
# 1 0.004565 -0.004225 -0.001939 0.000000 0.000000 0.000000
# 2 -0.004225 0.012593 0.003168 0.000000 0.000000 0.000000
# 3 -0.001939 0.003168 0.026291 0.000000 0.000000 0.000000
# 4 0.000000 0.000000 0.000000 0.190405 0.000000 0.000000
# 5 0.000000 0.000000 0.000000 0.000000 0.119511 0.000000
# 6 0.000000 0.000000 0.000000 0.000000 0.000000 0.021260
#
#
# Mechanical properties :
#
#
# Convention : Reuss Voigt Hill
#
# Bulk Modulus (GPa) = 26.69794 77.30973 52.00383
# Shear Modulus (GPa) = 12.71937 36.59453 24.65695
#
# Velocity S-wave (km/s) = 2.31669 3.92955 3.22555
# Velocity P-wave (km/s) = 4.29202 7.29451 5.98462
#
# Compressibility (1/GPa) = 0.03745608
#
# Stress axis : x y z
#
# Youngs Moduli (GPa) = 219.06172 79.41171 38.03647
#
# Poissons Ratio (x) = 0.33551 0.07374
# Poissons Ratio (y) = 0.92553 -0.12048
# Poissons Ratio (z) = 0.42467 -0.25154
#
# Static dielectric constant tensor:
#      x y z
#    x 1.920420 0.000000 0.000000 
#    y 0.000000 1.930790 0.000000 
#    z 0.000000 0.000000 2.148320 
# 
# From -- ./inp_files/12535.got.cif
#   From: 2010.05.17/outbox.cif.g08.bks.cpg/sg36_7_cif.got.tgz:12535.got - 2010.06.03 17:41:39.
