data_PCOD9351279
_publ_section_title
;
Structure prediction by ZEFSAII (Michael W. Deem and Ramdas Pophale) SiO2 
 PCOD9351279
Probable space group: C M C 21
;
_chemical_formula_sum "Si O2"
_cell_formula_units_Z 64
_cell_length_a 8.842710
_cell_length_b 20.643520
_cell_length_c 19.614556
_cell_angle_alpha 90.000000
_cell_angle_beta 90.000000
_cell_angle_gamma 90.000000
_cell_volume 3580.532471
_symmetry_space_group_name_H-M "C M C 21"
_symmetry_group_IT_number 36
_symmetry_cell_setting 'orthorhombic'
loop_
_space_group_symop_operation_xyz
x,y,z
-x,-y,1/2+z
x,-y,1/2+z
-x,y,z
1/2+x,1/2+y,z
1/2-x,1/2-y,1/2+z
1/2+x,1/2-y,1/2+z
1/2-x,1/2+y,z
loop_
_atom_site_type_symbol
_atom_site_label
_atom_site_fract_x
_atom_site_fract_y
_atom_site_fract_z
Si Si1 0.680785 0.109685 0.256870
Si Si2 0.679851 0.317618 0.117834
Si Si3 0.319988 0.060664 0.541536
Si Si4 0.678908 0.763390 0.406890
Si Si5 0.678611 0.304042 0.541978
Si Si6 0.180037 0.061056 0.119167
Si Si7 0.180695 0.890435 0.903642
Si Si8 0.180059 0.761986 0.263112
O O1 0.500000 0.102218 0.256604
O O2 0.753785 0.070645 0.194825
O O3 0.747516 0.092011 0.330759
O O4 0.715469 0.186519 0.246815
O O5 0.500000 0.327530 0.109591
O O6 0.767325 0.377473 0.085574
O O7 0.728412 0.252532 0.078897
O O8 0.713580 0.305229 0.197337
O O9 0.500000 0.058677 0.536582
O O10 0.249343 0.070293 0.466487
O O11 0.257166 0.997361 0.578991
O O12 0.500000 0.772234 0.415730
O O13 0.769590 0.802510 0.463705
O O14 0.712788 0.686368 0.415543
O O15 0.729987 0.780606 0.330683
O O16 0.500000 0.289999 0.547107
O O17 0.708046 0.372233 0.578253
O O18 0.000000 0.050571 0.122749
O O19 0.000000 0.897978 0.901197
O O20 0.000000 0.765038 0.276740
#
# Coordination Sequence:
#
# PCOD9351279 Si02
#       8
#     8   8   8   8   8   8   8   8
#     4  10  19  35  59  88 118 152 195 242 291 349
#     4  11  21  37  60  87 118 152 191 239 294 349
#     4  12  25  40  60  87 119 158 201 248 295 350
#     4  10  20  33  56  86 119 154 192 241 293 347
#     4  11  22  36  59  87 117 151 193 240 290 346
#     4  11  24  41  60  86 120 159 199 245 297 355
#     4  10  20  36  58  86 118 155 195 240 293 350
#     4   9  19  34  56  85 119 153 190 239 293 348
#
# _framework density 17.874437
#
# number of rings (size 3 to 8) (size 9 to 14) (size 15 to 20)
#    0.000    1.500    2.500    3.375    0.000    4.000 
#    0.000    1.250    0.000    4.500    0.000    0.000 
#    0.000    0.000    0.000    0.000    0.000    0.000 
#
# Total GULP energy -178822.040764 kJ/mol
# GULP energy per Si atom -5588.188774 kJ/mol
# Density = 1.783375 g / cm^3
# Si number density = 17.874437 Si / 1000 Ang^3
#
#
#
# Elastic Constant Matrix: (Units=GPa)
#
#
# Indices 1 2 3 4 5 6 
#
# 1 79.4506 47.1965 67.5406 0.0000 0.0000 0.0000
# 2 47.1965 59.2220 53.5864 0.0000 0.0000 0.0000
# 3 67.5406 53.5864 148.8619 0.0000 0.0000 0.0000
# 4 0.0000 0.0000 0.0000 25.5156 0.0000 0.0000
# 5 0.0000 0.0000 0.0000 0.0000 36.9172 0.0000
# 6 0.0000 0.0000 0.0000 0.0000 0.0000 25.9895
#
#
#
# Elastic Compliance Matrix: (Units=1/GPa)
#
#
# Indices 1 2 3 4 5 6 
#
# 1 0.028017 -0.016055 -0.006932 0.000000 0.000000 0.000000
# 2 -0.016055 0.034243 -0.005042 0.000000 0.000000 0.000000
# 3 -0.006932 -0.005042 0.011678 0.000000 0.000000 0.000000
# 4 0.000000 0.000000 0.000000 0.039192 0.000000 0.000000
# 5 0.000000 0.000000 0.000000 0.000000 0.027088 0.000000
# 6 0.000000 0.000000 0.000000 0.000000 0.000000 0.038477
#
#
# Mechanical properties :
#
#
# Convention : Reuss Voigt Hill
#
# Bulk Modulus (GPa) = 55.93256 69.35350 62.64303
# Shear Modulus (GPa) = 20.77164 25.63186 23.20175
#
# Velocity S-wave (km/s) = 3.41264 3.79092 3.60674
# Velocity P-wave (km/s) = 6.84748 7.61880 7.24341
#
# Compressibility (1/GPa) = 0.01787867
#
# Stress axis : x y z
#
# Youngs Moduli (GPa) = 35.69282 29.20297 85.63222
#
# Poissons Ratio (x) = 0.46886 0.59361
# Poissons Ratio (y) = 0.57306 0.43177
# Poissons Ratio (z) = 0.24743 0.14724
#
# Static dielectric constant tensor:
#      x y z
#    x 1.590560 0.000000 0.000000 
#    y 0.000000 1.585670 0.000000 
#    z 0.000000 0.000000 1.604130 
# 
# From -- ./inp_files/13842.got.cif
#   From: 2010.05.17/outbox.cif.g08.bks.cpg/sg36_7_cif.got.tgz:13842.got - 2010.06.03 17:41:39.
