data_PCOD9351358
_publ_section_title
;
Structure prediction by ZEFSAII (Michael W. Deem and Ramdas Pophale) SiO2 
 PCOD9351358
Probable space group: C M C 21
;
_chemical_formula_sum "Si O2"
_cell_formula_units_Z 64
_cell_length_a 7.554786
_cell_length_b 27.008327
_cell_length_c 13.481220
_cell_angle_alpha 90.000000
_cell_angle_beta 90.000000
_cell_angle_gamma 90.000000
_cell_volume 2750.736853
_symmetry_space_group_name_H-M "C M C 21"
_symmetry_group_IT_number 36
_symmetry_cell_setting 'orthorhombic'
loop_
_space_group_symop_operation_xyz
x,y,z
-x,-y,1/2+z
x,-y,1/2+z
-x,y,z
1/2+x,1/2+y,z
1/2-x,1/2-y,1/2+z
1/2+x,1/2-y,1/2+z
1/2-x,1/2+y,z
loop_
_atom_site_type_symbol
_atom_site_label
_atom_site_fract_x
_atom_site_fract_y
_atom_site_fract_z
Si Si1 0.700665 0.578525 0.439480
Si Si2 0.708086 0.129247 0.026567
Si Si3 0.287479 0.229969 0.115613
Si Si4 0.706290 0.186779 0.487246
Si Si5 0.215697 0.240011 0.822191
Si Si6 0.286434 0.562190 0.217506
Si Si7 0.793022 0.128137 0.808530
Si Si8 0.782875 0.952694 0.150645
O O1 0.500000 0.558881 0.430555
O O2 0.697274 0.635800 0.471733
O O3 0.778786 0.575378 0.328677
O O4 0.781270 0.552805 0.537043
O O5 0.500000 0.134363 0.009413
O O6 0.783627 0.184074 0.051783
O O7 0.731082 0.096678 0.125467
O O8 0.781843 0.108929 0.922466
O O9 0.500000 0.229389 0.109032
O O10 0.238846 0.224858 0.230168
O O11 0.225022 0.285362 0.090649
O O12 0.500000 0.177492 0.466049
O O13 0.778459 0.230241 0.417153
O O14 0.281912 0.183956 0.812709
O O15 0.000000 0.237251 0.828149
O O16 0.500000 0.565458 0.219010
O O17 0.234287 0.505966 0.193556
O O18 0.720992 0.090824 0.725180
O O19 0.000000 0.133387 0.783875
O O20 0.000000 0.950548 0.147886
#
# Coordination Sequence:
#
# PCOD9351358 Si02
#       8
#     8   8   8   8   8   8   8   8
#     4  10  21  39  61  89 122 153 196 248 300 356
#     4  11  23  38  58  88 127 163 195 242 302 357
#     4  10  20  36  57  81 115 158 198 236 283 341
#     4  11  21  35  56  85 118 155 194 232 285 345
#     4   9  18  33  55  82 113 152 193 234 285 337
#     4  10  22  39  64  92 115 152 203 253 298 351
#     4  10  19  36  62  88 118 154 200 250 294 349
#     4   9  20  38  65  93 114 149 201 255 301 346
#
# _framework density 23.266494999999999
#
# number of rings (size 3 to 8) (size 9 to 14) (size 15 to 20)
#    0.000    2.000    1.250    2.250    1.750    4.000 
#    0.000    5.000    0.000    0.000    0.000    0.000 
#    0.000    0.000    0.000    0.000    0.000    0.000 
#
# Total GULP energy -178652.558079 kJ/mol
# GULP energy per Si atom -5582.892440 kJ/mol
# Density = 2.321354 g / cm^3
# Si number density = 23.266495 Si / 1000 Ang^3
#
#
#
# Elastic Constant Matrix: (Units=GPa)
#
#
# Indices 1 2 3 4 5 6 
#
# 1 60.7357 -5.4036 -7.3004 0.0000 0.0000 0.0000
# 2 -5.4036 57.6170 11.5463 0.0000 0.0000 0.0000
# 3 -7.3004 11.5463 120.0373 0.0000 0.0000 0.0000
# 4 0.0000 0.0000 0.0000 33.5314 0.0000 0.0000
# 5 0.0000 0.0000 0.0000 0.0000 7.9679 0.0000
# 6 0.0000 0.0000 0.0000 0.0000 0.0000 1.5082
#
#
#
# Elastic Compliance Matrix: (Units=1/GPa)
#
#
# Indices 1 2 3 4 5 6 
#
# 1 0.016694 0.001389 0.000882 0.000000 0.000000 0.000000
# 2 0.001389 0.017813 -0.001629 0.000000 0.000000 0.000000
# 3 0.000882 -0.001629 0.008541 0.000000 0.000000 0.000000
# 4 0.000000 0.000000 0.000000 0.029823 0.000000 0.000000
# 5 0.000000 0.000000 0.000000 0.000000 0.125504 0.000000
# 6 0.000000 0.000000 0.000000 0.000000 0.000000 0.663046
#
#
# Mechanical properties :
#
#
# Convention : Reuss Voigt Hill
#
# Bulk Modulus (GPa) = 22.55725 26.23050 24.39388
# Shear Modulus (GPa) = 5.71485 24.57136 15.14310
#
# Velocity S-wave (km/s) = 1.56894 3.25327 2.55395
# Velocity P-wave (km/s) = 3.60532 5.04084 4.38226
#
# Compressibility (1/GPa) = 0.04433164
#
# Stress axis : x y z
#
# Youngs Moduli (GPa) = 59.90050 56.13982 117.08161
#
# Poissons Ratio (x) = -0.07798 -0.10323
# Poissons Ratio (y) = -0.08320 0.19072
# Poissons Ratio (z) = -0.05282 0.09145
#
# Static dielectric constant tensor:
#      x y z
#    x 1.866570 0.000000 0.000000 
#    y 0.000000 1.848410 0.000000 
#    z 0.000000 0.000000 1.882410 
# 
# From -- ./inp_files/7058.got.cif
#   From: 2010.05.17/outbox.cif.g08.bks.cpg/sg36_4_cif.got.tgz:7058.got - 2010.06.03 17:41:39.
