data_PCOD9351674
_publ_section_title
;
Structure prediction by ZEFSAII (Michael W. Deem and Ramdas Pophale) SiO2 
 PCOD9351674
Probable space group: C M C 21
;
_chemical_formula_sum "Si O2"
_cell_formula_units_Z 64
_cell_length_a 8.921830
_cell_length_b 20.703761
_cell_length_c 19.907409
_cell_angle_alpha 90.000000
_cell_angle_beta 90.000000
_cell_angle_gamma 90.000000
_cell_volume 3677.205733
_symmetry_space_group_name_H-M "C M C 21"
_symmetry_group_IT_number 36
_symmetry_cell_setting 'orthorhombic'
loop_
_space_group_symop_operation_xyz
x,y,z
-x,-y,1/2+z
x,-y,1/2+z
-x,y,z
1/2+x,1/2+y,z
1/2-x,1/2-y,1/2+z
1/2+x,1/2-y,1/2+z
1/2-x,1/2+y,z
loop_
_atom_site_type_symbol
_atom_site_label
_atom_site_fract_x
_atom_site_fract_y
_atom_site_fract_z
Si Si1 0.178746 0.321843 0.507980
Si Si2 0.821690 0.072488 0.104553
Si Si3 0.679368 0.935044 0.106475
Si Si4 0.178328 0.323006 0.854175
Si Si5 0.320505 0.325868 0.361388
Si Si6 0.321987 0.431238 0.762507
Si Si7 0.179641 0.315986 0.011170
Si Si8 0.178580 0.431007 0.264088
O O1 0.239478 0.374454 0.559989
O O2 0.246998 0.335736 0.434336
O O3 0.236717 0.250457 0.527470
O O4 0.000000 0.323039 0.505013
O O5 0.789337 0.082117 0.183859
O O6 0.000000 0.076846 0.094601
O O7 0.763749 0.000708 0.087438
O O8 0.500000 0.945615 0.100230
O O9 0.720427 0.874736 0.059828
O O10 0.711027 0.920861 0.184849
O O11 0.214163 0.247931 0.839732
O O12 0.266550 0.372654 0.808138
O O13 0.000000 0.332238 0.844316
O O14 0.210805 0.332908 0.933323
O O15 0.500000 0.330915 0.367711
O O16 0.257901 0.377349 0.309075
O O17 0.500000 0.440479 0.769128
O O18 0.238844 0.497660 0.781310
O O19 0.000000 0.304769 0.016366
O O20 0.000000 0.428183 0.273666
#
# Coordination Sequence:
#
# PCOD9351674 Si02
#       8
#     8   8   8   8   8   8   8   8
#     4  11  22  36  56  81 108 139 178 221 265 317
#     4  10  21  37  55  77 108 144 181 222 268 317
#     4   9  19  36  57  80 108 142 180 223 268 316
#     4   9  19  35  55  78 107 141 175 220 271 317
#     4  10  21  38  57  78 108 142 176 218 268 320
#     4  10  21  36  55  78 107 144 183 223 266 316
#     4   9  19  37  57  79 109 141 174 216 268 319
#     4  10  20  35  56  81 109 141 179 223 268 316
#
# _framework density 17.404519000000001
#
# number of rings (size 3 to 8) (size 9 to 14) (size 15 to 20)
#    0.000    2.250    0.000    3.375    0.000    7.000 
#    0.000    7.500    0.000    0.000    0.000    0.000 
#    0.000    0.000    0.000    0.000    0.000    0.000 
#
# Total GULP energy -178660.527417 kJ/mol
# GULP energy per Si atom -5583.141482 kJ/mol
# Density = 1.736491 g / cm^3
# Si number density = 17.404519 Si / 1000 Ang^3
#
#
#
# Elastic Constant Matrix: (Units=GPa)
#
#
# Indices 1 2 3 4 5 6 
#
# 1 83.2041 88.3767 64.9125 0.0000 0.0000 0.0000
# 2 88.3767 163.8600 106.7662 0.0000 0.0000 0.0000
# 3 64.9125 106.7662 83.8880 0.0000 0.0000 0.0000
# 4 0.0000 0.0000 0.0000 40.0622 0.0000 0.0000
# 5 0.0000 0.0000 0.0000 0.0000 27.5075 0.0000
# 6 0.0000 0.0000 0.0000 0.0000 0.0000 37.6403
#
#
#
# Elastic Compliance Matrix: (Units=1/GPa)
#
#
# Indices 1 2 3 4 5 6 
#
# 1 0.031458 -0.006478 -0.016097 0.000000 0.000000 0.000000
# 2 -0.006478 0.037079 -0.042178 0.000000 0.000000 0.000000
# 3 -0.016097 -0.042178 0.078058 0.000000 0.000000 0.000000
# 4 0.000000 0.000000 0.000000 0.024961 0.000000 0.000000
# 5 0.000000 0.000000 0.000000 0.000000 0.036354 0.000000
# 6 0.000000 0.000000 0.000000 0.000000 0.000000 0.026567
#
#
# Mechanical properties :
#
#
# Convention : Reuss Voigt Hill
#
# Bulk Modulus (GPa) = 58.52284 94.56253 76.54268
# Shear Modulus (GPa) = 13.52525 25.76845 19.64685
#
# Velocity S-wave (km/s) = 2.79070 3.85198 3.36346
# Velocity P-wave (km/s) = 6.63943 8.61590 7.69142
#
# Compressibility (1/GPa) = 0.01708735
#
# Stress axis : x y z
#
# Youngs Moduli (GPa) = 31.78849 26.96971 12.81105
#
# Poissons Ratio (x) = 0.17471 0.20622
# Poissons Ratio (y) = 0.20593 0.54034
# Poissons Ratio (z) = 0.51171 1.13753
#
# Static dielectric constant tensor:
#      x y z
#    x 1.579610 0.000000 0.000000 
#    y 0.000000 1.560080 0.000000 
#    z 0.000000 0.000000 1.572410 
# 
# From -- ./inp_files/13801.got.cif
#   From: 2010.05.17/outbox.cif.g08.bks.cpg/sg36_7_cif.got.tgz:13801.got - 2010.06.03 17:41:39.
