data_PCOD9351913
_publ_section_title
;
Structure prediction by ZEFSAII (Michael W. Deem and Ramdas Pophale) SiO2 
 PCOD9351913
Probable space group: C M C 21
;
_chemical_formula_sum "Si O2"
_cell_formula_units_Z 48
_cell_length_a 7.999719
_cell_length_b 28.943176
_cell_length_c 8.050547
_cell_angle_alpha 90.000000
_cell_angle_beta 90.000000
_cell_angle_gamma 90.000000
_cell_volume 1864.001714
_symmetry_space_group_name_H-M "C M C 21"
_symmetry_group_IT_number 36
_symmetry_cell_setting 'orthorhombic'
loop_
_space_group_symop_operation_xyz
x,y,z
-x,-y,1/2+z
x,-y,1/2+z
-x,y,z
1/2+x,1/2+y,z
1/2-x,1/2-y,1/2+z
1/2+x,1/2-y,1/2+z
1/2-x,1/2+y,z
loop_
_atom_site_type_symbol
_atom_site_label
_atom_site_fract_x
_atom_site_fract_y
_atom_site_fract_z
Si Si1 0.702728 0.597477 0.638230
Si Si2 0.811564 0.490697 0.958826
Si Si3 0.195638 0.179455 0.422802
Si Si4 0.794665 0.733785 0.750911
Si Si5 0.694427 0.150772 0.968113
Si Si6 0.184579 0.066690 0.159079
O O1 0.500000 0.598958 0.649880
O O2 0.765721 0.546595 0.600503
O O3 0.759374 0.629928 0.482630
O O4 0.780834 0.620390 0.800461
O O5 0.793750 0.460913 0.791711
O O6 0.000000 0.507603 0.972487
O O7 0.696227 0.534946 0.993351
O O8 0.264986 0.213879 0.283180
O O9 0.217697 0.210242 0.589796
O O10 0.000000 0.174108 0.387878
O O11 0.742660 0.700679 0.905831
O O12 0.000000 0.732378 0.741021
O O13 0.500000 0.154316 0.007217
O O14 0.777124 0.119262 0.109501
O O15 0.000000 0.064729 0.231325
#
# Coordination Sequence:
#
# PCOD9351913 Si02
#       6
#     8   8   8   8   8   8
#     4  10  20  37  59  84 115 151 191 234 282 334
#     4  12  25  42  62  86 115 148 187 230 280 335
#     4   9  19  35  55  81 113 149 189 232 278 330
#     4   9  19  35  55  81 113 149 189 232 278 330
#     4  10  20  37  59  84 115 151 191 234 282 334
#     4  12  25  42  62  86 115 148 187 230 280 335
#
# _framework density 25.751049999999999
#
# number of rings (size 3 to 8) (size 9 to 14) (size 15 to 20)
#    0.000    1.667    0.000    5.000    0.000    3.333 
#    0.000    3.333    0.000    0.000    0.000    0.000 
#    0.000    0.000    0.000    0.000    0.000    0.000 
#
# Total GULP energy -134324.778198 kJ/mol
# GULP energy per Si atom -5596.865758 kJ/mol
# Density = 2.569244 g / cm^3
# Si number density = 25.751050 Si / 1000 Ang^3
#
#
#
# Elastic Constant Matrix: (Units=GPa)
#
#
# Indices 1 2 3 4 5 6 
#
# 1 69.7313 1.5243 -7.8558 0.0000 0.0000 0.0000
# 2 1.5243 150.3919 -7.0479 0.0000 0.0000 0.0000
# 3 -7.8558 -7.0479 78.5875 0.0000 0.0000 0.0000
# 4 0.0000 0.0000 0.0000 53.1298 0.0000 0.0000
# 5 0.0000 0.0000 0.0000 0.0000 28.9840 0.0000
# 6 0.0000 0.0000 0.0000 0.0000 0.0000 21.3364
#
#
#
# Elastic Compliance Matrix: (Units=1/GPa)
#
#
# Indices 1 2 3 4 5 6 
#
# 1 0.014505 -0.000079 0.001443 0.000000 0.000000 0.000000
# 2 -0.000079 0.006678 0.000591 0.000000 0.000000 0.000000
# 3 0.001443 0.000591 0.012922 0.000000 0.000000 0.000000
# 4 0.000000 0.000000 0.000000 0.018822 0.000000 0.000000
# 5 0.000000 0.000000 0.000000 0.000000 0.034502 0.000000
# 6 0.000000 0.000000 0.000000 0.000000 0.000000 0.046868
#
#
# Mechanical properties :
#
#
# Convention : Reuss Voigt Hill
#
# Bulk Modulus (GPa) = 26.30647 30.21691 28.26169
# Shear Modulus (GPa) = 34.95065 41.49606 38.22335
#
# Velocity S-wave (km/s) = 3.68809 4.01862 3.85690
# Velocity P-wave (km/s) = 5.32671 5.76993 5.55275
#
# Compressibility (1/GPa) = 0.03801346
#
# Stress axis : x y z
#
# Youngs Moduli (GPa) = 68.94151 149.75010 77.38806
#
# Poissons Ratio (x) = 0.01189 -0.11166
# Poissons Ratio (y) = 0.00547 -0.04573
# Poissons Ratio (z) = -0.09947 -0.08849
#
# Static dielectric constant tensor:
#      x y z
#    x 1.880810 0.000000 0.000000 
#    y 0.000000 2.006860 0.000000 
#    z 0.000000 0.000000 2.152690 
# 
# From -- ./inp_files/2653.got.cif
#   From: 2010.05.17/outbox.cif.g08.bks.cpg/sg36_2_cif.got.tgz:2653.got - 2010.06.03 17:41:39.
