data_PCOD9351472
_publ_section_title
;
Structure prediction by ZEFSAII (Michael W. Deem and Ramdas Pophale) SiO2 
 PCOD9351472
Probable space group: C M C 21
;
_chemical_formula_sum "Si O2"
_cell_formula_units_Z 64
_cell_length_a 8.785650
_cell_length_b 15.997685
_cell_length_c 19.018824
_cell_angle_alpha 90.000000
_cell_angle_beta 90.000000
_cell_angle_gamma 90.000000
_cell_volume 2673.096878
_symmetry_space_group_name_H-M "C M C 21"
_symmetry_group_IT_number 36
_symmetry_cell_setting 'orthorhombic'
loop_
_space_group_symop_operation_xyz
x,y,z
-x,-y,1/2+z
x,-y,1/2+z
-x,y,z
1/2+x,1/2+y,z
1/2-x,1/2-y,1/2+z
1/2+x,1/2-y,1/2+z
1/2-x,1/2+y,z
loop_
_atom_site_type_symbol
_atom_site_label
_atom_site_fract_x
_atom_site_fract_y
_atom_site_fract_z
Si Si1 0.674488 0.012304 0.481030
Si Si2 0.818108 0.396830 0.114862
Si Si3 0.675731 0.245238 0.451352
Si Si4 0.325762 0.418278 0.360542
Si Si5 0.316897 0.307803 0.237525
Si Si6 0.818743 0.154668 0.324370
Si Si7 0.824925 0.658989 0.074041
Si Si8 0.681016 0.444189 0.691341
O O1 0.500000 0.031980 0.466627
O O2 0.734899 0.081554 0.535578
O O3 0.752548 0.988920 0.408402
O O4 0.677621 0.925576 0.525896
O O5 0.733506 0.325259 0.158308
O O6 0.777038 0.480885 0.158173
O O7 0.000000 0.384257 0.114670
O O8 0.500000 0.229004 0.468231
O O9 0.680164 0.331557 0.405572
O O10 0.739804 0.174498 0.398873
O O11 0.764703 0.269209 0.522064
O O12 0.500000 0.442417 0.351503
O O13 0.268469 0.387842 0.285118
O O14 0.500000 0.298860 0.243021
O O15 0.234268 0.231475 0.274860
O O16 0.782032 0.077627 0.272267
O O17 0.000000 0.156561 0.334716
O O18 0.721895 0.634270 0.140587
O O19 0.000000 0.672993 0.095666
O O20 0.500000 0.462018 0.686194
#
# Coordination Sequence:
#
# PCOD9351472 Si02
#       8
#     8   8   8   8   8   8   8   8
#     4   8  15  26  42  66  92 119 153 193 235 279
#     4  10  20  33  50  73 100 130 164 202 245 294
#     4   9  16  27  45  69  96 125 160 202 245 288
#     4   8  15  26  42  66  92 119 153 193 235 279
#     4  10  20  33  50  73 100 130 164 202 245 294
#     4  10  20  33  50  73 101 132 165 203 247 293
#     4   9  16  27  45  69  96 125 160 202 245 288
#     4  10  20  33  50  73 101 132 165 203 247 293
#
# _framework density 23.942267000000001
#
# number of rings (size 3 to 8) (size 9 to 14) (size 15 to 20)
#    0.000    2.750    0.000    3.750    0.000    9.000 
#    0.000    0.000    0.000    1.500    0.000    7.000 
#    0.000    0.000    0.000    0.000    0.000    0.000 
#
# Total GULP energy -178932.945903 kJ/mol
# GULP energy per Si atom -5591.654559 kJ/mol
# Density = 2.388777 g / cm^3
# Si number density = 23.942267 Si / 1000 Ang^3
#
#
#
# Elastic Constant Matrix: (Units=GPa)
#
#
# Indices 1 2 3 4 5 6 
#
# 1 47.5237 1.4331 26.2322 0.0000 0.0000 0.0000
# 2 1.4331 90.1000 22.3148 0.0000 0.0000 0.0000
# 3 26.2322 22.3148 159.0166 0.0000 0.0000 0.0000
# 4 0.0000 0.0000 0.0000 56.4651 0.0000 0.0000
# 5 0.0000 0.0000 0.0000 0.0000 32.1582 0.0000
# 6 0.0000 0.0000 0.0000 0.0000 0.0000 8.2075
#
#
#
# Elastic Compliance Matrix: (Units=1/GPa)
#
#
# Indices 1 2 3 4 5 6 
#
# 1 0.023181 0.000599 -0.003908 0.000000 0.000000 0.000000
# 2 0.000599 0.011514 -0.001715 0.000000 0.000000 0.000000
# 3 -0.003908 -0.001715 0.007174 0.000000 0.000000 0.000000
# 4 0.000000 0.000000 0.000000 0.017710 0.000000 0.000000
# 5 0.000000 0.000000 0.000000 0.000000 0.031096 0.000000
# 6 0.000000 0.000000 0.000000 0.000000 0.000000 0.121840
#
#
# Mechanical properties :
#
#
# Convention : Reuss Voigt Hill
#
# Bulk Modulus (GPa) = 31.42475 44.06671 37.74573
# Shear Modulus (GPa) = 21.44358 35.81017 28.62688
#
# Velocity S-wave (km/s) = 2.99597 3.87161 3.46159
# Velocity P-wave (km/s) = 5.01213 6.19929 5.63705
#
# Compressibility (1/GPa) = 0.03182205
#
# Stress axis : x y z
#
# Youngs Moduli (GPa) = 43.13818 86.85160 139.39266
#
# Poissons Ratio (x) = -0.05204 0.54477
# Poissons Ratio (y) = -0.02585 0.23900
# Poissons Ratio (z) = 0.16859 0.14892
#
# Static dielectric constant tensor:
#      x y z
#    x 1.794840 0.000000 0.000000 
#    y 0.000000 2.063960 0.000000 
#    z 0.000000 0.000000 1.925940 
# 
# From -- ./inp_files/15688.got.cif
#   From: 2010.05.17/outbox.cif.g08.bks.cpg/sg36_8_cif.got.tgz:15688.got - 2010.06.03 17:41:39.
