data_PCOD9351340
_publ_section_title
;
Structure prediction by ZEFSAII (Michael W. Deem and Ramdas Pophale) SiO2 
 PCOD9351340
Probable space group: C M C 21
;
_chemical_formula_sum "Si O2"
_cell_formula_units_Z 64
_cell_length_a 8.445189
_cell_length_b 15.094617
_cell_length_c 23.495094
_cell_angle_alpha 90.000000
_cell_angle_beta 90.000000
_cell_angle_gamma 90.000000
_cell_volume 2995.081594
_symmetry_space_group_name_H-M "C M C 21"
_symmetry_group_IT_number 36
_symmetry_cell_setting 'orthorhombic'
loop_
_space_group_symop_operation_xyz
x,y,z
-x,-y,1/2+z
x,-y,1/2+z
-x,y,z
1/2+x,1/2+y,z
1/2-x,1/2-y,1/2+z
1/2+x,1/2-y,1/2+z
1/2-x,1/2+y,z
loop_
_atom_site_type_symbol
_atom_site_label
_atom_site_fract_x
_atom_site_fract_y
_atom_site_fract_z
Si Si1 0.307369 0.294718 0.006480
Si Si2 0.812216 0.058217 0.595505
Si Si3 0.313116 0.260672 0.881066
Si Si4 0.185623 0.684833 0.259937
Si Si5 0.309765 0.000241 0.798869
Si Si6 0.685299 0.569121 0.908442
Si Si7 0.813206 0.644125 0.708987
Si Si8 0.688345 0.093189 0.027936
O O1 0.500000 0.295651 0.006880
O O2 0.251799 0.371215 0.048389
O O3 0.259510 0.196190 0.027496
O O4 0.260608 0.305138 0.940484
O O5 0.774340 0.100803 0.656057
O O6 0.000000 0.048227 0.588897
O O7 0.733334 0.963791 0.582783
O O8 0.500000 0.276906 0.871363
O O9 0.217773 0.287839 0.825455
O O10 0.286726 0.156295 0.892760
O O11 0.235443 0.582429 0.259187
O O12 0.274666 0.753538 0.219783
O O13 0.000000 0.691311 0.247196
O O14 0.500000 0.997095 0.806875
O O15 0.227680 0.998199 0.860175
O O16 0.267316 0.090038 0.765902
O O17 0.500000 0.589831 0.905450
O O18 0.730370 0.547467 0.973076
O O19 0.000000 0.631924 0.700966
O O20 0.500000 0.092223 0.019911
#
# Coordination Sequence:
#
# PCOD9351340 Si02
#       8
#     8   8   8   8   8   8   8   8
#     4   8  19  38  60  85 120 162 198 239 304 366
#     4  11  23  41  64  91 121 159 208 261 303 361
#     4  10  19  36  60  88 125 164 197 243 307 373
#     4  11  23  39  61  92 120 156 204 257 306 360
#     4  10  23  41  61  87 123 163 205 251 310 370
#     4  11  21  35  60  92 126 161 203 253 306 361
#     4  11  24  44  64  85 121 169 208 252 309 372
#     4  10  21  40  62  88 122 162 203 246 307 375
#
# _framework density 21.368364
#
# number of rings (size 3 to 8) (size 9 to 14) (size 15 to 20)
#    0.000    1.750    1.250    3.750    1.750    2.500 
#    0.000   11.875    0.000    0.000    0.000    0.000 
#    0.000    0.000    0.000    0.000    0.000    0.000 
#
# Total GULP energy -178857.797856 kJ/mol
# GULP energy per Si atom -5589.306183 kJ/mol
# Density = 2.131973 g / cm^3
# Si number density = 21.368364 Si / 1000 Ang^3
#
#
#
# Elastic Constant Matrix: (Units=GPa)
#
#
# Indices 1 2 3 4 5 6 
#
# 1 32.9218 8.2745 -3.7355 0.0000 0.0000 0.0000
# 2 8.2745 50.3912 -9.7552 0.0000 0.0000 0.0000
# 3 -3.7355 -9.7552 26.2887 0.0000 0.0000 0.0000
# 4 0.0000 0.0000 0.0000 26.0640 0.0000 0.0000
# 5 0.0000 0.0000 0.0000 0.0000 31.8769 0.0000
# 6 0.0000 0.0000 0.0000 0.0000 0.0000 20.1520
#
#
#
# Elastic Compliance Matrix: (Units=1/GPa)
#
#
# Indices 1 2 3 4 5 6 
#
# 1 0.031871 -0.004694 0.002787 0.000000 0.000000 0.000000
# 2 -0.004694 0.022072 0.007524 0.000000 0.000000 0.000000
# 3 0.002787 0.007524 0.041227 0.000000 0.000000 0.000000
# 4 0.000000 0.000000 0.000000 0.038367 0.000000 0.000000
# 5 0.000000 0.000000 0.000000 0.000000 0.031371 0.000000
# 6 0.000000 0.000000 0.000000 0.000000 0.000000 0.049623
#
#
# Mechanical properties :
#
#
# Convention : Reuss Voigt Hill
#
# Bulk Modulus (GPa) = 9.39825 11.01882 10.20853
# Shear Modulus (GPa) = 20.94106 23.27309 22.10708
#
# Velocity S-wave (km/s) = 3.13390 3.30379 3.21996
# Velocity P-wave (km/s) = 4.18364 4.44085 4.31416
#
# Compressibility (1/GPa) = 0.10640282
#
# Stress axis : x y z
#
# Youngs Moduli (GPa) = 31.37654 45.30636 24.25599
#
# Poissons Ratio (x) = 0.21266 -0.06760
# Poissons Ratio (y) = 0.14728 -0.18249
# Poissons Ratio (z) = -0.08744 -0.34086
#
# Static dielectric constant tensor:
#      x y z
#    x 1.713690 0.000000 0.000000 
#    y 0.000000 1.801410 0.000000 
#    z 0.000000 0.000000 1.770670 
# 
# From -- ./inp_files/15593.got.cif
#   From: 2010.05.17/outbox.cif.g08.bks.cpg/sg36_8_cif.got.tgz:15593.got - 2010.06.03 17:41:39.
