data_PCOD9351561
_publ_section_title
;
Structure prediction by ZEFSAII (Michael W. Deem and Ramdas Pophale) SiO2 
 PCOD9351561
Probable space group: C M C 21
;
_chemical_formula_sum "Si O2"
_cell_formula_units_Z 48
_cell_length_a 13.151650
_cell_length_b 29.934177
_cell_length_c 4.709778
_cell_angle_alpha 90.000000
_cell_angle_beta 90.000000
_cell_angle_gamma 90.000000
_cell_volume 1854.163389
_symmetry_space_group_name_H-M "C M C 21"
_symmetry_group_IT_number 36
_symmetry_cell_setting 'orthorhombic'
loop_
_space_group_symop_operation_xyz
x,y,z
-x,-y,1/2+z
x,-y,1/2+z
-x,y,z
1/2+x,1/2+y,z
1/2-x,1/2-y,1/2+z
1/2+x,1/2-y,1/2+z
1/2-x,1/2+y,z
loop_
_atom_site_type_symbol
_atom_site_label
_atom_site_fract_x
_atom_site_fract_y
_atom_site_fract_z
Si Si1 0.700707 0.808401 0.375000
Si Si2 0.379865 0.030256 0.403578
Si Si3 0.884073 0.179072 0.286098
Si Si4 0.880074 0.969959 0.263078
Si Si5 0.252695 0.601894 0.093493
Si Si6 0.883641 0.249016 0.838938
O O1 0.818063 0.796337 0.522763
O O2 0.699351 0.861339 0.390854
O O3 0.678204 0.782323 0.088775
O O4 0.626107 0.788877 0.604559
O O5 0.500000 0.038115 0.378606
O O6 0.322022 0.072046 0.277505
O O7 0.356663 0.014586 0.720941
O O8 0.822451 0.133058 0.297224
O O9 0.883765 0.209177 0.563249
O O10 0.000000 0.167588 0.211837
O O11 0.821910 0.929002 0.396601
O O12 0.000000 0.961214 0.288816
O O13 0.858337 0.984834 0.943473
O O14 0.000000 0.246321 0.954441
#
# Coordination Sequence:
#
# PCOD9351561 Si02
#       6
#     8   8   8   8   8   8
#     4   8  17  30  53  76 104 149 182 237 287 357
#     4  10  21  38  59  83 115 155 197 242 297 355
#     4   7  15  30  52  74 103 145 180 234 292 351
#     4  10  20  34  54  80 112 148 186 229 283 344
#     4   9  18  31  53  76 105 145 189 241 281 352
#     4   8  15  31  49  71 103 138 182 229 282 343
#
# _framework density 25.887682999999999
#
# number of rings (size 3 to 8) (size 9 to 14) (size 15 to 20)
#    2.000    1.000    0.000    1.500    0.000    0.667 
#    0.000    8.333    0.000    8.000    0.000    0.000 
#    0.000    0.000    0.000    0.000    0.000    0.000 
#
# Total GULP energy -133975.402011 kJ/mol
# GULP energy per Si atom -5582.308417 kJ/mol
# Density = 2.582876 g / cm^3
# Si number density = 25.887683 Si / 1000 Ang^3
#
#
#
# Elastic Constant Matrix: (Units=GPa)
#
#
# Indices 1 2 3 4 5 6 
#
# 1 161.1205 61.0186 32.2996 0.0000 0.0000 0.0000
# 2 61.0186 180.0798 40.7563 0.0000 0.0000 0.0000
# 3 32.2996 40.7563 134.3691 0.0000 0.0000 0.0000
# 4 0.0000 0.0000 0.0000 11.4500 0.0000 0.0000
# 5 0.0000 0.0000 0.0000 0.0000 40.5663 0.0000
# 6 0.0000 0.0000 0.0000 0.0000 0.0000 33.8250
#
#
#
# Elastic Compliance Matrix: (Units=1/GPa)
#
#
# Indices 1 2 3 4 5 6 
#
# 1 0.007261 -0.002218 -0.001073 0.000000 0.000000 0.000000
# 2 -0.002218 0.006640 -0.001481 0.000000 0.000000 0.000000
# 3 -0.001073 -0.001481 0.008149 0.000000 0.000000 0.000000
# 4 0.000000 0.000000 0.000000 0.087337 0.000000 0.000000
# 5 0.000000 0.000000 0.000000 0.000000 0.024651 0.000000
# 6 0.000000 0.000000 0.000000 0.000000 0.000000 0.029564
#
#
# Mechanical properties :
#
#
# Convention : Reuss Voigt Hill
#
# Bulk Modulus (GPa) = 79.95103 82.63540 81.29322
# Shear Modulus (GPa) = 28.19858 39.93456 34.06657
#
# Velocity S-wave (km/s) = 3.30398 3.93187 3.63152
# Velocity P-wave (km/s) = 6.74581 7.25278 7.00388
#
# Compressibility (1/GPa) = 0.01250766
#
# Stress axis : x y z
#
# Youngs Moduli (GPa) = 137.71307 150.60949 122.71084
#
# Poissons Ratio (x) = 0.33400 0.13165
# Poissons Ratio (y) = 0.30540 0.18171
# Poissons Ratio (z) = 0.14775 0.22303
#
# Static dielectric constant tensor:
#      x y z
#    x 2.164890 0.000000 0.000000 
#    y 0.000000 1.997750 0.000000 
#    z 0.000000 0.000000 2.054680 
# 
# From -- ./inp_files/835.got.cif
#   From: 2010.05.17/outbox.cif.g08.bks.cpg/sg36_1_cif.got.tgz:835.got - 2010.06.03 17:41:39.
