data_PCOD9351786
_publ_section_title
;
Structure prediction by ZEFSAII (Michael W. Deem and Ramdas Pophale) SiO2 
 PCOD9351786
Probable space group: C M C 21
;
_chemical_formula_sum "Si O2"
_cell_formula_units_Z 56
_cell_length_a 21.854602
_cell_length_b 5.109688
_cell_length_c 22.354632
_cell_angle_alpha 90.000000
_cell_angle_beta 90.000000
_cell_angle_gamma 90.000000
_cell_volume 2496.346172
_symmetry_space_group_name_H-M "C M C 21"
_symmetry_group_IT_number 36
_symmetry_cell_setting 'orthorhombic'
loop_
_space_group_symop_operation_xyz
x,y,z
-x,-y,1/2+z
x,-y,1/2+z
-x,y,z
1/2+x,1/2+y,z
1/2-x,1/2-y,1/2+z
1/2+x,1/2-y,1/2+z
1/2-x,1/2+y,z
loop_
_atom_site_type_symbol
_atom_site_label
_atom_site_fract_x
_atom_site_fract_y
_atom_site_fract_z
Si Si1 0.567006 0.066807 0.677310
Si Si2 0.928393 0.206637 0.985384
Si Si3 0.427776 0.852153 0.810559
Si Si4 0.926857 0.294438 0.426224
Si Si5 0.102439 0.956743 0.109832
Si Si6 0.217377 0.266879 0.641442
Si Si7 0.793364 0.186383 0.782619
O O1 0.500000 0.181069 0.666578
O O2 0.607959 0.308326 0.657421
O O3 0.572763 0.991193 0.746100
O O4 0.571837 0.800160 0.639013
O O5 0.901689 0.993251 0.939336
O O6 0.000000 0.242387 0.971618
O O7 0.902420 0.495106 0.974609
O O8 0.924789 0.084940 0.050878
O O9 0.500000 0.743771 0.817074
O O10 0.419712 0.066875 0.862565
O O11 0.363156 0.689435 0.808777
O O12 0.000000 0.259899 0.434502
O O13 0.168747 0.845333 0.095823
O O14 0.226362 0.571872 0.633714
O O15 0.197694 0.212972 0.710293
O O16 0.748781 0.434003 0.797055
#
# Coordination Sequence:
#
# PCOD9351786 Si02
#       7
#     8   8   8   8   8   8   8
#     4  11  23  35  55  91 126 153 185 245 320 370
#     4  10  20  36  57  83 114 157 201 244 297 366
#     4  10  22  41  64  94 129 163 205 262 315 370
#     4   9  20  37  58  82 114 157 203 245 300 365
#     4  12  22  37  59  84 120 155 199 247 309 364
#     4  10  21  37  57  81 115 157 203 246 297 371
#     4  10  22  39  62  87 124 166 204 243 302 378
#
# _framework density 22.432784999999999
#
# number of rings (size 3 to 8) (size 9 to 14) (size 15 to 20)
#    0.000    1.714    1.429    3.000    4.000    3.429 
#    0.000    6.429    0.000    5.143    0.000    0.000 
#    0.000    0.000    0.000    0.000    0.000    0.000 
#
# Total GULP energy -156043.209651 kJ/mol
# GULP energy per Si atom -5572.971773 kJ/mol
# Density = 2.238173 g / cm^3
# Si number density = 22.432785 Si / 1000 Ang^3
#
#
#
# Elastic Constant Matrix: (Units=GPa)
#
#
# Indices 1 2 3 4 5 6 
#
# 1 105.0190 50.6230 0.3466 0.0000 0.0000 0.0000
# 2 50.6230 88.8765 6.0683 0.0000 0.0000 0.0000
# 3 0.3466 6.0683 47.4212 0.0000 0.0000 0.0000
# 4 0.0000 0.0000 0.0000 22.9982 0.0000 0.0000
# 5 0.0000 0.0000 0.0000 0.0000 5.6469 0.0000
# 6 0.0000 0.0000 0.0000 0.0000 0.0000 18.9875
#
#
#
# Elastic Compliance Matrix: (Units=1/GPa)
#
#
# Indices 1 2 3 4 5 6 
#
# 1 0.013162 -0.007556 0.000871 0.000000 0.000000 0.000000
# 2 -0.007556 0.015689 -0.001952 0.000000 0.000000 0.000000
# 3 0.000871 -0.001952 0.021331 0.000000 0.000000 0.000000
# 4 0.000000 0.000000 0.000000 0.043482 0.000000 0.000000
# 5 0.000000 0.000000 0.000000 0.000000 0.177088 0.000000
# 6 0.000000 0.000000 0.000000 0.000000 0.000000 0.052666
#
#
# Mechanical properties :
#
#
# Convention : Reuss Voigt Hill
#
# Bulk Modulus (GPa) = 30.38974 39.48803 34.93889
# Shear Modulus (GPa) = 14.21821 21.81176 18.01499
#
# Velocity S-wave (km/s) = 2.52030 3.12158 2.83691
# Velocity P-wave (km/s) = 4.69528 5.53474 5.13220
#
# Compressibility (1/GPa) = 0.03290584
#
# Stress axis : x y z
#
# Youngs Moduli (GPa) = 75.97901 63.73997 46.87990
#
# Poissons Ratio (x) = 0.48163 -0.04082
# Poissons Ratio (y) = 0.57411 0.09153
# Poissons Ratio (z) = -0.06616 0.12445
#
# Static dielectric constant tensor:
#      x y z
#    x 1.936300 0.000000 0.000000 
#    y 0.000000 1.843430 0.000000 
#    z 0.000000 0.000000 1.838680 
# 
# From -- ./inp_files/17038.got.cif
#   From: 2010.05.17/outbox.cif.g08.bks.cpg/sg36_9_cif.got.tgz:17038.got - 2010.06.03 17:41:39.
