data_PCOD9351571
_publ_section_title
;
Structure prediction by ZEFSAII (Michael W. Deem and Ramdas Pophale) SiO2 
 PCOD9351571
Probable space group: C M C 21
;
_chemical_formula_sum "Si O2"
_cell_formula_units_Z 64
_cell_length_a 9.412817
_cell_length_b 28.532951
_cell_length_c 12.613379
_cell_angle_alpha 90.000000
_cell_angle_beta 90.000000
_cell_angle_gamma 90.000000
_cell_volume 3387.643893
_symmetry_space_group_name_H-M "C M C 21"
_symmetry_group_IT_number 36
_symmetry_cell_setting 'orthorhombic'
loop_
_space_group_symop_operation_xyz
x,y,z
-x,-y,1/2+z
x,-y,1/2+z
-x,y,z
1/2+x,1/2+y,z
1/2-x,1/2-y,1/2+z
1/2+x,1/2-y,1/2+z
1/2-x,1/2+y,z
loop_
_atom_site_type_symbol
_atom_site_label
_atom_site_fract_x
_atom_site_fract_y
_atom_site_fract_z
Si Si1 0.835054 0.217372 0.990120
Si Si2 0.834127 0.069745 0.860651
Si Si3 0.158437 0.431513 0.571807
Si Si4 0.838358 0.329526 0.678883
Si Si5 0.167780 0.169824 0.765345
Si Si6 0.169995 0.871012 0.870384
Si Si7 0.332606 0.469771 0.757295
Si Si8 0.834576 0.323239 0.051261
O O1 0.794325 0.195574 0.876183
O O2 0.000000 0.202852 0.009549
O O3 0.737901 0.200112 0.087157
O O4 0.829394 0.273411 0.990976
O O5 0.814101 0.114135 0.784315
O O6 0.000000 0.070091 0.892126
O O7 0.802199 0.019419 0.810555
O O8 0.739085 0.076077 0.963110
O O9 0.151524 0.381566 0.630091
O O10 0.244919 0.464604 0.650143
O O11 0.000000 0.449151 0.553662
O O12 0.742294 0.336761 0.783064
O O13 0.000000 0.313226 0.702766
O O14 0.263666 0.183777 0.666156
O O15 0.000000 0.179141 0.745019
O O16 0.196850 0.924566 0.831809
O O17 0.000000 0.863992 0.874788
O O18 0.244033 0.859678 0.981785
O O19 0.500000 0.467800 0.732566
O O20 0.000000 0.336985 0.060487
#
# Coordination Sequence:
#
# PCOD9351571 Si02
#       8
#     8   8   8   8   8   8   8   8
#     4  10  22  40  61  87 116 153 198 243 293 351
#     4  10  20  37  62  86 113 153 200 248 291 345
#     4  10  20  34  54  84 117 150 188 238 300 353
#     4  10  20  35  59  87 115 148 192 245 296 349
#     4  10  22  41  63  87 118 156 200 246 298 354
#     4  10  21  39  61  85 118 157 199 243 295 352
#     4   9  20  37  59  86 114 153 203 247 289 346
#     4  11  25  41  59  88 125 160 198 244 300 358
#
# _framework density 18.892185000000001
#
# number of rings (size 3 to 8) (size 9 to 14) (size 15 to 20)
#    0.000    2.000    1.250    1.500    1.750    5.000 
#    0.000    5.000    0.000    0.000    0.000    0.000 
#    0.000    0.000    0.000    0.000    0.000    0.000 
#
# Total GULP energy -178632.072403 kJ/mol
# GULP energy per Si atom -5582.252263 kJ/mol
# Density = 1.884919 g / cm^3
# Si number density = 18.892185 Si / 1000 Ang^3
#
#
#
# Elastic Constant Matrix: (Units=GPa)
#
#
# Indices 1 2 3 4 5 6 
#
# 1 63.7583 35.7002 51.4417 0.0000 0.0000 0.0000
# 2 35.7002 55.9023 28.2088 0.0000 0.0000 0.0000
# 3 51.4417 28.2088 81.6114 0.0000 0.0000 0.0000
# 4 0.0000 0.0000 0.0000 19.6331 0.0000 0.0000
# 5 0.0000 0.0000 0.0000 0.0000 24.0536 0.0000
# 6 0.0000 0.0000 0.0000 0.0000 0.0000 84.9209
#
#
#
# Elastic Compliance Matrix: (Units=1/GPa)
#
#
# Indices 1 2 3 4 5 6 
#
# 1 0.041024 -0.015929 -0.020353 0.000000 0.000000 0.000000
# 2 -0.015929 0.027852 0.000413 0.000000 0.000000 0.000000
# 3 -0.020353 0.000413 0.024939 0.000000 0.000000 0.000000
# 4 0.000000 0.000000 0.000000 0.050934 0.000000 0.000000
# 5 0.000000 0.000000 0.000000 0.000000 0.041574 0.000000
# 6 0.000000 0.000000 0.000000 0.000000 0.000000 0.011776
#
#
# Mechanical properties :
#
#
# Convention : Reuss Voigt Hill
#
# Bulk Modulus (GPa) = 45.29183 47.99704 46.64443
# Shear Modulus (GPa) = 18.03775 31.44963 24.74369
#
# Velocity S-wave (km/s) = 3.09329 4.08449 3.62295
# Velocity P-wave (km/s) = 6.06497 6.90688 6.49957
#
# Compressibility (1/GPa) = 0.02207904
#
# Stress axis : x y z
#
# Youngs Moduli (GPa) = 24.37569 35.90380 40.09720
#
# Poissons Ratio (x) = 0.57190 0.81610
# Poissons Ratio (y) = 0.38827 -0.01657
# Poissons Ratio (z) = 0.49612 -0.01483
#
# Static dielectric constant tensor:
#      x y z
#    x 1.648390 0.000000 0.000000 
#    y 0.000000 1.662770 0.000000 
#    z 0.000000 0.000000 1.632920 
# 
# From -- ./inp_files/7158.got.cif
#   From: 2010.05.17/outbox.cif.g08.bks.cpg/sg36_4_cif.got.tgz:7158.got - 2010.06.03 17:41:39.
