data_PCOD9351129
_publ_section_title
;
Structure prediction by ZEFSAII (Michael W. Deem and Ramdas Pophale) SiO2 
 PCOD9351129
Probable space group: C M C 21
;
_chemical_formula_sum "Si O2"
_cell_formula_units_Z 64
_cell_length_a 8.359859
_cell_length_b 29.378230
_cell_length_c 14.621205
_cell_angle_alpha 90.000000
_cell_angle_beta 90.000000
_cell_angle_gamma 90.000000
_cell_volume 3590.936665
_symmetry_space_group_name_H-M "C M C 21"
_symmetry_group_IT_number 36
_symmetry_cell_setting 'orthorhombic'
loop_
_space_group_symop_operation_xyz
x,y,z
-x,-y,1/2+z
x,-y,1/2+z
-x,y,z
1/2+x,1/2+y,z
1/2-x,1/2-y,1/2+z
1/2+x,1/2-y,1/2+z
1/2-x,1/2+y,z
loop_
_atom_site_type_symbol
_atom_site_label
_atom_site_fract_x
_atom_site_fract_y
_atom_site_fract_z
Si Si1 0.191378 0.052430 0.027840
Si Si2 0.806927 0.875333 0.175815
Si Si3 0.691107 0.875907 0.382657
Si Si4 0.308893 0.875907 0.673023
Si Si5 0.304890 0.801727 0.527840
Si Si6 0.806927 0.875333 0.879865
Si Si7 0.695195 0.448652 0.027840
Si Si8 0.804794 0.802019 0.027840
O O1 0.247263 0.080719 0.116225
O O2 0.000000 0.051374 0.027839
O O3 0.251322 0.000519 0.027840
O O4 0.247265 0.080719 0.939456
O O5 0.746049 0.875435 0.278555
O O6 0.756044 0.919435 0.116711
O O7 0.756116 0.831217 0.116742
O O8 0.000000 0.875399 0.177777
O O9 0.500000 0.876681 0.386034
O O10 0.745249 0.831202 0.439533
O O11 0.500000 0.876682 0.669646
O O12 0.254752 0.831202 0.616148
O O13 0.253953 0.875435 0.777125
O O14 0.500000 0.800471 0.527840
O O15 0.248061 0.749852 0.527840
O O16 0.000000 0.875399 0.877903
O O17 0.756044 0.919435 0.938969
O O18 0.756116 0.831217 0.938938
O O19 0.500000 0.449204 0.027841
O O20 0.000000 0.801400 0.027840
#
# Coordination Sequence:
#
# PCOD9351129 Si02
#       8
#     8   8   8   8   8   8   8   8
#     4  10  19  34  54  71  91 124 167 204 236 279
#     4   9  17  32  53  74  95 122 162 203 238 281
#     4  10  20  33  48  71 104 132 155 191 242 290
#     4  10  20  33  48  71 104 132 155 191 242 290
#     4   8  16  31  48  67  97 132 159 192 240 283
#     4   9  17  32  53  74  95 122 162 203 238 281
#     4   8  17  33  52  73  95 122 159 207 247 273
#     4   8  15  30  52  73  93 124 165 203 235 275
#
# _framework density 17.822648000000001
#
# number of rings (size 3 to 8) (size 9 to 14) (size 15 to 20)
#    0.000    3.000    0.000    3.375    0.000    2.000 
#    0.000   10.000    0.000    7.500    0.000    0.000 
#    0.000    0.000    0.000    0.000    0.000    0.000 
#
# Total GULP energy -178373.462718 kJ/mol
# GULP energy per Si atom -5574.170710 kJ/mol
# Density = 1.778208 g / cm^3
# Si number density = 17.822648 Si / 1000 Ang^3
#
#
#
# Elastic Constant Matrix: (Units=GPa)
#
#
# Indices 1 2 3 4 5 6 
#
# 1 20.0467 25.1479 26.1564 0.0000 0.0000 0.0000
# 2 25.1479 210.4078 115.4005 0.0000 0.0000 0.0000
# 3 26.1564 115.4005 201.4801 0.0000 0.0000 0.0000
# 4 0.0000 0.0000 0.0000 6.4576 0.0000 0.0000
# 5 0.0000 0.0000 0.0000 0.0000 7.7847 0.0000
# 6 0.0000 0.0000 0.0000 0.0000 0.0000 16.3997
#
#
#
# Elastic Compliance Matrix: (Units=1/GPa)
#
#
# Indices 1 2 3 4 5 6 
#
# 1 0.062755 -0.004421 -0.005615 0.000000 0.000000 0.000000
# 2 -0.004421 0.007241 -0.003573 0.000000 0.000000 0.000000
# 3 -0.005615 -0.003573 0.007739 0.000000 0.000000 0.000000
# 4 0.000000 0.000000 0.000000 0.154857 0.000000 0.000000
# 5 0.000000 0.000000 0.000000 0.000000 0.128457 0.000000
# 6 0.000000 0.000000 0.000000 0.000000 0.000000 0.060977
#
#
# Mechanical properties :
#
#
# Convention : Reuss Voigt Hill
#
# Bulk Modulus (GPa) = 19.79538 85.03824 52.41681
# Shear Modulus (GPa) = 10.72770 23.81040 17.26905
#
# Velocity S-wave (km/s) = 2.45606 3.65905 3.11615
# Velocity P-wave (km/s) = 4.37880 8.10362 6.51316
#
# Compressibility (1/GPa) = 0.05051684
#
# Stress axis : x y z
#
# Youngs Moduli (GPa) = 15.93488 138.10343 129.21718
#
# Poissons Ratio (x) = 0.61056 0.72553
# Poissons Ratio (y) = 0.07045 0.46175
# Poissons Ratio (z) = 0.08947 0.49350
#
# Static dielectric constant tensor:
#      x y z
#    x 1.618610 0.000000 0.000000 
#    y 0.000000 1.612230 0.000000 
#    z 0.000000 0.000000 1.585850 
# 
# From -- ./inp_files/11211.got.cif
#   From: 2010.05.17/outbox.cif.g08.bks.cpg/sg36_6_cif.got.tgz:11211.got - 2010.06.03 17:41:39.
