data_PCOD9351260
_publ_section_title
;
Structure prediction by ZEFSAII (Michael W. Deem and Ramdas Pophale) SiO2 
 PCOD9351260
Probable space group: C M C 21
;
_chemical_formula_sum "Si O2"
_cell_formula_units_Z 64
_cell_length_a 14.365384
_cell_length_b 14.141489
_cell_length_c 18.493558
_cell_angle_alpha 90.000000
_cell_angle_beta 90.000000
_cell_angle_gamma 90.000000
_cell_volume 3756.927838
_symmetry_space_group_name_H-M "C M C 21"
_symmetry_group_IT_number 36
_symmetry_cell_setting 'orthorhombic'
loop_
_space_group_symop_operation_xyz
x,y,z
-x,-y,1/2+z
x,-y,1/2+z
-x,y,z
1/2+x,1/2+y,z
1/2-x,1/2-y,1/2+z
1/2+x,1/2-y,1/2+z
1/2-x,1/2+y,z
loop_
_atom_site_type_symbol
_atom_site_label
_atom_site_fract_x
_atom_site_fract_y
_atom_site_fract_z
Si Si1 0.217714 0.156574 0.325130
Si Si2 0.107788 0.656459 0.842798
Si Si3 0.229230 0.293283 0.667138
Si Si4 0.224700 0.505638 0.921137
Si Si5 0.609374 0.388062 0.166440
Si Si6 0.391389 0.147001 0.671599
Si Si7 0.731896 0.993908 0.592649
Si Si8 0.892342 0.026651 0.823381
O O1 0.171755 0.251702 0.354511
O O2 0.272469 0.178023 0.251699
O O3 0.276445 0.097881 0.383778
O O4 0.135218 0.082068 0.304960
O O5 0.142338 0.570549 0.891543
O O6 0.118352 0.629884 0.757938
O O7 0.000000 0.679244 0.855639
O O8 0.149887 0.215972 0.651919
O O9 0.326959 0.237958 0.655547
O O10 0.222510 0.386938 0.619947
O O11 0.319845 0.550167 0.886954
O O12 0.227347 0.500455 0.006572
O O13 0.500000 0.395539 0.151631
O O14 0.671276 0.461729 0.121418
O O15 0.624909 0.412596 0.251319
O O16 0.500000 0.161467 0.655655
O O17 0.347534 0.059218 0.628872
O O18 0.000000 0.034301 0.843700
#
# Coordination Sequence:
#
# PCOD9351260 Si02
#       8
#     8   8   8   8   8   8   8   8
#     4   9  18  34  58  80 106 135 184 228 275 311
#     4  10  19  35  58  83 103 138 189 234 270 321
#     4  10  19  35  59  80 107 139 186 232 274 324
#     4  10  22  34  53  82 116 147 177 223 274 330
#     4  10  21  37  57  84 111 142 185 236 276 319
#     4   9  20  36  57  79 105 138 186 234 273 320
#     4  11  21  37  54  79 115 152 178 217 275 334
#     4   9  17  34  57  79 105 139 182 228 272 313
#
# _framework density 17.035194000000001
#
# number of rings (size 3 to 8) (size 9 to 14) (size 15 to 20)
#    0.750    1.500    1.250    3.375    0.000    4.500 
#    0.000    1.875    0.000    2.250    0.000    0.000 
#    0.000    0.000    0.000    0.000    0.000    0.000 
#
# Total GULP energy -178322.595114 kJ/mol
# GULP energy per Si atom -5572.581097 kJ/mol
# Density = 1.699642 g / cm^3
# Si number density = 17.035194 Si / 1000 Ang^3
#
#
#
# Elastic Constant Matrix: (Units=GPa)
#
#
# Indices 1 2 3 4 5 6 
#
# 1 33.8819 22.7643 12.1379 0.0000 0.0000 0.0000
# 2 22.7643 106.5557 48.3487 0.0000 0.0000 0.0000
# 3 12.1379 48.3487 55.6948 0.0000 0.0000 0.0000
# 4 0.0000 0.0000 0.0000 -2.5287 0.0000 0.0000
# 5 0.0000 0.0000 0.0000 0.0000 9.2565 0.0000
# 6 0.0000 0.0000 0.0000 0.0000 0.0000 10.9307
#
#
#
# Elastic Compliance Matrix: (Units=1/GPa)
#
#
# Indices 1 2 3 4 5 6 
#
# 1 0.034576 -0.006546 -0.001853 0.000000 0.000000 0.000000
# 2 -0.006546 0.016723 -0.013091 0.000000 0.000000 0.000000
# 3 -0.001853 -0.013091 0.029723 0.000000 0.000000 0.000000
# 4 0.000000 0.000000 0.000000 -0.395463 0.000000 0.000000
# 5 0.000000 0.000000 0.000000 0.000000 0.108033 0.000000
# 6 0.000000 0.000000 0.000000 0.000000 0.000000 0.091485
#
#
# Mechanical properties :
#
#
# Convention : Reuss Voigt Hill
#
# Bulk Modulus (GPa) = 26.28602 40.29267 33.28934
# Shear Modulus (GPa) = -84.36846 11.05714 -36.65566
#
# Velocity S-wave (km/s) = -7.04510 2.55046 -4.64374
# Velocity P-wave (km/s) = 7.12138 5.69009 3.02795
#
# Compressibility (1/GPa) = 0.03804304
#
# Stress axis : x y z
#
# Youngs Moduli (GPa) = 28.92173 59.79776 33.64423
#
# Poissons Ratio (x) = 0.39144 0.06233
# Poissons Ratio (y) = 0.18933 0.44042
# Poissons Ratio (z) = 0.05358 0.78279
#
# Static dielectric constant tensor:
#      x y z
#    x 1.571920 0.000000 0.000000 
#    y 0.000000 1.575540 0.000000 
#    z 0.000000 0.000000 1.556480 
# 
# From -- ./inp_files/14768.got.cif
#   From: 2010.05.17/outbox.cif.g08.bks.cpg/sg36_8_cif.got.tgz:14768.got - 2010.06.03 17:41:39.
