data_PCOD9351380
_publ_section_title
;
Structure prediction by ZEFSAII (Michael W. Deem and Ramdas Pophale) SiO2 
 PCOD9351380
Probable space group: C M C 21
;
_chemical_formula_sum "Si O2"
_cell_formula_units_Z 56
_cell_length_a 27.581402
_cell_length_b 5.337148
_cell_length_c 17.652132
_cell_angle_alpha 90.000000
_cell_angle_beta 90.000000
_cell_angle_gamma 90.000000
_cell_volume 2598.500176
_symmetry_space_group_name_H-M "C M C 21"
_symmetry_group_IT_number 36
_symmetry_cell_setting 'orthorhombic'
loop_
_space_group_symop_operation_xyz
x,y,z
-x,-y,1/2+z
x,-y,1/2+z
-x,y,z
1/2+x,1/2+y,z
1/2-x,1/2-y,1/2+z
1/2+x,1/2-y,1/2+z
1/2-x,1/2+y,z
loop_
_atom_site_type_symbol
_atom_site_label
_atom_site_fract_x
_atom_site_fract_y
_atom_site_fract_z
Si Si1 0.558220 0.549184 0.492970
Si Si2 0.385358 0.526519 0.149127
Si Si3 0.308498 0.343087 0.538779
Si Si4 0.614305 0.985843 0.742448
Si Si5 0.441931 0.952150 0.899974
Si Si6 0.221325 0.416267 0.301379
Si Si7 0.700705 0.156866 0.977997
O O1 0.500000 0.551084 0.503813
O O2 0.583670 0.516496 0.573483
O O3 0.571281 0.808569 0.451463
O O4 0.569919 0.309284 0.440869
O O5 0.330491 0.576253 0.118512
O O6 0.402083 0.776361 0.192495
O O7 0.388562 0.278310 0.199355
O O8 0.322462 0.569305 0.482166
O O9 0.250659 0.314519 0.526591
O O10 0.328187 0.070643 0.515674
O O11 0.584657 0.971394 0.820070
O O12 0.669991 0.039114 0.763358
O O13 0.500000 0.959519 0.888525
O O14 0.256115 0.647810 0.282010
O O15 0.213707 0.416886 0.392754
#
# Coordination Sequence:
#
# PCOD9351380 Si02
#       7
#     8   8   8   8   8   8   8
#     4  10  23  43  73 105 132 171 228 282 329 393
#     4  12  26  44  63 101 139 178 220 273 345 412
#     4  10  20  36  59  86 120 155 219 266 310 385
#     4  12  28  44  65 101 142 184 219 269 357 413
#     4  10  23  45  73 105 134 174 227 283 332 400
#     4  12  23  43  64  90 131 174 232 276 332 395
#     4  10  19  37  61  90 109 160 225 267 323 360
#
# _framework density 21.550892999999999
#
# number of rings (size 3 to 8) (size 9 to 14) (size 15 to 20)
#    0.000    1.143    2.857    3.429    4.000    1.143 
#   15.429    0.000    0.000    0.000    0.000    0.000 
#    0.000    0.000    0.000    0.000    0.000    0.000 
#
# Total GULP energy -156615.553241 kJ/mol
# GULP energy per Si atom -5593.412616 kJ/mol
# Density = 2.150184 g / cm^3
# Si number density = 21.550893 Si / 1000 Ang^3
#
#
#
# Elastic Constant Matrix: (Units=GPa)
#
#
# Indices 1 2 3 4 5 6 
#
# 1 53.7026 18.7006 48.3120 0.0000 0.0000 0.0000
# 2 18.7006 128.9432 45.1234 0.0000 0.0000 0.0000
# 3 48.3120 45.1234 116.6012 0.0000 0.0000 0.0000
# 4 0.0000 0.0000 0.0000 39.5256 0.0000 0.0000
# 5 0.0000 0.0000 0.0000 0.0000 5.8959 0.0000
# 6 0.0000 0.0000 0.0000 0.0000 0.0000 25.5616
#
#
#
# Elastic Compliance Matrix: (Units=1/GPa)
#
#
# Indices 1 2 3 4 5 6 
#
# 1 0.029687 -0.000001 -0.012300 0.000000 0.000000 0.000000
# 2 -0.000001 0.008970 -0.003471 0.000000 0.000000 0.000000
# 3 -0.012300 -0.003471 0.015016 0.000000 0.000000 0.000000
# 4 0.000000 0.000000 0.000000 0.025300 0.000000 0.000000
# 5 0.000000 0.000000 0.000000 0.000000 0.169610 0.000000
# 6 0.000000 0.000000 0.000000 0.000000 0.000000 0.039121
#
#
# Mechanical properties :
#
#
# Convention : Reuss Voigt Hill
#
# Bulk Modulus (GPa) = 45.18996 58.16880 51.67938
# Shear Modulus (GPa) = 15.30815 26.67068 20.98942
#
# Velocity S-wave (km/s) = 2.66809 3.52172 3.12420
# Velocity P-wave (km/s) = 5.52323 6.60202 6.08657
#
# Compressibility (1/GPa) = 0.02212881
#
# Stress axis : x y z
#
# Youngs Moduli (GPa) = 33.68523 111.48095 66.59716
#
# Poissons Ratio (x) = 0.00013 0.81913
# Poissons Ratio (y) = 0.00004 0.23115
# Poissons Ratio (z) = 0.41432 0.38694
#
# Static dielectric constant tensor:
#      x y z
#    x 1.845920 0.000000 0.000000 
#    y 0.000000 1.823180 0.000000 
#    z 0.000000 0.000000 1.741120 
# 
# From -- ./inp_files/13162.got.cif
#   From: 2010.05.17/outbox.cif.g08.bks.cpg/sg36_7_cif.got.tgz:13162.got - 2010.06.03 17:41:39.
