data_PCOD9351361
_publ_section_title
;
Structure prediction by ZEFSAII (Michael W. Deem and Ramdas Pophale) SiO2 
 PCOD9351361
Probable space group: C M C 21
;
_chemical_formula_sum "Si O2"
_cell_formula_units_Z 48
_cell_length_a 22.192710
_cell_length_b 17.753871
_cell_length_c 5.205669
_cell_angle_alpha 90.000000
_cell_angle_beta 90.000000
_cell_angle_gamma 90.000000
_cell_volume 2051.067477
_symmetry_space_group_name_H-M "C M C 21"
_symmetry_group_IT_number 36
_symmetry_cell_setting 'orthorhombic'
loop_
_space_group_symop_operation_xyz
x,y,z
-x,-y,1/2+z
x,-y,1/2+z
-x,y,z
1/2+x,1/2+y,z
1/2-x,1/2-y,1/2+z
1/2+x,1/2-y,1/2+z
1/2-x,1/2+y,z
loop_
_atom_site_type_symbol
_atom_site_label
_atom_site_fract_x
_atom_site_fract_y
_atom_site_fract_z
Si Si1 0.113200 0.316348 0.387340
Si Si2 0.784863 0.352123 0.995641
Si Si3 0.367343 0.948646 0.696008
Si Si4 0.933532 0.182204 0.124029
Si Si5 0.928099 0.960985 0.962552
Si Si6 0.823149 0.799750 0.251824
O O1 0.159916 0.357385 0.196801
O O2 0.093988 0.375220 0.607508
O O3 0.066493 0.268407 0.222554
O O4 0.149482 0.249830 0.524399
O O5 0.802614 0.407778 0.762315
O O6 0.721792 0.361901 0.138994
O O7 0.786417 0.264581 0.908739
O O8 0.376779 0.996083 0.954650
O O9 0.922661 0.123212 0.354851
O O10 0.878378 0.175104 0.928825
O O11 0.000000 0.164250 0.013101
O O12 0.000000 0.973771 0.986284
O O13 0.903382 0.985101 0.237459
#
# Coordination Sequence:
#
# PCOD9351361 Si02
#       6
#     8   8   8   8   8   8
#     4  10  21  38  66  95 127 181 226 289 350 422
#     4  10  19  36  62  94 126 171 224 279 345 429
#     4  11  22  39  63  96 136 176 221 279 356 427
#     4  10  23  39  62  99 137 179 239 298 350 423
#     4   9  19  37  60  84 120 173 221 265 327 395
#     4  10  20  35  62  94 129 170 230 286 348 416
#
# _framework density 23.402446999999999
#
# number of rings (size 3 to 8) (size 9 to 14) (size 15 to 20)
#    0.000    2.000    3.333    0.000    2.333    0.667 
#    0.000    1.667    0.000    1.000    0.000    0.000 
#    0.000    0.000    0.000    0.000    0.000    0.000 
#
# Total GULP energy -133823.047057 kJ/mol
# GULP energy per Si atom -5575.960294 kJ/mol
# Density = 2.334918 g / cm^3
# Si number density = 23.402447 Si / 1000 Ang^3
#
#
#
# Elastic Constant Matrix: (Units=GPa)
#
#
# Indices 1 2 3 4 5 6 
#
# 1 67.7216 23.1855 18.6629 0.0000 0.0000 0.0000
# 2 23.1855 51.4405 36.9861 0.0000 0.0000 0.0000
# 3 18.6629 36.9861 112.6717 0.0000 0.0000 0.0000
# 4 0.0000 0.0000 0.0000 54.3803 0.0000 0.0000
# 5 0.0000 0.0000 0.0000 0.0000 16.5946 0.0000
# 6 0.0000 0.0000 0.0000 0.0000 0.0000 12.4846
#
#
#
# Elastic Compliance Matrix: (Units=1/GPa)
#
#
# Indices 1 2 3 4 5 6 
#
# 1 0.017475 -0.007585 -0.000404 0.000000 0.000000 0.000000
# 2 -0.007585 0.028738 -0.008177 0.000000 0.000000 0.000000
# 3 -0.000404 -0.008177 0.011627 0.000000 0.000000 0.000000
# 4 0.000000 0.000000 0.000000 0.018389 0.000000 0.000000
# 5 0.000000 0.000000 0.000000 0.000000 0.060261 0.000000
# 6 0.000000 0.000000 0.000000 0.000000 0.000000 0.080099
#
#
# Mechanical properties :
#
#
# Convention : Reuss Voigt Hill
#
# Bulk Modulus (GPa) = 39.20753 43.27809 41.24281
# Shear Modulus (GPa) = 19.42314 26.89183 23.15749
#
# Velocity S-wave (km/s) = 2.88403 3.39352 3.14910
# Velocity P-wave (km/s) = 5.28017 5.82132 5.55733
#
# Compressibility (1/GPa) = 0.02550531
#
# Stress axis : x y z
#
# Youngs Moduli (GPa) = 57.22520 34.79654 86.00904
#
# Poissons Ratio (x) = 0.26395 0.03479
# Poissons Ratio (y) = 0.43408 0.70333
# Poissons Ratio (z) = 0.02315 0.28454
#
# Static dielectric constant tensor:
#      x y z
#    x 1.886500 0.000000 0.000000 
#    y 0.000000 1.936800 0.000000 
#    z 0.000000 0.000000 1.988720 
# 
# From -- ./inp_files/1792.got.cif
#   From: 2010.05.17/outbox.cif.g08.bks.cpg/sg36_1_cif.got.tgz:1792.got - 2010.06.03 17:41:39.
