data_PCOD9351003
_publ_section_title
;
Structure prediction by ZEFSAII (Michael W. Deem and Ramdas Pophale) SiO2 
 PCOD9351003
Probable space group: C M C 21
;
_chemical_formula_sum "Si O2"
_cell_formula_units_Z 48
_cell_length_a 21.847256
_cell_length_b 10.212105
_cell_length_c 9.212441
_cell_angle_alpha 90.000000
_cell_angle_beta 90.000000
_cell_angle_gamma 90.000000
_cell_volume 2055.355212
_symmetry_space_group_name_H-M "C M C 21"
_symmetry_group_IT_number 36
_symmetry_cell_setting 'orthorhombic'
loop_
_space_group_symop_operation_xyz
x,y,z
-x,-y,1/2+z
x,-y,1/2+z
-x,y,z
1/2+x,1/2+y,z
1/2-x,1/2-y,1/2+z
1/2+x,1/2-y,1/2+z
1/2-x,1/2+y,z
loop_
_atom_site_type_symbol
_atom_site_label
_atom_site_fract_x
_atom_site_fract_y
_atom_site_fract_z
Si Si1 0.810861 0.509819 0.408560
Si Si2 0.808401 0.231102 0.758781
Si Si3 0.125735 0.743602 0.782310
Si Si4 0.065988 0.436613 0.054247
Si Si5 0.222112 0.855633 0.574447
Si Si6 0.930542 0.250483 0.591403
O O1 0.785510 0.623021 0.308372
O O2 0.828041 0.372655 0.332983
O O3 0.875249 0.574744 0.454162
O O4 0.769930 0.472778 0.545207
O O5 0.764415 0.230099 0.617682
O O6 0.876792 0.212660 0.700840
O O7 0.801948 0.153272 0.907607
O O8 0.076869 0.664208 0.684488
O O9 0.164108 0.845592 0.683602
O O10 0.092683 0.788797 0.929646
O O11 0.068076 0.589731 0.098423
O O12 0.000000 0.413233 0.983934
O O13 0.000000 0.204793 0.618006
#
# Coordination Sequence:
#
# PCOD9351003 Si02
#       6
#     8   8   8   8   8   8
#     4  11  21  36  54  83 121 164 198 249 293 359
#     4  12  22  38  56  82 123 162 200 245 298 363
#     4  11  19  36  52  82 119 164 202 241 286 358
#     4  10  19  32  54  83 121 163 191 228 301 369
#     4  12  23  37  57  81 121 166 209 246 295 360
#     4  10  21  35  55  85 122 159 194 239 309 377
#
# _framework density 23.353625000000001
#
# number of rings (size 3 to 8) (size 9 to 14) (size 15 to 20)
#    0.000    1.000    8.333    0.500    0.000    1.333 
#    0.000    0.000    0.000    0.000    0.000    0.000 
#    0.000   54.667    0.000    0.000    0.000    0.000 
#
# Total GULP energy -133797.460750 kJ/mol
# GULP energy per Si atom -5574.894198 kJ/mol
# Density = 2.330047 g / cm^3
# Si number density = 23.353625 Si / 1000 Ang^3
#
#
#
# Elastic Constant Matrix: (Units=GPa)
#
#
# Indices 1 2 3 4 5 6 
#
# 1 148.3818 8.5555 50.9596 0.0000 0.0000 0.0000
# 2 8.5555 21.1763 5.5232 0.0000 0.0000 0.0000
# 3 50.9596 5.5232 93.7963 0.0000 0.0000 0.0000
# 4 0.0000 0.0000 0.0000 21.2478 0.0000 0.0000
# 5 0.0000 0.0000 0.0000 0.0000 37.5301 0.0000
# 6 0.0000 0.0000 0.0000 0.0000 0.0000 -16.9013
#
#
#
# Elastic Compliance Matrix: (Units=1/GPa)
#
#
# Indices 1 2 3 4 5 6 
#
# 1 0.008388 -0.002235 -0.004426 0.000000 0.000000 0.000000
# 2 -0.002235 0.048554 -0.001645 0.000000 0.000000 0.000000
# 3 -0.004426 -0.001645 0.013163 0.000000 0.000000 0.000000
# 4 0.000000 0.000000 0.000000 0.047064 0.000000 0.000000
# 5 0.000000 0.000000 0.000000 0.000000 0.026645 0.000000
# 6 0.000000 0.000000 0.000000 0.000000 0.000000 -0.059167
#
#
# Mechanical properties :
#
#
# Convention : Reuss Voigt Hill
#
# Bulk Modulus (GPa) = 18.69348 43.71455 31.20402
# Shear Modulus (GPa) = 41.98518 21.59639 31.79078
#
# Velocity S-wave (km/s) = 4.24465 3.04428 3.69355
# Velocity P-wave (km/s) = 5.66080 5.57817 5.61964
#
# Compressibility (1/GPa) = 0.05349459
#
# Stress axis : x y z
#
# Youngs Moduli (GPa) = 119.21561 20.59546 75.97186
#
# Poissons Ratio (x) = 0.04602 0.33623
# Poissons Ratio (y) = 0.26640 0.12498
# Poissons Ratio (z) = 0.52761 0.03388
#
# Static dielectric constant tensor:
#      x y z
#    x 1.959540 0.000000 0.000000 
#    y 0.000000 1.931320 0.000000 
#    z 0.000000 0.000000 2.088210 
# 
# From -- ./inp_files/5133.got.cif
#   From: 2010.05.17/outbox.cif.g08.bks.cpg/sg36_3_cif.got.tgz:5133.got - 2010.06.03 17:41:39.
