data_PCOD9351298
_publ_section_title
;
Structure prediction by ZEFSAII (Michael W. Deem and Ramdas Pophale) SiO2 
 PCOD9351298
Probable space group: C M C 21
;
_chemical_formula_sum "Si O2"
_cell_formula_units_Z 64
_cell_length_a 7.816617
_cell_length_b 31.293823
_cell_length_c 12.350394
_cell_angle_alpha 90.000000
_cell_angle_beta 90.000000
_cell_angle_gamma 90.000000
_cell_volume 3021.052463
_symmetry_space_group_name_H-M "C M C 21"
_symmetry_group_IT_number 36
_symmetry_cell_setting 'orthorhombic'
loop_
_space_group_symop_operation_xyz
x,y,z
-x,-y,1/2+z
x,-y,1/2+z
-x,y,z
1/2+x,1/2+y,z
1/2-x,1/2-y,1/2+z
1/2+x,1/2-y,1/2+z
1/2-x,1/2+y,z
loop_
_atom_site_type_symbol
_atom_site_label
_atom_site_fract_x
_atom_site_fract_y
_atom_site_fract_z
Si Si1 0.199896 0.677035 0.167140
Si Si2 0.708841 0.209876 0.945339
Si Si3 0.203641 0.039623 0.945918
Si Si4 0.290157 0.444964 0.897240
Si Si5 0.792169 0.916955 0.659007
Si Si6 0.300169 0.624497 0.571989
Si Si7 0.201569 0.693928 0.402959
Si Si8 0.800744 0.625082 0.820338
O O1 0.219448 0.628836 0.127334
O O2 0.276204 0.679190 0.287015
O O3 0.000000 0.688113 0.178848
O O4 0.269422 0.705338 0.069773
O O5 0.500000 0.210229 0.943736
O O6 0.771596 0.255450 0.905067
O O7 0.768785 0.168605 0.876351
O O8 0.231667 0.080700 0.869560
O O9 0.000000 0.034371 0.952937
O O10 0.270160 0.993728 0.908393
O O11 0.264983 0.050337 0.066903
O O12 0.500000 0.444022 0.897781
O O13 0.236250 0.427824 0.780070
O O14 0.233486 0.413634 0.994062
O O15 0.000000 0.914816 0.657699
O O16 0.500000 0.616161 0.590561
O O17 0.281501 0.667927 0.502432
O O18 0.220197 0.626929 0.690825
O O19 0.000000 0.683954 0.407812
O O20 0.000000 0.624562 0.847011
#
# Coordination Sequence:
#
# PCOD9351298 Si02
#       8
#     8   8   8   8   8   8   8   8
#     4  10  21  40  62  85 118 155 192 244 300 355
#     4  10  23  42  62  85 118 160 199 241 299 359
#     4  10  21  37  62  91 119 156 202 249 297 352
#     4   9  20  37  60  90 120 155 200 247 294 350
#     4  10  19  35  61  89 116 151 200 250 291 348
#     4  11  23  41  64  87 121 164 203 246 300 359
#     4  11  24  40  62  92 122 153 198 250 300 355
#     4  11  24  42  61  87 124 160 200 251 303 358
#
# _framework density 21.184671999999999
#
# number of rings (size 3 to 8) (size 9 to 14) (size 15 to 20)
#    0.000    1.750    2.500    1.125    3.500    2.000 
#    0.000    1.875    0.000    0.000    0.000    0.000 
#    0.000    0.000    0.000    0.000    0.000    0.000 
#
# Total GULP energy -178668.870908 kJ/mol
# GULP energy per Si atom -5583.402216 kJ/mol
# Density = 2.113645 g / cm^3
# Si number density = 21.184672 Si / 1000 Ang^3
#
#
#
# Elastic Constant Matrix: (Units=GPa)
#
#
# Indices 1 2 3 4 5 6 
#
# 1 22.5306 -13.1491 -6.6471 0.0000 0.0000 0.0000
# 2 -13.1491 107.1381 24.3503 0.0000 0.0000 0.0000
# 3 -6.6471 24.3503 102.4944 0.0000 0.0000 0.0000
# 4 0.0000 0.0000 0.0000 29.8378 0.0000 0.0000
# 5 0.0000 0.0000 0.0000 0.0000 16.1649 0.0000
# 6 0.0000 0.0000 0.0000 0.0000 0.0000 18.2003
#
#
#
# Elastic Compliance Matrix: (Units=1/GPa)
#
#
# Indices 1 2 3 4 5 6 
#
# 1 0.048126 0.005494 0.001816 0.000000 0.000000 0.000000
# 2 0.005494 0.010494 -0.002137 0.000000 0.000000 0.000000
# 3 0.001816 -0.002137 0.010382 0.000000 0.000000 0.000000
# 4 0.000000 0.000000 0.000000 0.033515 0.000000 0.000000
# 5 0.000000 0.000000 0.000000 0.000000 0.061862 0.000000
# 6 0.000000 0.000000 0.000000 0.000000 0.000000 0.054944
#
#
# Mechanical properties :
#
#
# Convention : Reuss Voigt Hill
#
# Bulk Modulus (GPa) = 12.60274 26.80791 19.70533
# Shear Modulus (GPa) = 21.23807 28.01453 24.62630
#
# Velocity S-wave (km/s) = 3.16970 3.64042 3.41318
# Velocity P-wave (km/s) = 4.39976 5.50927 4.98548
#
# Compressibility (1/GPa) = 0.07934781
#
# Stress axis : x y z
#
# Youngs Moduli (GPa) = 20.77874 95.29573 96.32017
#
# Poissons Ratio (x) = -0.52354 -0.17491
# Poissons Ratio (y) = -0.11416 0.20581
# Poissons Ratio (z) = -0.03773 0.20362
#
# Static dielectric constant tensor:
#      x y z
#    x 1.780790 0.000000 0.000000 
#    y 0.000000 1.737660 0.000000 
#    z 0.000000 0.000000 1.752320 
# 
# From -- ./inp_files/7082.got.cif
#   From: 2010.05.17/outbox.cif.g08.bks.cpg/sg36_4_cif.got.tgz:7082.got - 2010.06.03 17:41:39.
