data_PCOD9351275
_publ_section_title
;
Structure prediction by ZEFSAII (Michael W. Deem and Ramdas Pophale) SiO2 
 PCOD9351275
Probable space group: C M C 21
;
_chemical_formula_sum "Si O2"
_cell_formula_units_Z 64
_cell_length_a 9.310715
_cell_length_b 32.252680
_cell_length_c 11.330208
_cell_angle_alpha 90.000000
_cell_angle_beta 90.000000
_cell_angle_gamma 90.000000
_cell_volume 3402.410606
_symmetry_space_group_name_H-M "C M C 21"
_symmetry_group_IT_number 36
_symmetry_cell_setting 'orthorhombic'
loop_
_space_group_symop_operation_xyz
x,y,z
-x,-y,1/2+z
x,-y,1/2+z
-x,y,z
1/2+x,1/2+y,z
1/2-x,1/2-y,1/2+z
1/2+x,1/2-y,1/2+z
1/2-x,1/2+y,z
loop_
_atom_site_type_symbol
_atom_site_label
_atom_site_fract_x
_atom_site_fract_y
_atom_site_fract_z
Si Si1 0.670086 0.832828 0.047390
Si Si2 0.169850 0.261809 0.239639
Si Si3 0.336819 0.607483 0.706260
Si Si4 0.825790 0.526529 0.046831
Si Si5 0.174104 0.525284 0.779855
Si Si6 0.837238 0.179243 0.904212
Si Si7 0.667820 0.818612 0.777277
Si Si8 0.168714 0.621315 0.079722
O O1 0.500000 0.842401 0.055109
O O2 0.695997 0.793040 0.130700
O O3 0.759329 0.871738 0.094819
O O4 0.706283 0.822367 0.913708
O O5 0.250175 0.282233 0.351582
O O6 0.236356 0.216884 0.219089
O O7 0.000000 0.259732 0.259878
O O8 0.500000 0.594064 0.681737
O O9 0.243379 0.570194 0.758236
O O10 0.342824 0.644694 0.800904
O O11 0.784889 0.511272 0.914136
O O12 0.000000 0.525892 0.049527
O O13 0.780678 0.502046 0.165501
O O14 0.780252 0.574612 0.058611
O O15 0.000000 0.528026 0.778297
O O16 0.000000 0.191122 0.936393
O O17 0.754409 0.155173 0.005837
O O18 0.500000 0.806318 0.767402
O O19 0.681550 0.862864 0.713508
O O20 0.000000 0.622944 0.046154
#
# Coordination Sequence:
#
# PCOD9351275 Si02
#       8
#     8   8   8   8   8   8   8   8
#     4   9  20  38  56  78 110 149 188 231 283 344
#     4  10  21  36  56  81 109 146 190 233 282 338
#     4  10  20  35  57  84 109 142 186 234 284 336
#     4   9  19  34  57  86 115 149 196 242 287 347
#     4  10  19  35  59  86 115 151 193 241 291 349
#     4  10  20  35  57  81 109 144 187 232 280 335
#     4  10  22  37  55  82 116 149 186 236 291 343
#     4  10  20  36  57  84 115 150 192 237 286 344
#
# _framework density 18.810193000000002
#
# number of rings (size 3 to 8) (size 9 to 14) (size 15 to 20)
#    0.000    2.250    1.250    1.125    1.750    3.500 
#    0.000    5.000    0.000    0.000    0.000    0.000 
#    0.000    0.000    0.000    0.000    0.000    0.000 
#
# Total GULP energy -178445.051293 kJ/mol
# GULP energy per Si atom -5576.407853 kJ/mol
# Density = 1.876738 g / cm^3
# Si number density = 18.810193 Si / 1000 Ang^3
#
#
#
# Elastic Constant Matrix: (Units=GPa)
#
#
# Indices 1 2 3 4 5 6 
#
# 1 40.7588 21.3383 40.0761 0.0000 0.0000 0.0000
# 2 21.3383 61.2039 39.3128 0.0000 0.0000 0.0000
# 3 40.0761 39.3128 103.6367 0.0000 0.0000 0.0000
# 4 0.0000 0.0000 0.0000 19.6702 0.0000 0.0000
# 5 0.0000 0.0000 0.0000 0.0000 14.4130 0.0000
# 6 0.0000 0.0000 0.0000 0.0000 0.0000 23.5153
#
#
#
# Elastic Compliance Matrix: (Units=1/GPa)
#
#
# Indices 1 2 3 4 5 6 
#
# 1 0.040903 -0.005422 -0.013760 0.000000 0.000000 0.000000
# 2 -0.005422 0.022321 -0.006370 0.000000 0.000000 0.000000
# 3 -0.013760 -0.006370 0.017387 0.000000 0.000000 0.000000
# 4 0.000000 0.000000 0.000000 0.050838 0.000000 0.000000
# 5 0.000000 0.000000 0.000000 0.000000 0.069382 0.000000
# 6 0.000000 0.000000 0.000000 0.000000 0.000000 0.042525
#
#
# Mechanical properties :
#
#
# Convention : Reuss Voigt Hill
#
# Bulk Modulus (GPa) = 33.89223 45.22820 39.56022
# Shear Modulus (GPa) = 16.43130 18.51118 17.47124
#
# Velocity S-wave (km/s) = 2.95876 3.14045 3.05096
# Velocity P-wave (km/s) = 5.45248 6.10300 5.78689
#
# Compressibility (1/GPa) = 0.02950528
#
# Stress axis : x y z
#
# Youngs Moduli (GPa) = 24.44805 44.80080 57.51509
#
# Poissons Ratio (x) = 0.24290 0.79143
# Poissons Ratio (y) = 0.13255 0.36640
# Poissons Ratio (z) = 0.33642 0.28540
#
# Static dielectric constant tensor:
#      x y z
#    x 1.636390 0.000000 0.000000 
#    y 0.000000 1.625460 0.000000 
#    z 0.000000 0.000000 1.684680 
# 
# From -- ./inp_files/7185.got.cif
#   From: 2010.05.17/outbox.cif.g08.bks.cpg/sg36_4_cif.got.tgz:7185.got - 2010.06.03 17:41:39.
