data_PCOD9351376
_publ_section_title
;
Structure prediction by ZEFSAII (Michael W. Deem and Ramdas Pophale) SiO2 
 PCOD9351376
Probable space group: C M C 21
;
_chemical_formula_sum "Si O2"
_cell_formula_units_Z 48
_cell_length_a 7.978991
_cell_length_b 28.254650
_cell_length_c 9.680600
_cell_angle_alpha 90.000000
_cell_angle_beta 90.000000
_cell_angle_gamma 90.000000
_cell_volume 2182.429295
_symmetry_space_group_name_H-M "C M C 21"
_symmetry_group_IT_number 36
_symmetry_cell_setting 'orthorhombic'
loop_
_space_group_symop_operation_xyz
x,y,z
-x,-y,1/2+z
x,-y,1/2+z
-x,y,z
1/2+x,1/2+y,z
1/2-x,1/2-y,1/2+z
1/2+x,1/2-y,1/2+z
1/2-x,1/2+y,z
loop_
_atom_site_type_symbol
_atom_site_label
_atom_site_fract_x
_atom_site_fract_y
_atom_site_fract_z
Si Si1 0.299796 0.641584 0.448920
Si Si2 0.000000 0.496900 0.627469
Si Si3 0.500000 0.059808 0.864811
Si Si4 0.803507 0.681911 0.730371
Si Si5 0.243723 0.866128 0.487848
Si Si6 0.797164 0.208696 0.195670
Si Si7 0.314077 0.436650 0.732823
O O1 0.500000 0.641808 0.470587
O O2 0.212669 0.651054 0.592925
O O3 0.260963 0.684145 0.342360
O O4 0.261544 0.592823 0.368689
O O5 0.000000 0.546909 0.704624
O O6 0.167893 0.471417 0.685367
O O7 0.000000 0.486891 0.463482
O O8 0.650771 0.092726 0.913627
O O9 0.759175 0.736054 0.696866
O O10 0.000000 0.681305 0.776821
O O11 0.686691 0.661407 0.851040
O O12 0.300857 0.821227 0.580310
O O13 0.167277 0.897332 0.611774
O O14 0.000000 0.203306 0.168913
O O15 0.500000 0.458134 0.753805
#
# Coordination Sequence:
#
# PCOD9351376 Si02
#       7
#     8   4   4   8   8   8   8
#     4   9  19  35  53  78 113 155 203 253 315 373
#     4  10  22  40  66  92 128 158 210 268 328 384
#     4  10  22  40  62  94 118 166 214 262 328 396
#     4  11  21  32  52  86 121 156 210 262 311 371
#     4  10  19  37  60  83 122 167 206 258 318 377
#     4   9  19  36  54  77 116 165 213 258 304 376
#     4   9  20  40  65  88 119 165 211 257 320 397
#
# _framework density 21.993839999999999
#
# number of rings (size 3 to 8) (size 9 to 14) (size 15 to 20)
#    0.000    2.333    0.833    2.500    1.167    2.667 
#    3.000    4.167    0.000    0.000    0.000    0.000 
#    0.000    0.000    0.000    0.000    0.000    0.000 
#
# Total GULP energy -133609.487732 kJ/mol
# GULP energy per Si atom -5567.061989 kJ/mol
# Density = 2.194378 g / cm^3
# Si number density = 21.993840 Si / 1000 Ang^3
#
#
#
# Elastic Constant Matrix: (Units=GPa)
#
#
# Indices 1 2 3 4 5 6 
#
# 1 45.5793 13.0024 9.3995 0.0000 0.0000 0.0000
# 2 13.0024 54.3913 23.4413 0.0000 0.0000 0.0000
# 3 9.3995 23.4413 103.9274 0.0000 0.0000 0.0000
# 4 0.0000 0.0000 0.0000 38.8829 0.0000 0.0000
# 5 0.0000 0.0000 0.0000 0.0000 142.9396 0.0000
# 6 0.0000 0.0000 0.0000 0.0000 0.0000 7.8929
#
#
#
# Elastic Compliance Matrix: (Units=1/GPa)
#
#
# Indices 1 2 3 4 5 6 
#
# 1 0.023631 -0.005237 -0.000956 0.000000 0.000000 0.000000
# 2 -0.005237 0.021526 -0.004382 0.000000 0.000000 0.000000
# 3 -0.000956 -0.004382 0.010697 0.000000 0.000000 0.000000
# 4 0.000000 0.000000 0.000000 0.025718 0.000000 0.000000
# 5 0.000000 0.000000 0.000000 0.000000 0.006996 0.000000
# 6 0.000000 0.000000 0.000000 0.000000 0.000000 0.126696
#
#
# Mechanical properties :
#
#
# Convention : Reuss Voigt Hill
#
# Bulk Modulus (GPa) = 28.81500 32.84272 30.82886
# Shear Modulus (GPa) = 20.16283 48.48007 34.32145
#
# Velocity S-wave (km/s) = 3.03107 4.70004 3.95461
# Velocity P-wave (km/s) = 5.03783 6.66476 5.90757
#
# Compressibility (1/GPa) = 0.03470415
#
# Stress axis : x y z
#
# Youngs Moduli (GPa) = 42.31745 46.45643 93.48548
#
# Poissons Ratio (x) = 0.24329 0.08937
# Poissons Ratio (y) = 0.22162 0.40961
# Poissons Ratio (z) = 0.04046 0.20355
#
# Static dielectric constant tensor:
#      x y z
#    x 1.874450 0.000000 0.000000 
#    y 0.000000 1.790090 0.000000 
#    z 0.000000 0.000000 1.782750 
# 
# From -- ./inp_files/2754.got.cif
#   From: 2010.05.17/outbox.cif.g08.bks.cpg/sg36_2_cif.got.tgz:2754.got - 2010.06.03 17:41:39.
