data_PCOD9351489
_publ_section_title
;
Structure prediction by ZEFSAII (Michael W. Deem and Ramdas Pophale) SiO2 
 PCOD9351489
Probable space group: C M C 21
;
_chemical_formula_sum "Si O2"
_cell_formula_units_Z 64
_cell_length_a 29.072244
_cell_length_b 12.203658
_cell_length_c 8.793672
_cell_angle_alpha 90.000000
_cell_angle_beta 90.000000
_cell_angle_gamma 90.000000
_cell_volume 3119.886866
_symmetry_space_group_name_H-M "C M C 21"
_symmetry_group_IT_number 36
_symmetry_cell_setting 'orthorhombic'
loop_
_space_group_symop_operation_xyz
x,y,z
-x,-y,1/2+z
x,-y,1/2+z
-x,y,z
1/2+x,1/2+y,z
1/2-x,1/2-y,1/2+z
1/2+x,1/2-y,1/2+z
1/2-x,1/2+y,z
loop_
_atom_site_type_symbol
_atom_site_label
_atom_site_fract_x
_atom_site_fract_y
_atom_site_fract_z
Si Si1 0.269996 0.838748 0.496290
Si Si2 0.103561 0.801357 0.693258
Si Si3 0.121091 0.853877 0.204334
Si Si4 0.826067 0.721389 0.459590
Si Si5 0.176830 0.878790 0.933801
Si Si6 0.552676 0.550401 0.946827
Si Si7 0.772016 0.532805 0.306631
Si Si8 0.551695 0.286101 0.980420
O O1 0.219723 0.785291 0.512601
O O2 0.305472 0.739312 0.491623
O O3 0.275306 0.922837 0.635666
O O4 0.276839 0.904652 0.338927
O O5 0.133975 0.723784 0.584984
O O6 0.140965 0.863118 0.798392
O O7 0.073403 0.881612 0.587778
O O8 0.069937 0.746492 0.817104
O O9 0.154640 0.791797 0.318638
O O10 0.085470 0.921098 0.306419
O O11 0.150133 0.924114 0.081200
O O12 0.090126 0.767848 0.108298
O O13 0.808828 0.604059 0.401312
O O14 0.221396 0.940969 0.874574
O O15 0.500000 0.585095 0.917435
O O16 0.551283 0.419835 0.970994
O O17 0.500000 0.249654 0.014454
#
# Coordination Sequence:
#
# PCOD9351489 Si02
#       8
#     8   8   8   8   8   8   8   8
#     4  11  24  37  58  80 108 149 185 228 283 323
#     4  10  20  34  53  74 106 153 178 225 269 312
#     4  10  20  34  53  70 106 153 178 221 267 312
#     4  10  22  40  52  76 117 143 186 231 266 320
#     4  10  22  40  52  76 117 143 186 231 266 320
#     4  10  20  33  51  78 112 145 183 224 268 325
#     4  11  24  37  58  80 108 149 185 228 283 323
#     4  10  20  33  51  78 112 145 183 224 268 325
#
# _framework density 20.513563999999999
#
# number of rings (size 3 to 8) (size 9 to 14) (size 15 to 20)
#    0.000    1.750    2.500    1.500    3.500    8.000 
#    0.000    0.000    0.000    0.000    0.000    0.000 
#    0.000   70.000    0.000    0.000    0.000    0.000 
#
# Total GULP energy -178885.874681 kJ/mol
# GULP energy per Si atom -5590.183584 kJ/mol
# Density = 2.046687 g / cm^3
# Si number density = 20.513564 Si / 1000 Ang^3
#
#
#
# Elastic Constant Matrix: (Units=GPa)
#
#
# Indices 1 2 3 4 5 6 
#
# 1 105.7473 12.9718 20.2759 0.0000 0.0000 0.0000
# 2 12.9718 26.8126 1.6374 0.0000 0.0000 0.0000
# 3 20.2759 1.6374 87.2463 0.0000 0.0000 0.0000
# 4 0.0000 0.0000 0.0000 23.6746 0.0000 0.0000
# 5 0.0000 0.0000 0.0000 0.0000 25.4625 0.0000
# 6 0.0000 0.0000 0.0000 0.0000 0.0000 18.9901
#
#
#
# Elastic Compliance Matrix: (Units=1/GPa)
#
#
# Indices 1 2 3 4 5 6 
#
# 1 0.010514 -0.004943 -0.002351 0.000000 0.000000 0.000000
# 2 -0.004943 0.039663 0.000404 0.000000 0.000000 0.000000
# 3 -0.002351 0.000404 0.012000 0.000000 0.000000 0.000000
# 4 0.000000 0.000000 0.000000 0.042239 0.000000 0.000000
# 5 0.000000 0.000000 0.000000 0.000000 0.039273 0.000000
# 6 0.000000 0.000000 0.000000 0.000000 0.000000 0.052659
#
#
# Mechanical properties :
#
#
# Convention : Reuss Voigt Hill
#
# Bulk Modulus (GPa) = 20.66181 32.17515 26.41848
# Shear Modulus (GPa) = 22.09853 25.95351 24.02602
#
# Velocity S-wave (km/s) = 3.28573 3.56081 3.42603
# Velocity P-wave (km/s) = 4.94862 5.71180 5.34385
#
# Compressibility (1/GPa) = 0.04839846
#
# Stress axis : x y z
#
# Youngs Moduli (GPa) = 95.11548 25.21268 83.32993
#
# Poissons Ratio (x) = 0.12462 0.19587
# Poissons Ratio (y) = 0.47014 -0.03369
# Poissons Ratio (z) = 0.22358 -0.01019
#
# Static dielectric constant tensor:
#      x y z
#    x 1.749210 0.000000 0.000000 
#    y 0.000000 1.707800 0.000000 
#    z 0.000000 0.000000 1.795530 
# 
# From -- ./inp_files/6129.got.cif
#   From: 2010.05.17/outbox.cif.g08.bks.cpg/sg36_4_cif.got.tgz:6129.got - 2010.06.03 17:41:39.
