data_PCOD9351772
_publ_section_title
;
Structure prediction by ZEFSAII (Michael W. Deem and Ramdas Pophale) SiO2 
 PCOD9351772
Probable space group: C M C 21
;
_chemical_formula_sum "Si O2"
_cell_formula_units_Z 56
_cell_length_a 32.150197
_cell_length_b 5.211198
_cell_length_c 13.482048
_cell_angle_alpha 90.000000
_cell_angle_beta 90.000000
_cell_angle_gamma 90.000000
_cell_volume 2258.796374
_symmetry_space_group_name_H-M "C M C 21"
_symmetry_group_IT_number 36
_symmetry_cell_setting 'orthorhombic'
loop_
_space_group_symop_operation_xyz
x,y,z
-x,-y,1/2+z
x,-y,1/2+z
-x,y,z
1/2+x,1/2+y,z
1/2-x,1/2-y,1/2+z
1/2+x,1/2-y,1/2+z
1/2-x,1/2+y,z
loop_
_atom_site_type_symbol
_atom_site_label
_atom_site_fract_x
_atom_site_fract_y
_atom_site_fract_z
Si Si1 0.910422 0.656061 0.000000
Si Si2 0.226142 0.344704 0.005144
Si Si3 0.000000 0.677173 0.688074
Si Si4 0.863940 0.155649 0.761528
Si Si5 0.090458 0.345553 0.264126
Si Si6 0.135271 0.842287 0.504497
Si Si7 0.000000 0.177323 0.572171
Si Si8 0.773503 0.346697 0.763096
O O1 0.905041 0.645832 0.882164
O O2 0.898885 0.370519 0.034821
O O3 0.878386 0.874094 0.035705
O O4 0.957247 0.745354 0.019350
O O5 0.240299 0.628737 0.034598
O O6 0.180517 0.254217 0.036611
O O7 0.225493 0.348282 0.884092
O O8 0.956702 0.730974 0.741952
O O9 0.000000 0.373717 0.665058
O O10 0.000000 0.876226 0.596466
O O11 0.897509 0.369484 0.730061
O O12 0.863415 0.149813 0.883020
O O13 0.818586 0.250682 0.730276
O O14 0.877639 0.873138 0.729381
O O15 0.760526 0.633138 0.734131
#
# Coordination Sequence:
#
# PCOD9351772 Si02
#       8
#     8   8   4   8   8   8   4   8
#     4  10  20  36  56  77 105 141 178 214 259 314
#     4   9  15  23  38  65 104 141 167 201 254 304
#     4  12  25  40  57  80 108 134 172 222 271 318
#     4   9  17  29  48  74 104 140 178 212 251 308
#     4  10  20  36  56  77 105 141 178 214 259 314
#     4   9  17  29  48  74 104 140 178 212 251 308
#     4  12  25  40  57  80 108 134 172 222 271 318
#     4   9  15  23  38  65 104 141 167 201 254 304
#
# _framework density 24.791965999999999
#
# number of rings (size 3 to 8) (size 9 to 14) (size 15 to 20)
#    0.000    2.286    0.000    3.857    0.000    6.857 
#    0.000    5.714    0.000    0.000    0.000    0.000 
#    0.000   80.000    0.000    0.000    0.000    0.000 
#
# Total GULP energy -156854.016163 kJ/mol
# GULP energy per Si atom -5601.929149 kJ/mol
# Density = 2.473554 g / cm^3
# Si number density = 24.791966 Si / 1000 Ang^3
#
#
#
# Elastic Constant Matrix: (Units=GPa)
#
#
# Indices 1 2 3 4 5 6 
#
# 1 123.5839 53.6497 -1.2143 0.0000 0.0000 0.0000
# 2 53.6497 131.8433 16.3479 0.0000 0.0000 0.0000
# 3 -1.2143 16.3479 66.2033 0.0000 0.0000 0.0000
# 4 0.0000 0.0000 0.0000 45.1612 0.0000 0.0000
# 5 0.0000 0.0000 0.0000 0.0000 32.2814 0.0000
# 6 0.0000 0.0000 0.0000 0.0000 0.0000 39.2436
#
#
#
# Elastic Compliance Matrix: (Units=1/GPa)
#
#
# Indices 1 2 3 4 5 6 
#
# 1 0.009922 -0.004188 0.001216 0.000000 0.000000 0.000000
# 2 -0.004188 0.009592 -0.002445 0.000000 0.000000 0.000000
# 3 0.001216 -0.002445 0.015731 0.000000 0.000000 0.000000
# 4 0.000000 0.000000 0.000000 0.022143 0.000000 0.000000
# 5 0.000000 0.000000 0.000000 0.000000 0.030978 0.000000
# 6 0.000000 0.000000 0.000000 0.000000 0.000000 0.025482
#
#
# Mechanical properties :
#
#
# Convention : Reuss Voigt Hill
#
# Bulk Modulus (GPa) = 40.96639 51.02193 45.99416
# Shear Modulus (GPa) = 37.64515 40.19371 38.91943
#
# Velocity S-wave (km/s) = 3.90095 4.03083 3.96642
# Velocity P-wave (km/s) = 6.07040 6.50293 6.29039
#
# Compressibility (1/GPa) = 0.02441025
#
# Stress axis : x y z
#
# Youngs Moduli (GPa) = 100.78851 104.25094 63.56804
#
# Poissons Ratio (x) = 0.43662 -0.07731
# Poissons Ratio (y) = 0.42212 0.15545
# Poissons Ratio (z) = -0.12258 0.25494
#
# Static dielectric constant tensor:
#      x y z
#    x 1.879670 0.000000 0.000000 
#    y 0.000000 1.913230 0.000000 
#    z 0.000000 0.000000 2.064550 
# 
# From -- ./inp_files/13192.got.cif
#   From: 2010.05.17/outbox.cif.g08.bks.cpg/sg36_7_cif.got.tgz:13192.got - 2010.06.03 17:41:39.
