data_PCOD9351880
_publ_section_title
;
Structure prediction by ZEFSAII (Michael W. Deem and Ramdas Pophale) SiO2 
 PCOD9351880
Probable space group: C M C 21
;
_chemical_formula_sum "Si O2"
_cell_formula_units_Z 48
_cell_length_a 27.838315
_cell_length_b 8.173233
_cell_length_c 9.374632
_cell_angle_alpha 90.000000
_cell_angle_beta 90.000000
_cell_angle_gamma 90.000000
_cell_volume 2133.000971
_symmetry_space_group_name_H-M "C M C 21"
_symmetry_group_IT_number 36
_symmetry_cell_setting 'orthorhombic'
loop_
_space_group_symop_operation_xyz
x,y,z
-x,-y,1/2+z
x,-y,1/2+z
-x,y,z
1/2+x,1/2+y,z
1/2-x,1/2-y,1/2+z
1/2+x,1/2-y,1/2+z
1/2-x,1/2+y,z
loop_
_atom_site_type_symbol
_atom_site_label
_atom_site_fract_x
_atom_site_fract_y
_atom_site_fract_z
Si Si1 0.049608 0.153557 0.883820
Si Si2 0.627020 0.369909 0.600584
Si Si3 0.277068 0.200384 0.542189
Si Si4 0.301380 0.877179 0.710462
Si Si5 0.902019 0.747142 0.126625
Si Si6 0.445267 0.262684 0.834475
O O1 0.053549 0.241177 0.733633
O O2 0.000000 0.197886 0.961486
O O3 0.048766 0.957849 0.864841
O O4 0.099053 0.188242 0.960760
O O5 0.682866 0.336364 0.581330
O O6 0.616620 0.563362 0.616895
O O7 0.597576 0.268427 0.719342
O O8 0.283349 0.155278 0.373736
O O9 0.225384 0.261840 0.594098
O O10 0.289012 0.054426 0.650289
O O11 0.357976 0.852095 0.690668
O O12 0.922112 0.686788 0.976196
O O13 0.500000 0.203549 0.803111
#
# Coordination Sequence:
#
# PCOD9351880 Si02
#       6
#     8   8   8   8   8   8
#     4   9  16  32  56  89 126 165 210 261 306 363
#     4  10  20  36  62  93 129 166 212 258 315 372
#     4  12  27  46  69  95 126 165 211 264 324 388
#     4  12  27  46  69  95 126 165 211 264 324 388
#     4  10  20  36  62  93 129 166 212 258 315 372
#     4   9  18  30  56  95 130 165 210 263 310 361
#
# _framework density 22.503508
#
# number of rings (size 3 to 8) (size 9 to 14) (size 15 to 20)
#    0.000    1.667    1.667    3.000    4.667    4.000 
#    0.000    0.000    0.000    6.000    0.000    0.000 
#    0.000    0.000    0.000    0.000    0.000    0.000 
#
# Total GULP energy -133832.350507 kJ/mol
# GULP energy per Si atom -5576.347938 kJ/mol
# Density = 2.245229 g / cm^3
# Si number density = 22.503508 Si / 1000 Ang^3
#
#
#
# Elastic Constant Matrix: (Units=GPa)
#
#
# Indices 1 2 3 4 5 6 
#
# 1 86.0135 2.7295 2.2354 0.0000 0.0000 0.0000
# 2 2.7295 21.1006 -9.1375 0.0000 0.0000 0.0000
# 3 2.2354 -9.1375 78.6337 0.0000 0.0000 0.0000
# 4 0.0000 0.0000 0.0000 15.8775 0.0000 0.0000
# 5 0.0000 0.0000 0.0000 0.0000 80.1589 0.0000
# 6 0.0000 0.0000 0.0000 0.0000 0.0000 -5.1588
#
#
#
# Elastic Compliance Matrix: (Units=1/GPa)
#
#
# Indices 1 2 3 4 5 6 
#
# 1 0.011695 -0.001745 -0.000535 0.000000 0.000000 0.000000
# 2 -0.001745 0.050163 0.005879 0.000000 0.000000 0.000000
# 3 -0.000535 0.005879 0.013416 0.000000 0.000000 0.000000
# 4 0.000000 0.000000 0.000000 0.062982 0.000000 0.000000
# 5 0.000000 0.000000 0.000000 0.000000 0.012475 0.000000
# 6 0.000000 0.000000 0.000000 0.000000 0.000000 -0.193842
#
#
# Mechanical properties :
#
#
# Convention : Reuss Voigt Hill
#
# Bulk Modulus (GPa) = 12.12531 19.71140 15.91836
# Shear Modulus (GPa) = -219.13335 30.83688 -94.14824
#
# Velocity S-wave (km/s) = -9.87871 3.70579 -6.47518
# Velocity P-wave (km/s) = 11.16775 5.20469 6.98676
#
# Compressibility (1/GPa) = 0.08247210
#
# Stress axis : x y z
#
# Youngs Moduli (GPa) = 85.50403 19.93485 74.54047
#
# Poissons Ratio (x) = 0.03478 0.03989
# Poissons Ratio (y) = 0.14917 -0.43820
# Poissons Ratio (z) = 0.04576 -0.11719
#
# Static dielectric constant tensor:
#      x y z
#    x 1.779410 0.000000 0.000000 
#    y 0.000000 1.853790 0.000000 
#    z 0.000000 0.000000 1.876270 
# 
# From -- ./inp_files/5970.got.cif
#   From: 2010.05.17/outbox.cif.g08.bks.cpg/sg36_3_cif.got.tgz:5970.got - 2010.06.03 17:41:39.
