data_PCOD9351103
_publ_section_title
;
Structure prediction by ZEFSAII (Michael W. Deem and Ramdas Pophale) SiO2 
 PCOD9351103
Probable space group: C M C 21
;
_chemical_formula_sum "Si O2"
_cell_formula_units_Z 64
_cell_length_a 9.277861
_cell_length_b 21.806023
_cell_length_c 13.898814
_cell_angle_alpha 90.000000
_cell_angle_beta 90.000000
_cell_angle_gamma 90.000000
_cell_volume 2811.914236
_symmetry_space_group_name_H-M "C M C 21"
_symmetry_group_IT_number 36
_symmetry_cell_setting 'orthorhombic'
loop_
_space_group_symop_operation_xyz
x,y,z
-x,-y,1/2+z
x,-y,1/2+z
-x,y,z
1/2+x,1/2+y,z
1/2-x,1/2-y,1/2+z
1/2+x,1/2-y,1/2+z
1/2-x,1/2+y,z
loop_
_atom_site_type_symbol
_atom_site_label
_atom_site_fract_x
_atom_site_fract_y
_atom_site_fract_z
Si Si1 0.670426 0.463816 0.958130
Si Si2 0.168807 0.897560 0.767935
Si Si3 0.838008 0.585426 0.744454
Si Si4 0.832206 0.274768 0.547860
Si Si5 0.662258 0.218569 0.279384
Si Si6 0.667422 0.035812 0.109929
Si Si7 0.667541 0.848978 0.049735
Si Si8 0.667686 0.345843 0.395936
O O1 0.500000 0.469158 0.975287
O O2 0.695057 0.451222 0.845804
O O3 0.753266 0.518080 0.011696
O O4 0.733942 0.402138 0.005989
O O5 0.224743 0.833211 0.809166
O O6 0.000000 0.894559 0.748649
O O7 0.255498 0.912742 0.672112
O O8 0.822182 0.524618 0.679289
O O9 0.829072 0.639517 0.664671
O O10 0.724930 0.599996 0.827506
O O11 0.000000 0.584783 0.785601
O O12 0.827294 0.277357 0.663655
O O13 0.732423 0.216392 0.523558
O O14 0.764978 0.331295 0.488772
O O15 0.000000 0.266324 0.520569
O O16 0.500000 0.196561 0.301938
O O17 0.680003 0.283902 0.330499
O O18 0.500000 0.049243 0.094007
O O19 0.500000 0.855879 0.020564
O O20 0.500000 0.354734 0.421206
#
# Coordination Sequence:
#
# PCOD9351103 Si02
#       8
#     8   8   8   8   8   8   8   8
#     4  10  21  38  62  92 122 158 203 251 304 360
#     4  11  24  41  63  91 122 160 203 251 306 360
#     4   9  19  36  58  84 113 148 192 241 294 349
#     4  11  22  37  56  84 121 161 200 243 300 361
#     4  10  23  41  60  86 123 163 201 244 300 362
#     4  10  22  41  65  91 119 157 201 251 303 357
#     4  10  19  33  57  87 118 154 198 247 295 350
#     4  11  22  37  59  89 120 157 200 244 298 361
#
# _framework density 22.760297000000001
#
# number of rings (size 3 to 8) (size 9 to 14) (size 15 to 20)
#    0.000    1.750    1.250    3.750    0.000    8.500 
#    2.250    0.000    0.000    0.000    0.000    0.000 
#    0.000    0.000    0.000    0.000    0.000    0.000 
#
# Total GULP energy -179021.485078 kJ/mol
# GULP energy per Si atom -5594.421409 kJ/mol
# Density = 2.270849 g / cm^3
# Si number density = 22.760297 Si / 1000 Ang^3
#
#
#
# Elastic Constant Matrix: (Units=GPa)
#
#
# Indices 1 2 3 4 5 6 
#
# 1 110.3797 15.6882 62.0612 0.0000 0.0000 0.0000
# 2 15.6882 50.0872 6.0465 0.0000 0.0000 0.0000
# 3 62.0612 6.0465 89.9325 0.0000 0.0000 0.0000
# 4 0.0000 0.0000 0.0000 40.1135 0.0000 0.0000
# 5 0.0000 0.0000 0.0000 0.0000 30.1302 0.0000
# 6 0.0000 0.0000 0.0000 0.0000 0.0000 25.4247
#
#
#
# Elastic Compliance Matrix: (Units=1/GPa)
#
#
# Indices 1 2 3 4 5 6 
#
# 1 0.015412 -0.003572 -0.010396 0.000000 0.000000 0.000000
# 2 -0.003572 0.020957 0.001056 0.000000 0.000000 0.000000
# 3 -0.010396 0.001056 0.018222 0.000000 0.000000 0.000000
# 4 0.000000 0.000000 0.000000 0.024929 0.000000 0.000000
# 5 0.000000 0.000000 0.000000 0.000000 0.033189 0.000000
# 6 0.000000 0.000000 0.000000 0.000000 0.000000 0.039332
#
#
# Mechanical properties :
#
#
# Convention : Reuss Voigt Hill
#
# Bulk Modulus (GPa) = 34.76124 46.44345 40.60235
# Shear Modulus (GPa) = 26.67312 30.24058 28.45685
#
# Velocity S-wave (km/s) = 3.42704 3.64903 3.53977
# Velocity P-wave (km/s) = 5.56465 6.18091 5.88086
#
# Compressibility (1/GPa) = 0.02876767
#
# Stress axis : x y z
#
# Youngs Moduli (GPa) = 64.88292 47.71767 54.87765
#
# Poissons Ratio (x) = 0.17047 0.57049
# Poissons Ratio (y) = 0.23179 -0.05797
# Poissons Ratio (z) = 0.67450 -0.05040
#
# Static dielectric constant tensor:
#      x y z
#    x 1.768360 0.000000 0.000000 
#    y 0.000000 1.890490 0.000000 
#    z 0.000000 0.000000 1.863360 
# 
# From -- ./inp_files/11025.got.cif
#   From: 2010.05.17/outbox.cif.g08.bks.cpg/sg36_6_cif.got.tgz:11025.got - 2010.06.03 17:41:39.
