data_PCOD9351688
_publ_section_title
;
Structure prediction by ZEFSAII (Michael W. Deem and Ramdas Pophale) SiO2 
 PCOD9351688
Probable space group: C M C 21
;
_chemical_formula_sum "Si O2"
_cell_formula_units_Z 64
_cell_length_a 7.715954
_cell_length_b 29.374268
_cell_length_c 12.928513
_cell_angle_alpha 90.000000
_cell_angle_beta 90.000000
_cell_angle_gamma 90.000000
_cell_volume 2930.253944
_symmetry_space_group_name_H-M "C M C 21"
_symmetry_group_IT_number 36
_symmetry_cell_setting 'orthorhombic'
loop_
_space_group_symop_operation_xyz
x,y,z
-x,-y,1/2+z
x,-y,1/2+z
-x,y,z
1/2+x,1/2+y,z
1/2-x,1/2-y,1/2+z
1/2+x,1/2-y,1/2+z
1/2-x,1/2+y,z
loop_
_atom_site_type_symbol
_atom_site_label
_atom_site_fract_x
_atom_site_fract_y
_atom_site_fract_z
Si Si1 0.699138 0.844803 0.198080
Si Si2 0.288037 0.410673 0.009906
Si Si3 0.200799 0.180206 0.131846
Si Si4 0.789799 0.427037 0.323714
Si Si5 0.296603 0.493803 0.137720
Si Si6 0.300041 0.084187 0.052173
Si Si7 0.205064 0.837719 0.856198
Si Si8 0.789372 0.728016 0.544399
O O1 0.500000 0.835289 0.226102
O O2 0.711334 0.878879 0.100079
O O3 0.774522 0.876723 0.287766
O O4 0.771512 0.798675 0.148656
O O5 0.500000 0.408761 0.016468
O O6 0.234915 0.461326 0.042843
O O7 0.231867 0.385752 0.904802
O O8 0.207577 0.130093 0.085076
O O9 0.281731 0.176762 0.246369
O O10 0.269666 0.220038 0.057651
O O11 0.000000 0.193558 0.146332
O O12 0.730115 0.464966 0.242267
O O13 0.735945 0.434293 0.441435
O O14 0.000000 0.426843 0.316878
O O15 0.500000 0.501189 0.124757
O O16 0.212915 0.543099 0.132896
O O17 0.500000 0.097002 0.038875
O O18 0.000000 0.844632 0.840411
O O19 0.226239 0.799105 0.943744
O O20 0.000000 0.724373 0.539447
#
# Coordination Sequence:
#
# PCOD9351688 Si02
#       8
#     8   8   8   8   8   8   8   8
#     4   8  14  28  51  76 102 133 171 217 266 314
#     4   8  15  29  50  77 103 129 169 218 264 313
#     4  10  22  38  54  77 111 148 185 226 273 327
#     4   9  19  36  57  81 109 142 181 225 273 325
#     4  10  20  35  57  82 109 143 184 229 276 329
#     4  11  24  39  55  79 112 147 185 229 276 329
#     4   9  18  34  56  80 108 142 179 220 268 322
#     4   9  18  33  54  80 108 140 182 228 272 321
#
# _framework density 21.841111999999999
#
# number of rings (size 3 to 8) (size 9 to 14) (size 15 to 20)
#    0.000    2.750    0.000    0.750    0.000    4.500 
#    0.000    3.750    0.000    6.000    0.000    0.000 
#    0.000    0.000    0.000    0.000    0.000    0.000 
#
# Total GULP energy -178337.597977 kJ/mol
# GULP energy per Si atom -5573.049937 kJ/mol
# Density = 2.179140 g / cm^3
# Si number density = 21.841112 Si / 1000 Ang^3
#
#
#
# Elastic Constant Matrix: (Units=GPa)
#
#
# Indices 1 2 3 4 5 6 
#
# 1 34.0151 -16.5429 -9.7953 0.0000 0.0000 0.0000
# 2 -16.5429 98.3587 16.4276 0.0000 0.0000 0.0000
# 3 -9.7953 16.4276 72.9554 0.0000 0.0000 0.0000
# 4 0.0000 0.0000 0.0000 20.1722 0.0000 0.0000
# 5 0.0000 0.0000 0.0000 0.0000 9.9515 0.0000
# 6 0.0000 0.0000 0.0000 0.0000 0.0000 19.3025
#
#
#
# Elastic Compliance Matrix: (Units=1/GPa)
#
#
# Indices 1 2 3 4 5 6 
#
# 1 0.032756 0.004961 0.003281 0.000000 0.000000 0.000000
# 2 0.004961 0.011316 -0.001882 0.000000 0.000000 0.000000
# 3 0.003281 -0.001882 0.014571 0.000000 0.000000 0.000000
# 4 0.000000 0.000000 0.000000 0.049573 0.000000 0.000000
# 5 0.000000 0.000000 0.000000 0.000000 0.100488 0.000000
# 6 0.000000 0.000000 0.000000 0.000000 0.000000 0.051807
#
#
# Mechanical properties :
#
#
# Convention : Reuss Voigt Hill
#
# Bulk Modulus (GPa) = 14.01269 20.61199 17.31234
# Shear Modulus (GPa) = 18.41091 24.23456 21.32274
#
# Velocity S-wave (km/s) = 2.90651 3.33466 3.12792
# Velocity P-wave (km/s) = 4.20635 4.92791 4.58136
#
# Compressibility (1/GPa) = 0.07136387
#
# Stress axis : x y z
#
# Youngs Moduli (GPa) = 30.52844 88.37349 68.62830
#
# Poissons Ratio (x) = -0.43845 -0.22516
# Poissons Ratio (y) = -0.15146 0.12915
# Poissons Ratio (z) = -0.10016 0.16630
#
# Static dielectric constant tensor:
#      x y z
#    x 1.808110 0.000000 0.000000 
#    y 0.000000 1.819760 0.000000 
#    z 0.000000 0.000000 1.829820 
# 
# From -- ./inp_files/7213.got.cif
#   From: 2010.05.17/outbox.cif.g08.bks.cpg/sg36_4_cif.got.tgz:7213.got - 2010.06.03 17:41:39.
