data_PCOD9351685
_publ_section_title
;
Structure prediction by ZEFSAII (Michael W. Deem and Ramdas Pophale) SiO2 
 PCOD9351685
Probable space group: C M C 21
;
_chemical_formula_sum "Si O2"
_cell_formula_units_Z 64
_cell_length_a 16.916809
_cell_length_b 20.987916
_cell_length_c 8.625076
_cell_angle_alpha 90.000000
_cell_angle_beta 90.000000
_cell_angle_gamma 90.000000
_cell_volume 3062.320868
_symmetry_space_group_name_H-M "C M C 21"
_symmetry_group_IT_number 36
_symmetry_cell_setting 'orthorhombic'
loop_
_space_group_symop_operation_xyz
x,y,z
-x,-y,1/2+z
x,-y,1/2+z
-x,y,z
1/2+x,1/2+y,z
1/2-x,1/2-y,1/2+z
1/2+x,1/2-y,1/2+z
1/2-x,1/2+y,z
loop_
_atom_site_type_symbol
_atom_site_label
_atom_site_fract_x
_atom_site_fract_y
_atom_site_fract_z
Si Si1 0.589706 0.711222 0.316200
Si Si2 0.590526 0.232901 0.312011
Si Si3 0.089025 0.334029 0.481220
Si Si4 0.303022 0.548316 0.576964
Si Si5 0.383103 0.647586 0.989341
Si Si6 0.725852 0.088576 0.083232
Si Si7 0.739902 0.155336 0.410473
Si Si8 0.412076 0.483348 0.361193
O O1 0.500000 0.696371 0.381866
O O2 0.597878 0.787320 0.335618
O O3 0.672818 0.685964 0.387321
O O4 0.589357 0.684801 0.141891
O O5 0.500000 0.213245 0.354974
O O6 0.602249 0.211253 0.133779
O O7 0.595665 0.308410 0.343775
O O8 0.664645 0.202368 0.405849
O O9 0.145979 0.393208 0.498935
O O10 0.000000 0.356710 0.487956
O O11 0.252040 0.483952 0.566301
O O12 0.250072 0.610307 0.559015
O O13 0.367242 0.542530 0.437791
O O14 0.355838 0.543605 0.728576
O O15 0.416050 0.575877 0.980576
O O16 0.290324 0.635516 0.007390
O O17 0.724561 0.108407 0.263630
O O18 0.500000 0.499129 0.308246
#
# Coordination Sequence:
#
# PCOD9351685 Si02
#       8
#     8   8   8   8   8   8   8   8
#     4  10  20  35  56  85 121 152 184 230 289 354
#     4  10  20  37  59  83 114 148 192 241 290 347
#     4   9  19  35  59  86 112 148 191 239 291 349
#     4  11  22  40  56  82 112 155 197 247 291 350
#     4  10  21  37  57  85 119 154 187 238 291 348
#     4   9  19  39  57  79 114 151 193 237 292 342
#     4  10  21  37  56  82 113 152 190 237 294 344
#     4  11  23  38  59  84 115 156 199 243 296 354
#
# _framework density 20.899180999999999
#
# number of rings (size 3 to 8) (size 9 to 14) (size 15 to 20)
#    0.000    2.000    1.250    2.250    1.750    1.000 
#    4.500    0.625    0.000    0.000    0.000    0.000 
#    0.000    0.000    0.000    0.000    0.000    0.000 
#
# Total GULP energy -178484.149840 kJ/mol
# GULP energy per Si atom -5577.629682 kJ/mol
# Density = 2.085161 g / cm^3
# Si number density = 20.899181 Si / 1000 Ang^3
#
#
#
# Elastic Constant Matrix: (Units=GPa)
#
#
# Indices 1 2 3 4 5 6 
#
# 1 108.0237 37.1830 16.9739 0.0000 0.0000 0.0000
# 2 37.1830 49.6748 0.2616 0.0000 0.0000 0.0000
# 3 16.9739 0.2616 28.9065 0.0000 0.0000 0.0000
# 4 0.0000 0.0000 0.0000 29.8966 0.0000 0.0000
# 5 0.0000 0.0000 0.0000 0.0000 18.3366 0.0000
# 6 0.0000 0.0000 0.0000 0.0000 0.0000 10.4738
#
#
#
# Elastic Compliance Matrix: (Units=1/GPa)
#
#
# Indices 1 2 3 4 5 6 
#
# 1 0.014194 -0.010581 -0.008239 0.000000 0.000000 0.000000
# 2 -0.010581 0.028020 0.005960 0.000000 0.000000 0.000000
# 3 -0.008239 0.005960 0.039378 0.000000 0.000000 0.000000
# 4 0.000000 0.000000 0.000000 0.033449 0.000000 0.000000
# 5 0.000000 0.000000 0.000000 0.000000 0.054536 0.000000
# 6 0.000000 0.000000 0.000000 0.000000 0.000000 0.095477
#
#
# Mechanical properties :
#
#
# Convention : Reuss Voigt Hill
#
# Bulk Modulus (GPa) = 17.89833 32.82691 25.36262
# Shear Modulus (GPa) = 16.16042 20.55383 18.35713
#
# Velocity S-wave (km/s) = 2.78377 3.13944 2.96694
# Velocity P-wave (km/s) = 4.34916 5.37428 4.88866
#
# Compressibility (1/GPa) = 0.05587113
#
# Stress axis : x y z
#
# Youngs Moduli (GPa) = 70.45233 35.68895 25.39475
#
# Poissons Ratio (x) = 0.37763 0.20923
# Poissons Ratio (y) = 0.74547 -0.15134
# Poissons Ratio (z) = 0.58045 -0.21269
#
# Static dielectric constant tensor:
#      x y z
#    x 1.789400 0.000000 0.000000 
#    y 0.000000 1.721660 0.000000 
#    z 0.000000 0.000000 1.808710 
# 
# From -- ./inp_files/4921.got.cif
#   From: 2010.05.17/outbox.cif.g08.bks.cpg/sg36_3_cif.got.tgz:4921.got - 2010.06.03 17:41:39.
