data_PCOD9351871
_publ_section_title
;
Structure prediction by ZEFSAII (Michael W. Deem and Ramdas Pophale) SiO2 
 PCOD9351871
Probable space group: C M C 21
;
_chemical_formula_sum "Si O2"
_cell_formula_units_Z 64
_cell_length_a 18.413945
_cell_length_b 15.287313
_cell_length_c 11.748017
_cell_angle_alpha 90.000000
_cell_angle_beta 90.000000
_cell_angle_gamma 90.000000
_cell_volume 3307.063740
_symmetry_space_group_name_H-M "C M C 21"
_symmetry_group_IT_number 36
_symmetry_cell_setting 'orthorhombic'
loop_
_space_group_symop_operation_xyz
x,y,z
-x,-y,1/2+z
x,-y,1/2+z
-x,y,z
1/2+x,1/2+y,z
1/2-x,1/2-y,1/2+z
1/2+x,1/2-y,1/2+z
1/2-x,1/2+y,z
loop_
_atom_site_type_symbol
_atom_site_label
_atom_site_fract_x
_atom_site_fract_y
_atom_site_fract_z
Si Si1 0.415518 0.811329 0.830070
Si Si2 0.219052 0.358490 0.708087
Si Si3 0.234377 0.562769 0.972355
Si Si4 0.337086 0.516451 0.323273
Si Si5 0.310114 0.809303 0.280282
Si Si6 0.917241 0.866323 0.195194
Si Si7 0.311343 0.130187 0.526381
Si Si8 0.144093 0.176470 0.452748
O O1 0.500000 0.837050 0.834656
O O2 0.365004 0.864591 0.741290
O O3 0.412396 0.711108 0.787857
O O4 0.371861 0.826779 0.946261
O O5 0.230000 0.369191 0.574330
O O6 0.267789 0.433919 0.766729
O O7 0.249414 0.265334 0.752556
O O8 0.315009 0.532162 0.940182
O O9 0.212892 0.608248 0.854888
O O10 0.191684 0.474808 0.007277
O O11 0.368857 0.447880 0.234834
O O12 0.382968 0.596850 0.372564
O O13 0.329021 0.843916 0.155495
O O14 0.362501 0.759012 0.369003
O O15 0.000000 0.896201 0.188949
O O16 0.894833 0.825814 0.073816
O O17 0.230123 0.162180 0.487494
#
# Coordination Sequence:
#
# PCOD9351871 Si02
#       8
#     8   8   8   8   8   8   8   8
#     4  11  23  42  62  88 131 172 212 269 335 396
#     4  11  21  37  62  98 124 163 220 267 321 391
#     4  11  20  34  62  89 126 156 208 278 315 374
#     4  10  20  36  61  94 128 167 215 268 318 383
#     4  11  21  34  61  95 122 160 215 277 322 377
#     4  11  24  41  64  96 136 175 214 264 339 411
#     4  11  22  38  59  93 127 164 225 269 322 391
#     4  10  21  38  61  95 126 171 217 272 324 387
#
# _framework density 19.352513999999999
#
# number of rings (size 3 to 8) (size 9 to 14) (size 15 to 20)
#    0.000    1.250    3.750    6.000    1.750    0.500 
#    0.000    1.250    0.000    1.500    0.000    0.000 
#    0.000    0.000    0.000    0.000    0.000    0.000 
#
# Total GULP energy -178366.286748 kJ/mol
# GULP energy per Si atom -5573.946461 kJ/mol
# Density = 1.930847 g / cm^3
# Si number density = 19.352514 Si / 1000 Ang^3
#
#
#
# Elastic Constant Matrix: (Units=GPa)
#
#
# Indices 1 2 3 4 5 6 
#
# 1 81.4685 27.7427 22.4006 0.0000 0.0000 0.0000
# 2 27.7427 98.5377 51.5715 0.0000 0.0000 0.0000
# 3 22.4006 51.5715 129.1351 0.0000 0.0000 0.0000
# 4 0.0000 0.0000 0.0000 42.8743 0.0000 0.0000
# 5 0.0000 0.0000 0.0000 0.0000 19.0624 0.0000
# 6 0.0000 0.0000 0.0000 0.0000 0.0000 16.2454
#
#
#
# Elastic Compliance Matrix: (Units=1/GPa)
#
#
# Indices 1 2 3 4 5 6 
#
# 1 0.013689 -0.003301 -0.001056 0.000000 0.000000 0.000000
# 2 -0.003301 0.013626 -0.004869 0.000000 0.000000 0.000000
# 3 -0.001056 -0.004869 0.009872 0.000000 0.000000 0.000000
# 4 0.000000 0.000000 0.000000 0.023324 0.000000 0.000000
# 5 0.000000 0.000000 0.000000 0.000000 0.052459 0.000000
# 6 0.000000 0.000000 0.000000 0.000000 0.000000 0.061556
#
#
# Mechanical properties :
#
#
# Convention : Reuss Voigt Hill
#
# Bulk Modulus (GPa) = 53.37953 56.95232 55.16592
# Shear Modulus (GPa) = 25.09737 29.46486 27.28112
#
# Velocity S-wave (km/s) = 3.60509 3.90620 3.75866
# Velocity P-wave (km/s) = 6.70608 7.05955 6.88509
#
# Compressibility (1/GPa) = 0.01873377
#
# Stress axis : x y z
#
# Youngs Moduli (GPa) = 73.04970 73.38800 101.30107
#
# Poissons Ratio (x) = 0.24228 0.10699
# Poissons Ratio (y) = 0.24116 0.49324
# Poissons Ratio (z) = 0.07716 0.35733
#
# Static dielectric constant tensor:
#      x y z
#    x 1.699350 0.000000 0.000000 
#    y 0.000000 1.748980 0.000000 
#    z 0.000000 0.000000 1.717920 
# 
# From -- ./inp_files/8999.got.cif
#   From: 2010.05.17/outbox.cif.g08.bks.cpg/sg36_5_cif.got.tgz:8999.got - 2010.06.03 17:41:39.
