data_PCOD9351624
_publ_section_title
;
Structure prediction by ZEFSAII (Michael W. Deem and Ramdas Pophale) SiO2 
 PCOD9351624
Probable space group: C M C 21
;
_chemical_formula_sum "Si O2"
_cell_formula_units_Z 48
_cell_length_a 29.479765
_cell_length_b 4.914807
_cell_length_c 15.272063
_cell_angle_alpha 90.000000
_cell_angle_beta 90.000000
_cell_angle_gamma 90.000000
_cell_volume 2212.728819
_symmetry_space_group_name_H-M "C M C 21"
_symmetry_group_IT_number 36
_symmetry_cell_setting 'orthorhombic'
loop_
_space_group_symop_operation_xyz
x,y,z
-x,-y,1/2+z
x,-y,1/2+z
-x,y,z
1/2+x,1/2+y,z
1/2-x,1/2-y,1/2+z
1/2+x,1/2-y,1/2+z
1/2-x,1/2+y,z
loop_
_atom_site_type_symbol
_atom_site_label
_atom_site_fract_x
_atom_site_fract_y
_atom_site_fract_z
Si Si1 0.407243 0.527909 0.210000
Si Si2 0.000000 0.250185 0.373989
Si Si3 0.352364 0.041510 0.166167
Si Si4 0.903738 0.902348 0.916836
Si Si5 0.000000 0.231753 0.747023
Si Si6 0.718781 0.060515 0.324147
Si Si7 0.348513 0.109794 0.476434
O O1 0.394512 0.839537 0.189845
O O2 0.399887 0.510303 0.314953
O O3 0.455991 0.384091 0.196547
O O4 0.372564 0.341787 0.157227
O O5 0.047129 0.244936 0.426338
O O6 0.000000 0.463321 0.290572
O O7 0.000000 0.947620 0.334758
O O8 0.316141 0.066614 0.243295
O O9 0.332903 0.931915 0.075517
O O10 0.868142 0.672987 0.940875
O O11 0.888965 0.168713 0.970111
O O12 0.737790 0.755646 0.320778
O O13 0.691945 0.164930 0.409589
#
# Coordination Sequence:
#
# PCOD9351624 Si02
#       7
#     8   4   8   8   4   8   8
#     4  11  20  41  66  95 137 181 223 272 326 394
#     4  10  20  34  63 102 131 179 236 269 311 378
#     4  12  25  43  68 100 133 173 220 277 341 408
#     4  11  20  41  66  95 137 181 223 272 326 394
#     4  10  20  34  63 102 131 179 236 269 311 378
#     4  12  26  46  72  95 128 171 220 284 352 416
#     4  12  25  43  68 100 133 173 220 277 341 408
#
# _framework density 21.692672999999999
#
# number of rings (size 3 to 8) (size 9 to 14) (size 15 to 20)
#    0.000    0.667    3.333    7.000    0.000    1.333 
#    0.000    5.000    0.000    0.000    0.000    0.000 
#    0.000    0.000    0.000    0.000    0.000    0.000 
#
# Total GULP energy -133862.339710 kJ/mol
# GULP energy per Si atom -5577.597488 kJ/mol
# Density = 2.164330 g / cm^3
# Si number density = 21.692673 Si / 1000 Ang^3
#
#
#
# Elastic Constant Matrix: (Units=GPa)
#
#
# Indices 1 2 3 4 5 6 
#
# 1 75.7447 4.8337 38.2380 0.0000 0.0000 0.0000
# 2 4.8337 83.4294 -5.4446 0.0000 0.0000 0.0000
# 3 38.2380 -5.4446 74.4336 0.0000 0.0000 0.0000
# 4 0.0000 0.0000 0.0000 27.0120 0.0000 0.0000
# 5 0.0000 0.0000 0.0000 0.0000 -3.6076 0.0000
# 6 0.0000 0.0000 0.0000 0.0000 0.0000 36.1294
#
#
#
# Elastic Compliance Matrix: (Units=1/GPa)
#
#
# Indices 1 2 3 4 5 6 
#
# 1 0.018051 -0.001659 -0.009394 0.000000 0.000000 0.000000
# 2 -0.001659 0.012196 0.001744 0.000000 0.000000 0.000000
# 3 -0.009394 0.001744 0.018388 0.000000 0.000000 0.000000
# 4 0.000000 0.000000 0.000000 0.037021 0.000000 0.000000
# 5 0.000000 0.000000 0.000000 0.000000 -0.277192 0.000000
# 6 0.000000 0.000000 0.000000 0.000000 0.000000 0.027678
#
#
# Mechanical properties :
#
#
# Convention : Reuss Voigt Hill
#
# Bulk Modulus (GPa) = 33.31398 34.31798 33.81598
# Shear Modulus (GPa) = -36.97291 24.97214 -6.00038
#
# Velocity S-wave (km/s) = -4.13291 3.39658 -1.66496
# Velocity P-wave (km/s) = 2.71736 5.58899 3.45346
#
# Compressibility (1/GPa) = 0.03001743
#
# Stress axis : x y z
#
# Youngs Moduli (GPa) = 55.39982 81.99327 54.38204
#
# Poissons Ratio (x) = 0.13602 0.51088
# Poissons Ratio (y) = 0.09190 -0.09486
# Poissons Ratio (z) = 0.52044 -0.14302
#
# Static dielectric constant tensor:
#      x y z
#    x 1.849350 0.000000 0.000000 
#    y 0.000000 1.742360 0.000000 
#    z 0.000000 0.000000 1.806240 
# 
# From -- ./inp_files/13064.got.cif
#   From: 2010.05.17/outbox.cif.g08.bks.cpg/sg36_7_cif.got.tgz:13064.got - 2010.06.03 17:41:39.
