data_PCOD9351592
_publ_section_title
;
Structure prediction by ZEFSAII (Michael W. Deem and Ramdas Pophale) SiO2 
 PCOD9351592
Probable space group: C M C 21
;
_chemical_formula_sum "Si O2"
_cell_formula_units_Z 48
_cell_length_a 14.430248
_cell_length_b 11.788737
_cell_length_c 11.129572
_cell_angle_alpha 90.000000
_cell_angle_beta 90.000000
_cell_angle_gamma 90.000000
_cell_volume 1893.300447
_symmetry_space_group_name_H-M "C M C 21"
_symmetry_group_IT_number 36
_symmetry_cell_setting 'orthorhombic'
loop_
_space_group_symop_operation_xyz
x,y,z
-x,-y,1/2+z
x,-y,1/2+z
-x,y,z
1/2+x,1/2+y,z
1/2-x,1/2-y,1/2+z
1/2+x,1/2-y,1/2+z
1/2-x,1/2+y,z
loop_
_atom_site_type_symbol
_atom_site_label
_atom_site_fract_x
_atom_site_fract_y
_atom_site_fract_z
Si Si1 0.698151 0.308712 0.743680
Si Si2 0.397367 0.153235 0.293357
Si Si3 0.228972 0.582081 0.998132
Si Si4 0.107987 0.421343 0.150284
Si Si5 0.396972 0.480151 0.902204
Si Si6 0.601106 0.273567 0.036969
O O1 0.791058 0.318857 0.827888
O O2 0.723735 0.377564 0.622128
O O3 0.664373 0.186631 0.697242
O O4 0.617609 0.382543 0.804492
O O5 0.500000 0.170725 0.352482
O O6 0.400780 0.231343 0.172877
O O7 0.394335 0.022662 0.248547
O O8 0.160282 0.478748 0.035517
O O9 0.166570 0.689449 0.965595
O O10 0.308893 0.560380 0.901984
O O11 0.000000 0.394302 0.124880
O O12 0.500000 0.529329 0.898042
O O13 0.381865 0.406585 0.024641
O O14 0.500000 0.254357 0.985475
#
# Coordination Sequence:
#
# PCOD9351592 Si02
#       6
#     8   8   8   8   8   8
#     4  10  20  34  56  81 109 143 183 224 266 315
#     4   8  16  33  56  79 103 134 173 219 270 320
#     4  10  20  37  57  80 107 141 177 224 270 314
#     4   9  17  33  57  80 101 131 175 223 269 318
#     4  11  23  36  52  78 111 147 184 219 266 325
#     4   8  16  33  56  78 101 132 172 217 267 322
#
# _framework density 25.352551999999999
#
# number of rings (size 3 to 8) (size 9 to 14) (size 15 to 20)
#    0.000    3.000    0.000    4.000    0.000    4.000 
#    0.000    3.333    0.000    9.000    0.000    0.000 
#    0.000    0.000    0.000    0.000    0.000    0.000 
#
# Total GULP energy -133990.448691 kJ/mol
# GULP energy per Si atom -5582.935362 kJ/mol
# Density = 2.529485 g / cm^3
# Si number density = 25.352552 Si / 1000 Ang^3
#
#
#
# Elastic Constant Matrix: (Units=GPa)
#
#
# Indices 1 2 3 4 5 6 
#
# 1 192.6547 42.2382 12.6099 0.0000 0.0000 0.0000
# 2 42.2382 75.2781 14.9925 0.0000 0.0000 0.0000
# 3 12.6099 14.9925 38.7043 0.0000 0.0000 0.0000
# 4 0.0000 0.0000 0.0000 27.5910 0.0000 0.0000
# 5 0.0000 0.0000 0.0000 0.0000 25.5449 0.0000
# 6 0.0000 0.0000 0.0000 0.0000 0.0000 41.7878
#
#
#
# Elastic Compliance Matrix: (Units=1/GPa)
#
#
# Indices 1 2 3 4 5 6 
#
# 1 0.005936 -0.003192 -0.000698 0.000000 0.000000 0.000000
# 2 -0.003192 0.016111 -0.005201 0.000000 0.000000 0.000000
# 3 -0.000698 -0.005201 0.028079 0.000000 0.000000 0.000000
# 4 0.000000 0.000000 0.000000 0.036244 0.000000 0.000000
# 5 0.000000 0.000000 0.000000 0.000000 0.039147 0.000000
# 6 0.000000 0.000000 0.000000 0.000000 0.000000 0.023930
#
#
# Mechanical properties :
#
#
# Convention : Reuss Voigt Hill
#
# Bulk Modulus (GPa) = 31.30352 49.59092 40.44722
# Shear Modulus (GPa) = 28.04651 34.77117 31.40884
#
# Velocity S-wave (km/s) = 3.32966 3.70740 3.52360
# Velocity P-wave (km/s) = 5.21117 6.15869 5.70463
#
# Compressibility (1/GPa) = 0.03194529
#
# Stress axis : x y z
#
# Youngs Moduli (GPa) = 168.46169 62.07030 35.61406
#
# Poissons Ratio (x) = 0.19811 0.02484
# Poissons Ratio (y) = 0.53769 0.18522
# Poissons Ratio (z) = 0.11752 0.32281
#
# Static dielectric constant tensor:
#      x y z
#    x 2.117020 0.000000 0.000000 
#    y 0.000000 2.052160 0.000000 
#    z 0.000000 0.000000 2.064310 
# 
# From -- ./inp_files/12072.got.cif
#   From: 2010.05.17/outbox.cif.g08.bks.cpg/sg36_7_cif.got.tgz:12072.got - 2010.06.03 17:41:39.
