data_PCOD9351802
_publ_section_title
;
Structure prediction by ZEFSAII (Michael W. Deem and Ramdas Pophale) SiO2 
 PCOD9351802
Probable space group: C M C 21
;
_chemical_formula_sum "Si O2"
_cell_formula_units_Z 64
_cell_length_a 8.752691
_cell_length_b 14.726579
_cell_length_c 25.111287
_cell_angle_alpha 90.000000
_cell_angle_beta 90.000000
_cell_angle_gamma 90.000000
_cell_volume 3236.774469
_symmetry_space_group_name_H-M "C M C 21"
_symmetry_group_IT_number 36
_symmetry_cell_setting 'orthorhombic'
loop_
_space_group_symop_operation_xyz
x,y,z
-x,-y,1/2+z
x,-y,1/2+z
-x,y,z
1/2+x,1/2+y,z
1/2-x,1/2-y,1/2+z
1/2+x,1/2-y,1/2+z
1/2-x,1/2+y,z
loop_
_atom_site_type_symbol
_atom_site_label
_atom_site_fract_x
_atom_site_fract_y
_atom_site_fract_z
Si Si1 0.184858 0.329327 0.696930
Si Si2 0.813672 0.120958 0.715119
Si Si3 0.817263 0.318623 0.439254
Si Si4 0.324032 0.644514 0.830415
Si Si5 0.823439 0.635844 0.313005
Si Si6 0.682927 0.477609 0.626109
Si Si7 0.817037 0.476605 0.510949
Si Si8 0.317330 0.610683 0.423442
O O1 0.229459 0.223696 0.699446
O O2 0.234516 0.376360 0.752742
O O3 0.254371 0.382067 0.647535
O O4 0.000000 0.333285 0.695579
O O5 0.760465 0.102367 0.775717
O O6 0.000000 0.119480 0.717880
O O7 0.764432 0.051199 0.670047
O O8 0.763525 0.367879 0.385272
O O9 0.767621 0.376812 0.489999
O O10 0.766675 0.214146 0.437216
O O11 0.000000 0.317079 0.438751
O O12 0.500000 0.616692 0.837771
O O13 0.322877 0.753892 0.819999
O O14 0.729387 0.595282 0.361897
O O15 0.000000 0.606507 0.316912
O O16 0.500000 0.477462 0.625328
O O17 0.744742 0.498265 0.567685
O O18 0.762567 0.544754 0.465047
O O19 0.000000 0.478608 0.515172
O O20 0.500000 0.603854 0.428503
#
# Coordination Sequence:
#
# PCOD9351802 Si02
#       8
#     8   8   8   8   8   8   8   8
#     4   9  18  36  59  80 107 145 180 210 258 323
#     4   8  17  35  57  79 108 144 174 209 265 324
#     4   9  20  37  56  79 109 142 173 214 269 321
#     4   8  14  29  55  83 108 137 174 212 256 317
#     4   8  15  30  54  83 112 141 173 209 257 322
#     4  11  23  38  55  79 108 138 182 233 273 311
#     4  11  24  41  56  74 105 145 187 224 266 324
#     4  10  20  36  58  83 109 138 175 221 270 314
#
# _framework density 19.772770999999999
#
# number of rings (size 3 to 8) (size 9 to 14) (size 15 to 20)
#    0.000    2.750    0.000    2.625    0.000    4.000 
#    0.000   11.875    0.000    0.000    0.000    0.000 
#    0.000    0.000    0.000    0.000    0.000    0.000 
#
# Total GULP energy -178576.300243 kJ/mol
# GULP energy per Si atom -5580.509383 kJ/mol
# Density = 1.972777 g / cm^3
# Si number density = 19.772771 Si / 1000 Ang^3
#
#
#
# Elastic Constant Matrix: (Units=GPa)
#
#
# Indices 1 2 3 4 5 6 
#
# 1 16.1675 6.7155 12.6474 0.0000 0.0000 0.0000
# 2 6.7155 47.8582 16.3946 0.0000 0.0000 0.0000
# 3 12.6474 16.3946 91.3995 0.0000 0.0000 0.0000
# 4 0.0000 0.0000 0.0000 30.8108 0.0000 0.0000
# 5 0.0000 0.0000 0.0000 0.0000 34.9380 0.0000
# 6 0.0000 0.0000 0.0000 0.0000 0.0000 17.3671
#
#
#
# Elastic Compliance Matrix: (Units=1/GPa)
#
#
# Indices 1 2 3 4 5 6 
#
# 1 0.071546 -0.007083 -0.008630 0.000000 0.000000 0.000000
# 2 -0.007083 0.022964 -0.003139 0.000000 0.000000 0.000000
# 3 -0.008630 -0.003139 0.012698 0.000000 0.000000 0.000000
# 4 0.000000 0.000000 0.000000 0.032456 0.000000 0.000000
# 5 0.000000 0.000000 0.000000 0.000000 0.028622 0.000000
# 6 0.000000 0.000000 0.000000 0.000000 0.000000 0.057580
#
#
# Mechanical properties :
#
#
# Convention : Reuss Voigt Hill
#
# Bulk Modulus (GPa) = 14.38759 25.21559 19.80159
# Shear Modulus (GPa) = 17.43750 24.60100 21.01925
#
# Velocity S-wave (km/s) = 2.97289 3.53113 3.26397
# Velocity P-wave (km/s) = 4.36765 5.42269 4.92351
#
# Compressibility (1/GPa) = 0.06950435
#
# Stress axis : x y z
#
# Youngs Moduli (GPa) = 13.97712 43.54588 78.75152
#
# Poissons Ratio (x) = 0.30844 0.67960
# Poissons Ratio (y) = 0.09900 0.24720
# Poissons Ratio (z) = 0.12062 0.13669
#
# Static dielectric constant tensor:
#      x y z
#    x 1.665600 0.000000 0.000000 
#    y 0.000000 1.732810 0.000000 
#    z 0.000000 0.000000 1.685370 
# 
# From -- ./inp_files/16659.got.cif
#   From: 2010.05.17/outbox.cif.g08.bks.cpg/sg36_9_cif.got.tgz:16659.got - 2010.06.03 17:41:39.
