data_PCOD9351120
_publ_section_title
;
Structure prediction by ZEFSAII (Michael W. Deem and Ramdas Pophale) SiO2 
 PCOD9351120
Probable space group: C M C 21
;
_chemical_formula_sum "Si O2"
_cell_formula_units_Z 64
_cell_length_a 12.619958
_cell_length_b 27.075525
_cell_length_c 8.633009
_cell_angle_alpha 90.000000
_cell_angle_beta 90.000000
_cell_angle_gamma 90.000000
_cell_volume 2949.830010
_symmetry_space_group_name_H-M "C M C 21"
_symmetry_group_IT_number 36
_symmetry_cell_setting 'orthorhombic'
loop_
_space_group_symop_operation_xyz
x,y,z
-x,-y,1/2+z
x,-y,1/2+z
-x,y,z
1/2+x,1/2+y,z
1/2-x,1/2-y,1/2+z
1/2+x,1/2-y,1/2+z
1/2-x,1/2+y,z
loop_
_atom_site_type_symbol
_atom_site_label
_atom_site_fract_x
_atom_site_fract_y
_atom_site_fract_z
Si Si1 0.879919 0.971033 0.307930
Si Si2 0.885253 0.573226 0.044975
Si Si3 0.660419 0.618330 0.011832
Si Si4 0.378218 0.252726 0.017218
Si Si5 0.733393 0.904293 0.088273
Si Si6 0.611781 0.357281 0.855686
Si Si7 0.669315 0.022683 0.366597
Si Si8 0.739959 0.688566 0.785790
O O1 0.882609 0.934478 0.456088
O O2 0.819179 0.937343 0.181126
O O3 0.000000 0.985163 0.267107
O O4 0.796484 0.014423 0.342253
O O5 0.786227 0.609193 0.031031
O O6 0.875072 0.545543 0.210059
O O7 0.000000 0.597072 0.032455
O O8 0.872374 0.531305 0.912907
O O9 0.617213 0.635857 0.173750
O O10 0.647618 0.659347 0.879062
O O11 0.500000 0.238443 0.056858
O O12 0.385537 0.300764 0.907272
O O13 0.314807 0.213538 0.913304
O O14 0.311516 0.271936 0.166922
O O15 0.704251 0.856525 0.190670
O O16 0.790208 0.882000 0.938507
O O17 0.649769 0.941843 0.014030
O O18 0.500000 0.378717 0.915047
#
# Coordination Sequence:
#
# PCOD9351120 Si02
#       8
#     8   8   8   8   8   8   8   8
#     4  10  21  35  55  84 124 164 204 255 310 368
#     4  11  23  40  61  82 115 166 215 261 304 352
#     4  10  21  37  59  89 123 155 206 252 310 370
#     4  10  22  41  66  95 123 163 205 247 319 387
#     4  10  20  37  57  84 125 164 207 250 309 358
#     4  10  19  33  59  88 121 156 194 245 311 384
#     4  11  21  40  56  85 118 161 214 259 303 364
#     4  10  22  41  66  89 127 163 198 265 309 373
#
# _framework density 21.696164
#
# number of rings (size 3 to 8) (size 9 to 14) (size 15 to 20)
#    0.000    1.750    2.500    1.875    0.000    5.000 
#    0.000    1.875    0.000    0.000    0.000    0.000 
#    0.000    0.000    0.000    0.000    0.000    0.000 
#
# Total GULP energy -178667.911808 kJ/mol
# GULP energy per Si atom -5583.372244 kJ/mol
# Density = 2.164678 g / cm^3
# Si number density = 21.696164 Si / 1000 Ang^3
#
#
#
# Elastic Constant Matrix: (Units=GPa)
#
#
# Indices 1 2 3 4 5 6 
#
# 1 100.6929 22.4595 3.2098 0.0000 0.0000 0.0000
# 2 22.4595 71.2175 22.1835 0.0000 0.0000 0.0000
# 3 3.2098 22.1835 96.6913 0.0000 0.0000 0.0000
# 4 0.0000 0.0000 0.0000 46.6617 0.0000 0.0000
# 5 0.0000 0.0000 0.0000 0.0000 -1.5612 0.0000
# 6 0.0000 0.0000 0.0000 0.0000 0.0000 2.5713
#
#
#
# Elastic Compliance Matrix: (Units=1/GPa)
#
#
# Indices 1 2 3 4 5 6 
#
# 1 0.010701 -0.003515 0.000451 0.000000 0.000000 0.000000
# 2 -0.003515 0.016277 -0.003618 0.000000 0.000000 0.000000
# 3 0.000451 -0.003618 0.011157 0.000000 0.000000 0.000000
# 4 0.000000 0.000000 0.000000 0.021431 0.000000 0.000000
# 5 0.000000 0.000000 0.000000 0.000000 -0.640526 0.000000
# 6 0.000000 0.000000 0.000000 0.000000 0.000000 0.388905
#
#
# Mechanical properties :
#
#
# Convention : Reuss Voigt Hill
#
# Bulk Modulus (GPa) = 40.36861 40.47859 40.42360
# Shear Modulus (GPa) = -29.33680 24.25095 -2.54293
#
# Velocity S-wave (km/s) = -3.68117 3.34691 -1.08379
# Velocity P-wave (km/s) = 0.76073 5.79942 4.13594
#
# Compressibility (1/GPa) = 0.02477172
#
# Stress axis : x y z
#
# Youngs Moduli (GPa) = 93.45031 61.43664 89.62829
#
# Poissons Ratio (x) = 0.21596 -0.04044
# Poissons Ratio (y) = 0.32850 0.32424
# Poissons Ratio (z) = -0.04217 0.22226
#
# Static dielectric constant tensor:
#      x y z
#    x 1.824890 0.000000 0.000000 
#    y 0.000000 1.806410 0.000000 
#    z 0.000000 0.000000 1.814940 
# 
# From -- ./inp_files/3611.got.cif
#   From: 2010.05.17/outbox.cif.g08.bks.cpg/sg36_2_cif.got.tgz:3611.got - 2010.06.03 17:41:39.
