data_PCOD9351635
_publ_section_title
;
Structure prediction by ZEFSAII (Michael W. Deem and Ramdas Pophale) SiO2 
 PCOD9351635
Probable space group: C M C 21
;
_chemical_formula_sum "Si O2"
_cell_formula_units_Z 64
_cell_length_a 8.586353
_cell_length_b 14.487952
_cell_length_c 28.940192
_cell_angle_alpha 90.000000
_cell_angle_beta 90.000000
_cell_angle_gamma 90.000000
_cell_volume 3600.121398
_symmetry_space_group_name_H-M "C M C 21"
_symmetry_group_IT_number 36
_symmetry_cell_setting 'orthorhombic'
loop_
_space_group_symop_operation_xyz
x,y,z
-x,-y,1/2+z
x,-y,1/2+z
-x,y,z
1/2+x,1/2+y,z
1/2-x,1/2-y,1/2+z
1/2+x,1/2-y,1/2+z
1/2-x,1/2+y,z
loop_
_atom_site_type_symbol
_atom_site_label
_atom_site_fract_x
_atom_site_fract_y
_atom_site_fract_z
Si Si1 0.313416 0.497765 0.890720
Si Si2 0.187384 0.502181 0.241938
Si Si3 0.313729 0.659067 0.564579
Si Si4 0.812422 0.853556 0.811613
Si Si5 0.188635 0.357837 0.320362
Si Si6 0.313651 0.366143 0.564410
Si Si7 0.314275 0.012314 0.493500
Si Si8 0.187834 0.487293 0.135864
O O1 0.500000 0.496782 0.895603
O O2 0.266458 0.414421 0.856205
O O3 0.259985 0.590227 0.864342
O O4 0.235923 0.488333 0.940425
O O5 0.249001 0.594051 0.266710
O O6 0.234383 0.417307 0.275197
O O7 0.238241 0.490481 0.189183
O O8 0.000000 0.505324 0.241921
O O9 0.500000 0.660521 0.564510
O O10 0.247764 0.762121 0.564349
O O11 0.253910 0.600699 0.520548
O O12 0.253393 0.601319 0.608758
O O13 0.761415 0.747978 0.815937
O O14 0.000000 0.854654 0.809357
O O15 0.000000 0.360511 0.324072
O O16 0.500000 0.367666 0.565194
O O17 0.253469 0.423000 0.519967
O O18 0.248565 0.423646 0.608040
O O19 0.500000 0.012403 0.498089
O O20 0.000000 0.485260 0.133591
#
# Coordination Sequence:
#
# PCOD9351635 Si02
#       8
#     8   8   8   8   8   8   8   8
#     4  10  20  35  53  78 108 140 178 224 271 321
#     4   9  19  34  54  78 108 140 176 221 269 318
#     4  11  22  38  58  82 111 144 180 224 271 324
#     4   9  19  34  54  77 106 141 180 221 265 317
#     4   9  18  35  54  76 105 141 180 221 268 320
#     4  11  22  38  58  81 108 142 181 226 274 325
#     4  11  22  38  58  81 109 144 182 225 271 323
#     4  10  20  36  55  81 113 146 183 226 271 322
#
# _framework density 17.777179
#
# number of rings (size 3 to 8) (size 9 to 14) (size 15 to 20)
#    0.000    2.000    0.000    5.625    0.000    4.000 
#    0.000    5.000    0.000    0.000    0.000    0.000 
#    0.000    0.000    0.000    0.000    0.000    0.000 
#
# Total GULP energy -178695.750393 kJ/mol
# GULP energy per Si atom -5584.242200 kJ/mol
# Density = 1.773672 g / cm^3
# Si number density = 17.777179 Si / 1000 Ang^3
#
#
#
# Elastic Constant Matrix: (Units=GPa)
#
#
# Indices 1 2 3 4 5 6 
#
# 1 94.2053 41.4010 42.0578 0.0000 0.0000 0.0000
# 2 41.4010 157.0512 60.0922 0.0000 0.0000 0.0000
# 3 42.0578 60.0922 144.9171 0.0000 0.0000 0.0000
# 4 0.0000 0.0000 0.0000 5.0142 0.0000 0.0000
# 5 0.0000 0.0000 0.0000 0.0000 31.3933 0.0000
# 6 0.0000 0.0000 0.0000 0.0000 0.0000 54.5975
#
#
#
# Elastic Compliance Matrix: (Units=1/GPa)
#
#
# Indices 1 2 3 4 5 6 
#
# 1 0.012878 -0.002335 -0.002769 0.000000 0.000000 0.000000
# 2 -0.002335 0.007992 -0.002636 0.000000 0.000000 0.000000
# 3 -0.002769 -0.002636 0.008797 0.000000 0.000000 0.000000
# 4 0.000000 0.000000 0.000000 0.199433 0.000000 0.000000
# 5 0.000000 0.000000 0.000000 0.000000 0.031854 0.000000
# 6 0.000000 0.000000 0.000000 0.000000 0.000000 0.018316
#
#
# Mechanical properties :
#
#
# Convention : Reuss Voigt Hill
#
# Bulk Modulus (GPa) = 70.49329 75.91952 73.20641
# Shear Modulus (GPa) = 16.69571 35.04251 25.86911
#
# Velocity S-wave (km/s) = 3.06791 4.44464 3.81883
# Velocity P-wave (km/s) = 7.23113 8.31497 7.79192
#
# Compressibility (1/GPa) = 0.01418575
#
# Stress axis : x y z
#
# Youngs Moduli (GPa) = 77.65420 125.13132 113.67228
#
# Poissons Ratio (x) = 0.29221 0.31476
# Poissons Ratio (y) = 0.18134 0.29965
# Poissons Ratio (z) = 0.21502 0.32986
#
# Static dielectric constant tensor:
#      x y z
#    x 1.599450 0.000000 0.000000 
#    y 0.000000 1.583940 0.000000 
#    z 0.000000 0.000000 1.586700 
# 
# From -- ./inp_files/17331.got.cif
#   From: 2010.05.17/outbox.cif.g08.bks.cpg/sg36_9_cif.got.tgz:17331.got - 2010.06.03 17:41:39.
