data_PCOD9351915
_publ_section_title
;
Structure prediction by ZEFSAII (Michael W. Deem and Ramdas Pophale) SiO2 
 PCOD9351915
Probable space group: C M C 21
;
_chemical_formula_sum "Si O2"
_cell_formula_units_Z 64
_cell_length_a 7.678372
_cell_length_b 14.989455
_cell_length_c 22.061037
_cell_angle_alpha 90.000000
_cell_angle_beta 90.000000
_cell_angle_gamma 90.000000
_cell_volume 2539.106484
_symmetry_space_group_name_H-M "C M C 21"
_symmetry_group_IT_number 36
_symmetry_cell_setting 'orthorhombic'
loop_
_space_group_symop_operation_xyz
x,y,z
-x,-y,1/2+z
x,-y,1/2+z
-x,y,z
1/2+x,1/2+y,z
1/2-x,1/2-y,1/2+z
1/2+x,1/2-y,1/2+z
1/2-x,1/2+y,z
loop_
_atom_site_type_symbol
_atom_site_label
_atom_site_fract_x
_atom_site_fract_y
_atom_site_fract_z
Si Si1 0.707592 0.387565 0.932620
Si Si2 0.288943 0.417186 0.395178
Si Si3 0.290478 0.280199 0.494259
Si Si4 0.795045 0.100972 0.637716
Si Si5 0.197961 0.172494 0.306433
Si Si6 0.703906 0.214800 0.177980
Si Si7 0.200949 0.077104 0.089285
Si Si8 0.203296 0.522418 0.766609
O O1 0.500000 0.392345 0.924605
O O2 0.766687 0.490354 0.929054
O O3 0.738179 0.322987 0.989416
O O4 0.781985 0.336781 0.872909
O O5 0.500000 0.416764 0.392756
O O6 0.232677 0.332707 0.433906
O O7 0.220065 0.418264 0.327027
O O8 0.500000 0.280088 0.497703
O O9 0.222350 0.346685 0.546219
O O10 0.720234 0.200350 0.641746
O O11 0.000000 0.109190 0.623099
O O12 0.720143 0.021180 0.596617
O O13 0.780039 0.066506 0.706897
O O14 0.279189 0.224930 0.250251
O O15 0.203362 0.069232 0.284929
O O16 0.000000 0.203636 0.312078
O O17 0.500000 0.206117 0.164955
O O18 0.794184 0.125393 0.154399
O O19 0.000000 0.063903 0.069978
O O20 0.000000 0.502455 0.755081
#
# Coordination Sequence:
#
# PCOD9351915 Si02
#       8
#     8   8   8   8   8   8   8   8
#     4   9  20  37  58  85 117 154 192 237 299 350
#     4   9  20  39  59  83 118 159 196 234 293 359
#     4  10  22  39  62  87 113 155 207 244 286 351
#     4  10  22  39  59  84 118 158 196 238 299 358
#     4  10  20  37  59  84 122 161 191 235 302 362
#     4  11  23  37  59  91 117 151 201 249 294 349
#     4  10  22  42  62  82 117 162 199 243 299 353
#     4  11  21  34  58  90 122 152 196 246 294 348
#
# _framework density 25.205717
#
# number of rings (size 3 to 8) (size 9 to 14) (size 15 to 20)
#    0.000    2.000    1.250    2.625    1.750    5.500 
#    0.000    2.500    0.000    0.000    0.000    0.000 
#    0.000    0.000    0.000    0.000    0.000    0.000 
#
# Total GULP energy -178845.063336 kJ/mol
# GULP energy per Si atom -5588.908229 kJ/mol
# Density = 2.514835 g / cm^3
# Si number density = 25.205717 Si / 1000 Ang^3
#
#
#
# Elastic Constant Matrix: (Units=GPa)
#
#
# Indices 1 2 3 4 5 6 
#
# 1 64.9067 -2.8937 -13.8755 0.0000 0.0000 0.0000
# 2 -2.8937 127.1150 20.0733 0.0000 0.0000 0.0000
# 3 -13.8755 20.0733 33.5856 0.0000 0.0000 0.0000
# 4 0.0000 0.0000 0.0000 41.1286 0.0000 0.0000
# 5 0.0000 0.0000 0.0000 0.0000 18.1107 0.0000
# 6 0.0000 0.0000 0.0000 0.0000 0.0000 11.8789
#
#
#
# Elastic Compliance Matrix: (Units=1/GPa)
#
#
# Indices 1 2 3 4 5 6 
#
# 1 0.016972 -0.000796 0.007487 0.000000 0.000000 0.000000
# 2 -0.000796 0.008724 -0.005543 0.000000 0.000000 0.000000
# 3 0.007487 -0.005543 0.036181 0.000000 0.000000 0.000000
# 4 0.000000 0.000000 0.000000 0.024314 0.000000 0.000000
# 5 0.000000 0.000000 0.000000 0.000000 0.055216 0.000000
# 6 0.000000 0.000000 0.000000 0.000000 0.000000 0.084183
#
#
# Mechanical properties :
#
#
# Convention : Reuss Voigt Hill
#
# Bulk Modulus (GPa) = 15.58269 25.80174 20.69222
# Shear Modulus (GPa) = 20.43448 29.04383 24.73915
#
# Velocity S-wave (km/s) = 2.85038 3.39820 3.13627
# Velocity P-wave (km/s) = 4.12656 5.06514 4.61975
#
# Compressibility (1/GPa) = 0.06417379
#
# Stress axis : x y z
#
# Youngs Moduli (GPa) = 58.92094 114.62501 27.63882
#
# Poissons Ratio (x) = 0.09125 -0.20695
# Poissons Ratio (y) = 0.04690 0.15320
# Poissons Ratio (z) = -0.44117 0.63537
#
# Static dielectric constant tensor:
#      x y z
#    x 1.928830 0.000000 0.000000 
#    y 0.000000 1.998330 0.000000 
#    z 0.000000 0.000000 2.066210 
# 
# From -- ./inp_files/16672.got.cif
#   From: 2010.05.17/outbox.cif.g08.bks.cpg/sg36_9_cif.got.tgz:16672.got - 2010.06.03 17:41:39.
