data_PCOD9351480
_publ_section_title
;
Structure prediction by ZEFSAII (Michael W. Deem and Ramdas Pophale) SiO2 
 PCOD9351480
Probable space group: C M C 21
;
_chemical_formula_sum "Si O2"
_cell_formula_units_Z 48
_cell_length_a 8.307502
_cell_length_b 28.865398
_cell_length_c 7.977923
_cell_angle_alpha 90.000000
_cell_angle_beta 90.000000
_cell_angle_gamma 90.000000
_cell_volume 1913.100763
_symmetry_space_group_name_H-M "C M C 21"
_symmetry_group_IT_number 36
_symmetry_cell_setting 'orthorhombic'
loop_
_space_group_symop_operation_xyz
x,y,z
-x,-y,1/2+z
x,-y,1/2+z
-x,y,z
1/2+x,1/2+y,z
1/2-x,1/2-y,1/2+z
1/2+x,1/2-y,1/2+z
1/2-x,1/2+y,z
loop_
_atom_site_type_symbol
_atom_site_label
_atom_site_fract_x
_atom_site_fract_y
_atom_site_fract_z
Si Si1 0.810979 0.431023 0.865330
Si Si2 0.188407 0.323153 0.559581
Si Si3 0.186874 0.341976 0.028430
Si Si4 0.311057 0.398800 0.338561
Si Si5 0.809926 0.235285 0.749272
Si Si6 0.313059 0.490982 0.172445
O O1 0.757521 0.377538 0.883008
O O2 0.784094 0.462170 0.702304
O O3 0.000000 0.429829 0.902545
O O4 0.723047 0.460940 0.008394
O O5 0.276102 0.370397 0.507115
O O6 0.239487 0.287843 0.706625
O O7 0.213801 0.290482 0.395221
O O8 0.000000 0.333457 0.582705
O O9 0.000000 0.329551 0.003574
O O10 0.205299 0.374555 0.194074
O O11 0.282005 0.296581 0.084605
O O12 0.500000 0.392081 0.296628
O O13 0.280654 0.453356 0.321011
O O14 0.000000 0.234469 0.789730
O O15 0.500000 0.503657 0.174949
#
# Coordination Sequence:
#
# PCOD9351480 Si02
#       6
#     8   8   8   8   8   8
#     4  10  20  34  53  77 103 133 169 208 251 299
#     4  10  20  33  51  75 100 129 165 203 245 292
#     4   9  17  30  50  73  97 129 166 201 242 293
#     4   9  17  30  50  73  97 129 166 201 242 293
#     4  10  20  33  51  75 100 129 165 203 245 292
#     4  10  20  34  53  77 103 133 169 208 251 299
#
# _framework density 25.090157999999999
#
# number of rings (size 3 to 8) (size 9 to 14) (size 15 to 20)
#    0.000    2.333    0.000    5.000    0.000    6.667 
#    0.000    1.667    0.000    4.000    0.000    0.000 
#    0.000    0.000    0.000    0.000    0.000    0.000 
#
# Total GULP energy -134180.392260 kJ/mol
# GULP energy per Si atom -5590.849678 kJ/mol
# Density = 2.503305 g / cm^3
# Si number density = 25.090158 Si / 1000 Ang^3
#
#
#
# Elastic Constant Matrix: (Units=GPa)
#
#
# Indices 1 2 3 4 5 6 
#
# 1 51.6003 25.8827 3.6782 0.0000 0.0000 0.0000
# 2 25.8827 153.5283 1.4195 0.0000 0.0000 0.0000
# 3 3.6782 1.4195 72.2756 0.0000 0.0000 0.0000
# 4 0.0000 0.0000 0.0000 54.2355 0.0000 0.0000
# 5 0.0000 0.0000 0.0000 0.0000 12.7612 0.0000
# 6 0.0000 0.0000 0.0000 0.0000 0.0000 26.7005
#
#
#
# Elastic Compliance Matrix: (Units=1/GPa)
#
#
# Indices 1 2 3 4 5 6 
#
# 1 0.021244 -0.003572 -0.001011 0.000000 0.000000 0.000000
# 2 -0.003572 0.007115 0.000042 0.000000 0.000000 0.000000
# 3 -0.001011 0.000042 0.013887 0.000000 0.000000 0.000000
# 4 0.000000 0.000000 0.000000 0.018438 0.000000 0.000000
# 5 0.000000 0.000000 0.000000 0.000000 0.078363 0.000000
# 6 0.000000 0.000000 0.000000 0.000000 0.000000 0.037452
#
#
# Mechanical properties :
#
#
# Convention : Reuss Voigt Hill
#
# Bulk Modulus (GPa) = 30.15365 37.70723 33.93044
# Shear Modulus (GPa) = 25.42784 35.16768 30.29776
#
# Velocity S-wave (km/s) = 3.18694 3.74793 3.47876
# Velocity P-wave (km/s) = 5.05829 5.81297 5.44871
#
# Compressibility (1/GPa) = 0.03316348
#
# Stress axis : x y z
#
# Youngs Moduli (GPa) = 47.07315 140.54306 72.01216
#
# Poissons Ratio (x) = 0.50202 0.07280
# Poissons Ratio (y) = 0.16815 -0.00303
# Poissons Ratio (z) = 0.04759 -0.00591
#
# Static dielectric constant tensor:
#      x y z
#    x 1.835260 0.000000 0.000000 
#    y 0.000000 2.005660 0.000000 
#    z 0.000000 0.000000 2.121360 
# 
# From -- ./inp_files/6808.got.cif
#   From: 2010.05.17/outbox.cif.g08.bks.cpg/sg36_4_cif.got.tgz:6808.got - 2010.06.03 17:41:39.
