data_PCOD9351640
_publ_section_title
;
Structure prediction by ZEFSAII (Michael W. Deem and Ramdas Pophale) SiO2 
 PCOD9351640
Probable space group: C M C 21
;
_chemical_formula_sum "Si O2"
_cell_formula_units_Z 64
_cell_length_a 8.682942
_cell_length_b 20.520817
_cell_length_c 20.584088
_cell_angle_alpha 90.000000
_cell_angle_beta 90.000000
_cell_angle_gamma 90.000000
_cell_volume 3667.694697
_symmetry_space_group_name_H-M "C M C 21"
_symmetry_group_IT_number 36
_symmetry_cell_setting 'orthorhombic'
loop_
_space_group_symop_operation_xyz
x,y,z
-x,-y,1/2+z
x,-y,1/2+z
-x,y,z
1/2+x,1/2+y,z
1/2-x,1/2-y,1/2+z
1/2+x,1/2-y,1/2+z
1/2-x,1/2+y,z
loop_
_atom_site_type_symbol
_atom_site_label
_atom_site_fract_x
_atom_site_fract_y
_atom_site_fract_z
Si Si1 0.813647 0.575548 0.175600
Si Si2 0.316504 0.825478 0.920997
Si Si3 0.185942 0.428906 0.317925
Si Si4 0.186699 0.677933 0.067933
Si Si5 0.816599 0.072185 0.318649
Si Si6 0.815388 0.574949 0.668232
Si Si7 0.313568 0.818154 0.419885
Si Si8 0.315810 0.326796 0.063458
O O1 0.759388 0.626589 0.121409
O O2 0.743277 0.588427 0.246239
O O3 0.776285 0.501013 0.156565
O O4 0.000000 0.579121 0.181317
O O5 0.500000 0.825925 0.919270
O O6 0.251027 0.877164 0.870094
O O7 0.254940 0.752856 0.905726
O O8 0.258823 0.841656 0.993717
O O9 0.258685 0.498892 0.333176
O O10 0.225862 0.411266 0.243443
O O11 0.232212 0.372872 0.368171
O O12 0.000000 0.436024 0.320490
O O13 0.231449 0.752694 0.081761
O O14 0.000000 0.675386 0.069239
O O15 0.232800 0.663260 0.993626
O O16 0.000000 0.074208 0.320046
O O17 0.734939 0.622669 0.618019
O O18 0.000000 0.581917 0.661733
O O19 0.500000 0.812741 0.418717
O O20 0.500000 0.327247 0.055799
#
# Coordination Sequence:
#
# PCOD9351640 Si02
#       8
#     8   8   8   8   8   8   8   8
#     4   9  18  35  55  76 104 140 181 218 260 316
#     4  11  22  37  56  77 105 141 179 219 267 321
#     4   9  19  36  57  80 109 144 179 217 264 320
#     4   8  16  32  54  77 102 134 171 213 259 308
#     4  11  22  36  54  78 108 140 179 226 269 312
#     4   9  18  32  51  77 107 139 175 214 257 312
#     4   9  18  35  57  82 110 138 173 218 266 314
#     4  10  20  35  54  77 105 136 173 219 268 315
#
# _framework density 17.449652
#
# number of rings (size 3 to 8) (size 9 to 14) (size 15 to 20)
#    0.000    2.500    0.000    4.125    0.000    4.500 
#    0.000    8.125    0.000    0.000    0.000    0.000 
#    0.000    0.000    0.000    0.000    0.000    0.000 
#
# Total GULP energy -178538.240393 kJ/mol
# GULP energy per Si atom -5579.320012 kJ/mol
# Density = 1.740994 g / cm^3
# Si number density = 17.449652 Si / 1000 Ang^3
#
#
#
# Elastic Constant Matrix: (Units=GPa)
#
#
# Indices 1 2 3 4 5 6 
#
# 1 53.0279 55.2359 56.3964 0.0000 0.0000 0.0000
# 2 55.2359 146.8247 140.0891 0.0000 0.0000 0.0000
# 3 56.3964 140.0891 154.6531 0.0000 0.0000 0.0000
# 4 0.0000 0.0000 0.0000 44.0336 0.0000 0.0000
# 5 0.0000 0.0000 0.0000 0.0000 25.9132 0.0000
# 6 0.0000 0.0000 0.0000 0.0000 0.0000 27.0133
#
#
#
# Elastic Compliance Matrix: (Units=1/GPa)
#
#
# Indices 1 2 3 4 5 6 
#
# 1 0.031648 -0.006591 -0.005570 0.000000 0.000000 0.000000
# 2 -0.006591 0.051553 -0.044295 0.000000 0.000000 0.000000
# 3 -0.005570 -0.044295 0.048621 0.000000 0.000000 0.000000
# 4 0.000000 0.000000 0.000000 0.022710 0.000000 0.000000
# 5 0.000000 0.000000 0.000000 0.000000 0.038590 0.000000
# 6 0.000000 0.000000 0.000000 0.000000 0.000000 0.037019
#
#
# Mechanical properties :
#
#
# Convention : Reuss Voigt Hill
#
# Bulk Modulus (GPa) = 52.88420 95.32760 74.10590
# Shear Modulus (GPa) = 14.31203 26.24430 20.27817
#
# Velocity S-wave (km/s) = 2.86700 3.88235 3.41265
# Velocity P-wave (km/s) = 6.42901 8.65133 7.62160
#
# Compressibility (1/GPa) = 0.01890924
#
# Stress axis : x y z
#
# Youngs Moduli (GPa) = 31.59780 19.39744 20.56736
#
# Poissons Ratio (x) = 0.12785 0.11456
# Poissons Ratio (y) = 0.20827 0.91103
# Poissons Ratio (z) = 0.17601 0.85920
#
# Static dielectric constant tensor:
#      x y z
#    x 1.588070 0.000000 0.000000 
#    y 0.000000 1.572730 0.000000 
#    z 0.000000 0.000000 1.575280 
# 
# From -- ./inp_files/15709.got.cif
#   From: 2010.05.17/outbox.cif.g08.bks.cpg/sg36_8_cif.got.tgz:15709.got - 2010.06.03 17:41:39.
