data_PCOD9351733
_publ_section_title
;
Structure prediction by ZEFSAII (Michael W. Deem and Ramdas Pophale) SiO2 
 PCOD9351733
Probable space group: C M C 21
;
_chemical_formula_sum "Si O2"
_cell_formula_units_Z 64
_cell_length_a 24.723228
_cell_length_b 15.415400
_cell_length_c 7.392676
_cell_angle_alpha 90.000000
_cell_angle_beta 90.000000
_cell_angle_gamma 90.000000
_cell_volume 2817.485210
_symmetry_space_group_name_H-M "C M C 21"
_symmetry_group_IT_number 36
_symmetry_cell_setting 'orthorhombic'
loop_
_space_group_symop_operation_xyz
x,y,z
-x,-y,1/2+z
x,-y,1/2+z
-x,y,z
1/2+x,1/2+y,z
1/2-x,1/2-y,1/2+z
1/2+x,1/2-y,1/2+z
1/2-x,1/2+y,z
loop_
_atom_site_type_symbol
_atom_site_label
_atom_site_fract_x
_atom_site_fract_y
_atom_site_fract_z
Si Si1 0.060180 0.789732 0.408510
Si Si2 0.857763 0.123840 0.395036
Si Si3 0.253697 0.877939 0.403329
Si Si4 0.126371 0.622330 0.322982
Si Si5 0.757036 0.320036 0.822426
Si Si6 0.139871 0.064547 0.977590
Si Si7 0.370798 0.068638 0.907936
Si Si8 0.061428 0.730936 0.823986
O O1 0.085057 0.700640 0.338058
O O2 0.099194 0.870989 0.376546
O O3 0.057580 0.772223 0.624547
O O4 0.000000 0.806061 0.340509
O O5 0.795166 0.146950 0.432620
O O6 0.897483 0.204724 0.428761
O O7 0.876796 0.035231 0.485669
O O8 0.857242 0.102271 0.180166
O O9 0.248467 0.783627 0.314038
O O10 0.256085 0.857678 0.618998
O O11 0.198579 0.931263 0.382219
O O12 0.308491 0.924946 0.340556
O O13 0.184470 0.653869 0.399355
O O14 0.110402 0.530432 0.407925
O O15 0.131428 0.601133 0.112417
O O16 0.409880 0.137173 0.810162
O O17 0.000000 0.724553 0.896113
#
# Coordination Sequence:
#
# PCOD9351733 Si02
#       8
#     8   8   8   8   8   8   8   8
#     4  10  22  41  62  83 113 154 197 242 289 336
#     4  10  21  37  58  86 118 151 188 232 283 341
#     4  10  20  35  58  87 117 151 188 230 286 343
#     4  11  23  38  60  89 118 152 191 236 290 347
#     4  10  20  35  58  87 117 151 188 230 286 343
#     4  10  21  37  58  86 118 151 188 232 283 341
#     4  11  23  38  60  89 118 152 191 236 290 347
#     4  10  22  41  62  83 113 154 197 242 289 336
#
# _framework density 22.715292999999999
#
# number of rings (size 3 to 8) (size 9 to 14) (size 15 to 20)
#    0.000    1.750    2.500    1.500    0.000    4.500 
#    0.000    0.000    0.000    0.000    0.000    0.000 
#    0.000    0.000    0.000    0.000    0.000    0.000 
#
# Total GULP energy -178966.937530 kJ/mol
# GULP energy per Si atom -5592.716798 kJ/mol
# Density = 2.266359 g / cm^3
# Si number density = 22.715293 Si / 1000 Ang^3
#
#
#
# Elastic Constant Matrix: (Units=GPa)
#
#
# Indices 1 2 3 4 5 6 
#
# 1 113.5085 31.8237 8.0945 0.0000 0.0000 0.0000
# 2 31.8237 122.8923 -2.1295 0.0000 0.0000 0.0000
# 3 8.0945 -2.1295 22.4084 0.0000 0.0000 0.0000
# 4 0.0000 0.0000 0.0000 30.1940 0.0000 0.0000
# 5 0.0000 0.0000 0.0000 0.0000 12.8660 0.0000
# 6 0.0000 0.0000 0.0000 0.0000 0.0000 -12.0153
#
#
#
# Elastic Compliance Matrix: (Units=1/GPa)
#
#
# Indices 1 2 3 4 5 6 
#
# 1 0.009811 -0.002606 -0.003792 0.000000 0.000000 0.000000
# 2 -0.002606 0.008843 0.001782 0.000000 0.000000 0.000000
# 3 -0.003792 0.001782 0.046165 0.000000 0.000000 0.000000
# 4 0.000000 0.000000 0.000000 0.033119 0.000000 0.000000
# 5 0.000000 0.000000 0.000000 0.000000 0.077724 0.000000
# 6 0.000000 0.000000 0.000000 0.000000 0.000000 -0.083227
#
#
# Mechanical properties :
#
#
# Convention : Reuss Voigt Hill
#
# Bulk Modulus (GPa) = 17.98989 37.15407 27.57198
# Shear Modulus (GPa) = 41.59856 20.94364 31.27110
#
# Velocity S-wave (km/s) = 4.28401 3.03975 3.71435
# Velocity P-wave (km/s) = 5.69274 5.35836 5.52808
#
# Compressibility (1/GPa) = 0.05558677
#
# Stress axis : x y z
#
# Youngs Moduli (GPa) = 101.92619 113.08366 21.66141
#
# Poissons Ratio (x) = 0.29473 0.08213
# Poissons Ratio (y) = 0.26565 -0.03860
# Poissons Ratio (z) = 0.38647 -0.20150
#
# Static dielectric constant tensor:
#      x y z
#    x 1.849020 0.000000 0.000000 
#    y 0.000000 1.812230 0.000000 
#    z 0.000000 0.000000 1.912810 
# 
# From -- ./inp_files/5655.got.cif
#   From: 2010.05.17/outbox.cif.g08.bks.cpg/sg36_3_cif.got.tgz:5655.got - 2010.06.03 17:41:39.
