data_PCOD9351093
_publ_section_title
;
Structure prediction by ZEFSAII (Michael W. Deem and Ramdas Pophale) SiO2 
 PCOD9351093
Probable space group: C M C 21
;
_chemical_formula_sum "Si O2"
_cell_formula_units_Z 64
_cell_length_a 8.930181
_cell_length_b 23.439234
_cell_length_c 16.654953
_cell_angle_alpha 90.000000
_cell_angle_beta 90.000000
_cell_angle_gamma 90.000000
_cell_volume 3486.158170
_symmetry_space_group_name_H-M "C M C 21"
_symmetry_group_IT_number 36
_symmetry_cell_setting 'orthorhombic'
loop_
_space_group_symop_operation_xyz
x,y,z
-x,-y,1/2+z
x,-y,1/2+z
-x,y,z
1/2+x,1/2+y,z
1/2-x,1/2-y,1/2+z
1/2+x,1/2-y,1/2+z
1/2-x,1/2+y,z
loop_
_atom_site_type_symbol
_atom_site_label
_atom_site_fract_x
_atom_site_fract_y
_atom_site_fract_z
Si Si1 0.818725 0.037012 0.055810
Si Si2 0.818525 0.846966 0.251881
Si Si3 0.172118 0.818768 0.958070
Si Si4 0.173389 0.861735 0.669851
Si Si5 0.673959 0.894372 0.410906
Si Si6 0.317458 0.406708 0.085343
Si Si7 0.665504 0.202065 0.041124
Si Si8 0.177918 0.281949 0.795337
O O1 0.774711 0.079336 0.128793
O O2 0.000000 0.040172 0.048553
O O3 0.775059 0.972761 0.077686
O O4 0.748554 0.060991 0.973133
O O5 0.756935 0.883379 0.327127
O O6 0.769997 0.875173 0.167416
O O7 0.770152 0.780570 0.263342
O O8 0.000000 0.847829 0.254166
O O9 0.264853 0.794862 0.884290
O O10 0.000000 0.829028 0.931489
O O11 0.232259 0.873292 0.005453
O O12 0.167686 0.768302 0.023256
O O13 0.201961 0.816992 0.598099
O O14 0.263062 0.834312 0.742242
O O15 0.000000 0.866891 0.691154
O O16 0.500000 0.909013 0.397730
O O17 0.677675 0.834342 0.459690
O O18 0.500000 0.404083 0.085017
O O19 0.500000 0.187833 0.076586
O O20 0.000000 0.280525 0.793383
#
# Coordination Sequence:
#
# PCOD9351093 Si02
#       8
#     8   8   8   8   8   8   8   8
#     4   9  19  38  59  80 106 142 192 234 269 322
#     4  10  20  36  59  84 111 144 188 233 278 332
#     4  10  19  35  57  80 111 146 182 225 278 334
#     4  10  20  33  54  80 107 140 182 227 271 326
#     4  10  19  33  56  84 113 145 179 223 277 331
#     4   9  19  37  60  82 106 145 193 238 275 319
#     4   9  17  31  53  79 109 140 174 219 277 332
#     4  11  22  35  54  83 117 146 180 227 283 338
#
# _framework density 18.358319000000002
#
# number of rings (size 3 to 8) (size 9 to 14) (size 15 to 20)
#    0.000    2.250    1.250    1.875    0.000    4.000 
#    2.250    1.875    0.000    0.000    0.000    0.000 
#    0.000    0.000    0.000    0.000    0.000    0.000 
#
# Total GULP energy -178383.914410 kJ/mol
# GULP energy per Si atom -5574.497325 kJ/mol
# Density = 1.831653 g / cm^3
# Si number density = 18.358319 Si / 1000 Ang^3
#
#
#
# Elastic Constant Matrix: (Units=GPa)
#
#
# Indices 1 2 3 4 5 6 
#
# 1 27.8778 29.6281 19.7746 0.0000 0.0000 0.0000
# 2 29.6281 134.0297 59.2180 0.0000 0.0000 0.0000
# 3 19.7746 59.2180 65.1003 0.0000 0.0000 0.0000
# 4 0.0000 0.0000 0.0000 22.6109 0.0000 0.0000
# 5 0.0000 0.0000 0.0000 0.0000 30.0094 0.0000
# 6 0.0000 0.0000 0.0000 0.0000 0.0000 9.0695
#
#
#
# Elastic Compliance Matrix: (Units=1/GPa)
#
#
# Indices 1 2 3 4 5 6 
#
# 1 0.049552 -0.007195 -0.008506 0.000000 0.000000 0.000000
# 2 -0.007195 0.013519 -0.010112 0.000000 0.000000 0.000000
# 3 -0.008506 -0.010112 0.027143 0.000000 0.000000 0.000000
# 4 0.000000 0.000000 0.000000 0.044226 0.000000 0.000000
# 5 0.000000 0.000000 0.000000 0.000000 0.033323 0.000000
# 6 0.000000 0.000000 0.000000 0.000000 0.000000 0.110260
#
#
# Mechanical properties :
#
#
# Convention : Reuss Voigt Hill
#
# Bulk Modulus (GPa) = 25.91577 49.36103 37.63840
# Shear Modulus (GPa) = 14.59794 20.23044 17.41419
#
# Velocity S-wave (km/s) = 2.82293 3.32320 3.08323
# Velocity P-wave (km/s) = 4.97720 6.45530 5.76383
#
# Compressibility (1/GPa) = 0.03858654
#
# Stress axis : x y z
#
# Youngs Moduli (GPa) = 20.18086 73.96724 36.84138
#
# Poissons Ratio (x) = 0.53222 0.31339
# Poissons Ratio (y) = 0.14521 0.37255
# Poissons Ratio (z) = 0.17167 0.74798
#
# Static dielectric constant tensor:
#      x y z
#    x 1.640070 0.000000 0.000000 
#    y 0.000000 1.630670 0.000000 
#    z 0.000000 0.000000 1.651550 
# 
# From -- ./inp_files/10905.got.cif
#   From: 2010.05.17/outbox.cif.g08.bks.cpg/sg36_6_cif.got.tgz:10905.got - 2010.06.03 17:41:39.
