data_PCOD9351438
_publ_section_title
;
Structure prediction by ZEFSAII (Michael W. Deem and Ramdas Pophale) SiO2 
 PCOD9351438
Probable space group: C M C 21
;
_chemical_formula_sum "Si O2"
_cell_formula_units_Z 64
_cell_length_a 14.435831
_cell_length_b 17.641856
_cell_length_c 15.203807
_cell_angle_alpha 90.000000
_cell_angle_beta 90.000000
_cell_angle_gamma 90.000000
_cell_volume 3872.027294
_symmetry_space_group_name_H-M "C M C 21"
_symmetry_group_IT_number 36
_symmetry_cell_setting 'orthorhombic'
loop_
_space_group_symop_operation_xyz
x,y,z
-x,-y,1/2+z
x,-y,1/2+z
-x,y,z
1/2+x,1/2+y,z
1/2-x,1/2-y,1/2+z
1/2+x,1/2-y,1/2+z
1/2-x,1/2+y,z
loop_
_atom_site_type_symbol
_atom_site_label
_atom_site_fract_x
_atom_site_fract_y
_atom_site_fract_z
Si Si1 0.750925 0.838712 0.924080
Si Si2 0.736203 0.056110 0.253964
Si Si3 0.391039 0.914959 0.259026
Si Si4 0.104558 0.950547 0.995712
Si Si5 0.263794 0.056111 0.058395
Si Si6 0.891038 0.585040 0.553333
Si Si7 0.395442 0.450547 0.316646
Si Si8 0.249072 0.161289 0.888278
O O1 0.742234 0.883881 0.832050
O O2 0.843170 0.872627 0.970916
O O3 0.749999 0.750001 0.906178
O O4 0.666793 0.862455 0.987845
O O5 0.729471 0.089327 0.156180
O O6 0.650100 0.999574 0.270144
O O7 0.825738 0.000538 0.258217
O O8 0.500000 0.912494 0.276384
O O9 0.375331 0.894591 0.156179
O O10 0.333204 0.862456 0.324514
O O11 0.000000 0.940551 0.029096
O O12 0.099380 0.999999 0.906179
O O13 0.174258 0.000541 0.054143
O O14 0.349895 0.999574 0.042213
O O15 0.257763 0.116121 0.980310
O O16 0.000000 0.587500 0.535976
O O17 0.500000 0.440554 0.283261
O O18 0.343173 0.372626 0.341443
#
# Coordination Sequence:
#
# PCOD9351438 Si02
#       8
#     8   8   8   8   8   8   8   8
#     4  10  20  31  47  74 106 136 159 194 249 303
#     4   9  18  32  50  71  94 126 169 209 245 289
#     4   9  18  34  55  75  95 125 168 211 245 283
#     4   8  15  30  49  67  90 123 165 206 239 278
#     4   9  18  32  50  71  94 126 169 209 245 289
#     4   9  18  34  55  75  95 125 168 211 245 283
#     4   8  15  30  49  67  90 123 165 206 239 278
#     4  10  20  31  47  74 106 136 159 194 249 303
#
# _framework density 16.528808000000001
#
# number of rings (size 3 to 8) (size 9 to 14) (size 15 to 20)
#    0.000    3.000    0.000    2.250    0.000    4.500 
#    0.000    0.000    0.000    0.000    0.000    3.500 
#    0.000    0.000    0.000    0.000    0.000    0.000 
#
# Total GULP energy -178216.728094 kJ/mol
# GULP energy per Si atom -5569.272753 kJ/mol
# Density = 1.649119 g / cm^3
# Si number density = 16.528808 Si / 1000 Ang^3
#
#
#
# Elastic Constant Matrix: (Units=GPa)
#
#
# Indices 1 2 3 4 5 6 
#
# 1 129.3815 57.9127 47.2057 0.0000 0.0000 0.0000
# 2 57.9127 117.0677 58.7943 0.0000 0.0000 0.0000
# 3 47.2057 58.7943 89.3595 0.0000 0.0000 0.0000
# 4 0.0000 0.0000 0.0000 3.8441 0.0000 0.0000
# 5 0.0000 0.0000 0.0000 0.0000 15.9241 0.0000
# 6 0.0000 0.0000 0.0000 0.0000 0.0000 7.9544
#
#
#
# Elastic Compliance Matrix: (Units=1/GPa)
#
#
# Indices 1 2 3 4 5 6 
#
# 1 0.010499 -0.003597 -0.003180 0.000000 0.000000 0.000000
# 2 -0.003597 0.013990 -0.007305 0.000000 0.000000 0.000000
# 3 -0.003180 -0.007305 0.017677 0.000000 0.000000 0.000000
# 4 0.000000 0.000000 0.000000 0.260136 0.000000 0.000000
# 5 0.000000 0.000000 0.000000 0.000000 0.062798 0.000000
# 6 0.000000 0.000000 0.000000 0.000000 0.000000 0.125717
#
#
# Mechanical properties :
#
#
# Convention : Reuss Voigt Hill
#
# Bulk Modulus (GPa) = 71.41233 73.73713 72.57473
# Shear Modulus (GPa) = 9.54842 17.00426 13.27634
#
# Velocity S-wave (km/s) = 2.40611 3.21092 2.83720
# Velocity P-wave (km/s) = 7.14267 7.64557 7.39839
#
# Compressibility (1/GPa) = 0.01400318
#
# Stress axis : x y z
#
# Youngs Moduli (GPa) = 95.24447 71.47955 56.57195
#
# Poissons Ratio (x) = 0.25711 0.17989
# Poissons Ratio (y) = 0.34259 0.41324
# Poissons Ratio (z) = 0.30286 0.52213
#
# Static dielectric constant tensor:
#      x y z
#    x 1.568860 0.000000 0.000000 
#    y 0.000000 1.516480 0.000000 
#    z 0.000000 0.000000 1.574900 
# 
# From -- ./inp_files/12338.got.cif
#   From: 2010.05.17/outbox.cif.g08.bks.cpg/sg36_7_cif.got.tgz:12338.got - 2010.06.03 17:41:39.
