data_PCOD9351570
_publ_section_title
;
Structure prediction by ZEFSAII (Michael W. Deem and Ramdas Pophale) SiO2 
 PCOD9351570
Probable space group: C M C 21
;
_chemical_formula_sum "Si O2"
_cell_formula_units_Z 56
_cell_length_a 13.282088
_cell_length_b 22.326007
_cell_length_c 9.544493
_cell_angle_alpha 90.000000
_cell_angle_beta 90.000000
_cell_angle_gamma 90.000000
_cell_volume 2830.285678
_symmetry_space_group_name_H-M "C M C 21"
_symmetry_group_IT_number 36
_symmetry_cell_setting 'orthorhombic'
loop_
_space_group_symop_operation_xyz
x,y,z
-x,-y,1/2+z
x,-y,1/2+z
-x,y,z
1/2+x,1/2+y,z
1/2-x,1/2-y,1/2+z
1/2+x,1/2-y,1/2+z
1/2-x,1/2+y,z
loop_
_atom_site_type_symbol
_atom_site_label
_atom_site_fract_x
_atom_site_fract_y
_atom_site_fract_z
Si Si1 0.880201 0.666109 0.780560
Si Si2 0.121051 0.920375 0.652519
Si Si3 0.120094 0.193869 0.323291
Si Si4 0.121817 0.433931 0.489129
Si Si5 0.620727 0.484735 0.943360
Si Si6 0.248342 0.378182 0.022043
Si Si7 0.378994 0.049836 0.308751
O O1 0.863732 0.737043 0.788430
O O2 0.812382 0.638598 0.658971
O O3 0.000000 0.655825 0.753083
O O4 0.854315 0.630285 0.922519
O O5 0.151885 0.853949 0.702525
O O6 0.000000 0.916844 0.644675
O O7 0.151166 0.950695 0.505548
O O8 0.142972 0.965114 0.783606
O O9 0.183589 0.174544 0.458617
O O10 0.000000 0.185391 0.347996
O O11 0.155720 0.444661 0.648249
O O12 0.149897 0.487171 0.382418
O O13 0.000000 0.436975 0.496549
O O14 0.500000 0.479014 0.958838
O O15 0.676827 0.434653 0.035864
O O16 0.168142 0.398736 0.904511
O O17 0.500000 0.053644 0.311163
#
# Coordination Sequence:
#
# PCOD9351570 Si02
#       7
#     8   8   8   8   8   8   8
#     4  10  21  38  58  79 108 146 185 224 270 326
#     4   8  15  31  54  76 101 135 173 213 262 316
#     4   9  20  38  56  75 106 147 183 218 266 325
#     4   9  19  36  56  78 109 148 182 220 275 332
#     4   9  18  33  52  76 105 136 172 216 267 322
#     4  11  21  34  56  83 108 140 182 230 277 326
#     4  10  20  34  54  83 115 142 177 227 279 329
#
# _framework density 19.785988
#
# number of rings (size 3 to 8) (size 9 to 14) (size 15 to 20)
#    0.000    2.571    0.000    2.571    0.000    8.000 
#    0.000    1.429    0.000    4.286    0.000    2.000 
#    0.000    0.000    0.000    0.000    0.000    0.000 
#
# Total GULP energy -156260.043690 kJ/mol
# GULP energy per Si atom -5580.715846 kJ/mol
# Density = 1.974095 g / cm^3
# Si number density = 19.785988 Si / 1000 Ang^3
#
#
#
# Elastic Constant Matrix: (Units=GPa)
#
#
# Indices 1 2 3 4 5 6 
#
# 1 73.4846 34.2768 35.0809 0.0000 0.0000 0.0000
# 2 34.2768 89.3932 72.1528 0.0000 0.0000 0.0000
# 3 35.0809 72.1528 118.0236 0.0000 0.0000 0.0000
# 4 0.0000 0.0000 0.0000 21.7953 0.0000 0.0000
# 5 0.0000 0.0000 0.0000 0.0000 33.2294 0.0000
# 6 0.0000 0.0000 0.0000 0.0000 0.0000 29.2585
#
#
#
# Elastic Compliance Matrix: (Units=1/GPa)
#
#
# Indices 1 2 3 4 5 6 
#
# 1 0.016829 -0.004768 -0.002087 0.000000 0.000000 0.000000
# 2 -0.004768 0.023434 -0.012909 0.000000 0.000000 0.000000
# 3 -0.002087 -0.012909 0.016985 0.000000 0.000000 0.000000
# 4 0.000000 0.000000 0.000000 0.045881 0.000000 0.000000
# 5 0.000000 0.000000 0.000000 0.000000 0.030094 0.000000
# 6 0.000000 0.000000 0.000000 0.000000 0.000000 0.034178
#
#
# Mechanical properties :
#
#
# Convention : Reuss Voigt Hill
#
# Bulk Modulus (GPa) = 56.43541 62.65805 59.54673
# Shear Modulus (GPa) = 23.49215 26.14935 24.82075
#
# Velocity S-wave (km/s) = 3.44948 3.63934 3.54568
# Velocity P-wave (km/s) = 6.66709 7.02825 6.85005
#
# Compressibility (1/GPa) = 0.01771937
#
# Stress axis : x y z
#
# Youngs Moduli (GPa) = 59.42191 42.67247 58.87500
#
# Poissons Ratio (x) = 0.20347 0.12288
# Poissons Ratio (y) = 0.28334 0.76002
# Poissons Ratio (z) = 0.12402 0.55086
#
# Static dielectric constant tensor:
#      x y z
#    x 1.756300 0.000000 0.000000 
#    y 0.000000 1.681090 0.000000 
#    z 0.000000 0.000000 1.684240 
# 
# From -- ./inp_files/4170.got.cif
#   From: 2010.05.17/outbox.cif.g08.bks.cpg/sg36_3_cif.got.tgz:4170.got - 2010.06.03 17:41:39.
