data_PCOD9351292
_publ_section_title
;
Structure prediction by ZEFSAII (Michael W. Deem and Ramdas Pophale) SiO2 
 PCOD9351292
Probable space group: C M C 21
;
_chemical_formula_sum "Si O2"
_cell_formula_units_Z 64
_cell_length_a 8.854335
_cell_length_b 23.505697
_cell_length_c 16.613573
_cell_angle_alpha 90.000000
_cell_angle_beta 90.000000
_cell_angle_gamma 90.000000
_cell_volume 3457.738352
_symmetry_space_group_name_H-M "C M C 21"
_symmetry_group_IT_number 36
_symmetry_cell_setting 'orthorhombic'
loop_
_space_group_symop_operation_xyz
x,y,z
-x,-y,1/2+z
x,-y,1/2+z
-x,y,z
1/2+x,1/2+y,z
1/2-x,1/2-y,1/2+z
1/2+x,1/2-y,1/2+z
1/2-x,1/2+y,z
loop_
_atom_site_type_symbol
_atom_site_label
_atom_site_fract_x
_atom_site_fract_y
_atom_site_fract_z
Si Si1 0.320851 0.971522 0.189760
Si Si2 0.816485 0.600405 0.235340
Si Si3 0.666859 0.550024 0.975642
Si Si4 0.829084 0.115495 0.808419
Si Si5 0.677227 0.145619 0.063653
Si Si6 0.682198 0.283040 0.418353
Si Si7 0.682669 0.658597 0.394866
Si Si8 0.823466 0.929401 0.024800
O O1 0.500000 0.975329 0.185387
O O2 0.271926 0.921114 0.249404
O O3 0.257357 0.951379 0.104249
O O4 0.267376 0.034707 0.217778
O O5 0.777060 0.639334 0.157118
O O6 0.745684 0.626666 0.315870
O O7 0.000000 0.600552 0.241989
O O8 0.500000 0.558411 0.014189
O O9 0.662532 0.578863 0.889688
O O10 0.790030 0.582720 0.027828
O O11 0.690041 0.483521 0.965997
O O12 0.774510 0.175868 0.843204
O O13 0.000000 0.121633 0.775494
O O14 0.500000 0.158683 0.059987
O O15 0.762580 0.188070 0.002316
O O16 0.753964 0.221978 0.403204
O O17 0.000000 0.219126 0.919989
O O18 0.500000 0.658347 0.392069
O O19 0.732108 0.624575 0.475421
O O20 0.000000 0.920481 0.043961
#
# Coordination Sequence:
#
# PCOD9351292 Si02
#       8
#     8   8   8   8   8   8   8   8
#     4  11  22  36  57  90 123 153 193 237 291 353
#     4  10  22  39  59  89 125 157 192 241 299 352
#     4   9  17  32  56  84 114 149 189 231 286 345
#     4   9  19  36  58  84 113 150 190 235 290 346
#     4  10  19  35  60  88 119 153 193 240 289 345
#     4  10  22  42  63  84 115 154 200 246 297 351
#     4  11  24  41  62  88 116 156 205 248 297 354
#     4  10  21  37  57  83 119 156 190 236 293 352
#
# _framework density 18.509208000000001
#
# number of rings (size 3 to 8) (size 9 to 14) (size 15 to 20)
#    0.000    2.000    1.250    3.000    0.000    6.500 
#    2.250    0.000    0.000    0.000    0.000    0.000 
#    0.000    0.000    0.000    0.000    0.000    0.000 
#
# Total GULP energy -178386.506266 kJ/mol
# GULP energy per Si atom -5574.578321 kJ/mol
# Density = 1.846708 g / cm^3
# Si number density = 18.509208 Si / 1000 Ang^3
#
#
#
# Elastic Constant Matrix: (Units=GPa)
#
#
# Indices 1 2 3 4 5 6 
#
# 1 42.9348 41.8408 33.5317 0.0000 0.0000 0.0000
# 2 41.8408 148.3198 69.7886 0.0000 0.0000 0.0000
# 3 33.5317 69.7886 83.1687 0.0000 0.0000 0.0000
# 4 0.0000 0.0000 0.0000 20.7585 0.0000 0.0000
# 5 0.0000 0.0000 0.0000 0.0000 28.7537 0.0000
# 6 0.0000 0.0000 0.0000 0.0000 0.0000 29.2552
#
#
#
# Elastic Compliance Matrix: (Units=1/GPa)
#
#
# Indices 1 2 3 4 5 6 
#
# 1 0.036599 -0.005588 -0.010067 0.000000 0.000000 0.000000
# 2 -0.005588 0.011994 -0.007812 0.000000 0.000000 0.000000
# 3 -0.010067 -0.007812 0.022638 0.000000 0.000000 0.000000
# 4 0.000000 0.000000 0.000000 0.048173 0.000000 0.000000
# 5 0.000000 0.000000 0.000000 0.000000 0.034778 0.000000
# 6 0.000000 0.000000 0.000000 0.000000 0.000000 0.034182
#
#
# Mechanical properties :
#
#
# Convention : Reuss Voigt Hill
#
# Bulk Modulus (GPa) = 41.15645 62.74950 51.95298
# Shear Modulus (GPa) = 20.54272 24.37096 22.45684
#
# Velocity S-wave (km/s) = 3.33508 3.63256 3.48699
# Velocity P-wave (km/s) = 6.09215 7.18118 6.65897
#
# Compressibility (1/GPa) = 0.02429753
#
# Stress axis : x y z
#
# Youngs Moduli (GPa) = 27.32342 83.37474 44.17442
#
# Poissons Ratio (x) = 0.46586 0.44471
# Poissons Ratio (y) = 0.15267 0.34508
# Poissons Ratio (z) = 0.27507 0.65130
#
# Static dielectric constant tensor:
#      x y z
#    x 1.655130 0.000000 0.000000 
#    y 0.000000 1.652090 0.000000 
#    z 0.000000 0.000000 1.653620 
# 
# From -- ./inp_files/11007.got.cif
#   From: 2010.05.17/outbox.cif.g08.bks.cpg/sg36_6_cif.got.tgz:11007.got - 2010.06.03 17:41:39.
