data_PCOD9351947
_publ_section_title
;
Structure prediction by ZEFSAII (Michael W. Deem and Ramdas Pophale) SiO2 
 PCOD9351947
Probable space group: C M C 21
;
_chemical_formula_sum "Si O2"
_cell_formula_units_Z 64
_cell_length_a 8.862451
_cell_length_b 23.385694
_cell_length_c 16.580367
_cell_angle_alpha 90.000000
_cell_angle_beta 90.000000
_cell_angle_gamma 90.000000
_cell_volume 3436.356786
_symmetry_space_group_name_H-M "C M C 21"
_symmetry_group_IT_number 36
_symmetry_cell_setting 'orthorhombic'
loop_
_space_group_symop_operation_xyz
x,y,z
-x,-y,1/2+z
x,-y,1/2+z
-x,y,z
1/2+x,1/2+y,z
1/2-x,1/2-y,1/2+z
1/2+x,1/2-y,1/2+z
1/2-x,1/2+y,z
loop_
_atom_site_type_symbol
_atom_site_label
_atom_site_fract_x
_atom_site_fract_y
_atom_site_fract_z
Si Si1 0.682807 0.906577 0.840900
Si Si2 0.317588 0.860898 0.009870
Si Si3 0.183005 0.716366 0.658333
Si Si4 0.819836 0.341112 0.677111
Si Si5 0.823170 0.069948 0.066725
Si Si6 0.820763 0.028439 0.889594
Si Si7 0.329084 0.966500 0.120359
Si Si8 0.671869 0.115193 0.774338
O O1 0.500000 0.910235 0.841341
O O2 0.731337 0.866847 0.917222
O O3 0.728360 0.876908 0.756934
O O4 0.743648 0.970717 0.856000
O O5 0.500000 0.856756 0.009370
O O6 0.265843 0.812024 0.072732
O O7 0.281804 0.921604 0.051680
O O8 0.248531 0.778480 0.673638
O O9 0.224726 0.673423 0.731461
O O10 0.000000 0.717869 0.656638
O O11 0.766315 0.375839 0.598708
O O12 0.000000 0.336946 0.679111
O O13 0.000000 0.082699 0.063806
O O14 0.784628 0.018359 0.127264
O O15 0.774050 0.044113 0.980859
O O16 0.775895 0.084433 0.838809
O O17 0.000000 0.019480 0.888377
O O18 0.500000 0.987737 0.103621
O O19 0.335829 0.929679 0.200851
O O20 0.500000 0.122909 0.805072
#
# Coordination Sequence:
#
# PCOD9351947 Si02
#       8
#     8   8   8   8   8   8   8   8
#     4  10  20  37  61  86 113 147 188 234 286 345
#     4   8  15  32  60  85 106 142 185 226 274 334
#     4   9  19  39  62  82 110 148 191 232 279 337
#     4  11  24  39  57  84 115 152 195 235 282 339
#     4  11  23  37  53  78 115 153 186 228 283 335
#     4  11  23  36  54  86 119 147 185 233 286 338
#     4   9  16  31  57  84 108 139 181 223 274 338
#     4   9  19  35  58  85 110 144 185 225 278 342
#
# _framework density 18.624376000000002
#
# number of rings (size 3 to 8) (size 9 to 14) (size 15 to 20)
#    0.000    2.250    1.250    3.375    0.000    6.500 
#    2.250    2.500    0.000    0.000    0.000    0.000 
#    0.000    0.000    0.000    0.000    0.000    0.000 
#
# Total GULP energy -178414.830541 kJ/mol
# GULP energy per Si atom -5575.463454 kJ/mol
# Density = 1.858199 g / cm^3
# Si number density = 18.624376 Si / 1000 Ang^3
#
#
#
# Elastic Constant Matrix: (Units=GPa)
#
#
# Indices 1 2 3 4 5 6 
#
# 1 19.1420 32.9626 27.2354 0.0000 0.0000 0.0000
# 2 32.9626 129.1523 62.8552 0.0000 0.0000 0.0000
# 3 27.2354 62.8552 76.4288 0.0000 0.0000 0.0000
# 4 0.0000 0.0000 0.0000 22.5300 0.0000 0.0000
# 5 0.0000 0.0000 0.0000 0.0000 17.1157 0.0000
# 6 0.0000 0.0000 0.0000 0.0000 0.0000 32.6388
#
#
#
# Elastic Compliance Matrix: (Units=1/GPa)
#
#
# Indices 1 2 3 4 5 6 
#
# 1 0.125064 -0.017057 -0.030539 0.000000 0.000000 0.000000
# 2 -0.017057 0.015236 -0.006452 0.000000 0.000000 0.000000
# 3 -0.030539 -0.006452 0.029273 0.000000 0.000000 0.000000
# 4 0.000000 0.000000 0.000000 0.044385 0.000000 0.000000
# 5 0.000000 0.000000 0.000000 0.000000 0.058426 0.000000
# 6 0.000000 0.000000 0.000000 0.000000 0.000000 0.030638
#
#
# Mechanical properties :
#
#
# Convention : Reuss Voigt Hill
#
# Bulk Modulus (GPa) = 16.26619 52.31441 34.29030
# Shear Modulus (GPa) = 11.58454 21.23490 16.40972
#
# Velocity S-wave (km/s) = 2.49672 3.38030 2.97153
# Velocity P-wave (km/s) = 4.13089 6.58676 5.49771
#
# Compressibility (1/GPa) = 0.06147723
#
# Stress axis : x y z
#
# Youngs Moduli (GPa) = 7.99593 65.63358 34.16130
#
# Poissons Ratio (x) = 1.11948 1.04325
# Poissons Ratio (y) = 0.13638 0.22041
# Poissons Ratio (z) = 0.24419 0.42348
#
# Static dielectric constant tensor:
#      x y z
#    x 1.635220 0.000000 0.000000 
#    y 0.000000 1.629960 0.000000 
#    z 0.000000 0.000000 1.700770 
# 
# From -- ./inp_files/11069.got.cif
#   From: 2010.05.17/outbox.cif.g08.bks.cpg/sg36_6_cif.got.tgz:11069.got - 2010.06.03 17:41:39.
