data_PCOD9351408
_publ_section_title
;
Structure prediction by ZEFSAII (Michael W. Deem and Ramdas Pophale) SiO2 
 PCOD9351408
Probable space group: C M C 21
;
_chemical_formula_sum "Si O2"
_cell_formula_units_Z 64
_cell_length_a 7.747264
_cell_length_b 25.105744
_cell_length_c 15.527567
_cell_angle_alpha 90.000000
_cell_angle_beta 90.000000
_cell_angle_gamma 90.000000
_cell_volume 3020.124618
_symmetry_space_group_name_H-M "C M C 21"
_symmetry_group_IT_number 36
_symmetry_cell_setting 'orthorhombic'
loop_
_space_group_symop_operation_xyz
x,y,z
-x,-y,1/2+z
x,-y,1/2+z
-x,y,z
1/2+x,1/2+y,z
1/2-x,1/2-y,1/2+z
1/2+x,1/2-y,1/2+z
1/2-x,1/2+y,z
loop_
_atom_site_type_symbol
_atom_site_label
_atom_site_fract_x
_atom_site_fract_y
_atom_site_fract_z
Si Si1 0.705679 0.763846 0.462160
Si Si2 0.795054 0.069543 0.298212
Si Si3 0.699958 0.995934 0.457232
Si Si4 0.298813 0.120615 0.929651
Si Si5 0.291247 0.229971 0.652303
Si Si6 0.301125 0.507684 0.649004
Si Si7 0.788337 0.191214 0.303131
Si Si8 0.700973 0.117899 0.724272
O O1 0.500000 0.769176 0.446176
O O2 0.779063 0.823909 0.461749
O O3 0.735290 0.739712 0.555381
O O4 0.770076 0.725513 0.385930
O O5 0.772762 0.036827 0.386987
O O6 0.727950 0.129984 0.304158
O O7 0.000000 0.073447 0.283949
O O8 0.726191 0.035474 0.216702
O O9 0.500000 0.990775 0.431736
O O10 0.713022 0.012911 0.556296
O O11 0.779303 0.936497 0.453179
O O12 0.500000 0.119247 0.959467
O O13 0.295831 0.123819 0.826662
O O14 0.500000 0.229045 0.656243
O O15 0.235355 0.276493 0.717737
O O16 0.229679 0.172308 0.684046
O O17 0.500000 0.493775 0.631396
O O18 0.293813 0.564547 0.695597
O O19 0.000000 0.190136 0.305049
O O20 0.500000 0.111729 0.698472
#
# Coordination Sequence:
#
# PCOD9351408 Si02
#       8
#     8   8   8   8   8   8   8   8
#     4  10  20  37  60  85 113 150 191 232 283 342
#     4  10  22  40  59  84 118 155 194 238 290 349
#     4  11  23  39  61  86 115 153 197 243 292 341
#     4   9  18  36  61  84 109 147 194 240 286 338
#     4  10  21  37  60  87 114 149 191 235 284 341
#     4  11  24  39  58  86 119 154 194 238 291 348
#     4   9  19  38  60  80 113 155 186 224 285 346
#     4  10  19  38  63  84 111 147 195 244 287 339
#
# _framework density 21.191179000000002
#
# number of rings (size 3 to 8) (size 9 to 14) (size 15 to 20)
#    0.000    2.000    2.500    0.750    3.500    1.000 
#    0.000    2.500    0.000    0.000    0.000    0.000 
#    0.000    0.000    0.000    0.000    0.000    0.000 
#
# Total GULP energy -178650.834048 kJ/mol
# GULP energy per Si atom -5582.838564 kJ/mol
# Density = 2.114295 g / cm^3
# Si number density = 21.191179 Si / 1000 Ang^3
#
#
#
# Elastic Constant Matrix: (Units=GPa)
#
#
# Indices 1 2 3 4 5 6 
#
# 1 31.2646 4.5206 -6.9298 0.0000 0.0000 0.0000
# 2 4.5206 100.7431 -5.3632 0.0000 0.0000 0.0000
# 3 -6.9298 -5.3632 52.4855 0.0000 0.0000 0.0000
# 4 0.0000 0.0000 0.0000 30.5078 0.0000 0.0000
# 5 0.0000 0.0000 0.0000 0.0000 7.9858 0.0000
# 6 0.0000 0.0000 0.0000 0.0000 0.0000 12.5803
#
#
#
# Elastic Compliance Matrix: (Units=1/GPa)
#
#
# Indices 1 2 3 4 5 6 
#
# 1 0.033108 -0.001260 0.004243 0.000000 0.000000 0.000000
# 2 -0.001260 0.010028 0.000858 0.000000 0.000000 0.000000
# 3 0.004243 0.000858 0.019701 0.000000 0.000000 0.000000
# 4 0.000000 0.000000 0.000000 0.032779 0.000000 0.000000
# 5 0.000000 0.000000 0.000000 0.000000 0.125222 0.000000
# 6 0.000000 0.000000 0.000000 0.000000 0.000000 0.079489
#
#
# Mechanical properties :
#
#
# Convention : Reuss Voigt Hill
#
# Bulk Modulus (GPa) = 14.18055 18.77206 16.47630
# Shear Modulus (GPa) = 15.81524 23.03249 19.42386
#
# Velocity S-wave (km/s) = 2.73484 3.30038 3.03083
# Velocity P-wave (km/s) = 4.08395 4.83746 4.47659
#
# Compressibility (1/GPa) = 0.07051912
#
# Stress axis : x y z
#
# Youngs Moduli (GPa) = 30.20459 99.71613 50.75953
#
# Poissons Ratio (x) = 0.12562 -0.21535
# Poissons Ratio (y) = 0.03805 -0.04357
# Poissons Ratio (z) = -0.12814 -0.08560
#
# Static dielectric constant tensor:
#      x y z
#    x 1.808390 0.000000 0.000000 
#    y 0.000000 1.836790 0.000000 
#    z 0.000000 0.000000 1.702420 
# 
# From -- ./inp_files/10953.got.cif
#   From: 2010.05.17/outbox.cif.g08.bks.cpg/sg36_6_cif.got.tgz:10953.got - 2010.06.03 17:41:39.
