data_PCOD9351534
_publ_section_title
;
Structure prediction by ZEFSAII (Michael W. Deem and Ramdas Pophale) SiO2 
 PCOD9351534
Probable space group: C M C 21
;
_chemical_formula_sum "Si O2"
_cell_formula_units_Z 64
_cell_length_a 7.357057
_cell_length_b 16.426261
_cell_length_c 19.575764
_cell_angle_alpha 90.000000
_cell_angle_beta 90.000000
_cell_angle_gamma 90.000000
_cell_volume 2365.710299
_symmetry_space_group_name_H-M "C M C 21"
_symmetry_group_IT_number 36
_symmetry_cell_setting 'orthorhombic'
loop_
_space_group_symop_operation_xyz
x,y,z
-x,-y,1/2+z
x,-y,1/2+z
-x,y,z
1/2+x,1/2+y,z
1/2-x,1/2-y,1/2+z
1/2+x,1/2-y,1/2+z
1/2-x,1/2+y,z
loop_
_atom_site_type_symbol
_atom_site_label
_atom_site_fract_x
_atom_site_fract_y
_atom_site_fract_z
Si Si1 0.709592 0.247273 0.388100
Si Si2 0.223161 0.844289 0.263078
Si Si3 0.793404 0.991567 0.097001
Si Si4 0.706342 0.266570 0.131795
Si Si5 0.780708 0.346247 0.514140
Si Si6 0.211131 0.087783 0.470872
Si Si7 0.279062 0.394612 0.713549
Si Si8 0.278743 0.507783 0.339455
O O1 0.500000 0.227488 0.378660
O O2 0.785825 0.272817 0.314644
O O3 0.723755 0.326127 0.437498
O O4 0.787974 0.174031 0.432751
O O5 0.283733 0.832441 0.184881
O O6 0.278621 0.926992 0.300295
O O7 0.000000 0.843019 0.261541
O O8 0.715075 0.030103 0.165809
O O9 0.000000 0.970222 0.116311
O O10 0.790571 0.070752 0.046757
O O11 0.712527 0.922150 0.047386
O O12 0.500000 0.290146 0.114105
O O13 0.702083 0.186945 0.181254
O O14 0.786560 0.228082 0.063005
O O15 0.000000 0.348361 0.517751
O O16 0.000000 0.067209 0.480420
O O17 0.290346 0.025326 0.415214
O O18 0.500000 0.389594 0.708564
O O19 0.230611 0.416498 0.790582
O O20 0.500000 0.505449 0.342626
#
# Coordination Sequence:
#
# PCOD9351534 Si02
#       8
#     8   8   8   8   8   8   8   8
#     4  11  22  35  53  76 104 138 174 214 259 306
#     4   9  18  33  53  76 101 132 172 213 254 303
#     4   9  18  33  53  76 102 134 170 208 253 305
#     4   9  18  33  54  77 102 133 167 206 251 301
#     4  10  20  34  54  79 106 137 172 211 255 304
#     4  10  20  34  52  74 101 133 171 213 256 304
#     4   9  17  30  51  76 100 128 163 204 250 302
#     4   9  17  30  50  74  98 127 165 209 254 301
#
# _framework density 27.053184000000002
#
# number of rings (size 3 to 8) (size 9 to 14) (size 15 to 20)
#    0.000    2.500    0.000    2.250    0.000    4.000 
#    0.000    4.375    0.000    3.000    0.000    0.000 
#    0.000    0.000    0.000    0.000    0.000    0.000 
#
# Total GULP energy -179013.386964 kJ/mol
# GULP energy per Si atom -5594.168343 kJ/mol
# Density = 2.699161 g / cm^3
# Si number density = 27.053184 Si / 1000 Ang^3
#
#
#
# Elastic Constant Matrix: (Units=GPa)
#
#
# Indices 1 2 3 4 5 6 
#
# 1 120.9472 -2.4545 -3.7214 0.0000 0.0000 0.0000
# 2 -2.4545 92.8293 3.2512 0.0000 0.0000 0.0000
# 3 -3.7214 3.2512 152.5362 0.0000 0.0000 0.0000
# 4 0.0000 0.0000 0.0000 60.4427 0.0000 0.0000
# 5 0.0000 0.0000 0.0000 0.0000 -3.8551 0.0000
# 6 0.0000 0.0000 0.0000 0.0000 0.0000 -37.7537
#
#
#
# Elastic Compliance Matrix: (Units=1/GPa)
#
#
# Indices 1 2 3 4 5 6 
#
# 1 0.008278 0.000212 0.000197 0.000000 0.000000 0.000000
# 2 0.000212 0.010786 -0.000225 0.000000 0.000000 0.000000
# 3 0.000197 -0.000225 0.006565 0.000000 0.000000 0.000000
# 4 0.000000 0.000000 0.000000 0.016545 0.000000 0.000000
# 5 0.000000 0.000000 0.000000 0.000000 -0.259394 0.000000
# 6 0.000000 0.000000 0.000000 0.000000 0.000000 -0.026487
#
#
# Mechanical properties :
#
#
# Convention : Reuss Voigt Hill
#
# Bulk Modulus (GPa) = 38.46270 40.05148 39.25709
# Shear Modulus (GPa) = -21.23958 28.38258 3.57150
#
# Velocity S-wave (km/s) = -2.80501 3.24256 1.15024
# Velocity P-wave (km/s) = 1.93843 5.37176 4.03815
#
# Compressibility (1/GPa) = 0.02599921
#
# Stress axis : x y z
#
# Youngs Moduli (GPa) = 120.79558 92.71327 152.31296
#
# Poissons Ratio (x) = -0.01965 -0.03007
# Poissons Ratio (y) = -0.02561 0.03423
# Poissons Ratio (z) = -0.02385 0.02084
#
# Static dielectric constant tensor:
#      x y z
#    x 2.067420 0.000000 0.000000 
#    y 0.000000 2.178880 0.000000 
#    z 0.000000 0.000000 2.064870 
# 
# From -- ./inp_files/15586.got.cif
#   From: 2010.05.17/outbox.cif.g08.bks.cpg/sg36_8_cif.got.tgz:15586.got - 2010.06.03 17:41:39.
