data_PCOD9351694
_publ_section_title
;
Structure prediction by ZEFSAII (Michael W. Deem and Ramdas Pophale) SiO2 
 PCOD9351694
Probable space group: C M C 21
;
_chemical_formula_sum "Si O2"
_cell_formula_units_Z 64
_cell_length_a 7.553747
_cell_length_b 15.263065
_cell_length_c 23.546189
_cell_angle_alpha 90.000000
_cell_angle_beta 90.000000
_cell_angle_gamma 90.000000
_cell_volume 2714.718573
_symmetry_space_group_name_H-M "C M C 21"
_symmetry_group_IT_number 36
_symmetry_cell_setting 'orthorhombic'
loop_
_space_group_symop_operation_xyz
x,y,z
-x,-y,1/2+z
x,-y,1/2+z
-x,y,z
1/2+x,1/2+y,z
1/2-x,1/2-y,1/2+z
1/2+x,1/2-y,1/2+z
1/2-x,1/2+y,z
loop_
_atom_site_type_symbol
_atom_site_label
_atom_site_fract_x
_atom_site_fract_y
_atom_site_fract_z
Si Si1 0.297962 0.300144 0.869740
Si Si2 0.708457 0.076732 0.720408
Si Si3 0.282061 0.740152 0.250367
Si Si4 0.214797 0.856670 0.990690
Si Si5 0.786255 0.307646 0.553046
Si Si6 0.291797 0.945092 0.461130
Si Si7 0.216903 0.497759 0.839710
Si Si8 0.792944 0.905765 0.669037
O O1 0.500000 0.268776 0.877015
O O2 0.222386 0.249456 0.815594
O O3 0.221186 0.308617 0.932629
O O4 0.292341 0.400605 0.848126
O O5 0.500000 0.085841 0.728974
O O6 0.774742 0.175427 0.714208
O O7 0.776657 0.037095 0.779941
O O8 0.730933 0.005632 0.671321
O O9 0.500000 0.735114 0.251870
O O10 0.215217 0.652211 0.220406
O O11 0.000000 0.859241 0.988562
O O12 0.271895 0.957557 0.988021
O O13 0.270662 0.792458 0.041475
O O14 0.718549 0.371375 0.502828
O O15 0.736319 0.352141 0.611916
O O16 0.000000 0.307313 0.550987
O O17 0.500000 0.927312 0.456483
O O18 0.226011 0.949605 0.396274
O O19 0.000000 0.492042 0.840318
O O20 0.000000 0.911919 0.678784
#
# Coordination Sequence:
#
# PCOD9351694 Si02
#       8
#     8   8   8   8   8   8   8   8
#     4   9  16  31  55  80 112 146 177 218 270 327
#     4  10  20  35  57  83 110 143 183 225 272 327
#     4   9  19  34  55  81 108 142 182 221 270 326
#     4   9  19  34  56  84 112 143 181 225 272 321
#     4  10  22  39  58  80 108 147 189 226 268 322
#     4   9  19  35  55  81 113 145 179 221 272 326
#     4   9  17  30  53  83 113 141 174 221 272 322
#     4  11  23  40  57  78 110 147 187 229 274 323
#
# _framework density 23.575187
#
# number of rings (size 3 to 8) (size 9 to 14) (size 15 to 20)
#    0.000    2.500    1.250    0.375    1.750    2.000 
#    0.000    5.625    0.000    0.000    0.000    0.000 
#    0.000    0.000    0.000    0.000    0.000    0.000 
#
# Total GULP energy -178626.313129 kJ/mol
# GULP energy per Si atom -5582.072285 kJ/mol
# Density = 2.352153 g / cm^3
# Si number density = 23.575187 Si / 1000 Ang^3
#
#
#
# Elastic Constant Matrix: (Units=GPa)
#
#
# Indices 1 2 3 4 5 6 
#
# 1 55.6148 0.0392 -4.1164 0.0000 0.0000 0.0000
# 2 0.0392 66.5196 -6.2208 0.0000 0.0000 0.0000
# 3 -4.1164 -6.2208 18.7963 0.0000 0.0000 0.0000
# 4 0.0000 0.0000 0.0000 30.8391 0.0000 0.0000
# 5 0.0000 0.0000 0.0000 0.0000 11.7625 0.0000
# 6 0.0000 0.0000 0.0000 0.0000 0.0000 3.2738
#
#
#
# Elastic Compliance Matrix: (Units=1/GPa)
#
#
# Indices 1 2 3 4 5 6 
#
# 1 0.018286 0.000375 0.004129 0.000000 0.000000 0.000000
# 2 0.000375 0.015521 0.005219 0.000000 0.000000 0.000000
# 3 0.004129 0.005219 0.055833 0.000000 0.000000 0.000000
# 4 0.000000 0.000000 0.000000 0.032426 0.000000 0.000000
# 5 0.000000 0.000000 0.000000 0.000000 0.085016 0.000000
# 6 0.000000 0.000000 0.000000 0.000000 0.000000 0.305452
#
#
# Mechanical properties :
#
#
# Convention : Reuss Voigt Hill
#
# Bulk Modulus (GPa) = 9.16697 13.37052 11.26874
# Shear Modulus (GPa) = 9.44375 19.25701 14.35038
#
# Velocity S-wave (km/s) = 2.00362 2.86113 2.46988
# Velocity P-wave (km/s) = 3.04130 4.07413 3.59500
#
# Compressibility (1/GPa) = 0.10908726
#
# Stress axis : x y z
#
# Youngs Moduli (GPa) = 54.68615 64.42875 17.91042
#
# Poissons Ratio (x) = -0.02418 -0.07395
# Poissons Ratio (y) = -0.02053 -0.09347
# Poissons Ratio (z) = -0.22580 -0.33626
#
# Static dielectric constant tensor:
#      x y z
#    x 1.917310 0.000000 0.000000 
#    y 0.000000 1.922780 0.000000 
#    z 0.000000 0.000000 1.911930 
# 
# From -- ./inp_files/16560.got.cif
#   From: 2010.05.17/outbox.cif.g08.bks.cpg/sg36_9_cif.got.tgz:16560.got - 2010.06.03 17:41:39.
