data_PCOD9351568
_publ_section_title
;
Structure prediction by ZEFSAII (Michael W. Deem and Ramdas Pophale) SiO2 
 PCOD9351568
Probable space group: C M C 21
;
_chemical_formula_sum "Si O2"
_cell_formula_units_Z 64
_cell_length_a 8.783391
_cell_length_b 23.736966
_cell_length_c 16.608735
_cell_angle_alpha 90.000000
_cell_angle_beta 90.000000
_cell_angle_gamma 90.000000
_cell_volume 3462.772658
_symmetry_space_group_name_H-M "C M C 21"
_symmetry_group_IT_number 36
_symmetry_cell_setting 'orthorhombic'
loop_
_space_group_symop_operation_xyz
x,y,z
-x,-y,1/2+z
x,-y,1/2+z
-x,y,z
1/2+x,1/2+y,z
1/2-x,1/2-y,1/2+z
1/2+x,1/2-y,1/2+z
1/2-x,1/2+y,z
loop_
_atom_site_type_symbol
_atom_site_label
_atom_site_fract_x
_atom_site_fract_y
_atom_site_fract_z
Si Si1 0.315379 0.849703 0.724220
Si Si2 0.671868 0.133103 0.802714
Si Si3 0.821073 0.892917 0.562699
Si Si4 0.680661 0.321035 0.008925
Si Si5 0.817502 0.221462 0.684679
Si Si6 0.170523 0.701800 0.967089
Si Si7 0.817241 0.592606 0.391756
Si Si8 0.685223 0.036333 0.915499
O O1 0.500000 0.850029 0.722332
O O2 0.255164 0.887821 0.650339
O O3 0.264337 0.784296 0.710749
O O4 0.265004 0.876037 0.809820
O O5 0.500000 0.124489 0.771075
O O6 0.766554 0.170812 0.742132
O O7 0.662665 0.170142 0.883459
O O8 0.733291 0.074417 0.838606
O O9 0.785860 0.832023 0.522586
O O10 0.748999 0.936913 0.498447
O O11 0.000000 0.902886 0.569423
O O12 0.500000 0.332771 0.012787
O O13 0.731939 0.297801 0.095578
O O14 0.706983 0.266524 0.953062
O O15 0.763807 0.373209 0.969773
O O16 0.000000 0.224461 0.684423
O O17 0.000000 0.699335 0.005483
O O18 0.768131 0.527798 0.400492
O O19 0.000000 0.592472 0.389056
O O20 0.500000 0.040302 0.919480
#
# Coordination Sequence:
#
# PCOD9351568 Si02
#       8
#     8   8   8   8   8   8   8   8
#     4  10  20  38  60  83 116 151 188 232 287 346
#     4   9  18  32  55  80 105 140 184 234 275 324
#     4  11  21  33  57  89 113 143 189 237 280 330
#     4  10  20  35  55  79 117 157 181 220 289 346
#     4  10  20  34  54  82 117 152 180 220 286 348
#     4   9  17  34  56  78 111 151 182 218 281 341
#     4  10  22  39  61  85 109 149 200 243 279 330
#     4   9  20  41  60  78 110 151 194 234 285 339
#
# _framework density 18.482298
#
# number of rings (size 3 to 8) (size 9 to 14) (size 15 to 20)
#    0.000    2.250    1.250    2.625    0.000    4.500 
#    2.250    0.000    0.000    0.000    0.000    0.000 
#    0.000    0.000    0.000    0.000    0.000    0.000 
#
# Total GULP energy -178335.799920 kJ/mol
# GULP energy per Si atom -5572.993748 kJ/mol
# Density = 1.844023 g / cm^3
# Si number density = 18.482298 Si / 1000 Ang^3
#
#
#
# Elastic Constant Matrix: (Units=GPa)
#
#
# Indices 1 2 3 4 5 6 
#
# 1 16.4491 24.4622 19.9065 0.0000 0.0000 0.0000
# 2 24.4622 160.6375 67.7790 0.0000 0.0000 0.0000
# 3 19.9065 67.7790 82.6637 0.0000 0.0000 0.0000
# 4 0.0000 0.0000 0.0000 24.4924 0.0000 0.0000
# 5 0.0000 0.0000 0.0000 0.0000 25.7186 0.0000
# 6 0.0000 0.0000 0.0000 0.0000 0.0000 19.6429
#
#
#
# Elastic Compliance Matrix: (Units=1/GPa)
#
#
# Indices 1 2 3 4 5 6 
#
# 1 0.090705 -0.007028 -0.016081 0.000000 0.000000 0.000000
# 2 -0.007028 0.010063 -0.006558 0.000000 0.000000 0.000000
# 3 -0.016081 -0.006558 0.021347 0.000000 0.000000 0.000000
# 4 0.000000 0.000000 0.000000 0.040829 0.000000 0.000000
# 5 0.000000 0.000000 0.000000 0.000000 0.038882 0.000000
# 6 0.000000 0.000000 0.000000 0.000000 0.000000 0.050909
#
#
# Mechanical properties :
#
#
# Convention : Reuss Voigt Hill
#
# Bulk Modulus (GPa) = 15.92829 53.78286 34.85557
# Shear Modulus (GPa) = 15.01519 23.81095 19.41307
#
# Velocity S-wave (km/s) = 2.85337 3.59320 3.24444
# Velocity P-wave (km/s) = 4.41503 6.81011 5.73891
#
# Compressibility (1/GPa) = 0.06278138
#
# Stress axis : x y z
#
# Youngs Moduli (GPa) = 11.02472 99.37797 46.84475
#
# Poissons Ratio (x) = 0.69839 0.75330
# Poissons Ratio (y) = 0.07748 0.30722
# Poissons Ratio (z) = 0.17729 0.65175
#
# Static dielectric constant tensor:
#      x y z
#    x 1.665980 0.000000 0.000000 
#    y 0.000000 1.662360 0.000000 
#    z 0.000000 0.000000 1.657430 
# 
# From -- ./inp_files/13998.got.cif
#   From: 2010.05.17/outbox.cif.g08.bks.cpg/sg36_7_cif.got.tgz:13998.got - 2010.06.03 17:41:39.
