data_PCOD9351613
_publ_section_title
;
Structure prediction by ZEFSAII (Michael W. Deem and Ramdas Pophale) SiO2 
 PCOD9351613
Probable space group: C M C 21
;
_chemical_formula_sum "Si O2"
_cell_formula_units_Z 64
_cell_length_a 9.133812
_cell_length_b 23.300534
_cell_length_c 16.309343
_cell_angle_alpha 90.000000
_cell_angle_beta 90.000000
_cell_angle_gamma 90.000000
_cell_volume 3470.998364
_symmetry_space_group_name_H-M "C M C 21"
_symmetry_group_IT_number 36
_symmetry_cell_setting 'orthorhombic'
loop_
_space_group_symop_operation_xyz
x,y,z
-x,-y,1/2+z
x,-y,1/2+z
-x,y,z
1/2+x,1/2+y,z
1/2-x,1/2-y,1/2+z
1/2+x,1/2-y,1/2+z
1/2-x,1/2+y,z
loop_
_atom_site_type_symbol
_atom_site_label
_atom_site_fract_x
_atom_site_fract_y
_atom_site_fract_z
Si Si1 0.323869 0.849060 0.724220
Si Si2 0.665743 0.126596 0.803407
Si Si3 0.826825 0.889127 0.565156
Si Si4 0.669832 0.323864 0.003406
Si Si5 0.826518 0.216918 0.689654
Si Si6 0.163358 0.701842 0.966437
Si Si7 0.825818 0.589274 0.395652
Si Si8 0.824263 0.033775 0.908057
O O1 0.500000 0.850236 0.716283
O O2 0.254657 0.887790 0.652022
O O3 0.278427 0.782058 0.711798
O O4 0.286013 0.875310 0.812996
O O5 0.500000 0.110061 0.779803
O O6 0.742379 0.166985 0.737380
O O7 0.657319 0.166303 0.883864
O O8 0.759364 0.072653 0.834680
O O9 0.780615 0.828845 0.523536
O O10 0.784257 0.936532 0.496141
O O11 0.000000 0.892760 0.577356
O O12 0.500000 0.342458 0.996394
O O13 0.692108 0.298364 0.094020
O O14 0.694396 0.267695 0.947780
O O15 0.775218 0.373378 0.973464
O O16 0.000000 0.213593 0.708887
O O17 0.000000 0.699434 0.006082
O O18 0.743451 0.528914 0.399963
O O19 0.000000 0.580494 0.395492
O O20 0.000000 0.032949 0.903777
#
# Coordination Sequence:
#
# PCOD9351613 Si02
#       8
#     8   8   8   8   8   8   8   8
#     4  10  21  39  61  87 121 155 190 238 298 355
#     4  10  20  34  58  88 115 147 191 241 288 337
#     4  10  20  34  59  90 114 146 193 241 287 341
#     4  10  20  36  58  82 117 159 191 228 290 354
#     4  10  20  36  58  86 121 157 189 229 291 357
#     4   9  17  33  56  82 115 152 185 227 288 347
#     4  11  24  40  60  87 117 155 200 248 297 342
#     4  10  22  42  62  82 114 155 199 242 291 353
#
# _framework density 18.438499
#
# number of rings (size 3 to 8) (size 9 to 14) (size 15 to 20)
#    0.000    2.000    1.250    2.250    0.000    4.500 
#    2.250    0.000    0.000    0.000    0.000    0.000 
#    0.000    0.000    0.000    0.000    0.000    0.000 
#
# Total GULP energy -178473.932633 kJ/mol
# GULP energy per Si atom -5577.310395 kJ/mol
# Density = 1.839653 g / cm^3
# Si number density = 18.438499 Si / 1000 Ang^3
#
#
#
# Elastic Constant Matrix: (Units=GPa)
#
#
# Indices 1 2 3 4 5 6 
#
# 1 60.4081 57.0892 36.6794 0.0000 0.0000 0.0000
# 2 57.0892 128.0421 41.3605 0.0000 0.0000 0.0000
# 3 36.6794 41.3605 60.1489 0.0000 0.0000 0.0000
# 4 0.0000 0.0000 0.0000 23.1665 0.0000 0.0000
# 5 0.0000 0.0000 0.0000 0.0000 29.5773 0.0000
# 6 0.0000 0.0000 0.0000 0.0000 0.0000 29.7516
#
#
#
# Elastic Compliance Matrix: (Units=1/GPa)
#
#
# Indices 1 2 3 4 5 6 
#
# 1 0.035913 -0.011490 -0.013999 0.000000 0.000000 0.000000
# 2 -0.011490 0.013716 -0.002425 0.000000 0.000000 0.000000
# 3 -0.013999 -0.002425 0.026830 0.000000 0.000000 0.000000
# 4 0.000000 0.000000 0.000000 0.043166 0.000000 0.000000
# 5 0.000000 0.000000 0.000000 0.000000 0.033810 0.000000
# 6 0.000000 0.000000 0.000000 0.000000 0.000000 0.033612
#
#
# Mechanical properties :
#
#
# Convention : Reuss Voigt Hill
#
# Bulk Modulus (GPa) = 48.47183 57.65082 53.06132
# Shear Modulus (GPa) = 20.01986 24.06375 22.04180
#
# Velocity S-wave (km/s) = 3.29867 3.61651 3.46124
# Velocity P-wave (km/s) = 6.39169 6.98379 6.69429
#
# Compressibility (1/GPa) = 0.02063054
#
# Stress axis : x y z
#
# Youngs Moduli (GPa) = 27.84485 72.90564 37.27219
#
# Poissons Ratio (x) = 0.83771 0.52178
# Poissons Ratio (y) = 0.31995 0.09038
# Poissons Ratio (z) = 0.38980 0.17679
#
# Static dielectric constant tensor:
#      x y z
#    x 1.645880 0.000000 0.000000 
#    y 0.000000 1.638680 0.000000 
#    z 0.000000 0.000000 1.663840 
# 
# From -- ./inp_files/13999.got.cif
#   From: 2010.05.17/outbox.cif.g08.bks.cpg/sg36_7_cif.got.tgz:13999.got - 2010.06.03 17:41:39.
