data_PCOD9351378
_publ_section_title
;
Structure prediction by ZEFSAII (Michael W. Deem and Ramdas Pophale) SiO2 
 PCOD9351378
Probable space group: C M C 21
;
_chemical_formula_sum "Si O2"
_cell_formula_units_Z 64
_cell_length_a 8.221779
_cell_length_b 21.792706
_cell_length_c 14.422671
_cell_angle_alpha 90.000000
_cell_angle_beta 90.000000
_cell_angle_gamma 90.000000
_cell_volume 2584.179373
_symmetry_space_group_name_H-M "C M C 21"
_symmetry_group_IT_number 36
_symmetry_cell_setting 'orthorhombic'
loop_
_space_group_symop_operation_xyz
x,y,z
-x,-y,1/2+z
x,-y,1/2+z
-x,y,z
1/2+x,1/2+y,z
1/2-x,1/2-y,1/2+z
1/2+x,1/2-y,1/2+z
1/2-x,1/2+y,z
loop_
_atom_site_type_symbol
_atom_site_label
_atom_site_fract_x
_atom_site_fract_y
_atom_site_fract_z
Si Si1 0.191799 0.483881 0.391910
Si Si2 0.690557 0.104956 0.623797
Si Si3 0.811465 0.900164 0.777811
Si Si4 0.689202 0.276577 0.223381
Si Si5 0.304092 0.031052 0.104022
Si Si6 0.810632 0.710385 0.051148
Si Si7 0.808070 0.145272 0.882086
Si Si8 0.313815 0.824412 0.941994
O O1 0.281065 0.537028 0.336136
O O2 0.251991 0.473753 0.497576
O O3 0.217211 0.415905 0.350946
O O4 0.000000 0.499139 0.391827
O O5 0.500000 0.113435 0.648973
O O6 0.794218 0.157787 0.671425
O O7 0.697753 0.117817 0.512833
O O8 0.741153 0.035844 0.644579
O O9 0.751894 0.916468 0.674450
O O10 0.724338 0.847638 0.838944
O O11 0.000000 0.885497 0.776150
O O12 0.500000 0.260389 0.232434
O O13 0.753345 0.295665 0.323561
O O14 0.762376 0.227840 0.151576
O O15 0.500000 0.034047 0.100577
O O16 0.723477 0.660173 0.989158
O O17 0.795068 0.773070 0.991127
O O18 0.000000 0.693569 0.059779
O O19 0.000000 0.138236 0.866121
O O20 0.500000 0.801457 0.945956
#
# Coordination Sequence:
#
# PCOD9351378 Si02
#       8
#     8   8   8   8   8   8   8   8
#     4  11  23  42  64  89 123 165 206 252 306 363
#     4   9  17  32  57  85 112 147 195 243 288 342
#     4  12  24  37  58  91 126 161 200 248 305 367
#     4   9  20  37  59  87 118 153 198 244 299 358
#     4  10  21  38  58  84 119 162 205 244 297 365
#     4  10  21  40  63  89 117 155 202 254 304 357
#     4  11  23  41  62  90 123 161 202 252 310 366
#     4  10  19  37  61  85 114 152 196 247 299 352
#
# _framework density 24.766082999999998
#
# number of rings (size 3 to 8) (size 9 to 14) (size 15 to 20)
#    0.000    1.750    1.250    3.375    0.000    5.500 
#    2.250    0.000    0.000    0.000    0.000    0.000 
#    0.000    0.000    0.000    0.000    0.000    0.000 
#
# Total GULP energy -179014.172283 kJ/mol
# GULP energy per Si atom -5594.192884 kJ/mol
# Density = 2.470971 g / cm^3
# Si number density = 24.766083 Si / 1000 Ang^3
#
#
#
# Elastic Constant Matrix: (Units=GPa)
#
#
# Indices 1 2 3 4 5 6 
#
# 1 45.2232 -7.5193 3.8499 0.0000 0.0000 0.0000
# 2 -7.5193 80.3846 6.1052 0.0000 0.0000 0.0000
# 3 3.8499 6.1052 135.7634 0.0000 0.0000 0.0000
# 4 0.0000 0.0000 0.0000 49.0642 0.0000 0.0000
# 5 0.0000 0.0000 0.0000 0.0000 22.1963 0.0000
# 6 0.0000 0.0000 0.0000 0.0000 0.0000 20.8437
#
#
#
# Elastic Compliance Matrix: (Units=1/GPa)
#
#
# Indices 1 2 3 4 5 6 
#
# 1 0.022535 0.002164 -0.000736 0.000000 0.000000 0.000000
# 2 0.002164 0.012691 -0.000632 0.000000 0.000000 0.000000
# 3 -0.000736 -0.000632 0.007415 0.000000 0.000000 0.000000
# 4 0.000000 0.000000 0.000000 0.020381 0.000000 0.000000
# 5 0.000000 0.000000 0.000000 0.000000 0.045053 0.000000
# 6 0.000000 0.000000 0.000000 0.000000 0.000000 0.047976
#
#
# Mechanical properties :
#
#
# Convention : Reuss Voigt Hill
#
# Bulk Modulus (GPa) = 22.60826 29.58256 26.09541
# Shear Modulus (GPa) = 29.55019 35.68322 32.61670
#
# Velocity S-wave (km/s) = 3.45798 3.79992 3.63297
# Velocity P-wave (km/s) = 5.00919 5.58777 5.30638
#
# Compressibility (1/GPa) = 0.04423162
#
# Stress axis : x y z
#
# Youngs Moduli (GPa) = 44.37541 78.79846 134.86073
#
# Poissons Ratio (x) = -0.17051 0.09930
# Poissons Ratio (y) = -0.09602 0.08524
# Poissons Ratio (z) = 0.03268 0.04980
#
# Static dielectric constant tensor:
#      x y z
#    x 1.839930 0.000000 0.000000 
#    y 0.000000 1.978640 0.000000 
#    z 0.000000 0.000000 2.048210 
# 
# From -- ./inp_files/10925.got.cif
#   From: 2010.05.17/outbox.cif.g08.bks.cpg/sg36_6_cif.got.tgz:10925.got - 2010.06.03 17:41:39.
