data_PCOD9351377
_publ_section_title
;
Structure prediction by ZEFSAII (Michael W. Deem and Ramdas Pophale) SiO2 
 PCOD9351377
Probable space group: C M C 21
;
_chemical_formula_sum "Si O2"
_cell_formula_units_Z 64
_cell_length_a 7.637161
_cell_length_b 24.722404
_cell_length_c 15.686782
_cell_angle_alpha 90.000000
_cell_angle_beta 90.000000
_cell_angle_gamma 90.000000
_cell_volume 2961.805303
_symmetry_space_group_name_H-M "C M C 21"
_symmetry_group_IT_number 36
_symmetry_cell_setting 'orthorhombic'
loop_
_space_group_symop_operation_xyz
x,y,z
-x,-y,1/2+z
x,-y,1/2+z
-x,y,z
1/2+x,1/2+y,z
1/2-x,1/2-y,1/2+z
1/2+x,1/2-y,1/2+z
1/2-x,1/2+y,z
loop_
_atom_site_type_symbol
_atom_site_label
_atom_site_fract_x
_atom_site_fract_y
_atom_site_fract_z
Si Si1 0.715139 0.246932 0.285440
Si Si2 0.293760 0.167033 0.435277
Si Si3 0.711164 0.634242 0.838825
Si Si4 0.300248 0.255956 0.090959
Si Si5 0.207200 0.968364 0.615336
Si Si6 0.288423 0.361171 0.532670
Si Si7 0.792688 0.455084 0.957730
Si Si8 0.212402 0.979091 0.286256
O O1 0.500000 0.244410 0.286078
O O2 0.775475 0.201330 0.353429
O O3 0.772901 0.305902 0.317858
O O4 0.773206 0.246249 0.186504
O O5 0.500000 0.160588 0.418322
O O6 0.277495 0.202197 0.522211
O O7 0.221162 0.106312 0.447924
O O8 0.500000 0.636564 0.829511
O O9 0.775432 0.582956 0.786351
O O10 0.749321 0.621425 0.936593
O O11 0.500000 0.274173 0.102864
O O12 0.291271 0.196924 0.049532
O O13 0.277872 0.909364 0.591744
O O14 0.000000 0.960306 0.627548
O O15 0.225055 0.010728 0.538158
O O16 0.280438 0.991110 0.702847
O O17 0.500000 0.355370 0.540161
O O18 0.758602 0.488968 0.871920
O O19 0.000000 0.450868 0.970563
O O20 0.000000 0.977170 0.283287
#
# Coordination Sequence:
#
# PCOD9351377 Si02
#       8
#     8   8   8   8   8   8   8   8
#     4   9  19  36  58  82 110 151 192 227 283 351
#     4  10  22  42  60  78 117 165 195 226 290 363
#     4   9  16  33  61  82 104 147 195 233 277 341
#     4  11  23  36  59  91 114 144 195 250 290 332
#     4  10  22  39  62  88 117 157 200 243 292 350
#     4  10  19  37  61  82 112 153 192 233 292 354
#     4  11  24  39  59  86 121 161 196 242 301 353
#     4  10  21  38  62  89 115 152 201 246 291 348
#
# _framework density 21.608443000000001
#
# number of rings (size 3 to 8) (size 9 to 14) (size 15 to 20)
#    0.000    2.000    2.500    0.750    3.500    2.000 
#    0.000    1.250    0.000    0.000    0.000    0.000 
#    0.000    0.000    0.000    0.000    0.000    0.000 
#
# Total GULP energy -178604.672839 kJ/mol
# GULP energy per Si atom -5581.396026 kJ/mol
# Density = 2.155926 g / cm^3
# Si number density = 21.608443 Si / 1000 Ang^3
#
#
#
# Elastic Constant Matrix: (Units=GPa)
#
#
# Indices 1 2 3 4 5 6 
#
# 1 32.4014 -17.3851 -14.7856 0.0000 0.0000 0.0000
# 2 -17.3851 99.5275 -7.2719 0.0000 0.0000 0.0000
# 3 -14.7856 -7.2719 57.9464 0.0000 0.0000 0.0000
# 4 0.0000 0.0000 0.0000 34.0770 0.0000 0.0000
# 5 0.0000 0.0000 0.0000 0.0000 19.1447 0.0000
# 6 0.0000 0.0000 0.0000 0.0000 0.0000 16.0249
#
#
#
# Elastic Compliance Matrix: (Units=1/GPa)
#
#
# Indices 1 2 3 4 5 6 
#
# 1 0.040201 0.007844 0.011242 0.000000 0.000000 0.000000
# 2 0.007844 0.011671 0.003466 0.000000 0.000000 0.000000
# 3 0.011242 0.003466 0.020561 0.000000 0.000000 0.000000
# 4 0.000000 0.000000 0.000000 0.029345 0.000000 0.000000
# 5 0.000000 0.000000 0.000000 0.000000 0.052234 0.000000
# 6 0.000000 0.000000 0.000000 0.000000 0.000000 0.062403
#
#
# Mechanical properties :
#
#
# Convention : Reuss Voigt Hill
#
# Bulk Modulus (GPa) = 8.50797 12.33221 10.42009
# Shear Modulus (GPa) = 23.75407 29.13720 26.44563
#
# Velocity S-wave (km/s) = 3.31916 3.67606 3.50216
# Velocity P-wave (km/s) = 4.31682 4.87211 4.60285
#
# Compressibility (1/GPa) = 0.11753687
#
# Stress axis : x y z
#
# Youngs Moduli (GPa) = 24.87471 85.68372 48.63609
#
# Poissons Ratio (x) = -0.67207 -0.54678
# Poissons Ratio (y) = -0.19511 -0.16857
# Poissons Ratio (z) = -0.27965 -0.29698
#
# Static dielectric constant tensor:
#      x y z
#    x 1.799170 0.000000 0.000000 
#    y 0.000000 1.778550 0.000000 
#    z 0.000000 0.000000 1.783000 
# 
# From -- ./inp_files/10969.got.cif
#   From: 2010.05.17/outbox.cif.g08.bks.cpg/sg36_6_cif.got.tgz:10969.got - 2010.06.03 17:41:39.
