data_PCOD9351066
_publ_section_title
;
Structure prediction by ZEFSAII (Michael W. Deem and Ramdas Pophale) SiO2 
 PCOD9351066
Probable space group: C M C 21
;
_chemical_formula_sum "Si O2"
_cell_formula_units_Z 64
_cell_length_a 8.645266
_cell_length_b 18.818720
_cell_length_c 21.689146
_cell_angle_alpha 90.000000
_cell_angle_beta 90.000000
_cell_angle_gamma 90.000000
_cell_volume 3528.668764
_symmetry_space_group_name_H-M "C M C 21"
_symmetry_group_IT_number 36
_symmetry_cell_setting 'orthorhombic'
loop_
_space_group_symop_operation_xyz
x,y,z
-x,-y,1/2+z
x,-y,1/2+z
-x,y,z
1/2+x,1/2+y,z
1/2-x,1/2-y,1/2+z
1/2+x,1/2-y,1/2+z
1/2-x,1/2+y,z
loop_
_atom_site_type_symbol
_atom_site_label
_atom_site_fract_x
_atom_site_fract_y
_atom_site_fract_z
Si Si1 0.184989 0.666546 0.103010
Si Si2 0.687668 0.330971 0.106565
Si Si3 0.684705 0.583503 0.986169
Si Si4 0.814050 0.418901 0.221062
Si Si5 0.312610 0.417847 0.987315
Si Si6 0.684958 0.420702 0.717411
Si Si7 0.316515 0.915606 0.357054
Si Si8 0.686594 0.574765 0.353108
O O1 0.234020 0.748743 0.104902
O O2 0.243069 0.625483 0.163362
O O3 0.000000 0.664145 0.101324
O O4 0.248574 0.628242 0.042219
O O5 0.500000 0.334485 0.108661
O O6 0.753557 0.370350 0.166177
O O7 0.741911 0.371475 0.044660
O O8 0.500000 0.583704 0.988792
O O9 0.736172 0.500574 0.992191
O O10 0.737275 0.611776 0.919219
O O11 0.744715 0.498122 0.213940
O O12 0.770063 0.388813 0.289003
O O13 0.000000 0.424285 0.219465
O O14 0.500000 0.417754 0.990172
O O15 0.271454 0.390233 0.918600
O O16 0.500000 0.421350 0.710588
O O17 0.723018 0.392344 0.786539
O O18 0.500000 0.907787 0.363658
O O19 0.269774 0.998629 0.354131
O O20 0.500000 0.562834 0.354001
#
# Coordination Sequence:
#
# PCOD9351066 Si02
#       8
#     8   8   8   8   8   8   8   8
#     4  11  23  36  50  73 107 143 179 221 266 312
#     4  10  21  36  53  73 104 144 179 217 265 314
#     4  10  19  33  56  80 102 133 174 218 262 317
#     4  10  20  34  55  81 107 136 174 220 264 311
#     4   8  15  31  54  77  97 124 167 212 256 307
#     4  10  19  33  55  79 104 137 175 216 265 319
#     4   9  17  30  50  78 108 133 162 209 265 314
#     4   8  15  29  51  77 101 128 168 215 259 310
#
# _framework density 18.137150999999999
#
# number of rings (size 3 to 8) (size 9 to 14) (size 15 to 20)
#    0.000    2.500    0.000    3.375    0.000    4.000 
#    0.000    3.750    0.000    3.000    0.000    0.000 
#    0.000    0.000    0.000    0.000    0.000    0.000 
#
# Total GULP energy -178361.702170 kJ/mol
# GULP energy per Si atom -5573.803193 kJ/mol
# Density = 1.809587 g / cm^3
# Si number density = 18.137151 Si / 1000 Ang^3
#
#
#
# Elastic Constant Matrix: (Units=GPa)
#
#
# Indices 1 2 3 4 5 6 
#
# 1 33.3353 27.0301 46.7031 0.0000 0.0000 0.0000
# 2 27.0301 79.8533 91.9478 0.0000 0.0000 0.0000
# 3 46.7031 91.9478 224.2120 0.0000 0.0000 0.0000
# 4 0.0000 0.0000 0.0000 -6.7264 0.0000 0.0000
# 5 0.0000 0.0000 0.0000 0.0000 25.3131 0.0000
# 6 0.0000 0.0000 0.0000 0.0000 0.0000 16.8837
#
#
#
# Elastic Compliance Matrix: (Units=1/GPa)
#
#
# Indices 1 2 3 4 5 6 
#
# 1 0.045178 -0.008444 -0.005948 0.000000 0.000000 0.000000
# 2 -0.008444 0.025305 -0.008619 0.000000 0.000000 0.000000
# 3 -0.005948 -0.008619 0.009233 0.000000 0.000000 0.000000
# 4 0.000000 0.000000 0.000000 -0.148667 0.000000 0.000000
# 5 0.000000 0.000000 0.000000 0.000000 0.039505 0.000000
# 6 0.000000 0.000000 0.000000 0.000000 0.000000 0.059229
#
#
# Mechanical properties :
#
#
# Convention : Reuss Voigt Hill
#
# Bulk Modulus (GPa) = 29.67731 74.30696 51.99213
# Shear Modulus (GPa) = 57.44741 18.54203 37.99472
#
# Velocity S-wave (km/s) = 5.63406 3.20085 4.58193
# Velocity P-wave (km/s) = 7.66301 7.39723 7.53129
#
# Compressibility (1/GPa) = 0.03369578
#
# Stress axis : x y z
#
# Youngs Moduli (GPa) = 22.13474 39.51749 108.30277
#
# Poissons Ratio (x) = 0.33369 0.64414
# Poissons Ratio (y) = 0.18691 0.93342
# Poissons Ratio (z) = 0.13165 0.34059
#
# Static dielectric constant tensor:
#      x y z
#    x 1.616710 0.000000 0.000000 
#    y 0.000000 1.584290 0.000000 
#    z 0.000000 0.000000 1.658510 
# 
# From -- ./inp_files/15816.got.cif
#   From: 2010.05.17/outbox.cif.g08.bks.cpg/sg36_8_cif.got.tgz:15816.got - 2010.06.03 17:41:39.
