data_PCOD9351791
_publ_section_title
;
Structure prediction by ZEFSAII (Michael W. Deem and Ramdas Pophale) SiO2 
 PCOD9351791
Probable space group: C M C 21
;
_chemical_formula_sum "Si O2"
_cell_formula_units_Z 48
_cell_length_a 8.263712
_cell_length_b 20.400892
_cell_length_c 11.916361
_cell_angle_alpha 90.000000
_cell_angle_beta 90.000000
_cell_angle_gamma 90.000000
_cell_volume 2008.944696
_symmetry_space_group_name_H-M "C M C 21"
_symmetry_group_IT_number 36
_symmetry_cell_setting 'orthorhombic'
loop_
_space_group_symop_operation_xyz
x,y,z
-x,-y,1/2+z
x,-y,1/2+z
-x,y,z
1/2+x,1/2+y,z
1/2-x,1/2-y,1/2+z
1/2+x,1/2-y,1/2+z
1/2-x,1/2+y,z
loop_
_atom_site_type_symbol
_atom_site_label
_atom_site_fract_x
_atom_site_fract_y
_atom_site_fract_z
Si Si1 0.809096 0.686346 0.709210
Si Si2 0.316403 0.008290 0.434450
Si Si3 0.685308 0.641827 0.488002
Si Si4 0.316322 0.668608 0.175082
Si Si5 0.313576 0.795534 0.456607
Si Si6 0.694339 0.523944 0.190423
O O1 0.712327 0.643608 0.621777
O O2 0.742381 0.761011 0.704185
O O3 0.801463 0.669590 0.838109
O O4 0.000000 0.686976 0.675047
O O5 0.500000 0.984957 0.437181
O O6 0.300797 0.087428 0.438722
O O7 0.248028 0.989823 0.309091
O O8 0.243898 0.992373 0.560187
O O9 0.500000 0.624096 0.462530
O O10 0.714986 0.716853 0.449836
O O11 0.500000 0.670882 0.218737
O O12 0.245071 0.599183 0.205316
O O13 0.310092 0.672376 0.041035
O O14 0.500000 0.802216 0.496524
O O15 0.500000 0.522998 0.190579
#
# Coordination Sequence:
#
# PCOD9351791 Si02
#       6
#     8   8   8   8   8   8
#     4   9  17  32  53  82 118 154 192 242 298 356
#     4  12  26  44  66  94 125 162 209 265 320 372
#     4  10  20  36  57  84 117 157 201 245 298 367
#     4   9  19  35  57  83 114 151 195 243 297 360
#     4   9  18  32  54  83 118 156 196 243 299 361
#     4  11  24  45  69  92 122 166 213 260 314 378
#
# _framework density 23.893141
#
# number of rings (size 3 to 8) (size 9 to 14) (size 15 to 20)
#    0.000    2.000    0.000    3.500    0.000    6.667 
#    0.000    6.667    0.000    0.000    0.000    0.000 
#    0.000    0.000    0.000    0.000    0.000    0.000 
#
# Total GULP energy -133780.789825 kJ/mol
# GULP energy per Si atom -5574.199576 kJ/mol
# Density = 2.383876 g / cm^3
# Si number density = 23.893141 Si / 1000 Ang^3
#
#
#
# Elastic Constant Matrix: (Units=GPa)
#
#
# Indices 1 2 3 4 5 6 
#
# 1 55.7766 -0.9747 49.3370 0.0000 0.0000 0.0000
# 2 -0.9747 51.6883 -1.9742 0.0000 0.0000 0.0000
# 3 49.3370 -1.9742 159.4047 0.0000 0.0000 0.0000
# 4 0.0000 0.0000 0.0000 6.3517 0.0000 0.0000
# 5 0.0000 0.0000 0.0000 0.0000 34.5480 0.0000
# 6 0.0000 0.0000 0.0000 0.0000 0.0000 14.1041
#
#
#
# Elastic Compliance Matrix: (Units=1/GPa)
#
#
# Indices 1 2 3 4 5 6 
#
# 1 0.024689 0.000174 -0.007639 0.000000 0.000000 0.000000
# 2 0.000174 0.019357 0.000186 0.000000 0.000000 0.000000
# 3 -0.007639 0.000186 0.008640 0.000000 0.000000 0.000000
# 4 0.000000 0.000000 0.000000 0.157438 0.000000 0.000000
# 5 0.000000 0.000000 0.000000 0.000000 0.028945 0.000000
# 6 0.000000 0.000000 0.000000 0.000000 0.000000 0.070901
#
#
# Mechanical properties :
#
#
# Convention : Reuss Voigt Hill
#
# Bulk Modulus (GPa) = 26.22808 39.96065 33.09436
# Shear Modulus (GPa) = 14.82626 25.69952 20.26289
#
# Velocity S-wave (km/s) = 2.49373 3.28320 2.91531
# Velocity P-wave (km/s) = 4.39234 5.57974 5.02127
#
# Compressibility (1/GPa) = 0.03812708
#
# Stress axis : x y z
#
# Youngs Moduli (GPa) = 40.50383 51.66055 115.73990
#
# Poissons Ratio (x) = -0.00898 0.88417
# Poissons Ratio (y) = -0.00704 -0.02152
# Poissons Ratio (z) = 0.30942 -0.00961
#
# Static dielectric constant tensor:
#      x y z
#    x 1.901150 0.000000 0.000000 
#    y 0.000000 1.950350 0.000000 
#    z 0.000000 0.000000 2.006760 
# 
# From -- ./inp_files/6760.got.cif
#   From: 2010.05.17/outbox.cif.g08.bks.cpg/sg36_4_cif.got.tgz:6760.got - 2010.06.03 17:41:39.
