data_PCOD9351580
_publ_section_title
;
Structure prediction by ZEFSAII (Michael W. Deem and Ramdas Pophale) SiO2 
 PCOD9351580
Probable space group: C M C 21
;
_chemical_formula_sum "Si O2"
_cell_formula_units_Z 40
_cell_length_a 15.053158
_cell_length_b 23.565726
_cell_length_c 5.006536
_cell_angle_alpha 90.000000
_cell_angle_beta 90.000000
_cell_angle_gamma 90.000000
_cell_volume 1776.011556
_symmetry_space_group_name_H-M "C M C 21"
_symmetry_group_IT_number 36
_symmetry_cell_setting 'orthorhombic'
loop_
_space_group_symop_operation_xyz
x,y,z
-x,-y,1/2+z
x,-y,1/2+z
-x,y,z
1/2+x,1/2+y,z
1/2-x,1/2-y,1/2+z
1/2+x,1/2-y,1/2+z
1/2-x,1/2+y,z
loop_
_atom_site_type_symbol
_atom_site_label
_atom_site_fract_x
_atom_site_fract_y
_atom_site_fract_z
Si Si1 0.000000 0.174651 0.352060
Si Si2 0.852647 0.118581 0.017606
Si Si3 0.308865 0.041794 0.155519
Si Si4 0.000000 0.461226 0.746177
Si Si5 0.500000 0.748469 0.850299
Si Si6 0.500000 0.538609 0.773079
Si Si7 0.306495 0.262260 0.251068
O O1 0.084952 0.140086 0.257248
O O2 0.000000 0.192776 0.656649
O O3 0.000000 0.230327 0.160163
O O4 0.767715 0.087278 0.134794
O O5 0.913148 0.075459 0.845346
O O6 0.823381 0.173682 0.851681
O O7 0.407544 0.068477 0.177799
O O8 0.301457 0.999172 0.401970
O O9 0.000000 0.516816 0.550936
O O10 0.598923 0.770995 0.783244
O O11 0.500000 0.484955 0.974333
O O12 0.232116 0.238608 0.453755
#
# Coordination Sequence:
#
# PCOD9351580 Si02
#       7
#     4   8   8   4   4   4   8
#     4   9  20  34  58  84 114 162 195 233 319 386
#     4  10  22  38  60  88 126 159 201 266 318 376
#     4  10  20  34  55  81 112 152 196 247 310 376
#     4   8  16  32  50  70 100 142 185 222 279 352
#     4  10  20  41  62  84 120 158 202 261 310 364
#     4  11  24  39  62  98 130 166 212 254 322 410
#     4  11  24  41  64  92 121 168 221 260 322 395
#
# _framework density 22.522373999999999
#
# number of rings (size 3 to 8) (size 9 to 14) (size 15 to 20)
#    0.000    2.000    0.000    4.200    0.000   12.800 
#    0.000    2.000    0.000    2.400    0.000    0.000 
#    0.000    0.000    0.000    0.000    0.000    0.000 
#
# Total GULP energy -111826.378005 kJ/mol
# GULP energy per Si atom -5591.318900 kJ/mol
# Density = 2.247111 g / cm^3
# Si number density = 22.522374 Si / 1000 Ang^3
#
#
#
# Elastic Constant Matrix: (Units=GPa)
#
#
# Indices 1 2 3 4 5 6 
#
# 1 168.8883 19.9584 -4.7969 0.0000 0.0000 0.0000
# 2 19.9584 49.1991 2.5050 0.0000 0.0000 0.0000
# 3 -4.7969 2.5050 86.1077 0.0000 0.0000 0.0000
# 4 0.0000 0.0000 0.0000 25.0968 0.0000 0.0000
# 5 0.0000 0.0000 0.0000 0.0000 27.7068 0.0000
# 6 0.0000 0.0000 0.0000 0.0000 0.0000 24.5846
#
#
#
# Elastic Compliance Matrix: (Units=1/GPa)
#
#
# Indices 1 2 3 4 5 6 
#
# 1 0.006234 -0.002551 0.000422 0.000000 0.000000 0.000000
# 2 -0.002551 0.021399 -0.000765 0.000000 0.000000 0.000000
# 3 0.000422 -0.000765 0.011659 0.000000 0.000000 0.000000
# 4 0.000000 0.000000 0.000000 0.039846 0.000000 0.000000
# 5 0.000000 0.000000 0.000000 0.000000 0.036092 0.000000
# 6 0.000000 0.000000 0.000000 0.000000 0.000000 0.040676
#
#
# Mechanical properties :
#
#
# Convention : Reuss Voigt Hill
#
# Bulk Modulus (GPa) = 29.84594 37.72535 33.78564
# Shear Modulus (GPa) = 28.92474 34.57955 31.75214
#
# Velocity S-wave (km/s) = 3.58755 3.92260 3.75881
# Velocity P-wave (km/s) = 5.51735 6.10755 5.81994
#
# Compressibility (1/GPa) = 0.03350539
#
# Stress axis : x y z
#
# Youngs Moduli (GPa) = 160.39884 46.73070 85.77005
#
# Poissons Ratio (x) = 0.11919 -0.03615
# Poissons Ratio (y) = 0.40911 0.06558
# Poissons Ratio (z) = -0.06761 0.03573
#
# Static dielectric constant tensor:
#      x y z
#    x 1.913780 0.000000 0.000000 
#    y 0.000000 1.821160 0.000000 
#    z 0.000000 0.000000 1.793760 
# 
# From -- ./inp_files/761.got.cif
#   From: 2010.05.17/outbox.cif.g08.bks.cpg/sg36_1_cif.got.tgz:761.got - 2010.06.03 17:41:39.
