data_PCOD9351687
_publ_section_title
;
Structure prediction by ZEFSAII (Michael W. Deem and Ramdas Pophale) SiO2 
 PCOD9351687
Probable space group: C M C 21
;
_chemical_formula_sum "Si O2"
_cell_formula_units_Z 56
_cell_length_a 10.587526
_cell_length_b 24.188634
_cell_length_c 11.780672
_cell_angle_alpha 90.000000
_cell_angle_beta 90.000000
_cell_angle_gamma 90.000000
_cell_volume 3017.004080
_symmetry_space_group_name_H-M "C M C 21"
_symmetry_group_IT_number 36
_symmetry_cell_setting 'orthorhombic'
loop_
_space_group_symop_operation_xyz
x,y,z
-x,-y,1/2+z
x,-y,1/2+z
-x,y,z
1/2+x,1/2+y,z
1/2-x,1/2-y,1/2+z
1/2+x,1/2-y,1/2+z
1/2-x,1/2+y,z
loop_
_atom_site_type_symbol
_atom_site_label
_atom_site_fract_x
_atom_site_fract_y
_atom_site_fract_z
Si Si1 0.353211 0.382612 0.128320
Si Si2 0.639628 0.028909 0.229281
Si Si3 0.346373 0.292147 0.949801
Si Si4 0.255257 0.069474 0.858861
Si Si5 0.350105 0.167780 0.015606
Si Si6 0.351686 0.153170 0.280585
Si Si7 0.858019 0.998043 0.549768
O O1 0.500000 0.376599 0.155680
O O2 0.287663 0.399477 0.244928
O O3 0.340153 0.435682 0.045111
O O4 0.315137 0.327301 0.063345
O O5 0.500000 0.030305 0.174420
O O6 0.654903 0.086807 0.294031
O O7 0.750359 0.022707 0.136529
O O8 0.648030 0.976961 0.313862
O O9 0.500000 0.298216 0.929454
O O10 0.315821 0.227825 0.967411
O O11 0.253650 0.316891 0.855253
O O12 0.296872 0.116745 0.945222
O O13 0.156015 0.032420 0.929750
O O14 0.500000 0.163561 0.007128
O O15 0.320545 0.164174 0.148658
O O16 0.500000 0.169477 0.301562
O O17 0.000000 0.988501 0.595018
#
# Coordination Sequence:
#
# PCOD9351687 Si02
#       7
#     8   8   8   8   8   8   8
#     4   9  20  37  58  85 118 155 195 241 300 352
#     4  10  21  36  59  86 117 156 196 239 296 360
#     4  10  22  41  62  85 116 160 200 244 296 349
#     4  11  20  35  60  91 119 154 200 242 297 355
#     4  10  22  39  60  84 120 158 196 243 299 351
#     4  10  21  41  63  87 117 157 197 245 297 351
#     4  10  20  35  56  86 121 152 190 244 297 352
#
# _framework density 18.561461000000001
#
# number of rings (size 3 to 8) (size 9 to 14) (size 15 to 20)
#    0.000    2.000    1.429    1.714    2.000    1.714 
#    0.000    6.429    0.000    0.000    0.000    0.000 
#    0.000    0.000    0.000    0.000    0.000    0.000 
#
# Total GULP energy -156049.771853 kJ/mol
# GULP energy per Si atom -5573.206138 kJ/mol
# Density = 1.851921 g / cm^3
# Si number density = 18.561461 Si / 1000 Ang^3
#
#
#
# Elastic Constant Matrix: (Units=GPa)
#
#
# Indices 1 2 3 4 5 6 
#
# 1 79.9434 39.5072 42.6471 0.0000 0.0000 0.0000
# 2 39.5072 107.0042 44.7463 0.0000 0.0000 0.0000
# 3 42.6471 44.7463 75.1804 0.0000 0.0000 0.0000
# 4 0.0000 0.0000 0.0000 23.2943 0.0000 0.0000
# 5 0.0000 0.0000 0.0000 0.0000 3.7729 0.0000
# 6 0.0000 0.0000 0.0000 0.0000 0.0000 21.0382
#
#
#
# Elastic Compliance Matrix: (Units=1/GPa)
#
#
# Indices 1 2 3 4 5 6 
#
# 1 0.018773 -0.003299 -0.008686 0.000000 0.000000 0.000000
# 2 -0.003299 0.013022 -0.005879 0.000000 0.000000 0.000000
# 3 -0.008686 -0.005879 0.021727 0.000000 0.000000 0.000000
# 4 0.000000 0.000000 0.000000 0.042929 0.000000 0.000000
# 5 0.000000 0.000000 0.000000 0.000000 0.265052 0.000000
# 6 0.000000 0.000000 0.000000 0.000000 0.000000 0.047533
#
#
# Mechanical properties :
#
#
# Convention : Reuss Voigt Hill
#
# Bulk Modulus (GPa) = 56.19606 57.32546 56.76076
# Shear Modulus (GPa) = 11.09400 18.63622 14.86511
#
# Velocity S-wave (km/s) = 2.44742 3.17208 2.83302
# Velocity P-wave (km/s) = 6.19095 6.66088 6.43021
#
# Compressibility (1/GPa) = 0.01779484
#
# Stress axis : x y z
#
# Youngs Moduli (GPa) = 53.26904 76.79350 46.02472
#
# Poissons Ratio (x) = 0.25334 0.39975
# Poissons Ratio (y) = 0.17574 0.27058
# Poissons Ratio (z) = 0.46267 0.45147
#
# Static dielectric constant tensor:
#      x y z
#    x 1.647070 0.000000 0.000000 
#    y 0.000000 1.677050 0.000000 
#    z 0.000000 0.000000 1.664470 
# 
# From -- ./inp_files/7826.got.cif
#   From: 2010.05.17/outbox.cif.g08.bks.cpg/sg36_4_cif.got.tgz:7826.got - 2010.06.03 17:41:39.
