data_PCOD9351583
_publ_section_title
;
Structure prediction by ZEFSAII (Michael W. Deem and Ramdas Pophale) SiO2 
 PCOD9351583
Probable space group: C M C 21
;
_chemical_formula_sum "Si O2"
_cell_formula_units_Z 64
_cell_length_a 14.322504
_cell_length_b 24.086251
_cell_length_c 9.059296
_cell_angle_alpha 90.000000
_cell_angle_beta 90.000000
_cell_angle_gamma 90.000000
_cell_volume 3125.234500
_symmetry_space_group_name_H-M "C M C 21"
_symmetry_group_IT_number 36
_symmetry_cell_setting 'orthorhombic'
loop_
_space_group_symop_operation_xyz
x,y,z
-x,-y,1/2+z
x,-y,1/2+z
-x,y,z
1/2+x,1/2+y,z
1/2-x,1/2-y,1/2+z
1/2+x,1/2-y,1/2+z
1/2-x,1/2+y,z
loop_
_atom_site_type_symbol
_atom_site_label
_atom_site_fract_x
_atom_site_fract_y
_atom_site_fract_z
Si Si1 0.775253 0.215884 0.317200
Si Si2 0.731452 0.507167 0.491366
Si Si3 0.897186 0.987287 0.734333
Si Si4 0.801170 0.681929 0.625962
Si Si5 0.607329 0.167889 0.150705
Si Si6 0.741676 0.879178 0.409569
Si Si7 0.603685 0.093120 0.431704
Si Si8 0.896232 0.138393 0.130310
O O1 0.824311 0.268628 0.240542
O O2 0.758513 0.209361 0.491669
O O3 0.674351 0.211071 0.236355
O O4 0.836267 0.164077 0.262450
O O5 0.636635 0.519313 0.400711
O O6 0.693154 0.513459 0.656588
O O7 0.760998 0.444174 0.452049
O O8 0.814527 0.549123 0.456818
O O9 0.903289 0.926963 0.660362
O O10 0.000000 0.013852 0.725799
O O11 0.757365 0.636966 0.738493
O O12 0.878591 0.646460 0.537535
O O13 0.500000 0.185517 0.132162
O O14 0.608626 0.115765 0.264381
O O15 0.656468 0.149354 0.999310
O O16 0.835224 0.854196 0.483907
O O17 0.500000 0.070474 0.459349
O O18 0.000000 0.161973 0.120720
#
# Coordination Sequence:
#
# PCOD9351583 Si02
#       8
#     8   8   8   8   8   8   8   8
#     4  10  20  37  61  84 115 156 196 244 303 365
#     4  11  20  36  58  84 120 159 202 254 314 372
#     4  10  20  34  55  82 113 153 200 251 308 369
#     4  11  22  39  60  87 122 158 200 250 303 367
#     4   9  19  38  60  82 113 156 204 251 302 364
#     4  10  21  36  57  85 117 156 197 248 305 363
#     4  10  22  39  60  88 123 164 209 257 314 378
#     4   9  19  37  58  80 109 148 195 243 296 360
#
# _framework density 20.478465
#
# number of rings (size 3 to 8) (size 9 to 14) (size 15 to 20)
#    0.000    2.000    0.000    5.625    0.000    2.000 
#    0.000    8.750    0.000    1.500    0.000    0.000 
#    0.000    0.000    0.000    0.000    0.000    0.000 
#
# Total GULP energy -178299.780549 kJ/mol
# GULP energy per Si atom -5571.868142 kJ/mol
# Density = 2.043185 g / cm^3
# Si number density = 20.478465 Si / 1000 Ang^3
#
#
#
# Elastic Constant Matrix: (Units=GPa)
#
#
# Indices 1 2 3 4 5 6 
#
# 1 89.9588 12.5143 39.1896 0.0000 0.0000 0.0000
# 2 12.5143 46.8700 23.4621 0.0000 0.0000 0.0000
# 3 39.1896 23.4621 108.4700 0.0000 0.0000 0.0000
# 4 0.0000 0.0000 0.0000 28.1149 0.0000 0.0000
# 5 0.0000 0.0000 0.0000 0.0000 0.4516 0.0000
# 6 0.0000 0.0000 0.0000 0.0000 0.0000 13.6689
#
#
#
# Elastic Compliance Matrix: (Units=1/GPa)
#
#
# Indices 1 2 3 4 5 6 
#
# 1 0.013261 -0.001281 -0.004514 0.000000 0.000000 0.000000
# 2 -0.001281 0.024050 -0.004739 0.000000 0.000000 0.000000
# 3 -0.004514 -0.004739 0.011875 0.000000 0.000000 0.000000
# 4 0.000000 0.000000 0.000000 0.035568 0.000000 0.000000
# 5 0.000000 0.000000 0.000000 0.000000 2.214333 0.000000
# 6 0.000000 0.000000 0.000000 0.000000 0.000000 0.073159
#
#
# Mechanical properties :
#
#
# Convention : Reuss Voigt Hill
#
# Bulk Modulus (GPa) = 35.56500 43.95897 39.76198
# Shear Modulus (GPa) = 2.08100 19.78925 10.93513
#
# Velocity S-wave (km/s) = 1.00916 3.11198 2.31331
# Velocity P-wave (km/s) = 4.33158 5.86729 5.15692
#
# Compressibility (1/GPa) = 0.02811753
#
# Stress axis : x y z
#
# Youngs Moduli (GPa) = 75.40971 41.58011 84.20978
#
# Poissons Ratio (x) = 0.05327 0.38012
# Poissons Ratio (y) = 0.09660 0.39908
# Poissons Ratio (z) = 0.34040 0.19706
#
# Static dielectric constant tensor:
#      x y z
#    x 1.755370 0.000000 0.000000 
#    y 0.000000 1.782460 0.000000 
#    z 0.000000 0.000000 1.751760 
# 
# From -- ./inp_files/4362.got.cif
#   From: 2010.05.17/outbox.cif.g08.bks.cpg/sg36_3_cif.got.tgz:4362.got - 2010.06.03 17:41:39.
