data_PCOD9351398
_publ_section_title
;
Structure prediction by ZEFSAII (Michael W. Deem and Ramdas Pophale) SiO2 
 PCOD9351398
Probable space group: C M C 21
;
_chemical_formula_sum "Si O2"
_cell_formula_units_Z 48
_cell_length_a 25.946296
_cell_length_b 5.195386
_cell_length_c 13.843891
_cell_angle_alpha 90.000000
_cell_angle_beta 90.000000
_cell_angle_gamma 90.000000
_cell_volume 1866.170669
_symmetry_space_group_name_H-M "C M C 21"
_symmetry_group_IT_number 36
_symmetry_cell_setting 'orthorhombic'
loop_
_space_group_symop_operation_xyz
x,y,z
-x,-y,1/2+z
x,-y,1/2+z
-x,y,z
1/2+x,1/2+y,z
1/2-x,1/2-y,1/2+z
1/2+x,1/2-y,1/2+z
1/2-x,1/2+y,z
loop_
_atom_site_type_symbol
_atom_site_label
_atom_site_fract_x
_atom_site_fract_y
_atom_site_fract_z
Si Si1 0.115180 0.461253 0.225900
Si Si2 0.280992 0.291748 0.187795
Si Si3 0.628861 0.234788 0.525134
Si Si4 0.759783 0.379101 0.971104
Si Si5 0.000000 0.009669 0.009604
Si Si6 0.098310 0.235422 0.431998
Si Si7 0.500000 0.021282 0.149082
O O1 0.161502 0.676018 0.213386
O O2 0.123565 0.259650 0.139300
O O3 0.117568 0.319044 0.327826
O O4 0.054132 0.534813 0.210042
O O5 0.261202 0.574883 0.217226
O O6 0.271313 0.323134 0.070323
O O7 0.681483 0.099713 0.498710
O O8 0.632915 0.521302 0.484132
O O9 0.590525 0.009797 0.486028
O O10 0.743417 0.621104 0.912289
O O11 0.000000 0.779270 0.086561
O O12 0.000000 0.265554 0.077797
O O13 0.047663 0.944795 0.939792
#
# Coordination Sequence:
#
# PCOD9351398 Si02
#       7
#     8   8   8   8   4   8   4
#     4  12  26  50  78 107 152 196 247 302 385 431
#     4  10  22  39  72 103 138 193 238 298 356 431
#     4  12  25  46  74 103 148 194 243 300 372 434
#     4  10  19  37  69  97 135 195 231 293 361 412
#     4  12  23  48  69 108 148 182 259 298 359 452
#     4  12  28  45  72 111 147 190 250 310 354 457
#     4  12  27  46  83 104 140 210 229 304 391 430
#
# _framework density 25.721119999999999
#
# number of rings (size 3 to 8) (size 9 to 14) (size 15 to 20)
#    0.000    0.667    6.667    1.500    2.333    5.333 
#    0.000    6.667    0.000    0.000    0.000    0.000 
#    0.000    0.000    0.000    0.000    0.000    0.000 
#
# Total GULP energy -133806.941725 kJ/mol
# GULP energy per Si atom -5575.289239 kJ/mol
# Density = 2.566258 g / cm^3
# Si number density = 25.721120 Si / 1000 Ang^3
#
#
#
# Elastic Constant Matrix: (Units=GPa)
#
#
# Indices 1 2 3 4 5 6 
#
# 1 150.4008 19.0583 -9.1134 0.0000 0.0000 0.0000
# 2 19.0583 193.8431 38.0522 0.0000 0.0000 0.0000
# 3 -9.1134 38.0522 116.8494 0.0000 0.0000 0.0000
# 4 0.0000 0.0000 0.0000 2.4027 0.0000 0.0000
# 5 0.0000 0.0000 0.0000 0.0000 -628.4352 0.0000
# 6 0.0000 0.0000 0.0000 0.0000 0.0000 27.5748
#
#
#
# Elastic Compliance Matrix: (Units=1/GPa)
#
#
# Indices 1 2 3 4 5 6 
#
# 1 0.006802 -0.000826 0.000799 0.000000 0.000000 0.000000
# 2 -0.000826 0.005611 -0.001892 0.000000 0.000000 0.000000
# 3 0.000799 -0.001892 0.009236 0.000000 0.000000 0.000000
# 4 0.000000 0.000000 0.000000 0.416195 0.000000 0.000000
# 5 0.000000 0.000000 0.000000 0.000000 -0.001591 0.000000
# 6 0.000000 0.000000 0.000000 0.000000 0.000000 0.036265
#
#
# Mechanical properties :
#
#
# Convention : Reuss Voigt Hill
#
# Bulk Modulus (GPa) = 56.13668 61.89861 59.01765
# Shear Modulus (GPa) = 10.36716 -92.15179 -40.89231
#
# Velocity S-wave (km/s) = 2.00981 -5.99208 -3.99160
# Velocity P-wave (km/s) = 5.22095 4.87400 1.32333
#
# Compressibility (1/GPa) = 0.01781366
#
# Stress axis : x y z
#
# Youngs Moduli (GPa) = 147.01632 178.21031 108.26710
#
# Poissons Ratio (x) = 0.14714 -0.08655
# Poissons Ratio (y) = 0.12139 0.20481
# Poissons Ratio (z) = -0.11752 0.33713
#
# Static dielectric constant tensor:
#      x y z
#    x 3.259050 0.000000 0.000000 
#    y 0.000000 2.141630 0.000000 
#    z 0.000000 0.000000 2.011890 
# 
# From -- ./inp_files/13069.got.cif
#   From: 2010.05.17/outbox.cif.g08.bks.cpg/sg36_7_cif.got.tgz:13069.got - 2010.06.03 17:41:39.
