data_PCOD9351826
_publ_section_title
;
Structure prediction by ZEFSAII (Michael W. Deem and Ramdas Pophale) SiO2 
 PCOD9351826
Probable space group: C M C 21
;
_chemical_formula_sum "Si O2"
_cell_formula_units_Z 48
_cell_length_a 15.629802
_cell_length_b 18.146642
_cell_length_c 7.954798
_cell_angle_alpha 90.000000
_cell_angle_beta 90.000000
_cell_angle_gamma 90.000000
_cell_volume 2256.206799
_symmetry_space_group_name_H-M "C M C 21"
_symmetry_group_IT_number 36
_symmetry_cell_setting 'orthorhombic'
loop_
_space_group_symop_operation_xyz
x,y,z
-x,-y,1/2+z
x,-y,1/2+z
-x,y,z
1/2+x,1/2+y,z
1/2-x,1/2-y,1/2+z
1/2+x,1/2-y,1/2+z
1/2-x,1/2+y,z
loop_
_atom_site_type_symbol
_atom_site_label
_atom_site_fract_x
_atom_site_fract_y
_atom_site_fract_z
Si Si1 0.000000 0.542678 0.269820
Si Si2 0.653278 0.791620 0.044082
Si Si3 0.500000 0.539560 0.052062
Si Si4 0.151704 0.135034 0.175335
Si Si5 0.000000 0.387565 0.143386
Si Si6 0.652946 0.860444 0.669910
Si Si7 0.650811 0.705733 0.545377
Si Si8 0.000000 0.114624 0.689882
O O1 0.000000 0.574294 0.458423
O O2 0.083469 0.575577 0.177444
O O3 0.000000 0.455010 0.270205
O O4 0.632578 0.705313 0.056937
O O5 0.584022 0.837374 0.147713
O O6 0.750844 0.801354 0.105980
O O7 0.650284 0.820690 0.853254
O O8 0.584335 0.571139 0.143201
O O9 0.500000 0.451752 0.055185
O O10 0.500000 0.573834 0.867094
O O11 0.250132 0.112257 0.144677
O O12 0.144993 0.168646 0.362527
O O13 0.632948 0.793282 0.543945
O O14 0.582825 0.664757 0.661043
#
# Coordination Sequence:
#
# PCOD9351826 Si02
#       8
#     4   8   4   8   4   8   8   4
#     4  10  21  36  53  77 111 147 181 218 265 320
#     4   9  19  36  58  84 114 147 182 224 273 325
#     4  12  25  40  57  79 111 149 187 232 287 340
#     4  10  20  36  59  86 112 142 184 229 274 329
#     4  10  21  36  53  77 111 147 181 218 265 320
#     4   9  19  36  58  84 114 147 182 224 273 325
#     4  10  20  36  59  86 112 142 184 229 274 329
#     4  12  25  40  57  79 111 149 187 232 287 340
#
# _framework density 21.274646000000001
#
# number of rings (size 3 to 8) (size 9 to 14) (size 15 to 20)
#    0.000    2.000    0.000    3.500    0.000    5.333 
#    0.000    3.333    0.000    0.000    0.000    0.000 
#    0.000    0.000    0.000    0.000    0.000    0.000 
#
# Total GULP energy -134205.471553 kJ/mol
# GULP energy per Si atom -5591.894648 kJ/mol
# Density = 2.122622 g / cm^3
# Si number density = 21.274646 Si / 1000 Ang^3
#
#
#
# Elastic Constant Matrix: (Units=GPa)
#
#
# Indices 1 2 3 4 5 6 
#
# 1 84.7889 45.0479 17.8129 0.0000 0.0000 0.0000
# 2 45.0479 51.3450 -4.7323 0.0000 0.0000 0.0000
# 3 17.8129 -4.7323 48.7186 0.0000 0.0000 0.0000
# 4 0.0000 0.0000 0.0000 33.7273 0.0000 0.0000
# 5 0.0000 0.0000 0.0000 0.0000 15.6779 0.0000
# 6 0.0000 0.0000 0.0000 0.0000 0.0000 -17.1014
#
#
#
# Elastic Compliance Matrix: (Units=1/GPa)
#
#
# Indices 1 2 3 4 5 6 
#
# 1 0.028350 -0.026062 -0.012897 0.000000 0.000000 0.000000
# 2 -0.026062 0.043610 0.013765 0.000000 0.000000 0.000000
# 3 -0.012897 0.013765 0.026579 0.000000 0.000000 0.000000
# 4 0.000000 0.000000 0.000000 0.029650 0.000000 0.000000
# 5 0.000000 0.000000 0.000000 0.000000 0.063784 0.000000
# 6 0.000000 0.000000 0.000000 0.000000 0.000000 -0.058475
#
#
# Mechanical properties :
#
#
# Convention : Reuss Voigt Hill
#
# Bulk Modulus (GPa) = 20.76787 33.45662 27.11224
# Shear Modulus (GPa) = 25.00799 14.90901 19.95850
#
# Velocity S-wave (km/s) = 3.43225 2.65011 3.06622
# Velocity P-wave (km/s) = 5.04877 5.01242 5.03063
#
# Compressibility (1/GPa) = 0.04815130
#
# Stress axis : x y z
#
# Youngs Moduli (GPa) = 35.27336 22.93035 37.62414
#
# Poissons Ratio (x) = 0.59761 0.48524
# Poissons Ratio (y) = 0.91929 -0.51790
# Poissons Ratio (z) = 0.45492 -0.31564
#
# Static dielectric constant tensor:
#      x y z
#    x 1.734100 0.000000 0.000000 
#    y 0.000000 1.711290 0.000000 
#    z 0.000000 0.000000 1.812620 
# 
# From -- ./inp_files/4042.got.cif
#   From: 2010.05.17/outbox.cif.g08.bks.cpg/sg36_3_cif.got.tgz:4042.got - 2010.06.03 17:41:39.
