data_PCOD9351783
_publ_section_title
;
Structure prediction by ZEFSAII (Michael W. Deem and Ramdas Pophale) SiO2 
 PCOD9351783
Probable space group: C M C 21
;
_chemical_formula_sum "Si O2"
_cell_formula_units_Z 64
_cell_length_a 7.713958
_cell_length_b 25.687325
_cell_length_c 15.001202
_cell_angle_alpha 90.000000
_cell_angle_beta 90.000000
_cell_angle_gamma 90.000000
_cell_volume 2972.502370
_symmetry_space_group_name_H-M "C M C 21"
_symmetry_group_IT_number 36
_symmetry_cell_setting 'orthorhombic'
loop_
_space_group_symop_operation_xyz
x,y,z
-x,-y,1/2+z
x,-y,1/2+z
-x,y,z
1/2+x,1/2+y,z
1/2-x,1/2-y,1/2+z
1/2+x,1/2-y,1/2+z
1/2-x,1/2+y,z
loop_
_atom_site_type_symbol
_atom_site_label
_atom_site_fract_x
_atom_site_fract_y
_atom_site_fract_z
Si Si1 0.211149 0.252720 0.210780
Si Si2 0.288610 0.133288 0.715429
Si Si3 0.794679 0.859451 0.727526
Si Si4 0.701736 0.130393 0.510990
Si Si5 0.211121 0.641349 0.019545
Si Si6 0.699407 0.254761 0.002930
Si Si7 0.795441 0.437486 0.372331
Si Si8 0.697698 0.555460 0.357868
O O1 0.257271 0.308786 0.250196
O O2 0.269538 0.198460 0.253745
O O3 0.286234 0.253141 0.110778
O O4 0.000000 0.251078 0.203354
O O5 0.500000 0.131959 0.711333
O O6 0.231244 0.127840 0.612828
O O7 0.225663 0.089005 0.782102
O O8 0.770779 0.864380 0.621479
O O9 0.718968 0.907945 0.781592
O O10 0.000000 0.859303 0.747301
O O11 0.500000 0.115752 0.511154
O O12 0.716079 0.190328 0.478847
O O13 0.795859 0.091104 0.445534
O O14 0.268647 0.697382 0.979386
O O15 0.000000 0.643282 0.022423
O O16 0.271997 0.593936 0.958017
O O17 0.500000 0.257844 0.973279
O O18 0.776269 0.499093 0.374110
O O19 0.000000 0.426257 0.371820
O O20 0.500000 0.544456 0.332223
#
# Coordination Sequence:
#
# PCOD9351783 Si02
#       8
#     8   8   8   8   8   8   8   8
#     4   8  14  29  53  79 104 135 174 214 259 322
#     4   8  16  32  56  80 102 131 172 215 258 310
#     4   9  19  35  56  79 107 140 174 217 275 328
#     4  10  20  36  57  81 108 143 181 218 263 321
#     4   9  19  34  56  83 110 141 179 218 263 317
#     4   9  16  29  51  82 114 139 168 215 266 316
#     4  10  21  38  56  76 103 141 185 225 262 313
#     4  11  24  39  53  76 106 140 183 230 274 317
#
# _framework density 21.530681999999999
#
# number of rings (size 3 to 8) (size 9 to 14) (size 15 to 20)
#    0.000    2.750    0.000    1.875    0.000    4.000 
#    0.000   10.625    0.000    0.000    0.000    0.000 
#    0.000    0.000    0.000    0.000    0.000    0.000 
#
# Total GULP energy -178449.181261 kJ/mol
# GULP energy per Si atom -5576.536914 kJ/mol
# Density = 2.148168 g / cm^3
# Si number density = 21.530682 Si / 1000 Ang^3
#
#
#
# Elastic Constant Matrix: (Units=GPa)
#
#
# Indices 1 2 3 4 5 6 
#
# 1 31.2398 -8.3950 -9.8023 0.0000 0.0000 0.0000
# 2 -8.3950 168.7726 65.8739 0.0000 0.0000 0.0000
# 3 -9.8023 65.8739 89.6254 0.0000 0.0000 0.0000
# 4 0.0000 0.0000 0.0000 35.5396 0.0000 0.0000
# 5 0.0000 0.0000 0.0000 0.0000 23.9322 0.0000
# 6 0.0000 0.0000 0.0000 0.0000 0.0000 12.0183
#
#
#
# Elastic Compliance Matrix: (Units=1/GPa)
#
#
# Indices 1 2 3 4 5 6 
#
# 1 0.033161 0.000328 0.003386 0.000000 0.000000 0.000000
# 2 0.000328 0.008312 -0.006073 0.000000 0.000000 0.000000
# 3 0.003386 -0.006073 0.015992 0.000000 0.000000 0.000000
# 4 0.000000 0.000000 0.000000 0.028138 0.000000 0.000000
# 5 0.000000 0.000000 0.000000 0.000000 0.041785 0.000000
# 6 0.000000 0.000000 0.000000 0.000000 0.000000 0.083206
#
#
# Mechanical properties :
#
#
# Convention : Reuss Voigt Hill
#
# Bulk Modulus (GPa) = 18.95902 42.77677 30.86789
# Shear Modulus (GPa) = 21.46897 30.42878 25.94887
#
# Velocity S-wave (km/s) = 3.16117 3.76343 3.47537
# Velocity P-wave (km/s) = 4.70624 6.22861 5.52015
#
# Compressibility (1/GPa) = 0.05274535
#
# Stress axis : x y z
#
# Youngs Moduli (GPa) = 30.15595 120.30895 62.53254
#
# Poissons Ratio (x) = -0.03946 -0.21172
# Poissons Ratio (y) = -0.00989 0.37978
# Poissons Ratio (z) = -0.10210 0.73067
#
# Static dielectric constant tensor:
#      x y z
#    x 1.777550 0.000000 0.000000 
#    y 0.000000 1.787380 0.000000 
#    z 0.000000 0.000000 1.787400 
# 
# From -- ./inp_files/11092.got.cif
#   From: 2010.05.17/outbox.cif.g08.bks.cpg/sg36_6_cif.got.tgz:11092.got - 2010.06.03 17:41:39.
