data_PCOD9351228
_publ_section_title
;
Structure prediction by ZEFSAII (Michael W. Deem and Ramdas Pophale) SiO2 
 PCOD9351228
Probable space group: C M C 21
;
_chemical_formula_sum "Si O2"
_cell_formula_units_Z 56
_cell_length_a 14.584414
_cell_length_b 18.932870
_cell_length_c 8.887790
_cell_angle_alpha 90.000000
_cell_angle_beta 90.000000
_cell_angle_gamma 90.000000
_cell_volume 2454.139363
_symmetry_space_group_name_H-M "C M C 21"
_symmetry_group_IT_number 36
_symmetry_cell_setting 'orthorhombic'
loop_
_space_group_symop_operation_xyz
x,y,z
-x,-y,1/2+z
x,-y,1/2+z
-x,y,z
1/2+x,1/2+y,z
1/2-x,1/2-y,1/2+z
1/2+x,1/2-y,1/2+z
1/2-x,1/2+y,z
loop_
_atom_site_type_symbol
_atom_site_label
_atom_site_fract_x
_atom_site_fract_y
_atom_site_fract_z
Si Si1 0.399676 0.655791 0.217260
Si Si2 0.204831 0.081335 0.750886
Si Si3 0.599955 0.225999 0.976001
Si Si4 0.194820 0.221508 0.936791
Si Si5 0.789022 0.051698 0.412776
Si Si6 0.895304 0.366325 0.931285
Si Si7 0.095513 0.404244 0.264477
O O1 0.500000 0.622747 0.209801
O O2 0.402691 0.718929 0.338266
O O3 0.327993 0.600102 0.280088
O O4 0.372154 0.688525 0.059533
O O5 0.203931 0.161318 0.809275
O O6 0.174258 0.074413 0.578545
O O7 0.310717 0.055382 0.751183
O O8 0.170753 0.025888 0.874828
O O9 0.500000 0.236095 0.057673
O O10 0.707067 0.233913 0.020893
O O11 0.597386 0.146918 0.907501
O O12 0.152039 0.294198 0.875538
O O13 0.679864 0.071542 0.414351
O O14 0.000000 0.377357 0.875547
O O15 0.903765 0.357750 0.112393
O O16 0.000000 0.445542 0.264679
#
# Coordination Sequence:
#
# PCOD9351228 Si02
#       7
#     8   8   8   8   8   8   8
#     4  11  22  39  65  91 123 167 211 259 319 383
#     4  10  23  39  62  91 124 172 215 268 325 380
#     4   9  17  31  56  91 126 160 198 249 313 373
#     4  11  20  37  66  98 130 168 213 263 324 388
#     4  11  23  43  62  89 128 170 220 268 323 389
#     4  10  19  34  61  96 130 165 207 263 326 389
#     4   8  15  31  56  86 121 158 201 246 309 384
#
# _framework density 22.81859
#
# number of rings (size 3 to 8) (size 9 to 14) (size 15 to 20)
#    0.000    2.000    2.857    1.286    0.000    0.571 
#    0.000    5.714    0.000    3.429    0.000    0.000 
#    0.000    0.000    0.000    0.000    0.000    0.000 
#
# Total GULP energy -155900.161358 kJ/mol
# GULP energy per Si atom -5567.862906 kJ/mol
# Density = 2.276665 g / cm^3
# Si number density = 22.818590 Si / 1000 Ang^3
#
#
#
# Elastic Constant Matrix: (Units=GPa)
#
#
# Indices 1 2 3 4 5 6 
#
# 1 77.0243 -11.5043 -6.1447 0.0000 0.0000 0.0000
# 2 -11.5043 75.5612 27.9194 0.0000 0.0000 0.0000
# 3 -6.1447 27.9194 36.3910 0.0000 0.0000 0.0000
# 4 0.0000 0.0000 0.0000 24.5760 0.0000 0.0000
# 5 0.0000 0.0000 0.0000 0.0000 16.5381 0.0000
# 6 0.0000 0.0000 0.0000 0.0000 0.0000 -2.0232
#
#
#
# Elastic Compliance Matrix: (Units=1/GPa)
#
#
# Indices 1 2 3 4 5 6 
#
# 1 0.013309 0.001669 0.000967 0.000000 0.000000 0.000000
# 2 0.001669 0.018680 -0.014049 0.000000 0.000000 0.000000
# 3 0.000967 -0.014049 0.038421 0.000000 0.000000 0.000000
# 4 0.000000 0.000000 0.000000 0.040690 0.000000 0.000000
# 5 0.000000 0.000000 0.000000 0.000000 0.060466 0.000000
# 6 0.000000 0.000000 0.000000 0.000000 0.000000 -0.494269
#
#
# Mechanical properties :
#
#
# Convention : Reuss Voigt Hill
#
# Bulk Modulus (GPa) = 21.01574 23.27971 22.14773
# Shear Modulus (GPa) = -17.60474 19.73192 1.06359
#
# Velocity S-wave (km/s) = -2.78062 2.94382 0.68346
# Velocity P-wave (km/s) = 1.03885 4.66680 3.21713
#
# Compressibility (1/GPa) = 0.04758338
#
# Stress axis : x y z
#
# Youngs Moduli (GPa) = 75.13524 53.53456 26.02732
#
# Poissons Ratio (x) = -0.08936 -0.02516
# Poissons Ratio (y) = -0.12541 0.36566
# Poissons Ratio (z) = -0.07263 0.75212
#
# Static dielectric constant tensor:
#      x y z
#    x 1.947010 0.000000 0.000000 
#    y 0.000000 1.870690 0.000000 
#    z 0.000000 0.000000 1.874450 
# 
# From -- ./inp_files/4211.got.cif
#   From: 2010.05.17/outbox.cif.g08.bks.cpg/sg36_3_cif.got.tgz:4211.got - 2010.06.03 17:41:39.
