data_PCOD9351773
_publ_section_title
;
Structure prediction by ZEFSAII (Michael W. Deem and Ramdas Pophale) SiO2 
 PCOD9351773
Probable space group: C M C 21
;
_chemical_formula_sum "Si O2"
_cell_formula_units_Z 48
_cell_length_a 15.135877
_cell_length_b 9.642830
_cell_length_c 17.117356
_cell_angle_alpha 90.000000
_cell_angle_beta 90.000000
_cell_angle_gamma 90.000000
_cell_volume 2498.324134
_symmetry_space_group_name_H-M "C M C 21"
_symmetry_group_IT_number 36
_symmetry_cell_setting 'orthorhombic'
loop_
_space_group_symop_operation_xyz
x,y,z
-x,-y,1/2+z
x,-y,1/2+z
-x,y,z
1/2+x,1/2+y,z
1/2-x,1/2-y,1/2+z
1/2+x,1/2-y,1/2+z
1/2-x,1/2+y,z
loop_
_atom_site_type_symbol
_atom_site_label
_atom_site_fract_x
_atom_site_fract_y
_atom_site_fract_z
Si Si1 0.307105 0.293048 0.478610
Si Si2 0.306997 0.413158 0.711403
Si Si3 0.193004 0.913200 0.895779
Si Si4 0.500000 0.382248 0.713837
Si Si5 0.000000 0.870277 0.491936
Si Si6 0.500000 0.382284 0.893357
Si Si7 0.000000 0.870312 0.115248
Si Si8 0.307104 0.293091 0.128575
O O1 0.272369 0.191414 0.411455
O O2 0.294128 0.450440 0.448555
O O3 0.410738 0.284651 0.497649
O O4 0.250000 0.249985 0.553593
O O5 0.313731 0.447678 0.803589
O O6 0.401381 0.343496 0.685721
O O7 0.294129 0.549506 0.658617
O O8 0.227636 0.308530 0.695735
O O9 0.098622 0.843544 0.921472
O O10 0.500000 0.343035 0.803600
O O11 0.500000 0.548131 0.698044
O O12 0.000000 0.951829 0.409137
O O13 0.000000 0.999985 0.553590
O O14 0.089263 0.784686 0.109539
#
# Coordination Sequence:
#
# PCOD9351773 Si02
#       8
#     8   8   8   4   4   4   4   8
#     4  11  21  36  58  83 110 145 187 233 280 330
#     4  10  20  36  57  83 112 146 185 229 278 334
#     4  10  20  36  57  83 112 146 185 229 278 334
#     4   8  16  32  55  77 102 140 182 216 260 326
#     4  10  20  36  56  79 107 144 188 226 265 330
#     4   8  16  32  55  77 102 140 182 216 260 326
#     4  10  20  36  56  79 107 144 188 226 265 330
#     4  11  21  36  58  83 110 145 187 233 280 330
#
# _framework density 19.212879999999998
#
# number of rings (size 3 to 8) (size 9 to 14) (size 15 to 20)
#    0.000    2.000    0.000    6.000    0.000    1.333 
#    0.000    5.000    0.000    0.000    0.000    0.000 
#    0.000    0.000    0.000    0.000    0.000    0.000 
#
# Total GULP energy -133652.688154 kJ/mol
# GULP energy per Si atom -5568.862006 kJ/mol
# Density = 1.916915 g / cm^3
# Si number density = 19.212880 Si / 1000 Ang^3
#
#
#
# Elastic Constant Matrix: (Units=GPa)
#
#
# Indices 1 2 3 4 5 6 
#
# 1 194.3655 57.5395 31.7881 0.0000 0.0000 0.0000
# 2 57.5395 55.7821 11.2341 0.0000 0.0000 0.0000
# 3 31.7881 11.2341 63.1234 0.0000 0.0000 0.0000
# 4 0.0000 0.0000 0.0000 31.4958 0.0000 0.0000
# 5 0.0000 0.0000 0.0000 0.0000 25.2525 0.0000
# 6 0.0000 0.0000 0.0000 0.0000 0.0000 36.6062
#
#
#
# Elastic Compliance Matrix: (Units=1/GPa)
#
#
# Indices 1 2 3 4 5 6 
#
# 1 0.007794 -0.007518 -0.002587 0.000000 0.000000 0.000000
# 2 -0.007518 0.025846 -0.000814 0.000000 0.000000 0.000000
# 3 -0.002587 -0.000814 0.017289 0.000000 0.000000 0.000000
# 4 0.000000 0.000000 0.000000 0.031750 0.000000 0.000000
# 5 0.000000 0.000000 0.000000 0.000000 0.039600 0.000000
# 6 0.000000 0.000000 0.000000 0.000000 0.000000 0.027318
#
#
# Mechanical properties :
#
#
# Convention : Reuss Voigt Hill
#
# Bulk Modulus (GPa) = 34.37423 57.15492 45.76457
# Shear Modulus (GPa) = 27.60417 32.85149 30.22783
#
# Velocity S-wave (km/s) = 3.79457 4.13954 3.97080
# Velocity P-wave (km/s) = 6.09331 7.25676 6.70033
#
# Compressibility (1/GPa) = 0.02909156
#
# Stress axis : x y z
#
# Youngs Moduli (GPa) = 128.30872 38.69079 57.83868
#
# Poissons Ratio (x) = 0.29089 0.14961
# Poissons Ratio (y) = 0.96466 0.04706
# Poissons Ratio (z) = 0.33190 0.03148
#
# Static dielectric constant tensor:
#      x y z
#    x 1.728690 0.000000 0.000000 
#    y 0.000000 1.637190 0.000000 
#    z 0.000000 0.000000 1.788680 
# 
# From -- ./inp_files/14604.got.cif
#   From: 2010.05.17/outbox.cif.g08.bks.cpg/sg36_8_cif.got.tgz:14604.got - 2010.06.03 17:41:39.
