data_PCOD9351432
_publ_section_title
;
Structure prediction by ZEFSAII (Michael W. Deem and Ramdas Pophale) SiO2 
 PCOD9351432
Probable space group: C M C 21
;
_chemical_formula_sum "Si O2"
_cell_formula_units_Z 56
_cell_length_a 14.661122
_cell_length_b 26.403831
_cell_length_c 9.615430
_cell_angle_alpha 90.000000
_cell_angle_beta 90.000000
_cell_angle_gamma 90.000000
_cell_volume 3722.227065
_symmetry_space_group_name_H-M "C M C 21"
_symmetry_group_IT_number 36
_symmetry_cell_setting 'orthorhombic'
loop_
_space_group_symop_operation_xyz
x,y,z
-x,-y,1/2+z
x,-y,1/2+z
-x,y,z
1/2+x,1/2+y,z
1/2-x,1/2-y,1/2+z
1/2+x,1/2-y,1/2+z
1/2-x,1/2+y,z
loop_
_atom_site_type_symbol
_atom_site_label
_atom_site_fract_x
_atom_site_fract_y
_atom_site_fract_z
Si Si1 0.607532 0.806475 0.480350
Si Si2 0.110627 0.377555 0.234404
Si Si3 0.610461 0.021245 0.588815
Si Si4 0.397410 0.712131 0.268686
Si Si5 0.393922 0.210239 0.519930
Si Si6 0.889588 0.434047 0.789414
Si Si7 0.295598 0.174656 0.263939
O O1 0.500000 0.813688 0.517283
O O2 0.637416 0.853149 0.380996
O O3 0.612217 0.755904 0.386395
O O4 0.668929 0.805243 0.616132
O O5 0.141538 0.433080 0.190042
O O6 0.135308 0.337992 0.113090
O O7 0.000000 0.377995 0.237707
O O8 0.500000 0.021407 0.592155
O O9 0.634533 0.035410 0.430818
O O10 0.637112 0.967898 0.656000
O O11 0.500000 0.691147 0.280274
O O12 0.389927 0.742132 0.122397
O O13 0.313309 0.674226 0.275284
O O14 0.500000 0.202491 0.480505
O O15 0.333337 0.211609 0.383864
O O16 0.841454 0.379954 0.787157
O O17 0.000000 0.426990 0.789479
#
# Coordination Sequence:
#
# PCOD9351432 Si02
#       7
#     8   8   8   8   8   8   8
#     4   9  18  29  45  69  94 118 148 186 229 272
#     4   8  14  27  43  59  91 129 145 164 217 280
#     4   9  17  29  41  61  96 128 146 171 219 275
#     4   9  20  35  46  61  91 128 156 187 232 271
#     4   9  16  29  47  66  91 121 149 178 223 277
#     4  10  20  29  43  68  96 123 150 180 220 272
#     4  12  19  28  47  72  91 117 160 196 218 259
#
# _framework density 15.044757000000001
#
# number of rings (size 3 to 8) (size 9 to 14) (size 15 to 20)
#    0.000    2.571    1.429    3.857    2.000    0.000 
#    0.000    0.000    0.000    0.000    0.000    1.000 
#    0.000    0.000    0.000    0.000    0.000    0.000 
#
# Total GULP energy -155985.591647 kJ/mol
# GULP energy per Si atom -5570.913987 kJ/mol
# Density = 1.501051 g / cm^3
# Si number density = 15.044757 Si / 1000 Ang^3
#
#
#
# Elastic Constant Matrix: (Units=GPa)
#
#
# Indices 1 2 3 4 5 6 
#
# 1 69.4118 21.5753 36.2093 0.0000 0.0000 0.0000
# 2 21.5753 35.3897 11.0136 0.0000 0.0000 0.0000
# 3 36.2093 11.0136 84.4682 0.0000 0.0000 0.0000
# 4 0.0000 0.0000 0.0000 7.1275 0.0000 0.0000
# 5 0.0000 0.0000 0.0000 0.0000 9.4171 0.0000
# 6 0.0000 0.0000 0.0000 0.0000 0.0000 13.4061
#
#
#
# Elastic Compliance Matrix: (Units=1/GPa)
#
#
# Indices 1 2 3 4 5 6 
#
# 1 0.021967 -0.010904 -0.007995 0.000000 0.000000 0.000000
# 2 -0.010904 0.034864 0.000128 0.000000 0.000000 0.000000
# 3 -0.007995 0.000128 0.015249 0.000000 0.000000 0.000000
# 4 0.000000 0.000000 0.000000 0.140303 0.000000 0.000000
# 5 0.000000 0.000000 0.000000 0.000000 0.106190 0.000000
# 6 0.000000 0.000000 0.000000 0.000000 0.000000 0.074593
#
#
# Mechanical properties :
#
#
# Convention : Reuss Voigt Hill
#
# Bulk Modulus (GPa) = 28.95232 36.31844 32.63538
# Shear Modulus (GPa) = 11.30661 14.02157 12.66409
#
# Velocity S-wave (km/s) = 2.74438 3.05616 2.90446
# Velocity P-wave (km/s) = 5.41554 6.05361 5.74344
#
# Compressibility (1/GPa) = 0.03453955
#
# Stress axis : x y z
#
# Youngs Moduli (GPa) = 45.52383 28.68260 65.57734
#
# Poissons Ratio (x) = 0.31275 0.52427
# Poissons Ratio (y) = 0.49638 -0.00841
# Poissons Ratio (z) = 0.36395 -0.00368
#
# Static dielectric constant tensor:
#      x y z
#    x 1.478220 0.000000 0.000000 
#    y 0.000000 1.502970 0.000000 
#    z 0.000000 0.000000 1.529820 
# 
# From -- ./inp_files/4416.got.cif
#   From: 2010.05.17/outbox.cif.g08.bks.cpg/sg36_3_cif.got.tgz:4416.got - 2010.06.03 17:41:39.
