data_PCOD9351691
_publ_section_title
;
Structure prediction by ZEFSAII (Michael W. Deem and Ramdas Pophale) SiO2 
 PCOD9351691
Probable space group: C M C 21
;
_chemical_formula_sum "Si O2"
_cell_formula_units_Z 64
_cell_length_a 26.723088
_cell_length_b 14.029861
_cell_length_c 9.172398
_cell_angle_alpha 90.000000
_cell_angle_beta 90.000000
_cell_angle_gamma 90.000000
_cell_volume 3438.926558
_symmetry_space_group_name_H-M "C M C 21"
_symmetry_group_IT_number 36
_symmetry_cell_setting 'orthorhombic'
loop_
_space_group_symop_operation_xyz
x,y,z
-x,-y,1/2+z
x,-y,1/2+z
-x,y,z
1/2+x,1/2+y,z
1/2-x,1/2-y,1/2+z
1/2+x,1/2-y,1/2+z
1/2-x,1/2+y,z
loop_
_atom_site_type_symbol
_atom_site_label
_atom_site_fract_x
_atom_site_fract_y
_atom_site_fract_z
Si Si1 0.704580 0.033138 0.929060
Si Si2 0.631248 0.120474 0.137429
Si Si3 0.557517 0.589798 0.370437
Si Si4 0.665959 0.174657 0.449667
Si Si5 0.114091 0.418319 0.206305
Si Si6 0.944930 0.304683 0.424142
Si Si7 0.314837 0.606195 0.898763
Si Si8 0.623758 0.518561 0.634409
O O1 0.662111 0.058607 0.809459
O O2 0.758991 0.065739 0.883030
O O3 0.702143 0.919088 0.958360
O O4 0.685308 0.093931 0.068686
O O5 0.636119 0.156193 0.300491
O O6 0.603339 0.018417 0.129247
O O7 0.599358 0.191731 0.041182
O O8 0.500000 0.554803 0.380755
O O9 0.555871 0.702616 0.348190
O O10 0.587951 0.571752 0.519608
O O11 0.587894 0.541807 0.240220
O O12 0.630701 0.160084 0.589433
O O13 0.686996 0.281200 0.436943
O O14 0.069387 0.383385 0.305706
O O15 0.000000 0.319330 0.488368
O O16 0.344325 0.583924 0.747282
O O17 0.341399 0.548905 0.032209
#
# Coordination Sequence:
#
# PCOD9351691 Si02
#       8
#     8   8   8   8   8   8   8   8
#     4   9  21  38  53  81 111 149 188 222 276 336
#     4   9  19  37  56  77 111 147 187 223 271 339
#     4  10  20  39  61  81 109 147 182 224 286 335
#     4  10  20  36  59  78 108 149 191 219 277 334
#     4   9  19  37  56  77 111 147 187 223 271 339
#     4  10  20  35  57  83 109 142 186 231 276 329
#     4  11  23  38  55  83 117 145 186 236 275 320
#     4  10  23  38  56  84 116 138 185 240 268 326
#
# _framework density 18.610458999999999
#
# number of rings (size 3 to 8) (size 9 to 14) (size 15 to 20)
#    0.000    2.250    0.000    2.625    5.250    1.500 
#    9.000    0.625    0.000    4.500    0.000    0.000 
#    0.000    0.000    0.000    0.000    0.000    0.000 
#
# Total GULP energy -178333.338431 kJ/mol
# GULP energy per Si atom -5572.916826 kJ/mol
# Density = 1.856810 g / cm^3
# Si number density = 18.610459 Si / 1000 Ang^3
#
#
#
# Elastic Constant Matrix: (Units=GPa)
#
#
# Indices 1 2 3 4 5 6 
#
# 1 75.9982 29.2890 7.3291 0.0000 0.0000 0.0000
# 2 29.2890 77.8446 6.4235 0.0000 0.0000 0.0000
# 3 7.3291 6.4235 70.8072 0.0000 0.0000 0.0000
# 4 0.0000 0.0000 0.0000 14.4150 0.0000 0.0000
# 5 0.0000 0.0000 0.0000 0.0000 6.9041 0.0000
# 6 0.0000 0.0000 0.0000 0.0000 0.0000 18.5163
#
#
#
# Elastic Compliance Matrix: (Units=1/GPa)
#
#
# Indices 1 2 3 4 5 6 
#
# 1 0.015472 -0.005732 -0.001081 0.000000 0.000000 0.000000
# 2 -0.005732 0.015067 -0.000774 0.000000 0.000000 0.000000
# 3 -0.001081 -0.000774 0.014305 0.000000 0.000000 0.000000
# 4 0.000000 0.000000 0.000000 0.069372 0.000000 0.000000
# 5 0.000000 0.000000 0.000000 0.000000 0.144842 0.000000
# 6 0.000000 0.000000 0.000000 0.000000 0.000000 0.054006
#
#
# Mechanical properties :
#
#
# Convention : Reuss Voigt Hill
#
# Bulk Modulus (GPa) = 33.70486 34.52593 34.11540
# Shear Modulus (GPa) = 14.78736 20.07431 17.43083
#
# Velocity S-wave (km/s) = 2.82187 3.28786 3.06374
# Velocity P-wave (km/s) = 5.36352 5.74504 5.55755
#
# Compressibility (1/GPa) = 0.02966931
#
# Stress axis : x y z
#
# Youngs Moduli (GPa) = 64.63482 66.37215 69.90577
#
# Poissons Ratio (x) = 0.38044 0.07560
# Poissons Ratio (y) = 0.37048 0.05407
# Poissons Ratio (z) = 0.06990 0.05134
#
# Static dielectric constant tensor:
#      x y z
#    x 1.625760 0.000000 0.000000 
#    y 0.000000 1.644520 0.000000 
#    z 0.000000 0.000000 1.661610 
# 
# From -- ./inp_files/5653.got.cif
#   From: 2010.05.17/outbox.cif.g08.bks.cpg/sg36_3_cif.got.tgz:5653.got - 2010.06.03 17:41:39.
