data_PCOD9351548
_publ_section_title
;
Structure prediction by ZEFSAII (Michael W. Deem and Ramdas Pophale) SiO2 
 PCOD9351548
Probable space group: C M C 21
;
_chemical_formula_sum "Si O2"
_cell_formula_units_Z 64
_cell_length_a 8.803185
_cell_length_b 25.849211
_cell_length_c 14.797889
_cell_angle_alpha 90.000000
_cell_angle_beta 90.000000
_cell_angle_gamma 90.000000
_cell_volume 3367.339351
_symmetry_space_group_name_H-M "C M C 21"
_symmetry_group_IT_number 36
_symmetry_cell_setting 'orthorhombic'
loop_
_space_group_symop_operation_xyz
x,y,z
-x,-y,1/2+z
x,-y,1/2+z
-x,y,z
1/2+x,1/2+y,z
1/2-x,1/2-y,1/2+z
1/2+x,1/2-y,1/2+z
1/2-x,1/2+y,z
loop_
_atom_site_type_symbol
_atom_site_label
_atom_site_fract_x
_atom_site_fract_y
_atom_site_fract_z
Si Si1 0.316865 0.892418 0.447880
Si Si2 0.816404 0.352334 0.257841
Si Si3 0.816841 0.487333 0.572818
Si Si4 0.318132 0.760183 0.750190
Si Si5 0.325892 0.323845 0.595885
Si Si6 0.685219 0.894840 0.064566
Si Si7 0.826055 0.075605 0.227690
Si Si8 0.316971 0.855916 0.874949
O O1 0.500000 0.890454 0.453492
O O2 0.271873 0.887266 0.343625
O O3 0.267332 0.945230 0.497832
O O4 0.251111 0.844234 0.504743
O O5 0.753181 0.294959 0.270874
O O6 0.763360 0.373962 0.161387
O O7 0.000000 0.350319 0.256102
O O8 0.767871 0.545553 0.552350
O O9 0.756518 0.468397 0.669905
O O10 0.000000 0.486272 0.575522
O O11 0.500000 0.757484 0.750872
O O12 0.261675 0.780432 0.652473
O O13 0.269102 0.803541 0.823672
O O14 0.500000 0.308170 0.580200
O O15 0.324699 0.374204 0.661425
O O16 0.500000 0.894129 0.065538
O O17 0.733869 0.861319 0.978288
O O18 0.742786 0.095420 0.317159
O O19 0.000000 0.061883 0.246163
O O20 0.500000 0.857142 0.872372
#
# Coordination Sequence:
#
# PCOD9351548 Si02
#       8
#     8   8   8   8   8   8   8   8
#     4   9  18  32  51  77 107 138 175 218 261 310
#     4  10  21  36  52  75 109 143 175 214 262 315
#     4   9  17  32  55  79 104 137 176 217 261 307
#     4  10  20  34  53  78 107 139 176 219 267 314
#     4   9  17  31  53  77 101 132 172 217 262 310
#     4   9  19  35  55  79 105 137 178 219 258 306
#     4   9  17  30  50  78 107 133 167 211 260 311
#     4   9  18  34  55  77 102 135 179 223 259 305
#
# _framework density 19.006104000000001
#
# number of rings (size 3 to 8) (size 9 to 14) (size 15 to 20)
#    0.000    2.750    0.000    1.125    0.000    6.000 
#    0.000    6.875    0.000    3.000    0.000    0.000 
#    0.000    0.000    0.000    0.000    0.000    0.000 
#
# Total GULP energy -178446.282703 kJ/mol
# GULP energy per Si atom -5576.446334 kJ/mol
# Density = 1.896285 g / cm^3
# Si number density = 19.006104 Si / 1000 Ang^3
#
#
#
# Elastic Constant Matrix: (Units=GPa)
#
#
# Indices 1 2 3 4 5 6 
#
# 1 12.7326 15.1113 22.2102 0.0000 0.0000 0.0000
# 2 15.1113 89.7635 56.8578 0.0000 0.0000 0.0000
# 3 22.2102 56.8578 158.8066 0.0000 0.0000 0.0000
# 4 0.0000 0.0000 0.0000 21.1450 0.0000 0.0000
# 5 0.0000 0.0000 0.0000 0.0000 9.0251 0.0000
# 6 0.0000 0.0000 0.0000 0.0000 0.0000 19.4526
#
#
#
# Elastic Compliance Matrix: (Units=1/GPa)
#
#
# Indices 1 2 3 4 5 6 
#
# 1 0.112513 -0.011606 -0.011580 0.000000 0.000000 0.000000
# 2 -0.011606 0.015605 -0.003964 0.000000 0.000000 0.000000
# 3 -0.011580 -0.003964 0.009336 0.000000 0.000000 0.000000
# 4 0.000000 0.000000 0.000000 0.047293 0.000000 0.000000
# 5 0.000000 0.000000 0.000000 0.000000 0.110802 0.000000
# 6 0.000000 0.000000 0.000000 0.000000 0.000000 0.051407
#
#
# Mechanical properties :
#
#
# Convention : Reuss Voigt Hill
#
# Bulk Modulus (GPa) = 12.02600 49.96237 30.99419
# Shear Modulus (GPa) = 11.65574 21.06611 16.36093
#
# Velocity S-wave (km/s) = 2.47910 3.33286 2.93716
# Velocity P-wave (km/s) = 3.81258 6.41523 5.27688
#
# Compressibility (1/GPa) = 0.08315316
#
# Stress axis : x y z
#
# Youngs Moduli (GPa) = 8.88788 64.08203 107.11488
#
# Poissons Ratio (x) = 0.74373 1.24043
# Poissons Ratio (y) = 0.10315 0.42460
# Poissons Ratio (z) = 0.10293 0.25402
#
# Static dielectric constant tensor:
#      x y z
#    x 1.642190 0.000000 0.000000 
#    y 0.000000 1.659330 0.000000 
#    z 0.000000 0.000000 1.670130 
# 
# From -- ./inp_files/11111.got.cif
#   From: 2010.05.17/outbox.cif.g08.bks.cpg/sg36_6_cif.got.tgz:11111.got - 2010.06.03 17:41:39.
