data_PCOD9351104
_publ_section_title
;
Structure prediction by ZEFSAII (Michael W. Deem and Ramdas Pophale) SiO2 
 PCOD9351104
Probable space group: C M C 21
;
_chemical_formula_sum "Si O2"
_cell_formula_units_Z 60
_cell_length_a 24.635187
_cell_length_b 18.333074
_cell_length_c 5.597466
_cell_angle_alpha 90.000000
_cell_angle_beta 90.000000
_cell_angle_gamma 90.000000
_cell_volume 2528.032303
_symmetry_space_group_name_H-M "C M C 21"
_symmetry_group_IT_number 36
_symmetry_cell_setting 'orthorhombic'
loop_
_space_group_symop_operation_xyz
x,y,z
-x,-y,1/2+z
x,-y,1/2+z
-x,y,z
1/2+x,1/2+y,z
1/2-x,1/2-y,1/2+z
1/2+x,1/2-y,1/2+z
1/2-x,1/2+y,z
loop_
_atom_site_type_symbol
_atom_site_label
_atom_site_fract_x
_atom_site_fract_y
_atom_site_fract_z
Si Si1 0.186415 0.492560 0.688180
Si Si2 0.108184 0.833822 0.928211
Si Si3 0.364571 0.855639 0.213721
Si Si4 0.063953 0.139542 0.927725
Si Si5 0.356055 0.501264 0.433813
Si Si6 0.500000 0.043367 0.292504
Si Si7 0.720309 0.754298 0.377541
Si Si8 0.894931 0.639445 0.213077
O O1 0.215782 0.502147 0.438992
O O2 0.139610 0.556568 0.690799
O O3 0.155619 0.415985 0.685574
O O4 0.076495 0.820605 0.680007
O O5 0.113242 0.921704 0.935053
O O6 0.168867 0.800068 0.908504
O O7 0.080944 0.817070 0.185465
O O8 0.304400 0.829251 0.275559
O O9 0.399401 0.830557 0.443346
O O10 0.381194 0.821215 0.961216
O O11 0.000000 0.122552 0.914504
O O12 0.101333 0.066182 0.931916
O O13 0.325274 0.499425 0.683765
O O14 0.447806 0.093748 0.269572
O O15 0.500000 0.007123 0.555127
O O16 0.743831 0.768256 0.644855
#
# Coordination Sequence:
#
# PCOD9351104 Si02
#       8
#     8   8   8   8   8   4   8   8
#     4   8  14  27  49  77 105 136 171 221 283 350
#     4  10  21  37  59  89 125 157 206 258 301 348
#     4  10  20  37  59  79 111 147 196 250 311 350
#     4  10  19  34  63  97 130 167 199 233 303 395
#     4   8  16  29  52  86 122 156 184 233 293 353
#     4  12  20  30  54  94 128 162 200 230 274 364
#     4  12  26  45  68  85 106 158 227 273 313 370
#     4  10  19  33  57  87 119 155 188 236 296 362
#
# _framework density 23.733872999999999
#
# number of rings (size 3 to 8) (size 9 to 14) (size 15 to 20)
#    0.000    2.133    0.000    5.200    0.000    4.800 
#    0.000    0.000    8.800   43.200    0.000    0.000 
#    0.000    0.000    0.000    0.000    0.000    0.000 
#
# Total GULP energy -167190.005242 kJ/mol
# GULP energy per Si atom -5573.000175 kJ/mol
# Density = 2.367985 g / cm^3
# Si number density = 23.733873 Si / 1000 Ang^3
#
#
#
# Elastic Constant Matrix: (Units=GPa)
#
#
# Indices 1 2 3 4 5 6 
#
# 1 97.6506 10.2753 62.9036 0.0000 0.0000 0.0000
# 2 10.2753 53.3465 25.4950 0.0000 0.0000 0.0000
# 3 62.9036 25.4950 283.6689 0.0000 0.0000 0.0000
# 4 0.0000 0.0000 0.0000 38.5154 0.0000 0.0000
# 5 0.0000 0.0000 0.0000 0.0000 44.2720 0.0000
# 6 0.0000 0.0000 0.0000 0.0000 0.0000 21.2365
#
#
#
# Elastic Compliance Matrix: (Units=1/GPa)
#
#
# Indices 1 2 3 4 5 6 
#
# 1 0.012007 -0.001087 -0.002565 0.000000 0.000000 0.000000
# 2 -0.001087 0.019685 -0.001528 0.000000 0.000000 0.000000
# 3 -0.002565 -0.001528 0.004231 0.000000 0.000000 0.000000
# 4 0.000000 0.000000 0.000000 0.025964 0.000000 0.000000
# 5 0.000000 0.000000 0.000000 0.000000 0.022588 0.000000
# 6 0.000000 0.000000 0.000000 0.000000 0.000000 0.047089
#
#
# Mechanical properties :
#
#
# Convention : Reuss Voigt Hill
#
# Bulk Modulus (GPa) = 39.11822 70.22374 54.67098
# Shear Modulus (GPa) = 33.23474 43.20425 38.21949
#
# Velocity S-wave (km/s) = 3.74613 4.27120 4.01725
# Velocity P-wave (km/s) = 5.93541 7.34686 6.67853
#
# Compressibility (1/GPa) = 0.02556354
#
# Stress axis : x y z
#
# Youngs Moduli (GPa) = 83.28334 50.79994 236.33109
#
# Poissons Ratio (x) = 0.05522 0.60617
# Poissons Ratio (y) = 0.09053 0.36116
# Poissons Ratio (z) = 0.21361 0.07763
#
# Static dielectric constant tensor:
#      x y z
#    x 1.807450 0.000000 0.000000 
#    y 0.000000 1.946850 0.000000 
#    z 0.000000 0.000000 2.068750 
# 
# From -- ./inp_files/1625.got.cif
#   From: 2010.05.17/outbox.cif.g08.bks.cpg/sg36_1_cif.got.tgz:1625.got - 2010.06.03 17:41:39.
