data_PCOD9351816
_publ_section_title
;
Structure prediction by ZEFSAII (Michael W. Deem and Ramdas Pophale) SiO2 
 PCOD9351816
Probable space group: C M C 21
;
_chemical_formula_sum "Si O2"
_cell_formula_units_Z 64
_cell_length_a 8.014243
_cell_length_b 18.402173
_cell_length_c 21.159083
_cell_angle_alpha 90.000000
_cell_angle_beta 90.000000
_cell_angle_gamma 90.000000
_cell_volume 3120.530688
_symmetry_space_group_name_H-M "C M C 21"
_symmetry_group_IT_number 36
_symmetry_cell_setting 'orthorhombic'
loop_
_space_group_symop_operation_xyz
x,y,z
-x,-y,1/2+z
x,-y,1/2+z
-x,y,z
1/2+x,1/2+y,z
1/2-x,1/2-y,1/2+z
1/2+x,1/2-y,1/2+z
1/2-x,1/2+y,z
loop_
_atom_site_type_symbol
_atom_site_label
_atom_site_fract_x
_atom_site_fract_y
_atom_site_fract_z
Si Si1 0.295651 0.918007 0.722330
Si Si2 0.197916 0.330647 0.844583
Si Si3 0.201761 0.414726 0.221579
Si Si4 0.799101 0.166196 0.849662
Si Si5 0.803258 0.336421 0.093851
Si Si6 0.301377 0.829521 0.598584
Si Si7 0.797408 0.081538 0.974721
Si Si8 0.804318 0.084579 0.467805
O O1 0.500000 0.919160 0.722592
O O2 0.236498 0.877107 0.785463
O O3 0.243137 0.873763 0.660278
O O4 0.240869 0.001671 0.720633
O O5 0.266579 0.248796 0.848197
O O6 0.223003 0.372621 0.909927
O O7 0.000000 0.323555 0.833667
O O8 0.256436 0.374907 0.285261
O O9 0.259664 0.372088 0.159056
O O10 0.000000 0.414679 0.220699
O O11 0.739675 0.122286 0.911166
O O12 0.000000 0.169320 0.854887
O O13 0.776732 0.250219 0.094915
O O14 0.000000 0.351770 0.088845
O O15 0.720337 0.372464 0.032875
O O16 0.500000 0.819898 0.603878
O O17 0.262460 0.875635 0.536203
O O18 0.000000 0.081789 0.975842
O O19 0.740176 0.997871 0.974468
O O20 0.000000 0.080178 0.453270
#
# Coordination Sequence:
#
# PCOD9351816 Si02
#       8
#     8   8   8   8   8   8   8   8
#     4   9  19  36  57  84 115 147 188 234 282 339
#     4  10  20  36  59  83 113 153 190 232 290 346
#     4  10  21  37  58  83 112 148 190 235 281 337
#     4  10  21  37  57  82 114 151 187 231 290 344
#     4  11  23  39  58  82 115 152 190 237 293 343
#     4  11  22  38  62  88 114 148 192 237 282 342
#     4  10  22  39  57  83 120 155 189 234 287 341
#     4  11  23  38  58  85 115 150 196 242 281 334
#
# _framework density 20.509331
#
# number of rings (size 3 to 8) (size 9 to 14) (size 15 to 20)
#    0.000    1.750    0.000    4.125    0.000    6.000 
#    0.000    2.500    0.000    0.000    0.000    0.000 
#    0.000    0.000    0.000    0.000    0.000    0.000 
#
# Total GULP energy -178909.330708 kJ/mol
# GULP energy per Si atom -5590.916585 kJ/mol
# Density = 2.046265 g / cm^3
# Si number density = 20.509331 Si / 1000 Ang^3
#
#
#
# Elastic Constant Matrix: (Units=GPa)
#
#
# Indices 1 2 3 4 5 6 
#
# 1 8.8367 -11.2785 -18.8882 0.0000 0.0000 0.0000
# 2 -11.2785 181.5357 81.9384 0.0000 0.0000 0.0000
# 3 -18.8882 81.9384 167.9056 0.0000 0.0000 0.0000
# 4 0.0000 0.0000 0.0000 44.1910 0.0000 0.0000
# 5 0.0000 0.0000 0.0000 0.0000 -5.3353 0.0000
# 6 0.0000 0.0000 0.0000 0.0000 0.0000 17.2855
#
#
#
# Elastic Compliance Matrix: (Units=1/GPa)
#
#
# Indices 1 2 3 4 5 6 
#
# 1 0.149659 0.002179 0.015772 0.000000 0.000000 0.000000
# 2 0.002179 0.007096 -0.003218 0.000000 0.000000 0.000000
# 3 0.015772 -0.003218 0.009300 0.000000 0.000000 0.000000
# 4 0.000000 0.000000 0.000000 0.022629 0.000000 0.000000
# 5 0.000000 0.000000 0.000000 0.000000 -0.187431 0.000000
# 6 0.000000 0.000000 0.000000 0.000000 0.000000 0.057852
#
#
# Mechanical properties :
#
#
# Convention : Reuss Voigt Hill
#
# Bulk Modulus (GPa) = 5.11451 51.31349 28.21400
# Shear Modulus (GPa) = 52.73522 31.66198 42.19860
#
# Velocity S-wave (km/s) = 5.07628 3.93336 4.54092
# Velocity P-wave (km/s) = 6.07102 6.76035 6.42494
#
# Compressibility (1/GPa) = 0.19552200
#
# Stress axis : x y z
#
# Youngs Moduli (GPa) = 6.68187 140.91673 107.52298
#
# Poissons Ratio (x) = -0.30707 -1.69587
# Poissons Ratio (y) = -0.01456 0.34600
# Poissons Ratio (z) = -0.10539 0.45346
#
# Static dielectric constant tensor:
#      x y z
#    x 1.733980 0.000000 0.000000 
#    y 0.000000 1.704600 0.000000 
#    z 0.000000 0.000000 1.678130 
# 
# From -- ./inp_files/15734.got.cif
#   From: 2010.05.17/outbox.cif.g08.bks.cpg/sg36_8_cif.got.tgz:15734.got - 2010.06.03 17:41:39.
