data_PCOD9351464
_publ_section_title
;
Structure prediction by ZEFSAII (Michael W. Deem and Ramdas Pophale) SiO2 
 PCOD9351464
Probable space group: C M C 21
;
_chemical_formula_sum "Si O2"
_cell_formula_units_Z 64
_cell_length_a 9.023384
_cell_length_b 13.950317
_cell_length_c 21.749761
_cell_angle_alpha 90.000000
_cell_angle_beta 90.000000
_cell_angle_gamma 90.000000
_cell_volume 2737.839627
_symmetry_space_group_name_H-M "C M C 21"
_symmetry_group_IT_number 36
_symmetry_cell_setting 'orthorhombic'
loop_
_space_group_symop_operation_xyz
x,y,z
-x,-y,1/2+z
x,-y,1/2+z
-x,y,z
1/2+x,1/2+y,z
1/2-x,1/2-y,1/2+z
1/2+x,1/2-y,1/2+z
1/2-x,1/2+y,z
loop_
_atom_site_type_symbol
_atom_site_label
_atom_site_fract_x
_atom_site_fract_y
_atom_site_fract_z
Si Si1 0.323574 0.281652 0.089380
Si Si2 0.828530 0.241506 0.213031
Si Si3 0.329772 0.442010 0.491309
Si Si4 0.823345 0.599228 0.865846
Si Si5 0.332897 0.335095 0.959594
Si Si6 0.830333 0.527372 0.741203
Si Si7 0.825538 0.008267 0.119834
Si Si8 0.326755 0.204298 0.335259
O O1 0.500000 0.261819 0.090380
O O2 0.242063 0.230212 0.145660
O O3 0.304115 0.394846 0.105866
O O4 0.271510 0.274786 0.017984
O O5 0.822774 0.356707 0.228505
O O6 0.746526 0.188119 0.268824
O O7 0.000000 0.214587 0.212303
O O8 0.500000 0.402643 0.485361
O O9 0.219610 0.416277 0.436350
O O10 0.346138 0.556543 0.482557
O O11 0.266785 0.433615 0.560554
O O12 0.792798 0.518357 0.813731
O O13 0.714325 0.684577 0.847103
O O14 0.000000 0.619900 0.859424
O O15 0.500000 0.299943 0.945907
O O16 0.240943 0.338905 0.897393
O O17 0.736454 0.478764 0.687830
O O18 0.000000 0.498063 0.732644
O O19 0.000000 0.026182 0.119679
O O20 0.500000 0.186672 0.332210
#
# Coordination Sequence:
#
# PCOD9351464 Si02
#       8
#     8   8   8   8   8   8   8   8
#     4   8  14  26  45  68  93 122 155 192 236 285
#     4   9  16  27  44  67  95 123 155 198 242 282
#     4   9  18  32  50  73  99 127 158 193 236 287
#     4  10  20  33  49  71  99 129 161 199 243 287
#     4   9  18  33  51  72 101 131 159 197 244 290
#     4   8  15  26  41  64  91 119 153 192 233 276
#     4   8  14  25  43  67  92 118 151 190 230 274
#     4  11  21  32  49  72  98 129 166 203 240 287
#
# _framework density 23.376094999999999
#
# number of rings (size 3 to 8) (size 9 to 14) (size 15 to 20)
#    0.000    3.000    0.000    4.125    0.000    5.000 
#    0.000    2.500    0.000    1.500    0.000    7.000 
#    0.000    0.000    0.000    0.000    0.000    0.000 
#
# Total GULP energy -178601.195275 kJ/mol
# GULP energy per Si atom -5581.287352 kJ/mol
# Density = 2.332289 g / cm^3
# Si number density = 23.376095 Si / 1000 Ang^3
#
#
#
# Elastic Constant Matrix: (Units=GPa)
#
#
# Indices 1 2 3 4 5 6 
#
# 1 76.7167 8.1183 92.8956 0.0000 0.0000 0.0000
# 2 8.1183 38.6955 38.2230 0.0000 0.0000 0.0000
# 3 92.8956 38.2230 257.8703 0.0000 0.0000 0.0000
# 4 0.0000 0.0000 0.0000 45.8124 0.0000 0.0000
# 5 0.0000 0.0000 0.0000 0.0000 39.3177 0.0000
# 6 0.0000 0.0000 0.0000 0.0000 0.0000 7.1772
#
#
#
# Elastic Compliance Matrix: (Units=1/GPa)
#
#
# Indices 1 2 3 4 5 6 
#
# 1 0.023649 0.004046 -0.009119 0.000000 0.000000 0.000000
# 2 0.004046 0.030968 -0.006048 0.000000 0.000000 0.000000
# 3 -0.009119 -0.006048 0.008059 0.000000 0.000000 0.000000
# 4 0.000000 0.000000 0.000000 0.021828 0.000000 0.000000
# 5 0.000000 0.000000 0.000000 0.000000 0.025434 0.000000
# 6 0.000000 0.000000 0.000000 0.000000 0.000000 0.139330
#
#
# Mechanical properties :
#
#
# Convention : Reuss Voigt Hill
#
# Bulk Modulus (GPa) = 24.73114 72.41736 48.57425
# Shear Modulus (GPa) = 17.54460 34.06450 25.80455
#
# Velocity S-wave (km/s) = 2.74256 3.82152 3.32608
# Velocity P-wave (km/s) = 4.54219 7.10764 5.96448
#
# Compressibility (1/GPa) = 0.04043485
#
# Stress axis : x y z
#
# Youngs Moduli (GPa) = 42.28497 32.29151 124.07795
#
# Poissons Ratio (x) = -0.13066 1.13148
# Poissons Ratio (y) = -0.17109 0.75040
# Poissons Ratio (z) = 0.38560 0.19529
#
# Static dielectric constant tensor:
#      x y z
#    x 1.780750 0.000000 0.000000 
#    y 0.000000 2.013370 0.000000 
#    z 0.000000 0.000000 1.939500 
# 
# From -- ./inp_files/14073.got.cif
#   From: 2010.05.17/outbox.cif.g08.bks.cpg/sg36_8_cif.got.tgz:14073.got - 2010.06.03 17:41:39.
