data_PCOD9351960
_publ_section_title
;
Structure prediction by ZEFSAII (Michael W. Deem and Ramdas Pophale) SiO2 
 PCOD9351960
Probable space group: C M C 21
;
_chemical_formula_sum "Si O2"
_cell_formula_units_Z 64
_cell_length_a 7.983745
_cell_length_b 24.408711
_cell_length_c 15.769509
_cell_angle_alpha 90.000000
_cell_angle_beta 90.000000
_cell_angle_gamma 90.000000
_cell_volume 3073.050335
_symmetry_space_group_name_H-M "C M C 21"
_symmetry_group_IT_number 36
_symmetry_cell_setting 'orthorhombic'
loop_
_space_group_symop_operation_xyz
x,y,z
-x,-y,1/2+z
x,-y,1/2+z
-x,y,z
1/2+x,1/2+y,z
1/2-x,1/2-y,1/2+z
1/2+x,1/2-y,1/2+z
1/2-x,1/2+y,z
loop_
_atom_site_type_symbol
_atom_site_label
_atom_site_fract_x
_atom_site_fract_y
_atom_site_fract_z
Si Si1 0.796072 0.996348 0.392550
Si Si2 0.302967 0.384896 0.820780
Si Si3 0.297199 0.224262 0.397598
Si Si4 0.692462 0.503897 0.584449
Si Si5 0.794367 0.079936 0.738127
Si Si6 0.297619 0.293260 0.233637
Si Si7 0.699674 0.278397 0.571383
Si Si8 0.186928 0.608729 0.138294
O O1 0.754488 0.055341 0.353253
O O2 0.000000 0.991520 0.395976
O O3 0.733831 0.997075 0.489769
O O4 0.739962 0.950059 0.325476
O O5 0.500000 0.385492 0.801321
O O6 0.266506 0.337310 0.887127
O O7 0.206006 0.371698 0.734817
O O8 0.500000 0.223180 0.397164
O O9 0.241033 0.260591 0.317410
O O10 0.240144 0.250646 0.485142
O O11 0.500000 0.521924 0.571870
O O12 0.763550 0.545451 0.655275
O O13 0.696065 0.443288 0.624125
O O14 0.742535 0.143331 0.733851
O O15 0.000000 0.078162 0.738031
O O16 0.500000 0.293679 0.234637
O O17 0.242085 0.259899 0.151087
O O18 0.500000 0.284565 0.567514
O O19 0.773480 0.338818 0.582170
O O20 0.000000 0.588844 0.122620
#
# Coordination Sequence:
#
# PCOD9351960 Si02
#       8
#     8   8   8   8   8   8   8   8
#     4   9  19  34  59  91 115 147 197 245 286 344
#     4  11  21  38  65  91 117 154 204 252 299 360
#     4  10  23  40  59  88 123 159 198 245 305 359
#     4  10  20  37  62  88 117 154 200 245 291 354
#     4   9  18  34  57  86 118 153 194 237 287 350
#     4  10  21  38  61  87 120 158 197 248 303 353
#     4  11  24  41  62  88 119 161 205 247 300 364
#     4  12  24  40  61  87 121 158 201 255 307 352
#
# _framework density 20.826212000000002
#
# number of rings (size 3 to 8) (size 9 to 14) (size 15 to 20)
#    0.000    1.750    2.500    1.875    3.500    1.000 
#    0.000    1.875    0.000    0.000    0.000    0.000 
#    0.000    0.000    0.000    0.000    0.000    0.000 
#
# Total GULP energy -178738.965839 kJ/mol
# GULP energy per Si atom -5585.592682 kJ/mol
# Density = 2.077881 g / cm^3
# Si number density = 20.826212 Si / 1000 Ang^3
#
#
#
# Elastic Constant Matrix: (Units=GPa)
#
#
# Indices 1 2 3 4 5 6 
#
# 1 23.5215 1.2003 5.6315 0.0000 0.0000 0.0000
# 2 1.2003 69.3092 -4.2255 0.0000 0.0000 0.0000
# 3 5.6315 -4.2255 90.2165 0.0000 0.0000 0.0000
# 4 0.0000 0.0000 0.0000 34.7360 0.0000 0.0000
# 5 0.0000 0.0000 0.0000 0.0000 14.9329 0.0000
# 6 0.0000 0.0000 0.0000 0.0000 0.0000 7.6615
#
#
#
# Elastic Compliance Matrix: (Units=1/GPa)
#
#
# Indices 1 2 3 4 5 6 
#
# 1 0.043217 -0.000915 -0.002741 0.000000 0.000000 0.000000
# 2 -0.000915 0.014489 0.000736 0.000000 0.000000 0.000000
# 3 -0.002741 0.000736 0.011290 0.000000 0.000000 0.000000
# 4 0.000000 0.000000 0.000000 0.028789 0.000000 0.000000
# 5 0.000000 0.000000 0.000000 0.000000 0.066966 0.000000
# 6 0.000000 0.000000 0.000000 0.000000 0.000000 0.130523
#
#
# Mechanical properties :
#
#
# Convention : Reuss Voigt Hill
#
# Bulk Modulus (GPa) = 15.83397 20.91776 18.37586
# Shear Modulus (GPa) = 15.51996 23.49546 19.50771
#
# Velocity S-wave (km/s) = 2.73282 3.36246 3.06386
# Velocity P-wave (km/s) = 4.19251 5.01405 4.62157
#
# Compressibility (1/GPa) = 0.06315534
#
# Stress axis : x y z
#
# Youngs Moduli (GPa) = 23.13892 69.01874 88.57413
#
# Poissons Ratio (x) = 0.06319 0.24275
# Poissons Ratio (y) = 0.02118 -0.06517
# Poissons Ratio (z) = 0.06341 -0.05078
#
# Static dielectric constant tensor:
#      x y z
#    x 1.762350 0.000000 0.000000 
#    y 0.000000 1.705580 0.000000 
#    z 0.000000 0.000000 1.751580 
# 
# From -- ./inp_files/10949.got.cif
#   From: 2010.05.17/outbox.cif.g08.bks.cpg/sg36_6_cif.got.tgz:10949.got - 2010.06.03 17:41:39.
