data_PCOD9351177
_publ_section_title
;
Structure prediction by ZEFSAII (Michael W. Deem and Ramdas Pophale) SiO2 
 PCOD9351177
Probable space group: C M C 21
;
_chemical_formula_sum "Si O2"
_cell_formula_units_Z 48
_cell_length_a 7.676486
_cell_length_b 20.734377
_cell_length_c 14.537995
_cell_angle_alpha 90.000000
_cell_angle_beta 90.000000
_cell_angle_gamma 90.000000
_cell_volume 2313.971300
_symmetry_space_group_name_H-M "C M C 21"
_symmetry_group_IT_number 36
_symmetry_cell_setting 'orthorhombic'
loop_
_space_group_symop_operation_xyz
x,y,z
-x,-y,1/2+z
x,-y,1/2+z
-x,y,z
1/2+x,1/2+y,z
1/2-x,1/2-y,1/2+z
1/2+x,1/2-y,1/2+z
1/2-x,1/2+y,z
loop_
_atom_site_type_symbol
_atom_site_label
_atom_site_fract_x
_atom_site_fract_y
_atom_site_fract_z
Si Si1 0.713849 0.944270 0.125000
Si Si2 0.795809 0.395031 0.322336
Si Si3 0.287255 0.183182 0.522493
Si Si4 0.701010 0.752746 0.836830
Si Si5 0.207029 0.801182 0.648068
Si Si6 0.790188 0.425355 0.526135
O O1 0.500000 0.944429 0.127378
O O2 0.774714 0.927044 0.228579
O O3 0.768564 0.886528 0.057196
O O4 0.771386 0.011949 0.081937
O O5 0.783805 0.317108 0.317763
O O6 0.722922 0.417684 0.421302
O O7 0.000000 0.411666 0.323580
O O8 0.500000 0.181657 0.519913
O O9 0.225341 0.209482 0.424495
O O10 0.233827 0.236635 0.596329
O O11 0.500000 0.737701 0.857160
O O12 0.712727 0.798661 0.748793
O O13 0.248568 0.861894 0.584814
O O14 0.000000 0.797459 0.659507
O O15 0.000000 0.429778 0.520330
#
# Coordination Sequence:
#
# PCOD9351177 Si02
#       6
#     8   8   8   8   8   8
#     4   9  18  35  57  82 113 150 190 232 281 338
#     4  10  19  34  57  83 113 152 191 233 289 342
#     4   9  18  33  56  82 108 144 186 229 278 330
#     4  11  21  34  57  88 114 146 192 238 280 334
#     4  11  21  37  58  82 114 150 185 230 287 338
#     4  10  21  35  57  87 114 146 192 240 281 336
#
# _framework density 20.743559000000001
#
# number of rings (size 3 to 8) (size 9 to 14) (size 15 to 20)
#    0.000    2.000    3.333    1.000    0.000    1.333 
#    0.000    5.833    0.000    2.000    0.000    0.000 
#    0.000    0.000    0.000    0.000    0.000    0.000 
#
# Total GULP energy -133991.679850 kJ/mol
# GULP energy per Si atom -5582.986660 kJ/mol
# Density = 2.069635 g / cm^3
# Si number density = 20.743559 Si / 1000 Ang^3
#
#
#
# Elastic Constant Matrix: (Units=GPa)
#
#
# Indices 1 2 3 4 5 6 
#
# 1 35.5232 -6.0572 -2.1074 0.0000 0.0000 0.0000
# 2 -6.0572 100.1065 25.1324 0.0000 0.0000 0.0000
# 3 -2.1074 25.1324 133.1159 0.0000 0.0000 0.0000
# 4 0.0000 0.0000 0.0000 33.0983 0.0000 0.0000
# 5 0.0000 0.0000 0.0000 0.0000 7.0873 0.0000
# 6 0.0000 0.0000 0.0000 0.0000 0.0000 11.9499
#
#
#
# Elastic Compliance Matrix: (Units=1/GPa)
#
#
# Indices 1 2 3 4 5 6 
#
# 1 0.028446 0.001688 0.000132 0.000000 0.000000 0.000000
# 2 0.001688 0.010587 -0.001972 0.000000 0.000000 0.000000
# 3 0.000132 -0.001972 0.007887 0.000000 0.000000 0.000000
# 4 0.000000 0.000000 0.000000 0.030213 0.000000 0.000000
# 5 0.000000 0.000000 0.000000 0.000000 0.141097 0.000000
# 6 0.000000 0.000000 0.000000 0.000000 0.000000 0.083683
#
#
# Mechanical properties :
#
#
# Convention : Reuss Voigt Hill
#
# Bulk Modulus (GPa) = 21.45229 33.63123 27.54176
# Shear Modulus (GPa) = 15.73541 27.21230 21.47386
#
# Velocity S-wave (km/s) = 2.75720 3.62587 3.22095
# Velocity P-wave (km/s) = 4.52773 5.81182 5.20949
#
# Compressibility (1/GPa) = 0.04661506
#
# Stress axis : x y z
#
# Youngs Moduli (GPa) = 35.15399 94.45902 126.79647
#
# Poissons Ratio (x) = -0.15946 -0.01669
# Poissons Ratio (y) = -0.05935 0.25005
# Poissons Ratio (z) = -0.00463 0.18628
#
# Static dielectric constant tensor:
#      x y z
#    x 1.789820 0.000000 0.000000 
#    y 0.000000 1.685810 0.000000 
#    z 0.000000 0.000000 1.747880 
# 
# From -- ./inp_files/10336.got.cif
#   From: 2010.05.17/outbox.cif.g08.bks.cpg/sg36_6_cif.got.tgz:10336.got - 2010.06.03 17:41:39.
