data_PCOD9351433
_publ_section_title
;
Structure prediction by ZEFSAII (Michael W. Deem and Ramdas Pophale) SiO2 
 PCOD9351433
Probable space group: C M C 21
;
_chemical_formula_sum "Si O2"
_cell_formula_units_Z 48
_cell_length_a 7.320710
_cell_length_b 24.453810
_cell_length_c 12.491170
_cell_angle_alpha 90.000000
_cell_angle_beta 90.000000
_cell_angle_gamma 90.000000
_cell_volume 2236.159903
_symmetry_space_group_name_H-M "C M C 21"
_symmetry_group_IT_number 36
_symmetry_cell_setting 'orthorhombic'
loop_
_space_group_symop_operation_xyz
x,y,z
-x,-y,1/2+z
x,-y,1/2+z
-x,y,z
1/2+x,1/2+y,z
1/2-x,1/2-y,1/2+z
1/2+x,1/2-y,1/2+z
1/2-x,1/2+y,z
loop_
_atom_site_type_symbol
_atom_site_label
_atom_site_fract_x
_atom_site_fract_y
_atom_site_fract_z
Si Si1 0.787619 0.162646 0.500000
Si Si2 0.776266 0.081400 0.316663
Si Si3 0.221945 0.040626 0.875590
Si Si4 0.277606 0.609905 0.077590
Si Si5 0.722833 0.355374 0.238984
Si Si6 0.220173 0.213222 0.940767
O O1 0.713026 0.124158 0.406426
O O2 0.710935 0.154304 0.619001
O O3 0.778267 0.225786 0.466826
O O4 0.000000 0.147021 0.508861
O O5 0.716989 0.098122 0.197620
O O6 0.000000 0.081917 0.314725
O O7 0.718669 0.020170 0.347422
O O8 0.276207 0.086082 0.788280
O O9 0.000000 0.040015 0.876066
O O10 0.278215 0.063842 0.991452
O O11 0.500000 0.609975 0.078139
O O12 0.220815 0.668368 0.028731
O O13 0.500000 0.354050 0.238549
O O14 0.780067 0.309500 0.325013
O O15 0.000000 0.212965 0.940876
#
# Coordination Sequence:
#
# PCOD9351433 Si02
#       6
#     8   8   8   8   8   8
#     4  10  20  30  45  72  97 115 148 196 229 257
#     4   9  17  25  40  67  94 115 143 189 233 264
#     4   8  14  25  42  62  90 123 145 175 231 283
#     4   8  15  27  42  62  87 118 154 184 218 270
#     4   8  16  30  45  64  93 124 150 181 228 278
#     4   9  18  33  49  63  89 129 158 179 219 276
#
# _framework density 21.46537
#
# number of rings (size 3 to 8) (size 9 to 14) (size 15 to 20)
#    0.000    3.333    0.000    2.000    4.667    0.000 
#    0.000    0.000    0.000    0.000    0.000    5.833 
#    0.000    0.000    0.000    0.000    0.000    0.000 
#
# Total GULP energy -133984.690038 kJ/mol
# GULP energy per Si atom -5582.695418 kJ/mol
# Density = 2.141651 g / cm^3
# Si number density = 21.465370 Si / 1000 Ang^3
#
#
#
# Elastic Constant Matrix: (Units=GPa)
#
#
# Indices 1 2 3 4 5 6 
#
# 1 82.4696 -7.3718 6.2101 0.0000 0.0000 0.0000
# 2 -7.3718 176.1564 145.9504 0.0000 0.0000 0.0000
# 3 6.2101 145.9504 255.4374 0.0000 0.0000 0.0000
# 4 0.0000 0.0000 0.0000 16.9217 0.0000 0.0000
# 5 0.0000 0.0000 0.0000 0.0000 -13.3182 0.0000
# 6 0.0000 0.0000 0.0000 0.0000 0.0000 12.3090
#
#
#
# Elastic Compliance Matrix: (Units=1/GPa)
#
#
# Indices 1 2 3 4 5 6 
#
# 1 0.012341 0.001453 -0.001130 0.000000 0.000000 0.000000
# 2 0.001453 0.010951 -0.006292 0.000000 0.000000 0.000000
# 3 -0.001130 -0.006292 0.007538 0.000000 0.000000 0.000000
# 4 0.000000 0.000000 0.000000 0.059096 0.000000 0.000000
# 5 0.000000 0.000000 0.000000 0.000000 -0.075085 0.000000
# 6 0.000000 0.000000 0.000000 0.000000 0.000000 0.081241
#
#
# Mechanical properties :
#
#
# Convention : Reuss Voigt Hill
#
# Bulk Modulus (GPa) = 52.93878 89.29341 71.11610
# Shear Modulus (GPa) = 43.73792 27.80081 35.76937
#
# Velocity S-wave (km/s) = 4.51888 3.60272 4.08655
# Velocity P-wave (km/s) = 7.20715 7.68084 7.44776
#
# Compressibility (1/GPa) = 0.01888974
#
# Stress axis : x y z
#
# Youngs Moduli (GPa) = 81.03311 91.31543 132.66676
#
# Poissons Ratio (x) = -0.13266 0.14992
# Poissons Ratio (y) = -0.11772 0.83480
# Poissons Ratio (z) = 0.09157 0.57460
#
# Static dielectric constant tensor:
#      x y z
#    x 1.868450 0.000000 0.000000 
#    y 0.000000 1.712980 0.000000 
#    z 0.000000 0.000000 1.746760 
# 
# From -- ./inp_files/6713.got.cif
#   From: 2010.05.17/outbox.cif.g08.bks.cpg/sg36_4_cif.got.tgz:6713.got - 2010.06.03 17:41:39.
