data_PCOD9351717
_publ_section_title
;
Structure prediction by ZEFSAII (Michael W. Deem and Ramdas Pophale) SiO2 
 PCOD9351717
Probable space group: C M C 21
;
_chemical_formula_sum "Si O2"
_cell_formula_units_Z 56
_cell_length_a 11.563573
_cell_length_b 14.309334
_cell_length_c 14.302057
_cell_angle_alpha 90.000000
_cell_angle_beta 90.000000
_cell_angle_gamma 90.000000
_cell_volume 2366.518870
_symmetry_space_group_name_H-M "C M C 21"
_symmetry_group_IT_number 36
_symmetry_cell_setting 'orthorhombic'
loop_
_space_group_symop_operation_xyz
x,y,z
-x,-y,1/2+z
x,-y,1/2+z
-x,y,z
1/2+x,1/2+y,z
1/2-x,1/2-y,1/2+z
1/2+x,1/2-y,1/2+z
1/2-x,1/2+y,z
loop_
_atom_site_type_symbol
_atom_site_label
_atom_site_fract_x
_atom_site_fract_y
_atom_site_fract_z
Si Si1 0.634215 0.834907 0.810470
Si Si2 0.627402 0.242186 0.491421
Si Si3 0.626474 0.944591 0.547113
Si Si4 0.628799 0.538475 0.549205
Si Si5 0.319239 0.257895 0.122940
Si Si6 0.873652 0.928620 0.368278
Si Si7 0.372028 0.048371 0.820450
O O1 0.500000 0.808447 0.822481
O O2 0.689056 0.819895 0.912056
O O3 0.676311 0.767039 0.730891
O O4 0.634481 0.942407 0.783483
O O5 0.500000 0.206128 0.506291
O O6 0.688772 0.241074 0.588648
O O7 0.627757 0.343793 0.443441
O O8 0.500000 0.981748 0.579765
O O9 0.747708 0.991834 0.580257
O O10 0.625070 0.953458 0.434262
O O11 0.629502 0.834851 0.573121
O O12 0.500000 0.499600 0.578093
O O13 0.630300 0.644945 0.585650
O O14 0.630560 0.519120 0.436551
O O15 0.759719 0.917006 0.304949
O O16 0.000000 0.926779 0.320511
O O17 0.500000 0.087276 0.792705
#
# Coordination Sequence:
#
# PCOD9351717 Si02
#       7
#     8   8   8   8   8   8   8
#     4  10  22  39  62  95 132 174 224 275 340 414
#     4  10  20  38  64  92 130 177 220 273 344 408
#     4  10  20  37  62  92 124 168 218 269 332 396
#     4  10  20  35  57  91 128 162 212 273 327 387
#     4  12  22  39  68  96 128 175 230 276 328 405
#     4   9  17  34  58  87 122 165 210 259 327 393
#     4   9  17  34  57  83 119 159 207 263 317 379
#
# _framework density 23.663450000000001
#
# number of rings (size 3 to 8) (size 9 to 14) (size 15 to 20)
#    0.000    2.000    2.857    3.000    0.000    1.714 
#    2.571    0.714    0.000    3.429    0.000    0.000 
#    0.000    0.000    0.000    0.000    0.000    0.000 
#
# Total GULP energy -156023.630690 kJ/mol
# GULP energy per Si atom -5572.272525 kJ/mol
# Density = 2.360959 g / cm^3
# Si number density = 23.663450 Si / 1000 Ang^3
#
#
#
# Elastic Constant Matrix: (Units=GPa)
#
#
# Indices 1 2 3 4 5 6 
#
# 1 221.3365 37.3667 28.0647 0.0000 0.0000 0.0000
# 2 37.3667 106.1277 7.3104 0.0000 0.0000 0.0000
# 3 28.0647 7.3104 16.2264 0.0000 0.0000 0.0000
# 4 0.0000 0.0000 0.0000 25.8986 0.0000 0.0000
# 5 0.0000 0.0000 0.0000 0.0000 -33.5046 0.0000
# 6 0.0000 0.0000 0.0000 0.0000 0.0000 14.1776
#
#
#
# Elastic Compliance Matrix: (Units=1/GPa)
#
#
# Indices 1 2 3 4 5 6 
#
# 1 0.005993 -0.001441 -0.009717 0.000000 0.000000 0.000000
# 2 -0.001441 0.010071 -0.002045 0.000000 0.000000 0.000000
# 3 -0.009717 -0.002045 0.079355 0.000000 0.000000 0.000000
# 4 0.000000 0.000000 0.000000 0.038612 0.000000 0.000000
# 5 0.000000 0.000000 0.000000 0.000000 -0.029847 0.000000
# 6 0.000000 0.000000 0.000000 0.000000 0.000000 0.070534
#
#
# Mechanical properties :
#
#
# Convention : Reuss Voigt Hill
#
# Bulk Modulus (GPa) = 14.48988 54.35270 34.42129
# Shear Modulus (GPa) = 22.30871 19.37758 20.84314
#
# Velocity S-wave (km/s) = 3.07375 2.86472 2.97107
# Velocity P-wave (km/s) = 4.32827 5.82761 5.13298
#
# Compressibility (1/GPa) = 0.06901370
#
# Stress axis : x y z
#
# Youngs Moduli (GPa) = 166.85288 99.29695 12.60164
#
# Poissons Ratio (x) = 0.14307 0.12245
# Poissons Ratio (y) = 0.24041 0.02577
# Poissons Ratio (z) = 1.62126 0.20307
#
# Static dielectric constant tensor:
#      x y z
#    x 2.008180 0.000000 0.000000 
#    y 0.000000 1.929780 0.000000 
#    z 0.000000 0.000000 1.907430 
# 
# From -- ./inp_files/11600.got.cif
#   From: 2010.05.17/outbox.cif.g08.bks.cpg/sg36_6_cif.got.tgz:11600.got - 2010.06.03 17:41:39.
