data_PCOD9351427
_publ_section_title
;
Structure prediction by ZEFSAII (Michael W. Deem and Ramdas Pophale) SiO2 
 PCOD9351427
Probable space group: C M C 21
;
_chemical_formula_sum "Si O2"
_cell_formula_units_Z 56
_cell_length_a 13.834420
_cell_length_b 11.995322
_cell_length_c 15.485256
_cell_angle_alpha 90.000000
_cell_angle_beta 90.000000
_cell_angle_gamma 90.000000
_cell_volume 2569.752258
_symmetry_space_group_name_H-M "C M C 21"
_symmetry_group_IT_number 36
_symmetry_cell_setting 'orthorhombic'
loop_
_space_group_symop_operation_xyz
x,y,z
-x,-y,1/2+z
x,-y,1/2+z
-x,y,z
1/2+x,1/2+y,z
1/2-x,1/2-y,1/2+z
1/2+x,1/2-y,1/2+z
1/2-x,1/2+y,z
loop_
_atom_site_type_symbol
_atom_site_label
_atom_site_fract_x
_atom_site_fract_y
_atom_site_fract_z
Si Si1 0.323217 0.477106 0.229660
Si Si2 0.108915 0.220402 0.498189
Si Si3 0.663614 0.969635 0.499442
Si Si4 0.256469 0.370395 0.864206
Si Si5 0.196690 0.660644 0.611106
Si Si6 0.862244 0.896198 0.577010
Si Si7 0.395797 0.671267 0.883647
O O1 0.275106 0.589182 0.267919
O O2 0.238054 0.395273 0.196959
O O3 0.390075 0.514049 0.149145
O O4 0.377489 0.417323 0.308072
O O5 0.108276 0.354773 0.485812
O O6 0.142619 0.160017 0.410463
O O7 0.201801 0.188670 0.558860
O O8 0.000000 0.187283 0.524883
O O9 0.752349 0.931412 0.559179
O O10 0.705689 0.025004 0.412763
O O11 0.630246 0.075737 0.555290
O O12 0.188036 0.263648 0.878422
O O13 0.137345 0.773713 0.617012
O O14 0.898144 0.885198 0.478601
O O15 0.500000 0.726256 0.869823
#
# Coordination Sequence:
#
# PCOD9351427 Si02
#       7
#     8   8   8   8   8   8   8
#     4  11  23  38  65  95 124 174 208 264 319 385
#     4  10  20  35  62  92 123 160 205 264 315 374
#     4   9  16  35  62  85 120 156 207 251 309 377
#     4  11  20  41  61  91 129 164 215 258 318 382
#     4   9  19  38  62  90 126 162 214 253 321 381
#     4  10  19  40  64  90 123 167 210 261 318 378
#     4  12  25  41  64  95 131 171 217 267 318 377
#
# _framework density 21.791983999999999
#
# number of rings (size 3 to 8) (size 9 to 14) (size 15 to 20)
#    0.000    1.714    5.714    0.857    0.000    2.286 
#    0.000    0.000    0.000    0.857    0.000    0.000 
#    0.000    0.000    0.000    0.000    0.000    0.000 
#
# Total GULP energy -155967.838527 kJ/mol
# GULP energy per Si atom -5570.279947 kJ/mol
# Density = 2.174238 g / cm^3
# Si number density = 21.791984 Si / 1000 Ang^3
#
#
#
# Elastic Constant Matrix: (Units=GPa)
#
#
# Indices 1 2 3 4 5 6 
#
# 1 62.9241 11.9402 15.9275 0.0000 0.0000 0.0000
# 2 11.9402 113.0568 45.6785 0.0000 0.0000 0.0000
# 3 15.9275 45.6785 117.8819 0.0000 0.0000 0.0000
# 4 0.0000 0.0000 0.0000 43.6154 0.0000 0.0000
# 5 0.0000 0.0000 0.0000 0.0000 -12.4611 0.0000
# 6 0.0000 0.0000 0.0000 0.0000 0.0000 -0.9715
#
#
#
# Elastic Compliance Matrix: (Units=1/GPa)
#
#
# Indices 1 2 3 4 5 6 
#
# 1 0.016550 -0.001001 -0.001848 0.000000 0.000000 0.000000
# 2 -0.001001 0.010548 -0.003952 0.000000 0.000000 0.000000
# 3 -0.001848 -0.003952 0.010264 0.000000 0.000000 0.000000
# 4 0.000000 0.000000 0.000000 0.022928 0.000000 0.000000
# 5 0.000000 0.000000 0.000000 0.000000 -0.080250 0.000000
# 6 0.000000 0.000000 0.000000 0.000000 0.000000 -1.029354
#
#
# Mechanical properties :
#
#
# Convention : Reuss Voigt Hill
#
# Bulk Modulus (GPa) = 42.08893 48.99502 45.54198
# Shear Modulus (GPa) = -4.86480 20.72433 7.92977
#
# Velocity S-wave (km/s) = -1.49574 3.08719 1.90965
# Velocity P-wave (km/s) = 4.04635 5.93628 5.07998
#
# Compressibility (1/GPa) = 0.02375922
#
# Stress axis : x y z
#
# Youngs Moduli (GPa) = 60.42310 94.80916 97.42705
#
# Poissons Ratio (x) = 0.09492 0.18006
# Poissons Ratio (y) = 0.06049 0.38501
# Poissons Ratio (z) = 0.11167 0.37467
#
# Static dielectric constant tensor:
#      x y z
#    x 1.800910 0.000000 0.000000 
#    y 0.000000 1.881580 0.000000 
#    z 0.000000 0.000000 1.838760 
# 
# From -- ./inp_files/12174.got.cif
#   From: 2010.05.17/outbox.cif.g08.bks.cpg/sg36_7_cif.got.tgz:12174.got - 2010.06.03 17:41:39.
