data_PCOD9351142
_publ_section_title
;
Structure prediction by ZEFSAII (Michael W. Deem and Ramdas Pophale) SiO2 
 PCOD9351142
Probable space group: C M C 21
;
_chemical_formula_sum "Si O2"
_cell_formula_units_Z 56
_cell_length_a 18.537322
_cell_length_b 19.366382
_cell_length_c 8.358620
_cell_angle_alpha 90.000000
_cell_angle_beta 90.000000
_cell_angle_gamma 90.000000
_cell_volume 3000.751761
_symmetry_space_group_name_H-M "C M C 21"
_symmetry_group_IT_number 36
_symmetry_cell_setting 'orthorhombic'
loop_
_space_group_symop_operation_xyz
x,y,z
-x,-y,1/2+z
x,-y,1/2+z
-x,y,z
1/2+x,1/2+y,z
1/2-x,1/2-y,1/2+z
1/2+x,1/2-y,1/2+z
1/2-x,1/2+y,z
loop_
_atom_site_type_symbol
_atom_site_label
_atom_site_fract_x
_atom_site_fract_y
_atom_site_fract_z
Si Si1 0.805350 0.324609 0.295570
Si Si2 0.203786 0.023994 0.624980
Si Si3 0.419386 0.270274 0.378727
Si Si4 0.291402 0.078574 0.338010
Si Si5 0.916917 0.623965 0.554246
Si Si6 0.701689 0.221178 0.142054
Si Si7 0.160987 0.098205 0.905398
O O1 0.869222 0.368086 0.215080
O O2 0.770833 0.270650 0.168491
O O3 0.822980 0.285053 0.459325
O O4 0.740081 0.371759 0.361252
O O5 0.238013 0.074304 0.491436
O O6 0.145688 0.061513 0.736533
O O7 0.267355 0.987068 0.730907
O O8 0.167483 0.960320 0.535765
O O9 0.500000 0.280444 0.318831
O O10 0.419347 0.202666 0.488902
O O11 0.362839 0.255434 0.239682
O O12 0.390046 0.340025 0.457536
O O13 0.370468 0.081464 0.421709
O O14 0.284292 0.147112 0.228529
O O15 0.000000 0.600528 0.574340
#
# Coordination Sequence:
#
# PCOD9351142 Si02
#       7
#     8   8   8   8   8   8   8
#     4  11  19  34  54  84 107 141 184 235 275 322
#     4  10  20  32  56  80 108 137 185 226 265 309
#     4   9  20  37  55  79 112 145 176 225 280 327
#     4  10  19  35  53  80 108 140 180 227 266 321
#     4  10  21  37  56  78 112 145 179 228 283 327
#     4  10  20  31  58  81 109 140 184 231 278 321
#     4  10  19  34  55  82 105 144 182 228 263 319
#
# _framework density 18.661988999999998
#
# number of rings (size 3 to 8) (size 9 to 14) (size 15 to 20)
#    0.000    2.000    2.857    2.571    2.000    0.571 
#    0.000    1.429    0.000    0.000    0.000    0.000 
#    0.000    0.000    0.000    0.000    0.000    0.000 
#
# Total GULP energy -155973.090580 kJ/mol
# GULP energy per Si atom -5570.467521 kJ/mol
# Density = 1.861951 g / cm^3
# Si number density = 18.661989 Si / 1000 Ang^3
#
#
#
# Elastic Constant Matrix: (Units=GPa)
#
#
# Indices 1 2 3 4 5 6 
#
# 1 41.5086 2.4437 -0.5359 0.0000 0.0000 0.0000
# 2 2.4437 42.5676 -5.9922 0.0000 0.0000 0.0000
# 3 -0.5359 -5.9922 63.8914 0.0000 0.0000 0.0000
# 4 0.0000 0.0000 0.0000 29.2085 0.0000 0.0000
# 5 0.0000 0.0000 0.0000 0.0000 13.3748 0.0000
# 6 0.0000 0.0000 0.0000 0.0000 0.0000 17.5686
#
#
#
# Elastic Compliance Matrix: (Units=1/GPa)
#
#
# Indices 1 2 3 4 5 6 
#
# 1 0.024173 -0.001377 0.000074 0.000000 0.000000 0.000000
# 2 -0.001377 0.023885 0.002229 0.000000 0.000000 0.000000
# 3 0.000074 0.002229 0.015861 0.000000 0.000000 0.000000
# 4 0.000000 0.000000 0.000000 0.034237 0.000000 0.000000
# 5 0.000000 0.000000 0.000000 0.000000 0.074767 0.000000
# 6 0.000000 0.000000 0.000000 0.000000 0.000000 0.056920
#
#
# Mechanical properties :
#
#
# Convention : Reuss Voigt Hill
#
# Bulk Modulus (GPa) = 15.20475 15.53320 15.36898
# Shear Modulus (GPa) = 20.00668 22.16720 21.08694
#
# Velocity S-wave (km/s) = 3.27778 3.45022 3.36511
# Velocity P-wave (km/s) = 4.74239 4.92073 4.83238
#
# Compressibility (1/GPa) = 0.06576893
#
# Stress axis : x y z
#
# Youngs Moduli (GPa) = 41.36771 41.86758 63.04702
#
# Poissons Ratio (x) = 0.05767 -0.00464
# Poissons Ratio (y) = 0.05698 -0.14050
# Poissons Ratio (z) = -0.00304 -0.09330
#
# Static dielectric constant tensor:
#      x y z
#    x 1.641690 0.000000 0.000000 
#    y 0.000000 1.735690 0.000000 
#    z 0.000000 0.000000 1.719390 
# 
# From -- ./inp_files/4868.got.cif
#   From: 2010.05.17/outbox.cif.g08.bks.cpg/sg36_3_cif.got.tgz:4868.got - 2010.06.03 17:41:39.
