data_PCOD9351303
_publ_section_title
;
Structure prediction by ZEFSAII (Michael W. Deem and Ramdas Pophale) SiO2 
 PCOD9351303
Probable space group: C M C 21
;
_chemical_formula_sum "Si O2"
_cell_formula_units_Z 36
_cell_length_a 7.727438
_cell_length_b 18.384669
_cell_length_c 11.849008
_cell_angle_alpha 90.000000
_cell_angle_beta 90.000000
_cell_angle_gamma 90.000000
_cell_volume 1683.345790
_symmetry_space_group_name_H-M "C M C 21"
_symmetry_group_IT_number 36
_symmetry_cell_setting 'orthorhombic'
loop_
_space_group_symop_operation_xyz
x,y,z
-x,-y,1/2+z
x,-y,1/2+z
-x,y,z
1/2+x,1/2+y,z
1/2-x,1/2-y,1/2+z
1/2+x,1/2-y,1/2+z
1/2-x,1/2+y,z
loop_
_atom_site_type_symbol
_atom_site_label
_atom_site_fract_x
_atom_site_fract_y
_atom_site_fract_z
Si Si1 0.000000 0.122931 0.806421
Si Si2 0.699541 0.378378 0.714866
Si Si3 0.000000 0.275520 0.703805
Si Si4 0.197495 0.851537 0.981142
Si Si5 0.795425 0.456926 0.182721
Si Si6 0.000000 0.749894 0.462868
O O1 0.000000 0.188249 0.712773
O O2 0.828790 0.076530 0.780136
O O3 0.000000 0.165562 0.925884
O O4 0.500000 0.361607 0.687656
O O5 0.830051 0.318344 0.666203
O O6 0.714728 0.378527 0.851738
O O7 0.753413 0.457995 0.673879
O O8 0.000000 0.287226 0.838971
O O9 0.328629 0.786472 0.012169
O O10 0.000000 0.825390 0.986780
O O11 0.239651 0.916091 0.067914
O O12 0.000000 0.445825 0.203233
#
# Coordination Sequence:
#
# PCOD9351303 Si02
#       6
#     4   8   4   8   8   4
#     4  10  22  38  54  88 124 145 207 253 284 353
#     4  10  19  35  62  88 113 156 200 247 294 353
#     4   8  18  35  57  78 114 149 193 233 291 349
#     4  10  19  35  62  88 112 160 205 232 299 371
#     4  12  22  34  62  91 122 156 201 247 296 349
#     4   8  18  35  57  78 112 150 194 240 281 354
#
# _framework density 21.38598
#
# number of rings (size 3 to 8) (size 9 to 14) (size 15 to 20)
#    0.667    1.333    4.444    0.000    0.000    1.778 
#    0.000    0.000    4.889    0.000    0.000    0.000 
#    0.000    0.000    0.000    0.000    0.000    0.000 
#
# Total GULP energy -100308.491000 kJ/mol
# GULP energy per Si atom -5572.693944 kJ/mol
# Density = 2.133730 g / cm^3
# Si number density = 21.385980 Si / 1000 Ang^3
#
#
#
# Elastic Constant Matrix: (Units=GPa)
#
#
# Indices 1 2 3 4 5 6 
#
# 1 174.7015 49.6059 1.7138 0.0000 0.0000 0.0000
# 2 49.6059 96.2320 6.9510 0.0000 0.0000 0.0000
# 3 1.7138 6.9510 58.3439 0.0000 0.0000 0.0000
# 4 0.0000 0.0000 0.0000 38.0816 0.0000 0.0000
# 5 0.0000 0.0000 0.0000 0.0000 8.5352 0.0000
# 6 0.0000 0.0000 0.0000 0.0000 0.0000 14.9880
#
#
#
# Elastic Compliance Matrix: (Units=1/GPa)
#
#
# Indices 1 2 3 4 5 6 
#
# 1 0.006708 -0.003474 0.000217 0.000000 0.000000 0.000000
# 2 -0.003474 0.012280 -0.001361 0.000000 0.000000 0.000000
# 3 0.000217 -0.001361 0.017296 0.000000 0.000000 0.000000
# 4 0.000000 0.000000 0.000000 0.026259 0.000000 0.000000
# 5 0.000000 0.000000 0.000000 0.000000 0.117162 0.000000
# 6 0.000000 0.000000 0.000000 0.000000 0.000000 0.066720
#
#
# Mechanical properties :
#
#
# Convention : Reuss Voigt Hill
#
# Bulk Modulus (GPa) = 36.97067 49.53542 43.25304
# Shear Modulus (GPa) = 18.89087 30.38807 24.63947
#
# Velocity S-wave (km/s) = 2.97531 3.77362 3.39799
# Velocity P-wave (km/s) = 5.39705 6.49614 5.97193
#
# Compressibility (1/GPa) = 0.02704847
#
# Stress axis : x y z
#
# Youngs Moduli (GPa) = 149.07013 81.43010 57.81842
#
# Poissons Ratio (x) = 0.28286 -0.01254
# Poissons Ratio (y) = 0.51782 0.07869
# Poissons Ratio (z) = -0.03232 0.11083
#
# Static dielectric constant tensor:
#      x y z
#    x 1.833860 0.000000 0.000000 
#    y 0.000000 1.757560 0.000000 
#    z 0.000000 0.000000 1.829790 
# 
# From -- ./inp_files/10229.got.cif
#   From: 2010.05.17/outbox.cif.g08.bks.cpg/sg36_6_cif.got.tgz:10229.got - 2010.06.03 17:41:39.
