data_PCOD9351253
_publ_section_title
;
Structure prediction by ZEFSAII (Michael W. Deem and Ramdas Pophale) SiO2 
 PCOD9351253
Probable space group: C M C 21
;
_chemical_formula_sum "Si O2"
_cell_formula_units_Z 64
_cell_length_a 8.069267
_cell_length_b 14.932680
_cell_length_c 22.662710
_cell_angle_alpha 90.000000
_cell_angle_beta 90.000000
_cell_angle_gamma 90.000000
_cell_volume 2730.760962
_symmetry_space_group_name_H-M "C M C 21"
_symmetry_group_IT_number 36
_symmetry_cell_setting 'orthorhombic'
loop_
_space_group_symop_operation_xyz
x,y,z
-x,-y,1/2+z
x,-y,1/2+z
-x,y,z
1/2+x,1/2+y,z
1/2-x,1/2-y,1/2+z
1/2+x,1/2-y,1/2+z
1/2-x,1/2+y,z
loop_
_atom_site_type_symbol
_atom_site_label
_atom_site_fract_x
_atom_site_fract_y
_atom_site_fract_z
Si Si1 0.202704 0.338206 0.266240
Si Si2 0.305990 0.819142 0.056911
Si Si3 0.297035 0.956273 0.156308
Si Si4 0.308684 0.255214 0.937657
Si Si5 0.801446 0.156608 0.311992
Si Si6 0.193641 0.478686 0.359370
Si Si7 0.808804 0.370746 0.599563
Si Si8 0.184467 0.068781 0.979753
O O1 0.259213 0.399905 0.212655
O O2 0.255520 0.234640 0.267588
O O3 0.252343 0.389284 0.326045
O O4 0.000000 0.337139 0.265533
O O5 0.500000 0.831830 0.044299
O O6 0.247813 0.896569 0.100281
O O7 0.283928 0.722548 0.088933
O O8 0.210159 0.816208 0.995438
O O9 0.500000 0.958709 0.157570
O O10 0.242386 0.058829 0.147704
O O11 0.265686 0.303747 0.877266
O O12 0.000000 0.725462 0.932721
O O13 0.199920 0.168779 0.952579
O O14 0.721194 0.059619 0.313770
O O15 0.000000 0.145810 0.306601
O O16 0.276228 0.491815 0.423059
O O17 0.000000 0.469817 0.371051
O O18 0.799943 0.424941 0.537075
O O19 0.000000 0.349241 0.611799
O O20 0.000000 0.051653 0.001210
#
# Coordination Sequence:
#
# PCOD9351253 Si02
#       8
#     8   8   8   8   8   8   8   8
#     4   9  19  40  61  80 114 154 191 236 286 342
#     4  10  20  35  55  85 115 149 189 234 284 336
#     4   9  20  37  60  84 111 152 197 233 279 342
#     4  10  19  35  57  84 117 154 188 230 288 345
#     4  10  21  37  58  85 115 151 191 233 288 343
#     4  11  22  37  59  86 115 152 194 236 289 345
#     4  10  20  36  57  85 116 151 191 234 285 342
#     4  11  21  35  57  85 119 153 189 238 291 341
#
# _framework density 23.436689999999999
#
# number of rings (size 3 to 8) (size 9 to 14) (size 15 to 20)
#    0.000    2.000    1.250    4.125    1.750    2.000 
#    0.000    1.875    0.000    7.500    0.000    0.000 
#    0.000    0.000    0.000    0.000    0.000    0.000 
#
# Total GULP energy -178829.152129 kJ/mol
# GULP energy per Si atom -5588.411004 kJ/mol
# Density = 2.338335 g / cm^3
# Si number density = 23.436690 Si / 1000 Ang^3
#
#
#
# Elastic Constant Matrix: (Units=GPa)
#
#
# Indices 1 2 3 4 5 6 
#
# 1 28.4246 0.7864 -4.0132 0.0000 0.0000 0.0000
# 2 0.7864 82.8957 -3.4182 0.0000 0.0000 0.0000
# 3 -4.0132 -3.4182 8.1248 0.0000 0.0000 0.0000
# 4 0.0000 0.0000 0.0000 29.2891 0.0000 0.0000
# 5 0.0000 0.0000 0.0000 0.0000 10.2226 0.0000
# 6 0.0000 0.0000 0.0000 0.0000 0.0000 15.2443
#
#
#
# Elastic Compliance Matrix: (Units=1/GPa)
#
#
# Indices 1 2 3 4 5 6 
#
# 1 0.037833 0.000419 0.018864 0.000000 0.000000 0.000000
# 2 0.000419 0.012281 0.005374 0.000000 0.000000 0.000000
# 3 0.018864 0.005374 0.134659 0.000000 0.000000 0.000000
# 4 0.000000 0.000000 0.000000 0.034142 0.000000 0.000000
# 5 0.000000 0.000000 0.000000 0.000000 0.097822 0.000000
# 6 0.000000 0.000000 0.000000 0.000000 0.000000 0.065598
#
#
# Mechanical properties :
#
#
# Convention : Reuss Voigt Hill
#
# Bulk Modulus (GPa) = 4.27195 11.79499 8.03347
# Shear Modulus (GPa) = 12.16393 19.35721 15.76057
#
# Velocity S-wave (km/s) = 2.28066 2.87703 2.59602
# Velocity P-wave (km/s) = 2.96005 4.00999 3.52434
#
# Compressibility (1/GPa) = 0.23408537
#
# Stress axis : x y z
#
# Youngs Moduli (GPa) = 26.43227 81.42678 7.42615
#
# Poissons Ratio (x) = -0.03411 -0.14008
# Poissons Ratio (y) = -0.01107 -0.03991
# Poissons Ratio (z) = -0.49861 -0.43757
#
# Static dielectric constant tensor:
#      x y z
#    x 1.809140 0.000000 0.000000 
#    y 0.000000 1.927450 0.000000 
#    z 0.000000 0.000000 1.911280 
# 
# From -- ./inp_files/16685.got.cif
#   From: 2010.05.17/outbox.cif.g08.bks.cpg/sg36_9_cif.got.tgz:16685.got - 2010.06.03 17:41:39.
