data_PCOD9351130
_publ_section_title
;
Structure prediction by ZEFSAII (Michael W. Deem and Ramdas Pophale) SiO2 
 PCOD9351130
Probable space group: C M C 21
;
_chemical_formula_sum "Si O2"
_cell_formula_units_Z 56
_cell_length_a 13.397999
_cell_length_b 22.218191
_cell_length_c 10.667687
_cell_angle_alpha 90.000000
_cell_angle_beta 90.000000
_cell_angle_gamma 90.000000
_cell_volume 3175.549607
_symmetry_space_group_name_H-M "C M C 21"
_symmetry_group_IT_number 36
_symmetry_cell_setting 'orthorhombic'
loop_
_space_group_symop_operation_xyz
x,y,z
-x,-y,1/2+z
x,-y,1/2+z
-x,y,z
1/2+x,1/2+y,z
1/2-x,1/2-y,1/2+z
1/2+x,1/2-y,1/2+z
1/2-x,1/2+y,z
loop_
_atom_site_type_symbol
_atom_site_label
_atom_site_fract_x
_atom_site_fract_y
_atom_site_fract_z
Si Si1 0.388409 0.858540 0.727010
Si Si2 0.885054 0.579736 0.956158
Si Si3 0.188570 0.794119 0.807277
Si Si4 0.234908 0.834726 0.334905
Si Si5 0.887038 0.562379 0.471855
Si Si6 0.887136 0.224396 0.047026
Si Si7 0.761620 0.839447 0.057668
O O1 0.500000 0.831765 0.735000
O O2 0.374907 0.885873 0.589136
O O3 0.300525 0.812895 0.762278
O O4 0.383757 0.911748 0.829916
O O5 0.803055 0.608219 0.865729
O O6 0.869936 0.508670 0.974298
O O7 0.000000 0.588272 0.912600
O O8 0.191430 0.723346 0.837204
O O9 0.121310 0.803968 0.685803
O O10 0.169608 0.830320 0.935318
O O11 0.154924 0.820712 0.442316
O O12 0.191280 0.837666 0.194926
O O13 0.804699 0.600848 0.543986
O O14 0.000000 0.573919 0.519450
O O15 0.815572 0.282954 0.048619
O O16 0.000000 0.242419 0.020054
#
# Coordination Sequence:
#
# PCOD9351130 Si02
#       7
#     8   8   8   8   8   8   8
#     4   9  17  32  51  73 104 138 167 205 254 306
#     4  10  20  31  48  76 110 139 166 203 250 308
#     4   9  18  34  52  71 101 134 174 211 249 303
#     4  10  20  32  50  75 105 133 171 215 252 297
#     4   9  18  30  48  75 106 139 170 197 245 317
#     4  10  19  34  54  75 103 138 174 210 255 302
#     4   9  19  33  53  75 105 135 168 211 255 303
#
# _framework density 17.634741999999999
#
# number of rings (size 3 to 8) (size 9 to 14) (size 15 to 20)
#    0.000    2.571    1.429    0.429    2.000    6.286 
#    0.000    0.714    0.000    0.000    0.000    9.000 
#    0.000    0.000    0.000    0.000    0.000    0.000 
#
# Total GULP energy -156053.743628 kJ/mol
# GULP energy per Si atom -5573.347987 kJ/mol
# Density = 1.759460 g / cm^3
# Si number density = 17.634742 Si / 1000 Ang^3
#
#
#
# Elastic Constant Matrix: (Units=GPa)
#
#
# Indices 1 2 3 4 5 6 
#
# 1 22.8652 6.0082 17.1641 0.0000 0.0000 0.0000
# 2 6.0082 54.4150 5.9688 0.0000 0.0000 0.0000
# 3 17.1641 5.9688 102.9640 0.0000 0.0000 0.0000
# 4 0.0000 0.0000 0.0000 13.3270 0.0000 0.0000
# 5 0.0000 0.0000 0.0000 0.0000 3.7860 0.0000
# 6 0.0000 0.0000 0.0000 0.0000 0.0000 19.6649
#
#
#
# Elastic Compliance Matrix: (Units=1/GPa)
#
#
# Indices 1 2 3 4 5 6 
#
# 1 0.051179 -0.004745 -0.008256 0.000000 0.000000 0.000000
# 2 -0.004745 0.018935 -0.000307 0.000000 0.000000 0.000000
# 3 -0.008256 -0.000307 0.011106 0.000000 0.000000 0.000000
# 4 0.000000 0.000000 0.000000 0.075036 0.000000 0.000000
# 5 0.000000 0.000000 0.000000 0.000000 0.264132 0.000000
# 6 0.000000 0.000000 0.000000 0.000000 0.000000 0.050852
#
#
# Mechanical properties :
#
#
# Convention : Reuss Voigt Hill
#
# Bulk Modulus (GPa) = 18.31381 26.50293 22.40837
# Shear Modulus (GPa) = 9.68883 17.42911 13.55897
#
# Velocity S-wave (km/s) = 2.34651 3.14720 2.77587
# Velocity P-wave (km/s) = 4.21297 5.31676 4.79672
#
# Compressibility (1/GPa) = 0.05460361
#
# Stress axis : x y z
#
# Youngs Moduli (GPa) = 19.53917 52.81260 90.03931
#
# Poissons Ratio (x) = 0.25061 0.74341
# Poissons Ratio (y) = 0.09272 0.02761
# Poissons Ratio (z) = 0.16132 0.01619
#
# Static dielectric constant tensor:
#      x y z
#    x 1.578780 0.000000 0.000000 
#    y 0.000000 1.577740 0.000000 
#    z 0.000000 0.000000 1.664870 
# 
# From -- ./inp_files/7957.got.cif
#   From: 2010.05.17/outbox.cif.g08.bks.cpg/sg36_4_cif.got.tgz:7957.got - 2010.06.03 17:41:39.
