data_PCOD9351885
_publ_section_title
;
Structure prediction by ZEFSAII (Michael W. Deem and Ramdas Pophale) SiO2 
 PCOD9351885
Probable space group: C M C 21
;
_chemical_formula_sum "Si O2"
_cell_formula_units_Z 48
_cell_length_a 17.699060
_cell_length_b 9.096992
_cell_length_c 14.943433
_cell_angle_alpha 90.000000
_cell_angle_beta 90.000000
_cell_angle_gamma 90.000000
_cell_volume 2406.015357
_symmetry_space_group_name_H-M "C M C 21"
_symmetry_group_IT_number 36
_symmetry_cell_setting 'orthorhombic'
loop_
_space_group_symop_operation_xyz
x,y,z
-x,-y,1/2+z
x,-y,1/2+z
-x,y,z
1/2+x,1/2+y,z
1/2-x,1/2-y,1/2+z
1/2+x,1/2-y,1/2+z
1/2-x,1/2+y,z
loop_
_atom_site_type_symbol
_atom_site_label
_atom_site_fract_x
_atom_site_fract_y
_atom_site_fract_z
Si Si1 0.654095 0.508894 0.717270
Si Si2 0.686019 0.896602 0.972305
Si Si3 0.260616 0.753994 0.295976
Si Si4 0.420018 0.551825 0.393906
Si Si5 0.912364 0.614451 0.869862
Si Si6 0.181386 0.086388 0.033743
O O1 0.714806 0.379473 0.733461
O O2 0.693654 0.656574 0.750287
O O3 0.589098 0.466829 0.787309
O O4 0.638451 0.498656 0.612842
O O5 0.732908 0.819507 0.889871
O O6 0.613056 0.977626 0.931072
O O7 0.674119 0.761101 0.039474
O O8 0.734778 0.021548 0.022246
O O9 0.335968 0.856170 0.309786
O O10 0.500000 0.493160 0.423958
O O11 0.414716 0.724400 0.416272
O O12 0.356017 0.460055 0.440551
O O13 0.000000 0.594114 0.835823
#
# Coordination Sequence:
#
# PCOD9351885 Si02
#       6
#     8   8   8   8   8   8
#     4  11  22  36  60  89 116 157 204 256 295 359
#     4  12  19  38  61  88 120 154 204 250 301 357
#     4  11  18  38  60  86 119 156 203 248 302 356
#     4  10  21  40  60  83 124 166 195 246 312 363
#     4  10  20  36  63  87 118 162 197 243 312 361
#     4  12  22  36  62  91 117 157 207 255 298 360
#
# _framework density 19.949998000000001
#
# number of rings (size 3 to 8) (size 9 to 14) (size 15 to 20)
#    0.000    1.000    8.333    1.000    0.000    1.333 
#    0.000    0.000    0.000    3.000    0.000    0.000 
#    0.000    0.000    0.000    0.000    0.000    0.000 
#
# Total GULP energy -133606.913907 kJ/mol
# GULP energy per Si atom -5566.954746 kJ/mol
# Density = 1.990459 g / cm^3
# Si number density = 19.949998 Si / 1000 Ang^3
#
#
#
# Elastic Constant Matrix: (Units=GPa)
#
#
# Indices 1 2 3 4 5 6 
#
# 1 68.2379 16.2591 -10.7094 0.0000 0.0000 0.0000
# 2 16.2591 67.3774 -13.7919 0.0000 0.0000 0.0000
# 3 -10.7094 -13.7919 40.6437 0.0000 0.0000 0.0000
# 4 0.0000 0.0000 0.0000 20.5858 0.0000 0.0000
# 5 0.0000 0.0000 0.0000 0.0000 5.5569 0.0000
# 6 0.0000 0.0000 0.0000 0.0000 0.0000 12.1366
#
#
#
# Elastic Compliance Matrix: (Units=1/GPa)
#
#
# Indices 1 2 3 4 5 6 
#
# 1 0.015905 -0.003203 0.003104 0.000000 0.000000 0.000000
# 2 -0.003203 0.016595 0.004787 0.000000 0.000000 0.000000
# 3 0.003104 0.004787 0.027046 0.000000 0.000000 0.000000
# 4 0.000000 0.000000 0.000000 0.048577 0.000000 0.000000
# 5 0.000000 0.000000 0.000000 0.000000 0.179957 0.000000
# 6 0.000000 0.000000 0.000000 0.000000 0.000000 0.082395
#
#
# Mechanical properties :
#
#
# Convention : Reuss Voigt Hill
#
# Bulk Modulus (GPa) = 14.50892 17.75275 16.13084
# Shear Modulus (GPa) = 13.01836 19.95593 16.48715
#
# Velocity S-wave (km/s) = 2.55728 3.16618 2.87788
# Velocity P-wave (km/s) = 4.00100 4.72061 4.37562
#
# Compressibility (1/GPa) = 0.06892310
#
# Stress axis : x y z
#
# Youngs Moduli (GPa) = 62.87374 60.26075 36.97345
#
# Poissons Ratio (x) = 0.19300 -0.11477
# Poissons Ratio (y) = 0.20137 -0.17700
# Poissons Ratio (z) = -0.19516 -0.28848
#
# Static dielectric constant tensor:
#      x y z
#    x 1.719400 0.000000 0.000000 
#    y 0.000000 1.718310 0.000000 
#    z 0.000000 0.000000 1.757940 
# 
# From -- ./inp_files/12756.got.cif
#   From: 2010.05.17/outbox.cif.g08.bks.cpg/sg36_7_cif.got.tgz:12756.got - 2010.06.03 17:41:39.
