data_PCOD9351523
_publ_section_title
;
Structure prediction by ZEFSAII (Michael W. Deem and Ramdas Pophale) SiO2 
 PCOD9351523
Probable space group: C M C 21
;
_chemical_formula_sum "Si O2"
_cell_formula_units_Z 60
_cell_length_a 23.150303
_cell_length_b 20.906748
_cell_length_c 5.072742
_cell_angle_alpha 90.000000
_cell_angle_beta 90.000000
_cell_angle_gamma 90.000000
_cell_volume 2455.194705
_symmetry_space_group_name_H-M "C M C 21"
_symmetry_group_IT_number 36
_symmetry_cell_setting 'orthorhombic'
loop_
_space_group_symop_operation_xyz
x,y,z
-x,-y,1/2+z
x,-y,1/2+z
-x,y,z
1/2+x,1/2+y,z
1/2-x,1/2-y,1/2+z
1/2+x,1/2-y,1/2+z
1/2-x,1/2+y,z
loop_
_atom_site_type_symbol
_atom_site_label
_atom_site_fract_x
_atom_site_fract_y
_atom_site_fract_z
Si Si1 0.567193 0.169962 0.564980
Si Si2 0.729738 0.169714 0.558014
Si Si3 0.570670 0.037341 0.805071
Si Si4 0.882727 0.120167 0.423111
Si Si5 0.000000 0.042562 0.419261
Si Si6 0.193693 0.197242 0.059915
Si Si7 0.566445 0.251805 0.086328
Si Si8 0.273239 0.458547 0.132957
O O1 0.500000 0.153573 0.502466
O O2 0.591296 0.105228 0.692535
O O3 0.588854 0.198601 0.289407
O O4 0.566006 0.222924 0.794140
O O5 0.778871 0.184959 0.776825
O O6 0.684079 0.226472 0.602489
O O7 0.755808 0.180678 0.269607
O O8 0.723402 0.094040 0.585331
O O9 0.500000 0.039375 0.813257
O O10 0.588437 0.017613 0.098075
O O11 0.856507 0.150282 0.154883
O O12 0.897969 0.183227 0.591767
O O13 0.834527 0.074846 0.555355
O O14 0.941976 0.083018 0.374917
O O15 0.000000 0.983946 0.215714
O O16 0.500000 0.266732 0.159321
O O17 0.269644 0.482838 0.430251
#
# Coordination Sequence:
#
# PCOD9351523 Si02
#       8
#     8   8   8   8   4   8   8   8
#     4   9  18  30  46  68  97 131 184 242 303 348
#     4   9  18  36  57  90 119 148 191 248 325 382
#     4   9  15  24  41  65  91 118 149 203 279 360
#     4  11  23  41  59  86 119 168 221 263 306 360
#     4  12  28  44  60  84 128 182 228 266 302 356
#     4   9  19  34  61  86 117 151 195 262 314 367
#     4  10  20  34  49  71 102 149 199 259 296 331
#     4  11  22  36  58  87 122 159 196 245 303 379
#
# _framework density 24.437981000000001
#
# number of rings (size 3 to 8) (size 9 to 14) (size 15 to 20)
#    0.000    2.133    0.667    3.200    0.000    9.600 
#    0.000    0.000    0.000    0.000    0.000    5.600 
#    0.000    0.000    0.000    0.267    0.000    0.000 
#
# Total GULP energy -167749.642657 kJ/mol
# GULP energy per Si atom -5591.654755 kJ/mol
# Density = 2.438236 g / cm^3
# Si number density = 24.437981 Si / 1000 Ang^3
#
#
#
# Elastic Constant Matrix: (Units=GPa)
#
#
# Indices 1 2 3 4 5 6 
#
# 1 79.8061 5.6230 1.0344 0.0000 0.0000 0.0000
# 2 5.6230 79.2602 -18.5642 0.0000 0.0000 0.0000
# 3 1.0344 -18.5642 39.8664 0.0000 0.0000 0.0000
# 4 0.0000 0.0000 0.0000 33.5193 0.0000 0.0000
# 5 0.0000 0.0000 0.0000 0.0000 -5.3098 0.0000
# 6 0.0000 0.0000 0.0000 0.0000 0.0000 18.4912
#
#
#
# Elastic Compliance Matrix: (Units=1/GPa)
#
#
# Indices 1 2 3 4 5 6 
#
# 1 0.012618 -0.001091 -0.000835 0.000000 0.000000 0.000000
# 2 -0.001091 0.014255 0.006667 0.000000 0.000000 0.000000
# 3 -0.000835 0.006667 0.028210 0.000000 0.000000 0.000000
# 4 0.000000 0.000000 0.000000 0.029834 0.000000 0.000000
# 5 0.000000 0.000000 0.000000 0.000000 -0.188332 0.000000
# 6 0.000000 0.000000 0.000000 0.000000 0.000000 0.054080
#
#
# Mechanical properties :
#
#
# Convention : Reuss Voigt Hill
#
# Bulk Modulus (GPa) = 15.48849 19.45767 17.47308
# Shear Modulus (GPa) = -134.06568 23.39613 -55.33478
#
# Velocity S-wave (km/s) = -7.41476 3.09749 -4.76362
# Velocity P-wave (km/s) = 8.18250 4.55763 4.80527
#
# Compressibility (1/GPa) = 0.06456406
#
# Stress axis : x y z
#
# Youngs Moduli (GPa) = 79.25153 70.14849 35.44866
#
# Poissons Ratio (x) = 0.07652 0.02961
# Poissons Ratio (y) = 0.08645 -0.23632
# Poissons Ratio (z) = 0.06620 -0.46765
#
# Static dielectric constant tensor:
#      x y z
#    x 1.984630 0.000000 0.000000 
#    y 0.000000 1.978480 0.000000 
#    z 0.000000 0.000000 1.876270 
# 
# From -- ./inp_files/1901.got.cif
#   From: 2010.05.17/outbox.cif.g08.bks.cpg/sg36_1_cif.got.tgz:1901.got - 2010.06.03 17:41:39.
