data_PCOD9351799
_publ_section_title
;
Structure prediction by ZEFSAII (Michael W. Deem and Ramdas Pophale) SiO2 
 PCOD9351799
Probable space group: C M C 21
;
_chemical_formula_sum "Si O2"
_cell_formula_units_Z 64
_cell_length_a 7.810523
_cell_length_b 16.448934
_cell_length_c 19.516430
_cell_angle_alpha 90.000000
_cell_angle_beta 90.000000
_cell_angle_gamma 90.000000
_cell_volume 2507.368999
_symmetry_space_group_name_H-M "C M C 21"
_symmetry_group_IT_number 36
_symmetry_cell_setting 'orthorhombic'
loop_
_space_group_symop_operation_xyz
x,y,z
-x,-y,1/2+z
x,-y,1/2+z
-x,y,z
1/2+x,1/2+y,z
1/2-x,1/2-y,1/2+z
1/2+x,1/2-y,1/2+z
1/2-x,1/2+y,z
loop_
_atom_site_type_symbol
_atom_site_label
_atom_site_fract_x
_atom_site_fract_y
_atom_site_fract_z
Si Si1 0.793270 0.152904 0.403640
Si Si2 0.709682 0.398979 0.358766
Si Si3 0.699801 0.160105 0.652104
Si Si4 0.202986 0.740595 0.276400
Si Si5 0.298840 0.755592 0.525224
Si Si6 0.195720 0.998371 0.235619
Si Si7 0.206799 0.992179 0.486192
Si Si8 0.805223 0.598211 0.111151
O O1 0.739250 0.164057 0.325027
O O2 0.724734 0.225151 0.453192
O O3 0.000000 0.153990 0.403714
O O4 0.742386 0.071545 0.443623
O O5 0.500000 0.399405 0.357730
O O6 0.766280 0.315446 0.324483
O O7 0.773733 0.470421 0.307830
O O8 0.760630 0.418237 0.435889
O O9 0.500000 0.141748 0.643786
O O10 0.718099 0.238458 0.702841
O O11 0.783332 0.182037 0.579842
O O12 0.787774 0.084655 0.690607
O O13 0.000000 0.746550 0.266825
O O14 0.500000 0.771458 0.512667
O O15 0.216303 0.830411 0.567174
O O16 0.000000 0.016339 0.250523
O O17 0.255208 0.070049 0.186395
O O18 0.287153 0.978568 0.560158
O O19 0.000000 0.992906 0.493826
O O20 0.000000 0.624275 0.118141
#
# Coordination Sequence:
#
# PCOD9351799 Si02
#       8
#     8   8   8   8   8   8   8   8
#     4  10  21  36  56  82 112 148 188 234 286 339
#     4   8  17  34  56  81 106 138 182 226 272 333
#     4  11  22  37  60  87 114 147 191 236 279 338
#     4  10  20  36  58  82 113 150 185 229 285 339
#     4  10  22  39  56  80 118 156 189 233 289 340
#     4  10  20  37  59  82 113 150 186 230 287 342
#     4  10  20  36  58  82 110 146 189 236 286 339
#     4  11  23  37  55  82 114 149 192 236 278 334
#
# _framework density 25.524764999999999
#
# number of rings (size 3 to 8) (size 9 to 14) (size 15 to 20)
#    0.000    2.000    0.000    4.500    0.000    4.000 
#    0.000    4.375    0.000    0.000    0.000    0.000 
#    0.000    0.000    0.000    0.000    0.000    0.000 
#
# Total GULP energy -178956.904229 kJ/mol
# GULP energy per Si atom -5592.403257 kJ/mol
# Density = 2.546667 g / cm^3
# Si number density = 25.524765 Si / 1000 Ang^3
#
#
#
# Elastic Constant Matrix: (Units=GPa)
#
#
# Indices 1 2 3 4 5 6 
#
# 1 43.7210 -9.5760 -11.6914 0.0000 0.0000 0.0000
# 2 -9.5760 64.5583 7.3948 0.0000 0.0000 0.0000
# 3 -11.6914 7.3948 154.6244 0.0000 0.0000 0.0000
# 4 0.0000 0.0000 0.0000 50.1005 0.0000 0.0000
# 5 0.0000 0.0000 0.0000 0.0000 21.3212 0.0000
# 6 0.0000 0.0000 0.0000 0.0000 0.0000 11.8846
#
#
#
# Elastic Compliance Matrix: (Units=1/GPa)
#
#
# Indices 1 2 3 4 5 6 
#
# 1 0.024055 0.003378 0.001657 0.000000 0.000000 0.000000
# 2 0.003378 0.016050 -0.000512 0.000000 0.000000 0.000000
# 3 0.001657 -0.000512 0.006617 0.000000 0.000000 0.000000
# 4 0.000000 0.000000 0.000000 0.019960 0.000000 0.000000
# 5 0.000000 0.000000 0.000000 0.000000 0.046902 0.000000
# 6 0.000000 0.000000 0.000000 0.000000 0.000000 0.084143
#
#
# Mechanical properties :
#
#
# Convention : Reuss Voigt Hill
#
# Bulk Modulus (GPa) = 17.93105 26.12873 22.02989
# Shear Modulus (GPa) = 24.12322 35.11299 29.61811
#
# Velocity S-wave (km/s) = 3.07757 3.71299 3.41011
# Velocity P-wave (km/s) = 4.43495 5.35169 4.91474
#
# Compressibility (1/GPa) = 0.05576917
#
# Stress axis : x y z
#
# Youngs Moduli (GPa) = 41.57066 62.30666 151.12391
#
# Poissons Ratio (x) = -0.21049 -0.25046
# Poissons Ratio (y) = -0.14044 0.07739
# Poissons Ratio (z) = -0.06889 0.03191
#
# Static dielectric constant tensor:
#      x y z
#    x 1.914330 0.000000 0.000000 
#    y 0.000000 2.176580 0.000000 
#    z 0.000000 0.000000 1.980100 
# 
# From -- ./inp_files/15668.got.cif
#   From: 2010.05.17/outbox.cif.g08.bks.cpg/sg36_8_cif.got.tgz:15668.got - 2010.06.03 17:41:39.
