data_PCOD9351529
_publ_section_title
;
Structure prediction by ZEFSAII (Michael W. Deem and Ramdas Pophale) SiO2 
 PCOD9351529
Probable space group: C M C 21
;
_chemical_formula_sum "Si O2"
_cell_formula_units_Z 48
_cell_length_a 7.429164
_cell_length_b 24.687610
_cell_length_c 12.309492
_cell_angle_alpha 90.000000
_cell_angle_beta 90.000000
_cell_angle_gamma 90.000000
_cell_volume 2257.663044
_symmetry_space_group_name_H-M "C M C 21"
_symmetry_group_IT_number 36
_symmetry_cell_setting 'orthorhombic'
loop_
_space_group_symop_operation_xyz
x,y,z
-x,-y,1/2+z
x,-y,1/2+z
-x,y,z
1/2+x,1/2+y,z
1/2-x,1/2-y,1/2+z
1/2+x,1/2-y,1/2+z
1/2-x,1/2+y,z
loop_
_atom_site_type_symbol
_atom_site_label
_atom_site_fract_x
_atom_site_fract_y
_atom_site_fract_z
Si Si1 0.220665 0.826324 0.307020
Si Si2 0.793311 0.866167 0.075196
Si Si3 0.210298 0.707998 0.375639
Si Si4 0.779587 0.037627 0.426482
Si Si5 0.219717 0.083658 0.981560
Si Si6 0.282795 0.608512 0.224770
O O1 0.284009 0.843842 0.187266
O O2 0.281771 0.766706 0.342959
O O3 0.273778 0.871287 0.394663
O O4 0.000000 0.824023 0.304422
O O5 0.000000 0.880245 0.100565
O O6 0.792396 0.820629 0.981432
O O7 0.716142 0.920061 0.018727
O O8 0.230138 0.665955 0.276411
O O9 0.000000 0.713731 0.401022
O O10 0.724123 0.062626 0.310732
O O11 0.000000 0.038456 0.427516
O O12 0.722578 0.976536 0.447849
O O13 0.000000 0.083288 0.982537
O O14 0.280222 0.098332 0.102964
O O15 0.500000 0.607367 0.223115
#
# Coordination Sequence:
#
# PCOD9351529 Si02
#       6
#     8   8   8   8   8   8
#     4   9  19  31  47  73 104 132 162 201 247 293
#     4   9  18  34  53  75 100 129 164 206 251 295
#     4  10  20  34  51  72  99 136 170 201 245 293
#     4   8  15  27  47  75 100 124 158 201 249 292
#     4   9  17  28  48  78 106 127 157 205 251 294
#     4   9  18  32  52  77 101 130 165 204 249 293
#
# _framework density 21.260922999999998
#
# number of rings (size 3 to 8) (size 9 to 14) (size 15 to 20)
#    0.000    3.000    0.000    1.500    4.667    0.000 
#    0.000    0.833    0.000    5.000    0.000    0.000 
#    0.000    0.000    0.000    0.000    0.000    0.000 
#
# Total GULP energy -133980.764941 kJ/mol
# GULP energy per Si atom -5582.531873 kJ/mol
# Density = 2.121253 g / cm^3
# Si number density = 21.260923 Si / 1000 Ang^3
#
#
#
# Elastic Constant Matrix: (Units=GPa)
#
#
# Indices 1 2 3 4 5 6 
#
# 1 64.4826 -6.8755 -7.3508 0.0000 0.0000 0.0000
# 2 -6.8755 216.6884 126.0195 0.0000 0.0000 0.0000
# 3 -7.3508 126.0195 172.7308 0.0000 0.0000 0.0000
# 4 0.0000 0.0000 0.0000 14.1981 0.0000 0.0000
# 5 0.0000 0.0000 0.0000 0.0000 -3.6829 0.0000
# 6 0.0000 0.0000 0.0000 0.0000 0.0000 13.5677
#
#
#
# Elastic Compliance Matrix: (Units=1/GPa)
#
#
# Indices 1 2 3 4 5 6 
#
# 1 0.015588 0.000189 0.000525 0.000000 0.000000 0.000000
# 2 0.000189 0.008018 -0.005842 0.000000 0.000000 0.000000
# 3 0.000525 -0.005842 0.010074 0.000000 0.000000 0.000000
# 4 0.000000 0.000000 0.000000 0.070432 0.000000 0.000000
# 5 0.000000 0.000000 0.000000 0.000000 -0.271523 0.000000
# 6 0.000000 0.000000 0.000000 0.000000 0.000000 0.073705
#
#
# Mechanical properties :
#
#
# Convention : Reuss Voigt Hill
#
# Bulk Modulus (GPa) = 42.68867 75.27646 58.98257
# Shear Modulus (GPa) = -66.10074 27.62380 -19.23847
#
# Velocity S-wave (km/s) = -5.58191 3.60846 -3.01138
# Velocity P-wave (km/s) = 4.62835 7.26940 3.96375
#
# Compressibility (1/GPa) = 0.02342542
#
# Stress axis : x y z
#
# Youngs Moduli (GPa) = 64.15147 124.71253 99.26677
#
# Poissons Ratio (x) = -0.02357 -0.05216
# Poissons Ratio (y) = -0.01213 0.57991
# Poissons Ratio (z) = -0.03371 0.72857
#
# Static dielectric constant tensor:
#      x y z
#    x 1.839570 0.000000 0.000000 
#    y 0.000000 1.721950 0.000000 
#    z 0.000000 0.000000 1.727720 
# 
# From -- ./inp_files/6718.got.cif
#   From: 2010.05.17/outbox.cif.g08.bks.cpg/sg36_4_cif.got.tgz:6718.got - 2010.06.03 17:41:39.
