data_PCOD9351696
_publ_section_title
;
Structure prediction by ZEFSAII (Michael W. Deem and Ramdas Pophale) SiO2 
 PCOD9351696
Probable space group: C M C 21
;
_chemical_formula_sum "Si O2"
_cell_formula_units_Z 64
_cell_length_a 7.720844
_cell_length_b 14.295062
_cell_length_c 25.559012
_cell_angle_alpha 90.000000
_cell_angle_beta 90.000000
_cell_angle_gamma 90.000000
_cell_volume 2820.946715
_symmetry_space_group_name_H-M "C M C 21"
_symmetry_group_IT_number 36
_symmetry_cell_setting 'orthorhombic'
loop_
_space_group_symop_operation_xyz
x,y,z
-x,-y,1/2+z
x,-y,1/2+z
-x,y,z
1/2+x,1/2+y,z
1/2-x,1/2-y,1/2+z
1/2+x,1/2-y,1/2+z
1/2-x,1/2+y,z
loop_
_atom_site_type_symbol
_atom_site_label
_atom_site_fract_x
_atom_site_fract_y
_atom_site_fract_z
Si Si1 0.712802 0.374653 0.035680
Si Si2 0.206655 0.090117 0.018091
Si Si3 0.702775 0.454224 0.255795
Si Si4 0.300880 0.800532 0.331631
Si Si5 0.699753 0.244107 0.943450
Si Si6 0.698911 0.165288 0.241761
Si Si7 0.801684 0.893803 0.148359
Si Si8 0.706539 0.892691 0.632003
O O1 0.500000 0.368781 0.038147
O O2 0.757949 0.481854 0.022784
O O3 0.776287 0.353653 0.094812
O O4 0.776906 0.310319 0.988509
O O5 0.259470 0.138429 0.072977
O O6 0.000000 0.094671 0.012818
O O7 0.291564 0.142340 0.969724
O O8 0.500000 0.471560 0.245476
O O9 0.719145 0.393990 0.307866
O O10 0.791707 0.554887 0.255415
O O11 0.772687 0.391746 0.206918
O O12 0.500000 0.823905 0.342824
O O13 0.222357 0.761796 0.385621
O O14 0.293213 0.723035 0.286300
O O15 0.500000 0.275315 0.937518
O O16 0.500000 0.197616 0.243182
O O17 0.761612 0.170405 0.181337
O O18 0.000000 0.859394 0.151144
O O19 0.798085 0.006458 0.137804
O O20 0.500000 0.907002 0.638227
#
# Coordination Sequence:
#
# PCOD9351696 Si02
#       8
#     8   8   8   8   8   8   8   8
#     4   8  16  34  57  78 105 139 174 216 270 329
#     4  10  20  35  57  84 112 143 179 224 277 333
#     4  10  20  36  59  85 114 148 185 231 288 344
#     4  11  24  39  55  80 114 152 196 242 285 335
#     4  10  22  39  56  77 107 146 191 234 276 326
#     4  10  21  38  60  85 113 148 190 236 285 338
#     4   8  15  30  54  82 108 137 177 224 276 335
#     4   9  17  31  54  83 113 143 176 219 275 338
#
# _framework density 22.687418999999998
#
# number of rings (size 3 to 8) (size 9 to 14) (size 15 to 20)
#    0.000    2.500    0.000    2.625    0.000    5.000 
#    0.000    6.875    0.000    0.000    0.000    0.000 
#    0.000    0.000    0.000    0.000    0.000    0.000 
#
# Total GULP energy -178646.873859 kJ/mol
# GULP energy per Si atom -5582.714808 kJ/mol
# Density = 2.263578 g / cm^3
# Si number density = 22.687419 Si / 1000 Ang^3
#
#
#
# Elastic Constant Matrix: (Units=GPa)
#
#
# Indices 1 2 3 4 5 6 
#
# 1 48.6951 -2.7197 0.9072 0.0000 0.0000 0.0000
# 2 -2.7197 57.0514 27.1184 0.0000 0.0000 0.0000
# 3 0.9072 27.1184 147.5967 0.0000 0.0000 0.0000
# 4 0.0000 0.0000 0.0000 30.2823 0.0000 0.0000
# 5 0.0000 0.0000 0.0000 0.0000 19.6944 0.0000
# 6 0.0000 0.0000 0.0000 0.0000 0.0000 18.2392
#
#
#
# Elastic Compliance Matrix: (Units=1/GPa)
#
#
# Indices 1 2 3 4 5 6 
#
# 1 0.020606 0.001142 -0.000337 0.000000 0.000000 0.000000
# 2 0.001142 0.019269 -0.003547 0.000000 0.000000 0.000000
# 3 -0.000337 -0.003547 0.007429 0.000000 0.000000 0.000000
# 4 0.000000 0.000000 0.000000 0.033023 0.000000 0.000000
# 5 0.000000 0.000000 0.000000 0.000000 0.050776 0.000000
# 6 0.000000 0.000000 0.000000 0.000000 0.000000 0.054827
#
#
# Mechanical properties :
#
#
# Convention : Reuss Voigt Hill
#
# Bulk Modulus (GPa) = 23.91170 33.77281 28.84225
# Shear Modulus (GPa) = 24.34838 28.84567 26.59703
#
# Velocity S-wave (km/s) = 3.27954 3.56959 3.42764
# Velocity P-wave (km/s) = 4.99030 5.64870 5.32967
#
# Compressibility (1/GPa) = 0.04182053
#
# Stress axis : x y z
#
# Youngs Moduli (GPa) = 48.52957 51.89778 134.60676
#
# Poissons Ratio (x) = -0.05928 0.04530
# Poissons Ratio (y) = -0.05543 0.47749
# Poissons Ratio (z) = 0.01633 0.18410
#
# Static dielectric constant tensor:
#      x y z
#    x 1.865320 0.000000 0.000000 
#    y 0.000000 1.846810 0.000000 
#    z 0.000000 0.000000 1.881550 
# 
# From -- ./inp_files/16576.got.cif
#   From: 2010.05.17/outbox.cif.g08.bks.cpg/sg36_9_cif.got.tgz:16576.got - 2010.06.03 17:41:39.
