data_PCOD9351692
_publ_section_title
;
Structure prediction by ZEFSAII (Michael W. Deem and Ramdas Pophale) SiO2 
 PCOD9351692
Probable space group: C M C 21
;
_chemical_formula_sum "Si O2"
_cell_formula_units_Z 64
_cell_length_a 8.903531
_cell_length_b 18.497405
_cell_length_c 21.451121
_cell_angle_alpha 90.000000
_cell_angle_beta 90.000000
_cell_angle_gamma 90.000000
_cell_volume 3532.832714
_symmetry_space_group_name_H-M "C M C 21"
_symmetry_group_IT_number 36
_symmetry_cell_setting 'orthorhombic'
loop_
_space_group_symop_operation_xyz
x,y,z
-x,-y,1/2+z
x,-y,1/2+z
-x,y,z
1/2+x,1/2+y,z
1/2-x,1/2-y,1/2+z
1/2+x,1/2-y,1/2+z
1/2-x,1/2+y,z
loop_
_atom_site_type_symbol
_atom_site_label
_atom_site_fract_x
_atom_site_fract_y
_atom_site_fract_z
Si Si1 0.678363 0.677836 0.132250
Si Si2 0.820014 0.923241 0.887523
Si Si3 0.676191 0.664395 0.996000
Si Si4 0.823056 0.661613 0.501472
Si Si5 0.679011 0.673141 0.269817
Si Si6 0.678135 0.081221 0.883076
Si Si7 0.319875 0.667452 0.768768
Si Si8 0.822197 0.165473 0.629715
O O1 0.500000 0.698767 0.129337
O O2 0.703050 0.642484 0.199710
O O3 0.778561 0.749720 0.132207
O O4 0.708110 0.638392 0.066933
O O5 0.766466 0.877480 0.946889
O O6 0.774869 0.880274 0.824763
O O7 0.000000 0.930427 0.887777
O O8 0.745330 0.001387 0.888795
O O9 0.500000 0.650932 0.982435
O O10 0.698523 0.751351 0.996230
O O11 0.774621 0.626554 0.944038
O O12 0.765195 0.637006 0.569479
O O13 0.000000 0.647497 0.495442
O O14 0.500000 0.686172 0.276192
O O15 0.760451 0.750346 0.274688
O O16 0.500000 0.078810 0.877438
O O17 0.748382 0.120174 0.822915
O O18 0.500000 0.667680 0.774038
O O19 0.281100 0.638893 0.699111
O O20 0.000000 0.156630 0.620699
#
# Coordination Sequence:
#
# PCOD9351692 Si02
#       8
#     8   8   8   8   8   8   8   8
#     4   8  15  30  53  81 109 135 167 213 267 316
#     4  11  23  38  55  76 107 144 181 224 270 319
#     4   9  18  34  57  82 109 140 172 214 266 318
#     4  10  20  35  57  83 110 140 175 217 265 318
#     4   9  18  34  58  85 108 135 174 217 263 317
#     4  12  25  38  53  74 105 145 186 227 268 315
#     4  10  20  35  57  83 110 140 175 217 265 317
#     4   9  17  30  52  82 110 137 172 215 262 312
#
# _framework density 18.115774999999999
#
# number of rings (size 3 to 8) (size 9 to 14) (size 15 to 20)
#    0.000    2.250    0.000    4.125    0.000    7.000 
#    0.000    1.250    0.000    6.000    0.000    0.000 
#    0.000    0.000    0.000    0.000    0.000    0.000 
#
# Total GULP energy -178480.195738 kJ/mol
# GULP energy per Si atom -5577.506117 kJ/mol
# Density = 1.807454 g / cm^3
# Si number density = 18.115775 Si / 1000 Ang^3
#
#
#
# Elastic Constant Matrix: (Units=GPa)
#
#
# Indices 1 2 3 4 5 6 
#
# 1 62.3024 31.5174 56.2986 0.0000 0.0000 0.0000
# 2 31.5174 45.9972 48.2833 0.0000 0.0000 0.0000
# 3 56.2986 48.2833 156.5391 0.0000 0.0000 0.0000
# 4 0.0000 0.0000 0.0000 -8.9869 0.0000 0.0000
# 5 0.0000 0.0000 0.0000 0.0000 24.7967 0.0000
# 6 0.0000 0.0000 0.0000 0.0000 0.0000 -24.9805
#
#
#
# Elastic Compliance Matrix: (Units=1/GPa)
#
#
# Indices 1 2 3 4 5 6 
#
# 1 0.028078 -0.012775 -0.006158 0.000000 0.000000 0.000000
# 2 -0.012775 0.037962 -0.007115 0.000000 0.000000 0.000000
# 3 -0.006158 -0.007115 0.010797 0.000000 0.000000 0.000000
# 4 0.000000 0.000000 0.000000 -0.111273 0.000000 0.000000
# 5 0.000000 0.000000 0.000000 0.000000 0.040328 0.000000
# 6 0.000000 0.000000 0.000000 0.000000 0.000000 -0.040031
#
#
# Mechanical properties :
#
#
# Convention : Reuss Voigt Hill
#
# Bulk Modulus (GPa) = 40.41674 59.67082 50.04378
# Shear Modulus (GPa) = 190.81659 6.74849 98.78254
#
# Velocity S-wave (km/s) = 10.27426 1.93217 7.39235
# Velocity P-wave (km/s) = 12.77129 6.16343 10.02731
#
# Compressibility (1/GPa) = 0.02474222
#
# Stress axis : x y z
#
# Youngs Moduli (GPa) = 35.61550 26.34190 92.61688
#
# Poissons Ratio (x) = 0.33653 0.57030
# Poissons Ratio (y) = 0.45500 0.65893
# Poissons Ratio (z) = 0.21930 0.18741
#
# Static dielectric constant tensor:
#      x y z
#    x 1.600510 0.000000 0.000000 
#    y 0.000000 1.582630 0.000000 
#    z 0.000000 0.000000 1.657350 
# 
# From -- ./inp_files/15704.got.cif
#   From: 2010.05.17/outbox.cif.g08.bks.cpg/sg36_8_cif.got.tgz:15704.got - 2010.06.03 17:41:39.
