data_PCOD9351354
_publ_section_title
;
Structure prediction by ZEFSAII (Michael W. Deem and Ramdas Pophale) SiO2 
 PCOD9351354
Probable space group: C M C 21
;
_chemical_formula_sum "Si O2"
_cell_formula_units_Z 64
_cell_length_a 7.523081
_cell_length_b 31.663469
_cell_length_c 12.164771
_cell_angle_alpha 90.000000
_cell_angle_beta 90.000000
_cell_angle_gamma 90.000000
_cell_volume 2897.731684
_symmetry_space_group_name_H-M "C M C 21"
_symmetry_group_IT_number 36
_symmetry_cell_setting 'orthorhombic'
loop_
_space_group_symop_operation_xyz
x,y,z
-x,-y,1/2+z
x,-y,1/2+z
-x,y,z
1/2+x,1/2+y,z
1/2-x,1/2-y,1/2+z
1/2+x,1/2-y,1/2+z
1/2-x,1/2+y,z
loop_
_atom_site_type_symbol
_atom_site_label
_atom_site_fract_x
_atom_site_fract_y
_atom_site_fract_z
Si Si1 0.704130 0.058123 0.469640
Si Si2 0.715598 0.874571 0.794845
Si Si3 0.217306 0.302534 0.964289
Si Si4 0.205266 0.208526 0.930581
Si Si5 0.203603 0.963317 0.434240
Si Si6 0.207737 0.123023 0.038530
Si Si7 0.784300 0.576043 0.711981
Si Si8 0.214211 0.671284 0.707637
O O1 0.500000 0.073099 0.477981
O O2 0.776204 0.084873 0.367011
O O3 0.782295 0.067833 0.589036
O O4 0.707026 0.008113 0.454470
O O5 0.500000 0.874761 0.787468
O O6 0.771221 0.833379 0.865101
O O7 0.780588 0.875238 0.670050
O O8 0.282153 0.254445 0.956160
O O9 0.000000 0.302343 0.961401
O O10 0.270642 0.320558 0.082902
O O11 0.212504 0.202196 0.799696
O O12 0.000000 0.210179 0.967890
O O13 0.284532 0.166309 0.986533
O O14 0.282426 0.921487 0.492991
O O15 0.210599 0.954272 0.304657
O O16 0.000000 0.968088 0.471516
O O17 0.000000 0.122101 0.005082
O O18 0.736407 0.623926 0.741503
O O19 0.000000 0.572137 0.714027
O O20 0.000000 0.674370 0.709873
#
# Coordination Sequence:
#
# PCOD9351354 Si02
#       8
#     8   8   8   8   8   8   8   8
#     4  10  22  40  61  86 113 145 190 239 288 334
#     4  10  21  39  61  84 112 148 190 236 282 333
#     4   9  19  37  60  85 114 149 186 232 287 332
#     4  10  21  38  58  82 117 155 187 226 281 337
#     4  11  24  40  58  83 118 153 189 230 281 342
#     4  10  23  40  55  80 119 156 185 225 282 339
#     4  10  20  38  63  86 111 144 190 243 286 331
#     4  10  19  36  62  86 110 144 191 239 281 328
#
# _framework density 22.08624
#
# number of rings (size 3 to 8) (size 9 to 14) (size 15 to 20)
#    0.000    2.000    2.500    0.375    3.500    2.500 
#    0.000    1.250    0.000    0.000    0.000    0.000 
#    0.000    0.000    0.000    0.000    0.000    0.000 
#
# Total GULP energy -178726.413292 kJ/mol
# GULP energy per Si atom -5585.200415 kJ/mol
# Density = 2.203597 g / cm^3
# Si number density = 22.086240 Si / 1000 Ang^3
#
#
#
# Elastic Constant Matrix: (Units=GPa)
#
#
# Indices 1 2 3 4 5 6 
#
# 1 56.1263 -0.5490 -10.9595 0.0000 0.0000 0.0000
# 2 -0.5490 125.4947 36.0824 0.0000 0.0000 0.0000
# 3 -10.9595 36.0824 114.5421 0.0000 0.0000 0.0000
# 4 0.0000 0.0000 0.0000 35.6550 0.0000 0.0000
# 5 0.0000 0.0000 0.0000 0.0000 25.2639 0.0000
# 6 0.0000 0.0000 0.0000 0.0000 0.0000 7.0720
#
#
#
# Elastic Compliance Matrix: (Units=1/GPa)
#
#
# Indices 1 2 3 4 5 6 
#
# 1 0.018181 -0.000463 0.001885 0.000000 0.000000 0.000000
# 2 -0.000463 0.008774 -0.002808 0.000000 0.000000 0.000000
# 3 0.001885 -0.002808 0.009795 0.000000 0.000000 0.000000
# 4 0.000000 0.000000 0.000000 0.028047 0.000000 0.000000
# 5 0.000000 0.000000 0.000000 0.000000 0.039582 0.000000
# 6 0.000000 0.000000 0.000000 0.000000 0.000000 0.141403
#
#
# Mechanical properties :
#
#
# Convention : Reuss Voigt Hill
#
# Bulk Modulus (GPa) = 29.42997 38.36788 33.89892
# Shear Modulus (GPa) = 19.23973 31.70413 25.47193
#
# Velocity S-wave (km/s) = 2.95467 3.79287 3.39970
# Velocity P-wave (km/s) = 4.99941 6.04903 5.54909
#
# Compressibility (1/GPa) = 0.03397897
#
# Stress axis : x y z
#
# Youngs Moduli (GPa) = 55.00380 113.97522 102.08872
#
# Poissons Ratio (x) = 0.05272 -0.19246
# Poissons Ratio (y) = 0.02544 0.28668
# Poissons Ratio (z) = -0.10370 0.32006
#
# Static dielectric constant tensor:
#      x y z
#    x 1.858990 0.000000 0.000000 
#    y 0.000000 1.799160 0.000000 
#    z 0.000000 0.000000 1.758010 
# 
# From -- ./inp_files/7062.got.cif
#   From: 2010.05.17/outbox.cif.g08.bks.cpg/sg36_4_cif.got.tgz:7062.got - 2010.06.03 17:41:39.
