data_PCOD9351328
_publ_section_title
;
Structure prediction by ZEFSAII (Michael W. Deem and Ramdas Pophale) SiO2 
 PCOD9351328
Probable space group: C M C 21
;
_chemical_formula_sum "Si O2"
_cell_formula_units_Z 56
_cell_length_a 9.833976
_cell_length_b 22.712551
_cell_length_c 12.996672
_cell_angle_alpha 90.000000
_cell_angle_beta 90.000000
_cell_angle_gamma 90.000000
_cell_volume 2902.867534
_symmetry_space_group_name_H-M "C M C 21"
_symmetry_group_IT_number 36
_symmetry_cell_setting 'orthorhombic'
loop_
_space_group_symop_operation_xyz
x,y,z
-x,-y,1/2+z
x,-y,1/2+z
-x,y,z
1/2+x,1/2+y,z
1/2-x,1/2-y,1/2+z
1/2+x,1/2-y,1/2+z
1/2-x,1/2+y,z
loop_
_atom_site_type_symbol
_atom_site_label
_atom_site_fract_x
_atom_site_fract_y
_atom_site_fract_z
Si Si1 0.156820 0.910731 0.555640
Si Si2 0.748363 0.289301 0.651720
Si Si3 0.148916 0.222965 0.464991
Si Si4 0.161373 0.917822 0.308591
Si Si5 0.649327 0.812159 0.280277
Si Si6 0.335624 0.973271 0.725717
Si Si7 0.845123 0.642542 0.352055
O O1 0.178566 0.843007 0.591213
O O2 0.176398 0.917050 0.433204
O O3 0.265542 0.948123 0.621703
O O4 0.000000 0.927470 0.580088
O O5 0.842012 0.252702 0.575161
O O6 0.650059 0.239674 0.696871
O O7 0.823769 0.318038 0.749239
O O8 0.171369 0.276970 0.386418
O O9 0.253634 0.171558 0.439472
O O10 0.000000 0.198655 0.443428
O O11 0.229169 0.857806 0.267150
O O12 0.000000 0.922590 0.285707
O O13 0.252042 0.969857 0.261062
O O14 0.500000 0.841180 0.283078
O O15 0.500000 0.981076 0.714704
O O16 0.312957 0.923025 0.813094
O O17 0.000000 0.644737 0.385129
#
# Coordination Sequence:
#
# PCOD9351328 Si02
#       7
#     8   8   8   8   8   8   8
#     4  10  21  39  65  92 117 156 202 246 301 361
#     4  10  19  36  59  89 118 155 194 242 296 356
#     4  10  20  34  56  85 118 154 192 236 292 352
#     4  11  23  40  63  90 121 158 199 251 301 355
#     4  10  21  36  57  88 121 155 193 240 292 351
#     4  10  22  41  63  87 116 157 202 251 298 353
#     4   9  20  36  57  83 113 149 196 244 294 350
#
# _framework density 19.291270000000001
#
# number of rings (size 3 to 8) (size 9 to 14) (size 15 to 20)
#    0.000    2.000    1.429    1.714    0.000    9.714 
#    2.571    0.000    0.000    0.000    0.000    0.000 
#    0.000    0.000    0.000    0.000    0.000    0.000 
#
# Total GULP energy -156138.068775 kJ/mol
# GULP energy per Si atom -5576.359599 kJ/mol
# Density = 1.924736 g / cm^3
# Si number density = 19.291270 Si / 1000 Ang^3
#
#
#
# Elastic Constant Matrix: (Units=GPa)
#
#
# Indices 1 2 3 4 5 6 
#
# 1 111.6511 61.3305 15.7594 0.0000 0.0000 0.0000
# 2 61.3305 73.3959 29.2068 0.0000 0.0000 0.0000
# 3 15.7594 29.2068 41.6109 0.0000 0.0000 0.0000
# 4 0.0000 0.0000 0.0000 19.3357 0.0000 0.0000
# 5 0.0000 0.0000 0.0000 0.0000 17.7278 0.0000
# 6 0.0000 0.0000 0.0000 0.0000 0.0000 14.6154
#
#
#
# Elastic Compliance Matrix: (Units=1/GPa)
#
#
# Indices 1 2 3 4 5 6 
#
# 1 0.017268 -0.016411 0.004979 0.000000 0.000000 0.000000
# 2 -0.016411 0.034501 -0.018001 0.000000 0.000000 0.000000
# 3 0.004979 -0.018001 0.034782 0.000000 0.000000 0.000000
# 4 0.000000 0.000000 0.000000 0.051718 0.000000 0.000000
# 5 0.000000 0.000000 0.000000 0.000000 0.056408 0.000000
# 6 0.000000 0.000000 0.000000 0.000000 0.000000 0.068421
#
#
# Mechanical properties :
#
#
# Convention : Reuss Voigt Hill
#
# Bulk Modulus (GPa) = 36.12113 48.80567 42.46340
# Shear Modulus (GPa) = 15.09697 18.35988 16.72843
#
# Velocity S-wave (km/s) = 2.80050 3.08834 2.94794
# Velocity P-wave (km/s) = 5.40572 6.17020 5.80057
#
# Compressibility (1/GPa) = 0.02768463
#
# Stress axis : x y z
#
# Youngs Moduli (GPa) = 57.90981 28.98467 28.75083
#
# Poissons Ratio (x) = 0.47566 -0.14314
# Poissons Ratio (y) = 0.95034 0.51755
# Poissons Ratio (z) = -0.28832 0.52176
#
# Static dielectric constant tensor:
#      x y z
#    x 1.678890 0.000000 0.000000 
#    y 0.000000 1.663120 0.000000 
#    z 0.000000 0.000000 1.687000 
# 
# From -- ./inp_files/10633.got.cif
#   From: 2010.05.17/outbox.cif.g08.bks.cpg/sg36_6_cif.got.tgz:10633.got - 2010.06.03 17:41:39.
