data_PCOD9351417
_publ_section_title
;
Structure prediction by ZEFSAII (Michael W. Deem and Ramdas Pophale) SiO2 
 PCOD9351417
Probable space group: C M C 21
;
_chemical_formula_sum "Si O2"
_cell_formula_units_Z 44
_cell_length_a 13.872606
_cell_length_b 7.629506
_cell_length_c 18.488566
_cell_angle_alpha 90.000000
_cell_angle_beta 90.000000
_cell_angle_gamma 90.000000
_cell_volume 1956.850731
_symmetry_space_group_name_H-M "C M C 21"
_symmetry_group_IT_number 36
_symmetry_cell_setting 'orthorhombic'
loop_
_space_group_symop_operation_xyz
x,y,z
-x,-y,1/2+z
x,-y,1/2+z
-x,y,z
1/2+x,1/2+y,z
1/2-x,1/2-y,1/2+z
1/2+x,1/2-y,1/2+z
1/2-x,1/2+y,z
loop_
_atom_site_type_symbol
_atom_site_label
_atom_site_fract_x
_atom_site_fract_y
_atom_site_fract_z
Si Si1 0.500000 0.963925 0.961560
Si Si2 0.000000 0.165516 0.429127
Si Si3 0.500000 0.624539 0.050844
Si Si4 0.889161 0.582626 0.170413
Si Si5 0.353275 0.452155 0.816975
Si Si6 0.331689 0.509474 0.652951
Si Si7 0.364045 0.864716 0.834539
O O1 0.412671 0.930147 0.906824
O O2 0.500000 0.167131 0.980811
O O3 0.500000 0.822045 0.023349
O O4 0.913780 0.162557 0.371946
O O5 0.000000 0.996504 0.479504
O O6 0.598022 0.581806 0.095012
O O7 0.786112 0.496345 0.143951
O O8 0.893792 0.555121 0.257272
O O9 0.000000 0.544631 0.145750
O O10 0.866346 0.788788 0.157221
O O11 0.357006 0.421565 0.730808
O O12 0.379755 0.655836 0.828240
O O13 0.245849 0.414373 0.839283
#
# Coordination Sequence:
#
# PCOD9351417 Si02
#       7
#     4   4   4   8   8   8   8
#     4  12  24  43  68 107 140 189 237 293 369 435
#     4  12  25  43  71 103 137 198 239 293 368 441
#     4  12  25  50  65 102 157 199 244 304 377 440
#     4  10  20  43  73 104 143 182 242 302 367 429
#     4  10  20  40  72 105 137 183 241 300 363 427
#     4  10  23  44  73 105 144 196 238 308 371 438
#     4  10  19  38  68 104 138 174 230 308 359 423
#
# _framework density 22.485106999999999
#
# number of rings (size 3 to 8) (size 9 to 14) (size 15 to 20)
#    0.000    1.455    3.636    1.636    2.545    1.455 
#    8.182    0.000    4.000    0.000    0.000    0.000 
#    0.000    0.000    0.000    0.000    0.000    0.000 
#
# Total GULP energy -122850.926820 kJ/mol
# GULP energy per Si atom -5584.133037 kJ/mol
# Density = 2.243393 g / cm^3
# Si number density = 22.485107 Si / 1000 Ang^3
#
#
#
# Elastic Constant Matrix: (Units=GPa)
#
#
# Indices 1 2 3 4 5 6 
#
# 1 191.7666 20.9482 68.2347 0.0000 0.0000 0.0000
# 2 20.9482 68.2690 28.3938 0.0000 0.0000 0.0000
# 3 68.2347 28.3938 90.0194 0.0000 0.0000 0.0000
# 4 0.0000 0.0000 0.0000 34.5787 0.0000 0.0000
# 5 0.0000 0.0000 0.0000 0.0000 4.0384 0.0000
# 6 0.0000 0.0000 0.0000 0.0000 0.0000 27.4420
#
#
#
# Elastic Compliance Matrix: (Units=1/GPa)
#
#
# Indices 1 2 3 4 5 6 
#
# 1 0.007141 0.000069 -0.005435 0.000000 0.000000 0.000000
# 2 0.000069 0.016860 -0.005370 0.000000 0.000000 0.000000
# 3 -0.005435 -0.005370 0.016922 0.000000 0.000000 0.000000
# 4 0.000000 0.000000 0.000000 0.028919 0.000000 0.000000
# 5 0.000000 0.000000 0.000000 0.000000 0.247623 0.000000
# 6 0.000000 0.000000 0.000000 0.000000 0.000000 0.036440
#
#
# Mechanical properties :
#
#
# Convention : Reuss Voigt Hill
#
# Bulk Modulus (GPa) = 51.41005 65.02316 58.21660
# Shear Modulus (GPa) = 13.09374 28.71039 20.90206
#
# Velocity S-wave (km/s) = 2.41577 3.57720 3.05224
# Velocity P-wave (km/s) = 5.54030 6.78549 6.19426
#
# Compressibility (1/GPa) = 0.01945145
#
# Stress axis : x y z
#
# Youngs Moduli (GPa) = 140.03909 59.31069 59.09438
#
# Poissons Ratio (x) = -0.00410 0.32115
# Poissons Ratio (y) = -0.00968 0.31737
# Poissons Ratio (z) = 0.76105 0.31853
#
# Static dielectric constant tensor:
#      x y z
#    x 1.874500 0.000000 0.000000 
#    y 0.000000 1.861810 0.000000 
#    z 0.000000 0.000000 1.792530 
# 
# From -- ./inp_files/14564.got.cif
#   From: 2010.05.17/outbox.cif.g08.bks.cpg/sg36_8_cif.got.tgz:14564.got - 2010.06.03 17:41:39.
