data_PCOD9351859
_publ_section_title
;
Structure prediction by ZEFSAII (Michael W. Deem and Ramdas Pophale) SiO2 
 PCOD9351859
Probable space group: C M C 21
;
_chemical_formula_sum "Si O2"
_cell_formula_units_Z 64
_cell_length_a 8.755482
_cell_length_b 33.310639
_cell_length_c 10.760022
_cell_angle_alpha 90.000000
_cell_angle_beta 90.000000
_cell_angle_gamma 90.000000
_cell_volume 3138.167950
_symmetry_space_group_name_H-M "C M C 21"
_symmetry_group_IT_number 36
_symmetry_cell_setting 'orthorhombic'
loop_
_space_group_symop_operation_xyz
x,y,z
-x,-y,1/2+z
x,-y,1/2+z
-x,y,z
1/2+x,1/2+y,z
1/2-x,1/2-y,1/2+z
1/2+x,1/2-y,1/2+z
1/2-x,1/2+y,z
loop_
_atom_site_type_symbol
_atom_site_label
_atom_site_fract_x
_atom_site_fract_y
_atom_site_fract_z
Si Si1 0.319452 0.238912 0.546360
Si Si2 0.683465 0.619843 0.923468
Si Si3 0.331353 0.089887 0.571486
Si Si4 0.684819 0.288015 0.789198
Si Si5 0.823670 0.451060 0.806722
Si Si6 0.683558 0.371693 0.699178
Si Si7 0.821824 0.837833 0.171229
Si Si8 0.176651 0.540651 0.823351
O O1 0.500000 0.244174 0.529618
O O2 0.269949 0.270446 0.653682
O O3 0.247104 0.236301 0.408304
O O4 0.276880 0.197116 0.612492
O O5 0.500000 0.619055 0.917522
O O6 0.732905 0.647395 0.807345
O O7 0.741674 0.574329 0.905977
O O8 0.730422 0.636519 0.056792
O O9 0.500000 0.109674 0.577814
O O10 0.322900 0.065255 0.446469
O O11 0.201670 0.122970 0.586151
O O12 0.321430 0.059809 0.686663
O O13 0.500000 0.286705 0.796118
O O14 0.735310 0.334917 0.787087
O O15 0.741564 0.415883 0.732048
O O16 0.757407 0.495946 0.811814
O O17 0.000000 0.454210 0.762625
O O18 0.500000 0.371902 0.703972
O O19 0.000000 0.826223 0.176341
O O20 0.000000 0.536951 0.865597
#
# Coordination Sequence:
#
# PCOD9351859 Si02
#       8
#     8   8   8   8   8   8   8   8
#     4  11  24  41  66  96 127 161 203 255 304 363
#     4   9  20  37  58  84 115 154 198 243 294 354
#     4   9  18  34  53  77 110 144 187 238 287 350
#     4  10  24  44  65  92 127 165 206 252 310 369
#     4  10  21  34  54  81 110 148 190 236 294 352
#     4  10  22  40  59  82 117 157 197 246 300 356
#     4  10  20  36  61  86 114 153 196 242 298 359
#     4   9  19  34  54  80 112 148 187 238 293 349
#
# _framework density 20.394062999999999
#
# number of rings (size 3 to 8) (size 9 to 14) (size 15 to 20)
#    0.000    2.250    0.000    1.500    3.500    5.500 
#    0.000    0.000    0.000    0.000    0.000    0.000 
#    0.000    0.000    0.000    0.000    0.000    0.000 
#
# Total GULP energy -178489.153442 kJ/mol
# GULP energy per Si atom -5577.786045 kJ/mol
# Density = 2.034765 g / cm^3
# Si number density = 20.394063 Si / 1000 Ang^3
#
#
#
# Elastic Constant Matrix: (Units=GPa)
#
#
# Indices 1 2 3 4 5 6 
#
# 1 11.6862 3.6342 22.6539 0.0000 0.0000 0.0000
# 2 3.6342 68.2408 31.6656 0.0000 0.0000 0.0000
# 3 22.6539 31.6656 95.6846 0.0000 0.0000 0.0000
# 4 0.0000 0.0000 0.0000 8.0124 0.0000 0.0000
# 5 0.0000 0.0000 0.0000 0.0000 26.3855 0.0000
# 6 0.0000 0.0000 0.0000 0.0000 0.0000 20.0204
#
#
#
# Elastic Compliance Matrix: (Units=1/GPa)
#
#
# Indices 1 2 3 4 5 6 
#
# 1 0.164896 0.011027 -0.042689 0.000000 0.000000 0.000000
# 2 0.011027 0.018050 -0.008584 0.000000 0.000000 0.000000
# 3 -0.042689 -0.008584 0.023399 0.000000 0.000000 0.000000
# 4 0.000000 0.000000 0.000000 0.124806 0.000000 0.000000
# 5 0.000000 0.000000 0.000000 0.000000 0.037900 0.000000
# 6 0.000000 0.000000 0.000000 0.000000 0.000000 0.049949
#
#
# Mechanical properties :
#
#
# Convention : Reuss Voigt Hill
#
# Bulk Modulus (GPa) = 7.94582 32.39099 20.16841
# Shear Modulus (GPa) = 9.23459 18.72753 13.98106
#
# Velocity S-wave (km/s) = 2.13024 3.03361 2.62113
# Velocity P-wave (km/s) = 3.15518 5.30918 4.36707
#
# Compressibility (1/GPa) = 0.12585235
#
# Stress axis : x y z
#
# Youngs Moduli (GPa) = 6.06443 55.40154 42.73721
#
# Poissons Ratio (x) = -0.61094 1.82443
# Poissons Ratio (y) = -0.06688 0.36687
# Poissons Ratio (z) = 0.25889 0.47558
#
# Static dielectric constant tensor:
#      x y z
#    x 1.723200 0.000000 0.000000 
#    y 0.000000 1.731110 0.000000 
#    z 0.000000 0.000000 1.748650 
# 
# From -- ./inp_files/7095.got.cif
#   From: 2010.05.17/outbox.cif.g08.bks.cpg/sg36_4_cif.got.tgz:7095.got - 2010.06.03 17:41:39.
