data_PCOD9351483
_publ_section_title
;
Structure prediction by ZEFSAII (Michael W. Deem and Ramdas Pophale) SiO2 
 PCOD9351483
Probable space group: C M C 21
;
_chemical_formula_sum "Si O2"
_cell_formula_units_Z 48
_cell_length_a 7.593665
_cell_length_b 19.495017
_cell_length_c 15.740996
_cell_angle_alpha 90.000000
_cell_angle_beta 90.000000
_cell_angle_gamma 90.000000
_cell_volume 2330.275455
_symmetry_space_group_name_H-M "C M C 21"
_symmetry_group_IT_number 36
_symmetry_cell_setting 'orthorhombic'
loop_
_space_group_symop_operation_xyz
x,y,z
-x,-y,1/2+z
x,-y,1/2+z
-x,y,z
1/2+x,1/2+y,z
1/2-x,1/2-y,1/2+z
1/2+x,1/2-y,1/2+z
1/2-x,1/2+y,z
loop_
_atom_site_type_symbol
_atom_site_label
_atom_site_fract_x
_atom_site_fract_y
_atom_site_fract_z
Si Si1 0.204515 0.088037 0.555140
Si Si2 0.786476 0.078620 0.744544
Si Si3 0.783180 0.827284 0.893940
Si Si4 0.707348 0.931111 0.546059
Si Si5 0.787292 0.077585 0.240203
Si Si6 0.207646 0.328321 0.404202
O O1 0.279301 0.097293 0.649915
O O2 0.277995 0.131732 0.477512
O O3 0.000000 0.107925 0.561166
O O4 0.212469 0.006831 0.536140
O O5 0.728847 0.130493 0.816826
O O6 0.000000 0.078350 0.742828
O O7 0.729994 0.000160 0.762488
O O8 0.726255 0.867935 0.809655
O O9 0.722605 0.748756 0.897017
O O10 0.000000 0.828370 0.892614
O O11 0.500000 0.939612 0.529764
O O12 0.731822 0.908479 0.643530
O O13 0.780785 0.875756 0.479883
O O14 0.000000 0.077357 0.240758
O O15 0.000000 0.320658 0.422157
#
# Coordination Sequence:
#
# PCOD9351483 Si02
#       6
#     8   8   8   8   8   8
#     4   9  18  35  57  75  95 129 172 210 241 286
#     4   9  18  32  53  78  97 123 167 211 247 285
#     4   9  18  34  54  74  99 133 170 204 241 292
#     4  10  20  33  51  76 104 131 161 203 254 299
#     4   9  18  34  56  76  94 127 173 210 241 285
#     4  10  21  34  49  73 105 137 163 196 250 303
#
# _framework density 20.598424000000001
#
# number of rings (size 3 to 8) (size 9 to 14) (size 15 to 20)
#    0.000    2.667    0.000    2.500    0.000    6.667 
#    0.000    4.167    0.000    0.000    0.000    0.000 
#    0.000    0.000    0.000    0.000    0.000    0.000 
#
# Total GULP energy -133958.441125 kJ/mol
# GULP energy per Si atom -5581.601714 kJ/mol
# Density = 2.055154 g / cm^3
# Si number density = 20.598424 Si / 1000 Ang^3
#
#
#
# Elastic Constant Matrix: (Units=GPa)
#
#
# Indices 1 2 3 4 5 6 
#
# 1 38.1179 -12.3118 -12.7772 0.0000 0.0000 0.0000
# 2 -12.3118 144.4128 127.4599 0.0000 0.0000 0.0000
# 3 -12.7772 127.4599 154.0333 0.0000 0.0000 0.0000
# 4 0.0000 0.0000 0.0000 -14.8163 0.0000 0.0000
# 5 0.0000 0.0000 0.0000 0.0000 18.4873 0.0000
# 6 0.0000 0.0000 0.0000 0.0000 0.0000 14.0478
#
#
#
# Elastic Compliance Matrix: (Units=1/GPa)
#
#
# Indices 1 2 3 4 5 6 
#
# 1 0.027041 0.001207 0.001244 0.000000 0.000000 0.000000
# 2 0.001207 0.025733 -0.021194 0.000000 0.000000 0.000000
# 3 0.001244 -0.021194 0.024133 0.000000 0.000000 0.000000
# 4 0.000000 0.000000 0.000000 -0.067493 0.000000 0.000000
# 5 0.000000 0.000000 0.000000 0.000000 0.054091 0.000000
# 6 0.000000 0.000000 0.000000 0.000000 0.000000 0.071186
#
#
# Mechanical properties :
#
#
# Convention : Reuss Voigt Hill
#
# Bulk Modulus (GPa) = 25.36603 60.14508 42.75556
# Shear Modulus (GPa) = 26.98091 19.15663 23.06877
#
# Velocity S-wave (km/s) = 3.62312 3.05291 3.35016
# Velocity P-wave (km/s) = 5.46296 6.45672 5.98052
#
# Compressibility (1/GPa) = 0.03942280
#
# Stress axis : x y z
#
# Youngs Moduli (GPa) = 36.98040 38.86031 41.43765
#
# Poissons Ratio (x) = -0.04692 -0.05155
# Poissons Ratio (y) = -0.04465 0.87821
# Poissons Ratio (z) = -0.04600 0.82359
#
# Static dielectric constant tensor:
#      x y z
#    x 1.770090 0.000000 0.000000 
#    y 0.000000 1.702060 0.000000 
#    z 0.000000 0.000000 1.717030 
# 
# From -- ./inp_files/10381.got.cif
#   From: 2010.05.17/outbox.cif.g08.bks.cpg/sg36_6_cif.got.tgz:10381.got - 2010.06.03 17:41:39.
