data_PCOD9351155
_publ_section_title
;
Structure prediction by ZEFSAII (Michael W. Deem and Ramdas Pophale) SiO2 
 PCOD9351155
Probable space group: C M C 21
;
_chemical_formula_sum "Si O2"
_cell_formula_units_Z 64
_cell_length_a 7.911443
_cell_length_b 29.745823
_cell_length_c 12.967356
_cell_angle_alpha 90.000000
_cell_angle_beta 90.000000
_cell_angle_gamma 90.000000
_cell_volume 3051.638791
_symmetry_space_group_name_H-M "C M C 21"
_symmetry_group_IT_number 36
_symmetry_cell_setting 'orthorhombic'
loop_
_space_group_symop_operation_xyz
x,y,z
-x,-y,1/2+z
x,-y,1/2+z
-x,y,z
1/2+x,1/2+y,z
1/2-x,1/2-y,1/2+z
1/2+x,1/2-y,1/2+z
1/2-x,1/2+y,z
loop_
_atom_site_type_symbol
_atom_site_label
_atom_site_fract_x
_atom_site_fract_y
_atom_site_fract_z
Si Si1 0.305316 0.081029 0.530550
Si Si2 0.296492 0.380227 0.330971
Si Si3 0.296139 0.933424 0.797488
Si Si4 0.297061 0.181732 0.006791
Si Si5 0.800567 0.030033 0.717283
Si Si6 0.807923 0.831006 0.133631
Si Si7 0.796259 0.665554 0.236520
Si Si8 0.795352 0.776868 0.938518
O O1 0.500000 0.097073 0.525364
O O2 0.249922 0.067779 0.417605
O O3 0.291637 0.040671 0.610570
O O4 0.193878 0.121052 0.575804
O O5 0.500000 0.379238 0.324297
O O6 0.246998 0.362889 0.443125
O O7 0.243145 0.430574 0.297254
O O8 0.229873 0.344670 0.244062
O O9 0.500000 0.934366 0.789693
O O10 0.237029 0.885933 0.751093
O O11 0.230099 0.979442 0.750966
O O12 0.500000 0.184400 0.011401
O O13 0.237422 0.225262 0.942698
O O14 0.234959 0.182649 0.124946
O O15 0.000000 0.036543 0.701792
O O16 0.000000 0.815154 0.153002
O O17 0.731817 0.798562 0.046728
O O18 0.752893 0.695618 0.336304
O O19 0.000000 0.664565 0.233074
O O20 0.000000 0.778566 0.942361
#
# Coordination Sequence:
#
# PCOD9351155 Si02
#       8
#     8   8   8   8   8   8   8   8
#     4  10  19  34  56  83 113 146 191 243 291 345
#     4   9  20  38  58  82 114 152 195 238 288 348
#     4  10  21  37  58  86 115 149 195 244 295 350
#     4  10  23  39  58  85 120 158 194 239 295 351
#     4  10  22  38  58  85 116 156 200 241 295 354
#     4   9  18  34  57  82 110 146 189 241 291 341
#     4  10  22  41  61  85 119 155 194 239 296 354
#     4  10  21  37  58  86 115 148 194 241 289 347
#
# _framework density 20.972338000000001
#
# number of rings (size 3 to 8) (size 9 to 14) (size 15 to 20)
#    0.000    2.250    1.250    1.500    1.750    6.000 
#    0.000    3.750    0.000    0.000    0.000    0.000 
#    0.000    0.000    0.000    0.000    0.000    0.000 
#
# Total GULP energy -178496.307518 kJ/mol
# GULP energy per Si atom -5578.009610 kJ/mol
# Density = 2.092460 g / cm^3
# Si number density = 20.972338 Si / 1000 Ang^3
#
#
#
# Elastic Constant Matrix: (Units=GPa)
#
#
# Indices 1 2 3 4 5 6 
#
# 1 21.5734 5.2685 8.4115 0.0000 0.0000 0.0000
# 2 5.2685 116.5435 56.7142 0.0000 0.0000 0.0000
# 3 8.4115 56.7142 91.9447 0.0000 0.0000 0.0000
# 4 0.0000 0.0000 0.0000 23.2434 0.0000 0.0000
# 5 0.0000 0.0000 0.0000 0.0000 -1.6142 0.0000
# 6 0.0000 0.0000 0.0000 0.0000 0.0000 -76.6397
#
#
#
# Elastic Compliance Matrix: (Units=1/GPa)
#
#
# Indices 1 2 3 4 5 6 
#
# 1 0.048068 -0.000047 -0.004368 0.000000 0.000000 0.000000
# 2 -0.000047 0.012261 -0.007559 0.000000 0.000000 0.000000
# 3 -0.004368 -0.007559 0.015938 0.000000 0.000000 0.000000
# 4 0.000000 0.000000 0.000000 0.043023 0.000000 0.000000
# 5 0.000000 0.000000 0.000000 0.000000 -0.619520 0.000000
# 6 0.000000 0.000000 0.000000 0.000000 0.000000 -0.013048
#
#
# Mechanical properties :
#
#
# Convention : Reuss Voigt Hill
#
# Bulk Modulus (GPa) = 19.11354 41.20554 30.15954
# Shear Modulus (GPa) = -10.59570 -0.35761 -5.47665
#
# Velocity S-wave (km/s) = -2.25015 -0.41338 -1.61773
# Velocity P-wave (km/s) = 1.54355 4.41162 3.30491
#
# Compressibility (1/GPa) = 0.05231894
#
# Stress axis : x y z
#
# Youngs Moduli (GPa) = 20.80377 81.56024 62.74287
#
# Poissons Ratio (x) = 0.00385 0.27408
# Poissons Ratio (y) = 0.00098 0.47424
# Poissons Ratio (z) = 0.09088 0.61648
#
# Static dielectric constant tensor:
#      x y z
#    x 1.788400 0.000000 0.000000 
#    y 0.000000 1.753080 0.000000 
#    z 0.000000 0.000000 1.770980 
# 
# From -- ./inp_files/7128.got.cif
#   From: 2010.05.17/outbox.cif.g08.bks.cpg/sg36_4_cif.got.tgz:7128.got - 2010.06.03 17:41:39.
