data_PCOD9351458
_publ_section_title
;
Structure prediction by ZEFSAII (Michael W. Deem and Ramdas Pophale) SiO2 
 PCOD9351458
Probable space group: C M C 21
;
_chemical_formula_sum "Si O2"
_cell_formula_units_Z 56
_cell_length_a 17.985026
_cell_length_b 16.678227
_cell_length_c 9.186038
_cell_angle_alpha 90.000000
_cell_angle_beta 90.000000
_cell_angle_gamma 90.000000
_cell_volume 2755.428767
_symmetry_space_group_name_H-M "C M C 21"
_symmetry_group_IT_number 36
_symmetry_cell_setting 'orthorhombic'
loop_
_space_group_symop_operation_xyz
x,y,z
-x,-y,1/2+z
x,-y,1/2+z
-x,y,z
1/2+x,1/2+y,z
1/2-x,1/2-y,1/2+z
1/2+x,1/2-y,1/2+z
1/2-x,1/2+y,z
loop_
_atom_site_type_symbol
_atom_site_label
_atom_site_fract_x
_atom_site_fract_y
_atom_site_fract_z
Si Si1 0.662648 0.584132 0.606660
Si Si2 0.313028 0.114386 0.703268
Si Si3 0.590112 0.737015 0.271476
Si Si4 0.134129 0.391299 0.723807
Si Si5 0.187518 0.083619 0.261571
Si Si6 0.415225 0.734653 0.612873
Si Si7 0.365052 0.009788 0.962299
O O1 0.729502 0.639584 0.670647
O O2 0.674430 0.573872 0.434461
O O3 0.664426 0.498118 0.681804
O O4 0.593033 0.640156 0.640460
O O5 0.374063 0.183744 0.700472
O O6 0.317491 0.066288 0.855036
O O7 0.326877 0.049748 0.576529
O O8 0.500000 0.731545 0.255621
O O9 0.635266 0.658737 0.217252
O O10 0.609190 0.744738 0.444120
O O11 0.224273 0.402753 0.732187
O O12 0.123224 0.296599 0.721764
O O13 0.099726 0.426543 0.573441
O O14 0.098761 0.446456 0.850539
O O15 0.500000 0.758145 0.618621
#
# Coordination Sequence:
#
# PCOD9351458 Si02
#       7
#     8   8   8   8   8   8   8
#     4  11  21  38  64  88 114 150 195 245 290 339
#     4  11  18  39  59  91 115 150 191 243 288 341
#     4  10  23  40  58  84 121 160 192 231 290 349
#     4  11  18  39  59  91 115 150 191 243 288 341
#     4  11  21  38  64  88 114 150 195 245 290 339
#     4  10  23  40  58  84 121 160 192 231 290 349
#     4  10  20  32  65  88 119 142 196 240 290 342
#
# _framework density 20.323516000000001
#
# number of rings (size 3 to 8) (size 9 to 14) (size 15 to 20)
#    0.000    1.429    5.714    0.857    0.000    0.571 
#    2.571    5.000    0.000    0.000    0.000    0.000 
#    0.000    0.000    0.000    0.000    0.000    0.000 
#
# Total GULP energy -155895.572601 kJ/mol
# GULP energy per Si atom -5567.699021 kJ/mol
# Density = 2.027726 g / cm^3
# Si number density = 20.323516 Si / 1000 Ang^3
#
#
#
# Elastic Constant Matrix: (Units=GPa)
#
#
# Indices 1 2 3 4 5 6 
#
# 1 49.3084 41.3092 13.2465 0.0000 0.0000 0.0000
# 2 41.3092 137.8133 31.4795 0.0000 0.0000 0.0000
# 3 13.2465 31.4795 88.9334 0.0000 0.0000 0.0000
# 4 0.0000 0.0000 0.0000 26.0188 0.0000 0.0000
# 5 0.0000 0.0000 0.0000 0.0000 9.3298 0.0000
# 6 0.0000 0.0000 0.0000 0.0000 0.0000 -6.8833
#
#
#
# Elastic Compliance Matrix: (Units=1/GPa)
#
#
# Indices 1 2 3 4 5 6 
#
# 1 0.027212 -0.007867 -0.001269 0.000000 0.000000 0.000000
# 2 -0.007867 0.010169 -0.002428 0.000000 0.000000 0.000000
# 3 -0.001269 -0.002428 0.012293 0.000000 0.000000 0.000000
# 4 0.000000 0.000000 0.000000 0.038434 0.000000 0.000000
# 5 0.000000 0.000000 0.000000 0.000000 0.107183 0.000000
# 6 0.000000 0.000000 0.000000 0.000000 0.000000 -0.145280
#
#
# Mechanical properties :
#
#
# Convention : Reuss Voigt Hill
#
# Bulk Modulus (GPa) = 37.66884 49.79171 43.73028
# Shear Modulus (GPa) = 60.98617 18.36107 39.67362
#
# Velocity S-wave (km/s) = 5.48387 3.00899 4.42306
# Velocity P-wave (km/s) = 7.65976 6.05184 6.90278
#
# Compressibility (1/GPa) = 0.02654714
#
# Stress axis : x y z
#
# Youngs Moduli (GPa) = 36.74844 98.33974 81.34961
#
# Poissons Ratio (x) = 0.77364 0.10320
# Poissons Ratio (y) = 0.28910 0.19749
# Poissons Ratio (z) = 0.04662 0.23873
#
# Static dielectric constant tensor:
#      x y z
#    x 1.732840 0.000000 0.000000 
#    y 0.000000 1.744370 0.000000 
#    z 0.000000 0.000000 1.749600 
# 
# From -- ./inp_files/5222.got.cif
#   From: 2010.05.17/outbox.cif.g08.bks.cpg/sg36_3_cif.got.tgz:5222.got - 2010.06.03 17:41:39.
