data_PCOD9351165
_publ_section_title
;
Structure prediction by ZEFSAII (Michael W. Deem and Ramdas Pophale) SiO2 
 PCOD9351165
Probable space group: C M C 21
;
_chemical_formula_sum "Si O2"
_cell_formula_units_Z 64
_cell_length_a 13.639931
_cell_length_b 30.623265
_cell_length_c 7.779254
_cell_angle_alpha 90.000000
_cell_angle_beta 90.000000
_cell_angle_gamma 90.000000
_cell_volume 3249.388340
_symmetry_space_group_name_H-M "C M C 21"
_symmetry_group_IT_number 36
_symmetry_cell_setting 'orthorhombic'
loop_
_space_group_symop_operation_xyz
x,y,z
-x,-y,1/2+z
x,-y,1/2+z
-x,y,z
1/2+x,1/2+y,z
1/2-x,1/2-y,1/2+z
1/2+x,1/2-y,1/2+z
1/2-x,1/2+y,z
loop_
_atom_site_type_symbol
_atom_site_label
_atom_site_fract_x
_atom_site_fract_y
_atom_site_fract_z
Si Si1 0.116948 0.869854 0.727090
Si Si2 0.381057 0.963169 0.202075
Si Si3 0.383459 0.190438 0.445192
Si Si4 0.616868 0.057315 0.094310
Si Si5 0.745483 0.892800 0.030006
Si Si6 0.384504 0.716970 0.060520
Si Si7 0.803098 0.142982 0.878604
Si Si8 0.386772 0.845221 0.582671
O O1 0.178202 0.893018 0.874085
O O2 0.145168 0.817584 0.710332
O O3 0.151691 0.884735 0.537428
O O4 0.000000 0.873339 0.746565
O O5 0.500000 0.959835 0.177598
O O6 0.357380 0.945259 0.392262
O O7 0.323079 0.934474 0.063772
O O8 0.348226 0.013618 0.187349
O O9 0.500000 0.185472 0.480245
O O10 0.325162 0.148877 0.510449
O O11 0.344454 0.234782 0.532417
O O12 0.375132 0.189091 0.236742
O O13 0.500000 0.053005 0.101320
O O14 0.634623 0.106180 0.160198
O O15 0.805049 0.882726 0.204081
O O16 0.500000 0.722273 0.081525
O O17 0.363919 0.687921 0.890550
O O18 0.692964 0.157739 0.933328
O O19 0.500000 0.844719 0.523243
#
# Coordination Sequence:
#
# PCOD9351165 Si02
#       8
#     8   8   8   8   8   8   8   8
#     4   9  21  41  60  81 111 147 200 256 305 363
#     4  10  21  35  53  86 127 164 199 237 288 364
#     4  10  20  34  57  86 121 160 198 244 295 355
#     4   9  19  34  53  80 124 171 200 234 286 354
#     4  12  22  33  60  92 116 153 201 245 305 360
#     4   8  18  39  58  78 112 152 200 251 295 349
#     4  10  20  36  58  81 117 152 194 245 296 353
#     4  10  19  34  56  86 126 163 199 240 295 354
#
# _framework density 19.696014000000002
#
# number of rings (size 3 to 8) (size 9 to 14) (size 15 to 20)
#    0.750    1.500    2.500    0.375    1.750    3.500 
#    0.000    0.000    0.000    5.250    0.000    4.375 
#    0.000    0.000    0.000    0.000    0.000    0.000 
#
# Total GULP energy -178168.238766 kJ/mol
# GULP energy per Si atom -5567.757461 kJ/mol
# Density = 1.965119 g / cm^3
# Si number density = 19.696014 Si / 1000 Ang^3
#
#
#
# Elastic Constant Matrix: (Units=GPa)
#
#
# Indices 1 2 3 4 5 6 
#
# 1 56.1136 -18.4754 25.6486 0.0000 0.0000 0.0000
# 2 -18.4754 35.6239 15.7277 0.0000 0.0000 0.0000
# 3 25.6486 15.7277 83.0669 0.0000 0.0000 0.0000
# 4 0.0000 0.0000 0.0000 23.5848 0.0000 0.0000
# 5 0.0000 0.0000 0.0000 0.0000 21.0435 0.0000
# 6 0.0000 0.0000 0.0000 0.0000 0.0000 15.6616
#
#
#
# Elastic Compliance Matrix: (Units=1/GPa)
#
#
# Indices 1 2 3 4 5 6 
#
# 1 0.031727 0.022674 -0.014089 0.000000 0.000000 0.000000
# 2 0.022674 0.046837 -0.015869 0.000000 0.000000 0.000000
# 3 -0.014089 -0.015869 0.019394 0.000000 0.000000 0.000000
# 4 0.000000 0.000000 0.000000 0.042400 0.000000 0.000000
# 5 0.000000 0.000000 0.000000 0.000000 0.047521 0.000000
# 6 0.000000 0.000000 0.000000 0.000000 0.000000 0.063851
#
#
# Mechanical properties :
#
#
# Convention : Reuss Voigt Hill
#
# Bulk Modulus (GPa) = 11.99205 24.51180 18.25193
# Shear Modulus (GPa) = 17.00146 22.18486 19.59316
#
# Velocity S-wave (km/s) = 2.94120 3.35977 3.15743
# Velocity P-wave (km/s) = 4.19952 5.24622 4.75178
#
# Compressibility (1/GPa) = 0.08338857
#
# Stress axis : x y z
#
# Youngs Moduli (GPa) = 31.51936 21.35081 51.56367
#
# Poissons Ratio (x) = -0.48412 0.72650
# Poissons Ratio (y) = -0.71468 0.81827
# Poissons Ratio (z) = 0.44409 0.33882
#
# Static dielectric constant tensor:
#      x y z
#    x 1.701990 0.000000 0.000000 
#    y 0.000000 1.728740 0.000000 
#    z 0.000000 0.000000 1.754290 
# 
# From -- ./inp_files/4440.got.cif
#   From: 2010.05.17/outbox.cif.g08.bks.cpg/sg36_3_cif.got.tgz:4440.got - 2010.06.03 17:41:39.
