data_PCOD9351769
_publ_section_title
;
Structure prediction by ZEFSAII (Michael W. Deem and Ramdas Pophale) SiO2 
 PCOD9351769
Probable space group: C M C 21
;
_chemical_formula_sum "Si O2"
_cell_formula_units_Z 56
_cell_length_a 18.788071
_cell_length_b 9.798339
_cell_length_c 16.345970
_cell_angle_alpha 90.000000
_cell_angle_beta 90.000000
_cell_angle_gamma 90.000000
_cell_volume 3009.160492
_symmetry_space_group_name_H-M "C M C 21"
_symmetry_group_IT_number 36
_symmetry_cell_setting 'orthorhombic'
loop_
_space_group_symop_operation_xyz
x,y,z
-x,-y,1/2+z
x,-y,1/2+z
-x,y,z
1/2+x,1/2+y,z
1/2-x,1/2-y,1/2+z
1/2+x,1/2-y,1/2+z
1/2-x,1/2+y,z
loop_
_atom_site_type_symbol
_atom_site_label
_atom_site_fract_x
_atom_site_fract_y
_atom_site_fract_z
Si Si1 0.179542 0.505984 0.024240
Si Si2 0.921789 0.360485 0.238611
Si Si3 0.699046 0.927333 0.711869
Si Si4 0.086010 0.242231 0.067961
Si Si5 0.781098 0.153468 0.806083
Si Si6 0.160736 0.021180 0.959579
Si Si7 0.135477 0.270601 0.400709
O O1 0.198129 0.563802 0.114094
O O2 0.131689 0.370225 0.032602
O O3 0.256883 0.487073 0.982700
O O4 0.136473 0.614227 0.970040
O O5 0.870302 0.489054 0.239149
O O6 0.900946 0.256699 0.165803
O O7 0.918555 0.294075 0.327110
O O8 0.000000 0.408879 0.217301
O O9 0.697991 0.775211 0.745906
O O10 0.760768 0.018786 0.753972
O O11 0.000000 0.249301 0.053418
O O12 0.120415 0.107887 0.028398
O O13 0.835784 0.111048 0.876696
O O14 0.711895 0.210903 0.854764
O O15 0.126585 0.876318 0.940225
#
# Coordination Sequence:
#
# PCOD9351769 Si02
#       7
#     8   8   8   8   8   8   8
#     4  10  22  37  60  91 120 160 205 250 299 367
#     4   9  21  41  61  80 114 161 200 236 305 377
#     4  10  21  35  60  86 118 153 196 248 302 351
#     4  10  23  42  62  88 123 163 203 251 312 371
#     4  10  20  36  54  87 121 151 195 247 301 350
#     4  11  22  35  59  90 125 152 203 257 301 352
#     4  10  21  36  56  88 116 154 196 251 295 354
#
# _framework density 18.609843000000001
#
# number of rings (size 3 to 8) (size 9 to 14) (size 15 to 20)
#    0.000    2.000    1.429    1.714   12.000    1.143 
#    0.000    0.000    0.000    0.000    0.000    0.000 
#    0.000    0.000    0.000    0.000    0.000    0.000 
#
# Total GULP energy -156161.379873 kJ/mol
# GULP energy per Si atom -5577.192138 kJ/mol
# Density = 1.856749 g / cm^3
# Si number density = 18.609843 Si / 1000 Ang^3
#
#
#
# Elastic Constant Matrix: (Units=GPa)
#
#
# Indices 1 2 3 4 5 6 
#
# 1 45.9080 11.3442 17.0607 0.0000 0.0000 0.0000
# 2 11.3442 79.2960 55.3644 0.0000 0.0000 0.0000
# 3 17.0607 55.3644 102.9156 0.0000 0.0000 0.0000
# 4 0.0000 0.0000 0.0000 28.9753 0.0000 0.0000
# 5 0.0000 0.0000 0.0000 0.0000 13.9108 0.0000
# 6 0.0000 0.0000 0.0000 0.0000 0.0000 6.4711
#
#
#
# Elastic Compliance Matrix: (Units=1/GPa)
#
#
# Indices 1 2 3 4 5 6 
#
# 1 0.023264 -0.001018 -0.003309 0.000000 0.000000 0.000000
# 2 -0.001018 0.020242 -0.010720 0.000000 0.000000 0.000000
# 3 -0.003309 -0.010720 0.016032 0.000000 0.000000 0.000000
# 4 0.000000 0.000000 0.000000 0.034512 0.000000 0.000000
# 5 0.000000 0.000000 0.000000 0.000000 0.071887 0.000000
# 6 0.000000 0.000000 0.000000 0.000000 0.000000 0.154533
#
#
# Mechanical properties :
#
#
# Convention : Reuss Voigt Hill
#
# Bulk Modulus (GPa) = 33.96345 43.96201 38.96273
# Shear Modulus (GPa) = 13.87432 19.49480 16.68456
#
# Velocity S-wave (km/s) = 2.73341 3.24010 2.99748
# Velocity P-wave (km/s) = 5.31526 6.13775 5.74125
#
# Compressibility (1/GPa) = 0.02944342
#
# Stress axis : x y z
#
# Youngs Moduli (GPa) = 42.98501 49.40331 62.37382
#
# Poissons Ratio (x) = 0.05028 0.20639
# Poissons Ratio (y) = 0.04375 0.66867
# Poissons Ratio (z) = 0.14224 0.52962
#
# Static dielectric constant tensor:
#      x y z
#    x 1.663400 0.000000 0.000000 
#    y 0.000000 1.622250 0.000000 
#    z 0.000000 0.000000 1.673360 
# 
# From -- ./inp_files/12829.got.cif
#   From: 2010.05.17/outbox.cif.g08.bks.cpg/sg36_7_cif.got.tgz:12829.got - 2010.06.03 17:41:39.
