data_PCOD9351585
_publ_section_title
;
Structure prediction by ZEFSAII (Michael W. Deem and Ramdas Pophale) SiO2 
 PCOD9351585
Probable space group: C M C 21
;
_chemical_formula_sum "Si O2"
_cell_formula_units_Z 64
_cell_length_a 8.362132
_cell_length_b 25.948421
_cell_length_c 14.826540
_cell_angle_alpha 90.000000
_cell_angle_beta 90.000000
_cell_angle_gamma 90.000000
_cell_volume 3217.123758
_symmetry_space_group_name_H-M "C M C 21"
_symmetry_group_IT_number 36
_symmetry_cell_setting 'orthorhombic'
loop_
_space_group_symop_operation_xyz
x,y,z
-x,-y,1/2+z
x,-y,1/2+z
-x,y,z
1/2+x,1/2+y,z
1/2-x,1/2-y,1/2+z
1/2+x,1/2-y,1/2+z
1/2-x,1/2+y,z
loop_
_atom_site_type_symbol
_atom_site_label
_atom_site_fract_x
_atom_site_fract_y
_atom_site_fract_z
Si Si1 0.812725 0.923439 0.637840
Si Si2 0.694189 0.759836 0.661746
Si Si3 0.689452 0.146368 0.287765
Si Si4 0.806128 0.988191 0.474924
Si Si5 0.307437 0.355874 0.163739
Si Si6 0.806972 0.332928 0.510048
Si Si7 0.309843 0.896875 0.346062
Si Si8 0.692545 0.395308 0.970039
O O1 0.729735 0.904688 0.728985
O O2 0.755897 0.971270 0.576647
O O3 0.781488 0.875982 0.569506
O O4 0.000000 0.929763 0.656851
O O5 0.500000 0.759157 0.667814
O O6 0.750635 0.803710 0.731912
O O7 0.753008 0.702452 0.679336
O O8 0.731536 0.779606 0.560032
O O9 0.500000 0.150937 0.292991
O O10 0.758310 0.140180 0.386944
O O11 0.745194 0.946620 0.402762
O O12 0.000000 0.985949 0.473899
O O13 0.752654 0.045950 0.454440
O O14 0.500000 0.353874 0.159398
O O15 0.262180 0.391449 0.247514
O O16 0.249231 0.375898 0.067090
O O17 0.765316 0.346642 0.407488
O O18 0.000000 0.340644 0.519593
O O19 0.500000 0.898223 0.338892
O O20 0.500000 0.396509 0.973128
#
# Coordination Sequence:
#
# PCOD9351585 Si02
#       8
#     8   8   8   8   8   8   8   8
#     4   9  16  29  52  79 104 132 172 219 261 308
#     4   8  16  33  55  77 105 143 180 214 263 320
#     4  10  20  35  55  79 109 143 177 218 268 319
#     4   9  19  36  56  78 106 140 177 220 267 313
#     4  10  21  37  55  76 107 146 182 219 265 315
#     4   8  15  30  51  75 104 135 171 217 262 308
#     4  10  20  34  55  83 110 139 178 221 266 318
#     4  10  22  38  55  77 105 140 183 224 262 311
#
# _framework density 19.893546000000001
#
# number of rings (size 3 to 8) (size 9 to 14) (size 15 to 20)
#    0.000    2.750    0.000    1.875    0.000    4.000 
#    0.000    6.875    0.000    0.000    0.000    0.000 
#    0.000    0.000    0.000    0.000    0.000    0.000 
#
# Total GULP energy -178348.552887 kJ/mol
# GULP energy per Si atom -5573.392278 kJ/mol
# Density = 1.984827 g / cm^3
# Si number density = 19.893546 Si / 1000 Ang^3
#
#
#
# Elastic Constant Matrix: (Units=GPa)
#
#
# Indices 1 2 3 4 5 6 
#
# 1 4.9154 12.1741 13.3436 0.0000 0.0000 0.0000
# 2 12.1741 87.6151 54.2599 0.0000 0.0000 0.0000
# 3 13.3436 54.2599 153.8406 0.0000 0.0000 0.0000
# 4 0.0000 0.0000 0.0000 20.2563 0.0000 0.0000
# 5 0.0000 0.0000 0.0000 0.0000 19.8855 0.0000
# 6 0.0000 0.0000 0.0000 0.0000 0.0000 9.3295
#
#
#
# Elastic Compliance Matrix: (Units=1/GPa)
#
#
# Indices 1 2 3 4 5 6 
#
# 1 0.339715 -0.037047 -0.016399 0.000000 0.000000 0.000000
# 2 -0.037047 0.018644 -0.003362 0.000000 0.000000 0.000000
# 3 -0.016399 -0.003362 0.009109 0.000000 0.000000 0.000000
# 4 0.000000 0.000000 0.000000 0.049367 0.000000 0.000000
# 5 0.000000 0.000000 0.000000 0.000000 0.050288 0.000000
# 6 0.000000 0.000000 0.000000 0.000000 0.000000 0.107187
#
#
# Mechanical properties :
#
#
# Convention : Reuss Voigt Hill
#
# Bulk Modulus (GPa) = 3.93935 45.10293 24.52114
# Shear Modulus (GPa) = 6.47214 21.00049 13.73631
#
# Velocity S-wave (km/s) = 1.80567 3.25259 2.63057
# Velocity P-wave (km/s) = 2.51630 6.06854 4.64537
#
# Compressibility (1/GPa) = 0.25384926
#
# Stress axis : x y z
#
# Youngs Moduli (GPa) = 2.94365 53.63796 109.78747
#
# Poissons Ratio (x) = 1.98714 1.80041
# Poissons Ratio (y) = 0.10905 0.36913
# Poissons Ratio (z) = 0.04827 0.18034
#
# Static dielectric constant tensor:
#      x y z
#    x 1.684920 0.000000 0.000000 
#    y 0.000000 1.742570 0.000000 
#    z 0.000000 0.000000 1.711930 
# 
# From -- ./inp_files/10898.got.cif
#   From: 2010.05.17/outbox.cif.g08.bks.cpg/sg36_6_cif.got.tgz:10898.got - 2010.06.03 17:41:39.
