data_PCOD9351558
_publ_section_title
;
Structure prediction by ZEFSAII (Michael W. Deem and Ramdas Pophale) SiO2 
 PCOD9351558
Probable space group: C M C 21
;
_chemical_formula_sum "Si O2"
_cell_formula_units_Z 56
_cell_length_a 25.673187
_cell_length_b 13.963530
_cell_length_c 7.510538
_cell_angle_alpha 90.000000
_cell_angle_beta 90.000000
_cell_angle_gamma 90.000000
_cell_volume 2692.440126
_symmetry_space_group_name_H-M "C M C 21"
_symmetry_group_IT_number 36
_symmetry_cell_setting 'orthorhombic'
loop_
_space_group_symop_operation_xyz
x,y,z
-x,-y,1/2+z
x,-y,1/2+z
-x,y,z
1/2+x,1/2+y,z
1/2-x,1/2-y,1/2+z
1/2+x,1/2-y,1/2+z
1/2-x,1/2+y,z
loop_
_atom_site_type_symbol
_atom_site_label
_atom_site_fract_x
_atom_site_fract_y
_atom_site_fract_z
Si Si1 0.386576 0.796818 0.038960
Si Si2 0.000000 0.649375 0.511433
Si Si3 0.804470 0.775885 0.048853
Si Si4 0.202087 0.845141 0.641553
Si Si5 0.818777 0.551235 0.437399
Si Si6 0.000000 0.432697 0.412923
Si Si7 0.734979 0.549463 0.688340
Si Si8 0.612090 0.868580 0.450126
O O1 0.447102 0.790300 0.988529
O O2 0.349296 0.705811 0.064106
O O3 0.385962 0.849970 0.234685
O O4 0.359599 0.867089 0.894648
O O5 0.000000 0.548283 0.405892
O O6 0.000000 0.609927 0.714292
O O7 0.799023 0.824952 0.854145
O O8 0.859064 0.721039 0.036916
O O9 0.757050 0.700068 0.073846
O O10 0.801843 0.858602 0.199817
O O11 0.203863 0.959396 0.605988
O O12 0.782710 0.600780 0.584433
O O13 0.772860 0.507357 0.320848
O O14 0.852868 0.460985 0.494852
O O15 0.053124 0.393792 0.499766
#
# Coordination Sequence:
#
# PCOD9351558 Si02
#       8
#     8   4   8   8   8   4   8   8
#     4  10  20  35  54  80 108 147 183 227 273 336
#     4  10  20  34  56  79 110 144 186 227 281 330
#     4  11  22  35  53  78 110 145 181 229 277 339
#     4  11  21  35  53  77 110 144 183 226 281 335
#     4  12  19  33  53  78 109 142 178 220 274 334
#     4  10  20  34  56  79 108 146 184 231 277 336
#     4  12  22  33  51  78 110 144 179 223 277 333
#     4  10  20  34  54  79 110 144 185 225 278 330
#
# _framework density 20.798978000000002
#
# number of rings (size 3 to 8) (size 9 to 14) (size 15 to 20)
#    0.000    1.143    7.143    0.857    0.000    0.000 
#    0.000    0.000    0.000    0.857    0.000    0.000 
#    0.000    0.000    0.000    0.000    0.000    0.571 
#
# Total GULP energy -156062.478873 kJ/mol
# GULP energy per Si atom -5573.659960 kJ/mol
# Density = 2.075164 g / cm^3
# Si number density = 20.798978 Si / 1000 Ang^3
#
#
#
# Elastic Constant Matrix: (Units=GPa)
#
#
# Indices 1 2 3 4 5 6 
#
# 1 173.2281 71.2230 29.4069 0.0000 0.0000 0.0000
# 2 71.2230 112.5095 11.2882 0.0000 0.0000 0.0000
# 3 29.4069 11.2882 39.2230 0.0000 0.0000 0.0000
# 4 0.0000 0.0000 0.0000 23.3798 0.0000 0.0000
# 5 0.0000 0.0000 0.0000 0.0000 17.1837 0.0000
# 6 0.0000 0.0000 0.0000 0.0000 0.0000 35.9343
#
#
#
# Elastic Compliance Matrix: (Units=1/GPa)
#
#
# Indices 1 2 3 4 5 6 
#
# 1 0.008686 -0.004989 -0.005076 0.000000 0.000000 0.000000
# 2 -0.004989 0.012018 0.000282 0.000000 0.000000 0.000000
# 3 -0.005076 0.000282 0.029220 0.000000 0.000000 0.000000
# 4 0.000000 0.000000 0.000000 0.042772 0.000000 0.000000
# 5 0.000000 0.000000 0.000000 0.000000 0.058195 0.000000
# 6 0.000000 0.000000 0.000000 0.000000 0.000000 0.027829
#
#
# Mechanical properties :
#
#
# Convention : Reuss Voigt Hill
#
# Bulk Modulus (GPa) = 32.94156 60.97744 46.95950
# Shear Modulus (GPa) = 23.99170 29.50237 26.74704
#
# Velocity S-wave (km/s) = 3.40001 3.77032 3.58994
# Velocity P-wave (km/s) = 5.59338 6.95233 6.30955
#
# Compressibility (1/GPa) = 0.03035679
#
# Stress axis : x y z
#
# Youngs Moduli (GPa) = 115.13113 83.20717 34.22321
#
# Poissons Ratio (x) = 0.41513 0.17372
# Poissons Ratio (y) = 0.57440 -0.00964
# Poissons Ratio (z) = 0.58443 -0.02344
#
# Static dielectric constant tensor:
#      x y z
#    x 1.736700 0.000000 0.000000 
#    y 0.000000 1.786000 0.000000 
#    z 0.000000 0.000000 2.042640 
# 
# From -- ./inp_files/5639.got.cif
#   From: 2010.05.17/outbox.cif.g08.bks.cpg/sg36_3_cif.got.tgz:5639.got - 2010.06.03 17:41:39.
