data_PCOD9351872
_publ_section_title
;
Structure prediction by ZEFSAII (Michael W. Deem and Ramdas Pophale) SiO2 
 PCOD9351872
Probable space group: C M C 21
;
_chemical_formula_sum "Si O2"
_cell_formula_units_Z 48
_cell_length_a 20.310255
_cell_length_b 19.671614
_cell_length_c 4.987069
_cell_angle_alpha 90.000000
_cell_angle_beta 90.000000
_cell_angle_gamma 90.000000
_cell_volume 1992.511090
_symmetry_space_group_name_H-M "C M C 21"
_symmetry_group_IT_number 36
_symmetry_cell_setting 'orthorhombic'
loop_
_space_group_symop_operation_xyz
x,y,z
-x,-y,1/2+z
x,-y,1/2+z
-x,y,z
1/2+x,1/2+y,z
1/2-x,1/2-y,1/2+z
1/2+x,1/2-y,1/2+z
1/2-x,1/2+y,z
loop_
_atom_site_type_symbol
_atom_site_label
_atom_site_fract_x
_atom_site_fract_y
_atom_site_fract_z
Si Si1 0.000000 0.164408 0.910460
Si Si2 0.071038 0.455918 0.983840
Si Si3 0.000000 0.943128 0.905371
Si Si4 0.728767 0.183312 0.205630
Si Si5 0.838881 0.959734 0.173688
Si Si6 0.204194 0.598784 0.704385
Si Si7 0.143918 0.804681 0.360351
O O1 0.000000 0.120344 0.636594
O O2 0.932182 0.207880 0.920963
O O3 0.000000 0.115388 0.166892
O O4 0.073652 0.522977 0.173970
O O5 0.133851 0.417058 0.086149
O O6 0.000000 0.423404 0.036620
O O7 0.000000 0.997533 0.161604
O O8 0.729715 0.157602 0.507928
O O9 0.803583 0.194294 0.106025
O O10 0.677368 0.245102 0.185409
O O11 0.703900 0.124410 0.006580
O O12 0.759302 0.959496 0.178368
O O13 0.855942 0.882952 0.251280
O O14 0.863339 0.016326 0.384817
#
# Coordination Sequence:
#
# PCOD9351872 Si02
#       7
#     4   8   4   8   8   8   8
#     4  11  26  44  72 104 142 182 240 303 344 426
#     4  10  20  36  61  94 137 180 217 276 353 413
#     4   9  22  44  68 100 144 196 228 277 362 432
#     4  11  25  44  72  91 134 186 232 281 354 413
#     4  11  23  37  63  95 128 167 221 279 334 410
#     4  11  22  41  65  99 129 177 234 288 334 416
#     4  11  26  49  70 103 139 187 236 292 362 423
#
# _framework density 24.090202000000001
#
# number of rings (size 3 to 8) (size 9 to 14) (size 15 to 20)
#    0.000    1.333    0.000    6.000    0.000   12.000 
#    3.000    0.000    0.000    0.000    0.000    0.000 
#    0.000    0.000    0.000    0.000    0.000    0.000 
#
# Total GULP energy -133659.595313 kJ/mol
# GULP energy per Si atom -5569.149805 kJ/mol
# Density = 2.403537 g / cm^3
# Si number density = 24.090202 Si / 1000 Ang^3
#
#
#
# Elastic Constant Matrix: (Units=GPa)
#
#
# Indices 1 2 3 4 5 6 
#
# 1 179.2409 29.7477 4.0623 0.0000 0.0000 0.0000
# 2 29.7477 49.2415 23.0968 0.0000 0.0000 0.0000
# 3 4.0623 23.0968 101.2938 0.0000 0.0000 0.0000
# 4 0.0000 0.0000 0.0000 44.6301 0.0000 0.0000
# 5 0.0000 0.0000 0.0000 0.0000 -353.7893 0.0000
# 6 0.0000 0.0000 0.0000 0.0000 0.0000 -7.6875
#
#
#
# Elastic Compliance Matrix: (Units=1/GPa)
#
#
# Indices 1 2 3 4 5 6 
#
# 1 0.006243 -0.004091 0.000683 0.000000 0.000000 0.000000
# 2 -0.004091 0.025422 -0.005633 0.000000 0.000000 0.000000
# 3 0.000683 -0.005633 0.011129 0.000000 0.000000 0.000000
# 4 0.000000 0.000000 0.000000 0.022406 0.000000 0.000000
# 5 0.000000 0.000000 0.000000 0.000000 -0.002827 0.000000
# 6 0.000000 0.000000 0.000000 0.000000 0.000000 -0.130080
#
#
# Mechanical properties :
#
#
# Convention : Reuss Voigt Hill
#
# Bulk Modulus (GPa) = 40.46818 49.28776 44.87797
# Shear Modulus (GPa) = -120.81036 -45.17806 -82.99421
#
# Velocity S-wave (km/s) = -7.08929 -4.33525 -5.87590
# Velocity P-wave (km/s) = 7.08348 2.13428 5.23119
#
# Compressibility (1/GPa) = 0.02471077
#
# Stress axis : x y z
#
# Youngs Moduli (GPa) = 160.18824 39.33636 89.85356
#
# Poissons Ratio (x) = 0.16094 -0.06133
# Poissons Ratio (y) = 0.65540 0.50610
# Poissons Ratio (z) = -0.10934 0.22156
#
# Static dielectric constant tensor:
#      x y z
#    x 3.110570 0.000000 0.000000 
#    y 0.000000 1.935720 0.000000 
#    z 0.000000 0.000000 1.898030 
# 
# From -- ./inp_files/1360.got.cif
#   From: 2010.05.17/outbox.cif.g08.bks.cpg/sg36_1_cif.got.tgz:1360.got - 2010.06.03 17:41:39.
