data_PCOD9351868
_publ_section_title
;
Structure prediction by ZEFSAII (Michael W. Deem and Ramdas Pophale) SiO2 
 PCOD9351868
Probable space group: C M C 21
;
_chemical_formula_sum "Si O2"
_cell_formula_units_Z 64
_cell_length_a 8.677154
_cell_length_b 14.628360
_cell_length_c 23.252533
_cell_angle_alpha 90.000000
_cell_angle_beta 90.000000
_cell_angle_gamma 90.000000
_cell_volume 2951.502900
_symmetry_space_group_name_H-M "C M C 21"
_symmetry_group_IT_number 36
_symmetry_cell_setting 'orthorhombic'
loop_
_space_group_symop_operation_xyz
x,y,z
-x,-y,1/2+z
x,-y,1/2+z
-x,y,z
1/2+x,1/2+y,z
1/2-x,1/2-y,1/2+z
1/2+x,1/2-y,1/2+z
1/2-x,1/2+y,z
loop_
_atom_site_type_symbol
_atom_site_label
_atom_site_fract_x
_atom_site_fract_y
_atom_site_fract_z
Si Si1 0.682399 0.163039 0.805800
Si Si2 0.321196 0.520835 0.724314
Si Si3 0.185067 0.450381 0.417070
Si Si4 0.677184 0.942204 0.108649
Si Si5 0.683297 0.599886 0.488236
Si Si6 0.322801 0.274398 0.637195
Si Si7 0.179482 0.337067 0.754749
Si Si8 0.684685 0.191952 0.017002
O O1 0.500000 0.179780 0.810463
O O2 0.734349 0.101240 0.859342
O O3 0.768311 0.258784 0.798667
O O4 0.718728 0.102158 0.749978
O O5 0.500000 0.543926 0.729728
O O6 0.276125 0.508467 0.657567
O O7 0.278022 0.429206 0.758227
O O8 0.258454 0.547602 0.431932
O O9 0.224321 0.382952 0.469736
O O10 0.000000 0.460608 0.414703
O O11 0.500000 0.973157 0.111163
O O12 0.683517 0.834134 0.124256
O O13 0.740140 0.946974 0.044190
O O14 0.500000 0.592095 0.492654
O O15 0.723185 0.707226 0.492119
O O16 0.500000 0.298429 0.651444
O O17 0.215666 0.298073 0.690937
O O18 0.267886 0.320106 0.577897
O O19 0.000000 0.358654 0.760784
O O20 0.500000 0.189848 0.026620
#
# Coordination Sequence:
#
# PCOD9351868 Si02
#       8
#     8   8   8   8   8   8   8   8
#     4  11  24  45  66  91 128 168 215 268 317 376
#     4  12  25  41  64  93 125 165 213 263 320 380
#     4  10  23  42  65  89 122 167 210 256 314 375
#     4  10  20  37  62  90 128 167 205 256 317 377
#     4  10  21  37  60  91 126 162 209 259 307 369
#     4  10  20  36  61  92 128 164 204 257 312 373
#     4  12  25  41  64  93 126 167 210 261 319 381
#     4   9  20  39  60  87 123 164 206 250 308 371
#
# _framework density 21.683865999999998
#
# number of rings (size 3 to 8) (size 9 to 14) (size 15 to 20)
#    0.000    1.500    1.250    3.750    1.750    4.000 
#    0.000    1.250    0.000    0.000    0.000    0.000 
#    0.000    0.000    0.000    0.000    0.000    0.000 
#
# Total GULP energy -179068.982223 kJ/mol
# GULP energy per Si atom -5595.905694 kJ/mol
# Density = 2.163451 g / cm^3
# Si number density = 21.683866 Si / 1000 Ang^3
#
#
#
# Elastic Constant Matrix: (Units=GPa)
#
#
# Indices 1 2 3 4 5 6 
#
# 1 35.3226 -11.9828 -3.4190 0.0000 0.0000 0.0000
# 2 -11.9828 47.0891 -5.7090 0.0000 0.0000 0.0000
# 3 -3.4190 -5.7090 32.4243 0.0000 0.0000 0.0000
# 4 0.0000 0.0000 0.0000 23.5617 0.0000 0.0000
# 5 0.0000 0.0000 0.0000 0.0000 29.2401 0.0000
# 6 0.0000 0.0000 0.0000 0.0000 0.0000 24.0577
#
#
#
# Elastic Compliance Matrix: (Units=1/GPa)
#
#
# Indices 1 2 3 4 5 6 
#
# 1 0.031720 0.008662 0.004870 0.000000 0.000000 0.000000
# 2 0.008662 0.024065 0.005151 0.000000 0.000000 0.000000
# 3 0.004870 0.005151 0.032261 0.000000 0.000000 0.000000
# 4 0.000000 0.000000 0.000000 0.042442 0.000000 0.000000
# 5 0.000000 0.000000 0.000000 0.000000 0.034200 0.000000
# 6 0.000000 0.000000 0.000000 0.000000 0.000000 0.041567
#
#
# Mechanical properties :
#
#
# Convention : Reuss Voigt Hill
#
# Bulk Modulus (GPa) = 7.97366 8.06827 8.02097
# Shear Modulus (GPa) = 23.73115 24.43502 24.08309
#
# Velocity S-wave (km/s) = 3.31178 3.36054 3.33625
# Velocity P-wave (km/s) = 4.27891 4.33435 4.30672
#
# Compressibility (1/GPa) = 0.12541287
#
# Stress axis : x y z
#
# Youngs Moduli (GPa) = 31.52539 41.55395 30.99674
#
# Poissons Ratio (x) = -0.35996 -0.15095
# Poissons Ratio (y) = -0.27308 -0.15965
# Poissons Ratio (z) = -0.15353 -0.21403
#
# Static dielectric constant tensor:
#      x y z
#    x 1.727630 0.000000 0.000000 
#    y 0.000000 1.820490 0.000000 
#    z 0.000000 0.000000 1.781700 
# 
# From -- ./inp_files/16544.got.cif
#   From: 2010.05.17/outbox.cif.g08.bks.cpg/sg36_9_cif.got.tgz:16544.got - 2010.06.03 17:41:39.
