data_PCOD9351865
_publ_section_title
;
Structure prediction by ZEFSAII (Michael W. Deem and Ramdas Pophale) SiO2 
 PCOD9351865
Probable space group: C M C 21
;
_chemical_formula_sum "Si O2"
_cell_formula_units_Z 56
_cell_length_a 18.592508
_cell_length_b 16.171851
_cell_length_c 9.071167
_cell_angle_alpha 90.000000
_cell_angle_beta 90.000000
_cell_angle_gamma 90.000000
_cell_volume 2727.475579
_symmetry_space_group_name_H-M "C M C 21"
_symmetry_group_IT_number 36
_symmetry_cell_setting 'orthorhombic'
loop_
_space_group_symop_operation_xyz
x,y,z
-x,-y,1/2+z
x,-y,1/2+z
-x,y,z
1/2+x,1/2+y,z
1/2-x,1/2-y,1/2+z
1/2+x,1/2-y,1/2+z
1/2-x,1/2+y,z
loop_
_atom_site_type_symbol
_atom_site_label
_atom_site_fract_x
_atom_site_fract_y
_atom_site_fract_z
Si Si1 0.418153 0.107977 0.351770
Si Si2 0.854614 0.494736 0.100292
Si Si3 0.634943 0.414816 0.346299
Si Si4 0.916928 0.236726 0.014505
Si Si5 0.297285 0.889538 0.362799
Si Si6 0.414824 0.425532 0.009392
Si Si7 0.086215 0.748519 0.854302
O O1 0.500000 0.121862 0.306137
O O2 0.381715 0.063098 0.214901
O O3 0.383387 0.193435 0.408344
O O4 0.413388 0.047658 0.494196
O O5 0.820533 0.425324 0.204187
O O6 0.802353 0.538558 0.985187
O O7 0.587155 0.352206 0.441161
O O8 0.713248 0.371680 0.352047
O O9 0.629397 0.504814 0.421307
O O10 0.608287 0.423319 0.179422
O O11 0.000000 0.262524 0.025816
O O12 0.892543 0.236372 0.183166
O O13 0.356967 0.821037 0.405603
O O14 0.500000 0.445753 0.997651
O O15 0.405174 0.334324 0.940775
O O16 0.000000 0.725134 0.864133
#
# Coordination Sequence:
#
# PCOD9351865 Si02
#       7
#     8   8   8   8   8   8   8
#     4  10  20  36  61  90 121 165 216 267 316 373
#     4  10  22  39  59  88 128 171 215 257 312 392
#     4  12  25  43  67  97 129 167 219 276 339 399
#     4  10  21  40  63  91 125 162 210 270 329 387
#     4  11  24  43  63  95 134 174 216 265 333 393
#     4  11  24  44  71  99 127 171 224 282 335 393
#     4  10  23  43  66  96 134 174 218 269 329 393
#
# _framework density 20.531807000000001
#
# number of rings (size 3 to 8) (size 9 to 14) (size 15 to 20)
#    0.000    1.429    1.429    3.429    2.000    5.143 
#    5.143    0.000    0.000    0.000    0.000    0.000 
#    0.000    0.000    0.000    0.000    0.000    0.000 
#
# Total GULP energy -156212.673328 kJ/mol
# GULP energy per Si atom -5579.024047 kJ/mol
# Density = 2.048508 g / cm^3
# Si number density = 20.531807 Si / 1000 Ang^3
#
#
#
# Elastic Constant Matrix: (Units=GPa)
#
#
# Indices 1 2 3 4 5 6 
#
# 1 70.4100 29.3790 16.2523 0.0000 0.0000 0.0000
# 2 29.3790 92.2307 24.0304 0.0000 0.0000 0.0000
# 3 16.2523 24.0304 76.0132 0.0000 0.0000 0.0000
# 4 0.0000 0.0000 0.0000 35.7831 0.0000 0.0000
# 5 0.0000 0.0000 0.0000 0.0000 -6.1239 0.0000
# 6 0.0000 0.0000 0.0000 0.0000 0.0000 3.5941
#
#
#
# Elastic Compliance Matrix: (Units=1/GPa)
#
#
# Indices 1 2 3 4 5 6 
#
# 1 0.016669 -0.004774 -0.002055 0.000000 0.000000 0.000000
# 2 -0.004774 0.013183 -0.003147 0.000000 0.000000 0.000000
# 3 -0.002055 -0.003147 0.014590 0.000000 0.000000 0.000000
# 4 0.000000 0.000000 0.000000 0.027946 0.000000 0.000000
# 5 0.000000 0.000000 0.000000 0.000000 -0.163294 0.000000
# 6 0.000000 0.000000 0.000000 0.000000 0.000000 0.278234
#
#
# Mechanical properties :
#
#
# Convention : Reuss Voigt Hill
#
# Bulk Modulus (GPa) = 40.83283 41.99749 41.41516
# Shear Modulus (GPa) = 23.20802 17.91680 20.56241
#
# Velocity S-wave (km/s) = 3.36571 2.95725 3.16807
# Velocity P-wave (km/s) = 5.91902 5.67095 5.79631
#
# Compressibility (1/GPa) = 0.02449010
#
# Stress axis : x y z
#
# Youngs Moduli (GPa) = 59.99183 75.85477 68.54138
#
# Poissons Ratio (x) = 0.36216 0.14083
# Poissons Ratio (y) = 0.28642 0.21569
# Poissons Ratio (z) = 0.12326 0.23870
#
# Static dielectric constant tensor:
#      x y z
#    x 1.991900 0.000000 0.000000 
#    y 0.000000 1.738080 0.000000 
#    z 0.000000 0.000000 1.706330 
# 
# From -- ./inp_files/5209.got.cif
#   From: 2010.05.17/outbox.cif.g08.bks.cpg/sg36_3_cif.got.tgz:5209.got - 2010.06.03 17:41:39.
