data_PCOD9351945
_publ_section_title
;
Structure prediction by ZEFSAII (Michael W. Deem and Ramdas Pophale) SiO2 
 PCOD9351945
Probable space group: C M C 21
;
_chemical_formula_sum "Si O2"
_cell_formula_units_Z 56
_cell_length_a 30.422572
_cell_length_b 9.042857
_cell_length_c 10.805415
_cell_angle_alpha 90.000000
_cell_angle_beta 90.000000
_cell_angle_gamma 90.000000
_cell_volume 2972.644960
_symmetry_space_group_name_H-M "C M C 21"
_symmetry_group_IT_number 36
_symmetry_cell_setting 'orthorhombic'
loop_
_space_group_symop_operation_xyz
x,y,z
-x,-y,1/2+z
x,-y,1/2+z
-x,y,z
1/2+x,1/2+y,z
1/2-x,1/2-y,1/2+z
1/2+x,1/2-y,1/2+z
1/2-x,1/2+y,z
loop_
_atom_site_type_symbol
_atom_site_label
_atom_site_fract_x
_atom_site_fract_y
_atom_site_fract_z
Si Si1 0.500000 0.137125 0.980290
Si Si2 0.594613 0.248556 0.969259
Si Si3 0.785751 0.753244 0.186201
Si Si4 0.343259 0.500000 0.076774
Si Si5 0.405387 0.248556 0.684288
Si Si6 0.500000 0.862875 0.173257
Si Si7 0.214249 0.753244 0.467346
Si Si8 0.846878 0.500000 0.576774
O O1 0.544536 0.225925 0.010999
O O2 0.500000 0.104805 0.826774
O O3 0.500000 1.000000 0.076773
O O4 0.591757 0.282865 0.826774
O O5 0.624336 0.375519 0.026273
O O6 0.621398 0.097763 0.991638
O O7 0.812102 0.907821 0.169939
O O8 0.768517 0.742286 0.326774
O O9 0.817332 0.613778 0.155880
O O10 0.750000 0.750000 0.076774
O O11 0.375664 0.624481 0.127275
O O12 0.312102 0.592179 0.983608
O O13 0.455464 0.225926 0.642548
O O14 0.378602 0.097763 0.661909
O O15 0.182668 0.613779 0.497667
#
# Coordination Sequence:
#
# PCOD9351945 Si02
#       8
#     4   8   8   8   8   4   8   8
#     4  10  20  37  62  92 122 156 198 243 292 350
#     4  10  20  37  60  86 120 156 194 242 294 350
#     4  11  24  40  60  86 117 155 199 247 300 356
#     4  10  23  39  58  86 122 158 198 243 297 356
#     4  10  20  37  60  86 120 156 194 242 294 350
#     4  10  20  37  62  92 122 156 198 243 292 350
#     4  11  24  40  60  86 117 155 199 247 300 356
#     4  10  21  37  60  84 114 152 198 243 293 354
#
# _framework density 18.838441
#
# number of rings (size 3 to 8) (size 9 to 14) (size 15 to 20)
#    0.000    1.714    1.429    2.571    0.000    9.714 
#    0.000    1.429    0.000    0.000    0.000    0.000 
#    0.000    0.000    0.000    0.000    0.000    0.000 
#
# Total GULP energy -156055.320827 kJ/mol
# GULP energy per Si atom -5573.404315 kJ/mol
# Density = 1.879556 g / cm^3
# Si number density = 18.838441 Si / 1000 Ang^3
#
#
#
# Elastic Constant Matrix: (Units=GPa)
#
#
# Indices 1 2 3 4 5 6 
#
# 1 130.9947 38.9565 47.5842 0.0000 0.0000 0.0000
# 2 38.9565 88.7435 18.4857 0.0000 0.0000 0.0000
# 3 47.5842 18.4857 92.0389 0.0000 0.0000 0.0000
# 4 0.0000 0.0000 0.0000 4.3339 0.0000 0.0000
# 5 0.0000 0.0000 0.0000 0.0000 27.3962 0.0000
# 6 0.0000 0.0000 0.0000 0.0000 0.0000 28.2958
#
#
#
# Elastic Compliance Matrix: (Units=1/GPa)
#
#
# Indices 1 2 3 4 5 6 
#
# 1 0.010392 -0.003593 -0.004651 0.000000 0.000000 0.000000
# 2 -0.003593 0.013003 -0.000754 0.000000 0.000000 0.000000
# 3 -0.004651 -0.000754 0.013421 0.000000 0.000000 0.000000
# 4 0.000000 0.000000 0.000000 0.230741 0.000000 0.000000
# 5 0.000000 0.000000 0.000000 0.000000 0.036501 0.000000
# 6 0.000000 0.000000 0.000000 0.000000 0.000000 0.035341
#
#
# Mechanical properties :
#
#
# Convention : Reuss Voigt Hill
#
# Bulk Modulus (GPa) = 53.13582 57.98111 55.55847
# Shear Modulus (GPa) = 13.74879 25.78854 19.76866
#
# Velocity S-wave (km/s) = 2.70446 3.70392 3.24293
# Velocity P-wave (km/s) = 6.16599 7.00977 6.60138
#
# Compressibility (1/GPa) = 0.01881970
#
# Stress axis : x y z
#
# Youngs Moduli (GPa) = 96.22880 76.90687 74.51028
#
# Poissons Ratio (x) = 0.27633 0.34655
# Poissons Ratio (y) = 0.34575 0.05618
# Poissons Ratio (z) = 0.44756 0.05799
#
# Static dielectric constant tensor:
#      x y z
#    x 1.716650 0.000000 0.000000 
#    y 0.000000 1.659060 0.000000 
#    z 0.000000 0.000000 1.654650 
# 
# From -- ./inp_files/9714.got.cif
#   From: 2010.05.17/outbox.cif.g08.bks.cpg/sg36_5_cif.got.tgz:9714.got - 2010.06.03 17:41:39.
