data_PCOD9351576
_publ_section_title
;
Structure prediction by ZEFSAII (Michael W. Deem and Ramdas Pophale) SiO2 
 PCOD9351576
Probable space group: C M C 21
;
_chemical_formula_sum "Si O2"
_cell_formula_units_Z 64
_cell_length_a 7.624046
_cell_length_b 25.640306
_cell_length_c 14.243758
_cell_angle_alpha 90.000000
_cell_angle_beta 90.000000
_cell_angle_gamma 90.000000
_cell_volume 2784.410728
_symmetry_space_group_name_H-M "C M C 21"
_symmetry_group_IT_number 36
_symmetry_cell_setting 'orthorhombic'
loop_
_space_group_symop_operation_xyz
x,y,z
-x,-y,1/2+z
x,-y,1/2+z
-x,y,z
1/2+x,1/2+y,z
1/2-x,1/2-y,1/2+z
1/2+x,1/2-y,1/2+z
1/2-x,1/2+y,z
loop_
_atom_site_type_symbol
_atom_site_label
_atom_site_fract_x
_atom_site_fract_y
_atom_site_fract_z
Si Si1 0.792770 0.706192 0.575490
Si Si2 0.299277 0.451577 0.884324
Si Si3 0.710406 0.870478 0.231085
Si Si4 0.786391 0.689725 0.172368
Si Si5 0.199693 0.421343 0.610388
Si Si6 0.295089 0.564586 0.900050
Si Si7 0.712822 0.032508 0.600381
Si Si8 0.294479 0.832448 0.874322
O O1 0.721400 0.677148 0.668531
O O2 0.771874 0.766707 0.598827
O O3 0.720046 0.685748 0.475540
O O4 0.000000 0.692939 0.573195
O O5 0.500000 0.448201 0.853216
O O6 0.226599 0.509237 0.856825
O O7 0.218034 0.395304 0.860457
O O8 0.286556 0.455517 0.997665
O O9 0.500000 0.866133 0.240970
O O10 0.779885 0.886068 0.332353
O O11 0.754120 0.920701 0.168347
O O12 0.720509 0.632717 0.141916
O O13 0.725493 0.695923 0.280543
O O14 0.000000 0.690050 0.171044
O O15 0.200587 0.424231 0.497572
O O16 0.279060 0.476908 0.637968
O O17 0.000000 0.421237 0.646120
O O18 0.500000 0.555576 0.920851
O O19 0.500000 0.029808 0.590591
O O20 0.500000 0.819560 0.877779
#
# Coordination Sequence:
#
# PCOD9351576 Si02
#       8
#     8   8   8   8   8   8   8   8
#     4  10  22  41  61  85 118 153 194 241 292 348
#     4  10  20  34  54  85 121 154 191 236 293 349
#     4  10  20  35  58  87 115 154 199 237 285 345
#     4  10  23  40  62  90 115 149 199 246 292 345
#     4   9  19  37  58  84 116 152 195 240 287 346
#     4  10  22  36  53  85 125 162 194 235 294 352
#     4   9  17  33  57  83 114 152 191 236 289 340
#     4  10  21  40  63  85 112 150 197 245 288 347
#
# _framework density 22.985115
#
# number of rings (size 3 to 8) (size 9 to 14) (size 15 to 20)
#    0.000    2.250    1.250    0.750    1.750    5.000 
#    0.000    2.500    0.000    0.000    0.000    0.000 
#    0.000    0.000    0.000    0.000    0.000    0.000 
#
# Total GULP energy -178583.430410 kJ/mol
# GULP energy per Si atom -5580.732200 kJ/mol
# Density = 2.293280 g / cm^3
# Si number density = 22.985115 Si / 1000 Ang^3
#
#
#
# Elastic Constant Matrix: (Units=GPa)
#
#
# Indices 1 2 3 4 5 6 
#
# 1 47.2349 -3.5042 0.7492 0.0000 0.0000 0.0000
# 2 -3.5042 72.9426 16.5769 0.0000 0.0000 0.0000
# 3 0.7492 16.5769 73.4795 0.0000 0.0000 0.0000
# 4 0.0000 0.0000 0.0000 31.8914 0.0000 0.0000
# 5 0.0000 0.0000 0.0000 0.0000 -4.0320 0.0000
# 6 0.0000 0.0000 0.0000 0.0000 0.0000 17.7398
#
#
#
# Elastic Compliance Matrix: (Units=1/GPa)
#
#
# Indices 1 2 3 4 5 6 
#
# 1 0.021262 0.001129 -0.000471 0.000000 0.000000 0.000000
# 2 0.001129 0.014510 -0.003285 0.000000 0.000000 0.000000
# 3 -0.000471 -0.003285 0.014355 0.000000 0.000000 0.000000
# 4 0.000000 0.000000 0.000000 0.031356 0.000000 0.000000
# 5 0.000000 0.000000 0.000000 0.000000 -0.248018 0.000000
# 6 0.000000 0.000000 0.000000 0.000000 0.000000 0.056370
#
#
# Mechanical properties :
#
#
# Convention : Reuss Voigt Hill
#
# Bulk Modulus (GPa) = 22.28580 24.58900 23.43740
# Shear Modulus (GPa) = -55.58603 21.10884 -17.23859
#
# Velocity S-wave (km/s) = -4.92301 3.03375 -2.74156
# Velocity P-wave (km/s) = 4.75372 4.79505 0.44423
#
# Compressibility (1/GPa) = 0.04487163
#
# Stress axis : x y z
#
# Youngs Moduli (GPa) = 47.03228 68.91721 69.66145
#
# Poissons Ratio (x) = -0.07778 0.03284
# Poissons Ratio (y) = -0.05308 0.22884
# Poissons Ratio (z) = 0.02217 0.22639
#
# Static dielectric constant tensor:
#      x y z
#    x 1.896560 0.000000 0.000000 
#    y 0.000000 1.855690 0.000000 
#    z 0.000000 0.000000 1.871430 
# 
# From -- ./inp_files/11066.got.cif
#   From: 2010.05.17/outbox.cif.g08.bks.cpg/sg36_6_cif.got.tgz:11066.got - 2010.06.03 17:41:39.
