data_PCOD9351188
_publ_section_title
;
Structure prediction by ZEFSAII (Michael W. Deem and Ramdas Pophale) SiO2 
 PCOD9351188
Probable space group: C M C 21
;
_chemical_formula_sum "Si O2"
_cell_formula_units_Z 56
_cell_length_a 13.011293
_cell_length_b 8.902422
_cell_length_c 18.392638
_cell_angle_alpha 90.000000
_cell_angle_beta 90.000000
_cell_angle_gamma 90.000000
_cell_volume 2130.456432
_symmetry_space_group_name_H-M "C M C 21"
_symmetry_group_IT_number 36
_symmetry_cell_setting 'orthorhombic'
loop_
_space_group_symop_operation_xyz
x,y,z
-x,-y,1/2+z
x,-y,1/2+z
-x,y,z
1/2+x,1/2+y,z
1/2-x,1/2-y,1/2+z
1/2+x,1/2-y,1/2+z
1/2-x,1/2+y,z
loop_
_atom_site_type_symbol
_atom_site_label
_atom_site_fract_x
_atom_site_fract_y
_atom_site_fract_z
Si Si1 0.657627 0.288461 0.657580
Si Si2 0.342988 0.939216 0.037580
Si Si3 0.612473 0.680537 0.321199
Si Si4 0.880048 0.997778 0.029335
Si Si5 0.110216 0.254730 0.910017
Si Si6 0.120210 0.642665 0.164600
Si Si7 0.196003 0.495592 0.809694
O O1 0.606588 0.303661 0.734439
O O2 0.638523 0.438800 0.610698
O O3 0.778637 0.253534 0.673159
O O4 0.616823 0.169776 0.600486
O O5 0.223066 0.900881 0.020277
O O6 0.365068 0.092855 0.079931
O O7 0.395276 0.901953 0.962720
O O8 0.500000 0.662107 0.354306
O O9 0.683165 0.530973 0.326647
O O10 0.656897 0.846689 0.342582
O O11 0.000000 0.950105 0.023612
O O12 0.859638 0.128117 0.968853
O O13 0.161406 0.334249 0.841861
O O14 0.000000 0.204791 0.883400
O O15 0.152949 0.518944 0.226732
O O16 0.000000 0.683832 0.175306
#
# Coordination Sequence:
#
# PCOD9351188 Si02
#       7
#     8   8   8   8   8   8   8
#     4   9  19  34  54  84 116 151 203 252 311 383
#     4  10  19  34  58  82 115 154 202 258 306 382
#     4  11  23  43  67  94 130 169 209 266 324 377
#     4   9  19  34  53  79 113 155 199 251 316 373
#     4  10  21  37  57  83 115 160 206 256 315 379
#     4  10  19  34  57  86 117 154 201 262 315 369
#     4  11  24  40  66  94 126 165 218 261 317 389
#
# _framework density 26.285446
#
# number of rings (size 3 to 8) (size 9 to 14) (size 15 to 20)
#    0.000    2.000    1.429    2.143    2.000    1.714 
#    0.000    5.000    0.000    0.000    0.000    0.000 
#    0.000    0.000    0.000    0.000    0.000    0.000 
#
# Total GULP energy -155869.066365 kJ/mol
# GULP energy per Si atom -5566.752370 kJ/mol
# Density = 2.622562 g / cm^3
# Si number density = 26.285446 Si / 1000 Ang^3
#
#
#
# Elastic Constant Matrix: (Units=GPa)
#
#
# Indices 1 2 3 4 5 6 
#
# 1 215.2813 33.6585 -9.0180 0.0000 0.0000 0.0000
# 2 33.6585 39.0580 6.0670 0.0000 0.0000 0.0000
# 3 -9.0180 6.0670 57.9279 0.0000 0.0000 0.0000
# 4 0.0000 0.0000 0.0000 36.6630 0.0000 0.0000
# 5 0.0000 0.0000 0.0000 0.0000 16.3513 0.0000
# 6 0.0000 0.0000 0.0000 0.0000 0.0000 4.2220
#
#
#
# Elastic Compliance Matrix: (Units=1/GPa)
#
#
# Indices 1 2 3 4 5 6 
#
# 1 0.005473 -0.004929 0.001368 0.000000 0.000000 0.000000
# 2 -0.004929 0.030465 -0.003958 0.000000 0.000000 0.000000
# 3 0.001368 -0.003958 0.017890 0.000000 0.000000 0.000000
# 4 0.000000 0.000000 0.000000 0.027275 0.000000 0.000000
# 5 0.000000 0.000000 0.000000 0.000000 0.061157 0.000000
# 6 0.000000 0.000000 0.000000 0.000000 0.000000 0.236852
#
#
# Mechanical properties :
#
#
# Convention : Reuss Voigt Hill
#
# Bulk Modulus (GPa) = 25.77906 41.52027 33.64966
# Shear Modulus (GPa) = 12.28254 30.21790 21.25022
#
# Velocity S-wave (km/s) = 2.16400 3.39426 2.84639
# Velocity P-wave (km/s) = 4.00905 5.58494 4.86128
#
# Compressibility (1/GPa) = 0.03879118
#
# Stress axis : x y z
#
# Youngs Moduli (GPa) = 182.71428 32.82420 55.89596
#
# Poissons Ratio (x) = 0.16179 -0.07648
# Poissons Ratio (y) = 0.90059 0.22124
# Poissons Ratio (z) = -0.25000 0.12992
#
# Static dielectric constant tensor:
#      x y z
#    x 2.212590 0.000000 0.000000 
#    y 0.000000 2.224460 0.000000 
#    z 0.000000 0.000000 2.014280 
# 
# From -- ./inp_files/15942.got.cif
#   From: 2010.05.17/outbox.cif.g08.bks.cpg/sg36_8_cif.got.tgz:15942.got - 2010.06.03 17:41:39.
