data_PCOD9351353
_publ_section_title
;
Structure prediction by ZEFSAII (Michael W. Deem and Ramdas Pophale) SiO2 
 PCOD9351353
Probable space group: C M C 21
;
_chemical_formula_sum "Si O2"
_cell_formula_units_Z 64
_cell_length_a 8.458150
_cell_length_b 29.912714
_cell_length_c 12.891307
_cell_angle_alpha 90.000000
_cell_angle_beta 90.000000
_cell_angle_gamma 90.000000
_cell_volume 3261.580880
_symmetry_space_group_name_H-M "C M C 21"
_symmetry_group_IT_number 36
_symmetry_cell_setting 'orthorhombic'
loop_
_space_group_symop_operation_xyz
x,y,z
-x,-y,1/2+z
x,-y,1/2+z
-x,y,z
1/2+x,1/2+y,z
1/2-x,1/2-y,1/2+z
1/2+x,1/2-y,1/2+z
1/2-x,1/2+y,z
loop_
_atom_site_type_symbol
_atom_site_label
_atom_site_fract_x
_atom_site_fract_y
_atom_site_fract_z
Si Si1 0.692417 0.969583 0.475460
Si Si2 0.179573 0.332179 0.373158
Si Si3 0.308747 0.816449 0.745864
Si Si4 0.806401 0.568647 0.539501
Si Si5 0.319125 0.929276 0.269442
Si Si6 0.187601 0.120601 0.074954
Si Si7 0.688339 0.720393 0.679546
Si Si8 0.690999 0.166535 0.478449
O O1 0.500000 0.967384 0.475106
O O2 0.754788 0.957807 0.360851
O O3 0.747407 0.929044 0.549129
O O4 0.740222 0.019979 0.499787
O O5 0.172998 0.379220 0.312046
O O6 0.256204 0.345745 0.482677
O O7 0.266203 0.300245 0.291750
O O8 0.000000 0.316416 0.391292
O O9 0.500000 0.817368 0.745448
O O10 0.249004 0.859281 0.682829
O O11 0.256345 0.771773 0.685454
O O12 0.257296 0.814936 0.866334
O O13 0.745751 0.570917 0.657228
O O14 0.756947 0.614565 0.485013
O O15 0.000000 0.569785 0.538239
O O16 0.500000 0.945734 0.256127
O O17 0.000000 0.118873 0.074263
O O18 0.500000 0.719544 0.670209
O O19 0.755212 0.693320 0.580964
O O20 0.500000 0.167530 0.480385
#
# Coordination Sequence:
#
# PCOD9351353 Si02
#       8
#     8   8   8   8   8   8   8   8
#     4   9  18  32  55  84 115 153 197 246 298 355
#     4  10  19  36  62  85 112 151 197 248 297 347
#     4  10  24  42  60  86 122 161 203 248 301 361
#     4   9  16  30  56  86 112 147 201 250 291 348
#     4   8  14  27  49  80 110 140 188 241 286 336
#     4  11  23  39  59  85 120 157 200 247 303 360
#     4  11  23  38  58  90 123 154 196 247 305 363
#     4  10  21  40  63  88 118 157 206 253 299 358
#
# _framework density 19.622385999999999
#
# number of rings (size 3 to 8) (size 9 to 14) (size 15 to 20)
#    0.000    2.250    1.250    2.625    1.750    2.500 
#    0.000    4.375    0.000    3.000    0.000    0.000 
#    0.000    0.000    0.000    0.000    0.000    0.000 
#
# Total GULP energy -178388.917982 kJ/mol
# GULP energy per Si atom -5574.653687 kJ/mol
# Density = 1.957772 g / cm^3
# Si number density = 19.622386 Si / 1000 Ang^3
#
#
#
# Elastic Constant Matrix: (Units=GPa)
#
#
# Indices 1 2 3 4 5 6 
#
# 1 25.0904 16.2361 15.7855 0.0000 0.0000 0.0000
# 2 16.2361 109.6334 52.8273 0.0000 0.0000 0.0000
# 3 15.7855 52.8273 79.9245 0.0000 0.0000 0.0000
# 4 0.0000 0.0000 0.0000 15.0345 0.0000 0.0000
# 5 0.0000 0.0000 0.0000 0.0000 20.1699 0.0000
# 6 0.0000 0.0000 0.0000 0.0000 0.0000 17.0868
#
#
#
# Elastic Compliance Matrix: (Units=1/GPa)
#
#
# Indices 1 2 3 4 5 6 
#
# 1 0.046464 -0.003608 -0.006792 0.000000 0.000000 0.000000
# 2 -0.003608 0.013664 -0.008319 0.000000 0.000000 0.000000
# 3 -0.006792 -0.008319 0.019352 0.000000 0.000000 0.000000
# 4 0.000000 0.000000 0.000000 0.066514 0.000000 0.000000
# 5 0.000000 0.000000 0.000000 0.000000 0.049579 0.000000
# 6 0.000000 0.000000 0.000000 0.000000 0.000000 0.058525
#
#
# Mechanical properties :
#
#
# Convention : Reuss Voigt Hill
#
# Bulk Modulus (GPa) = 23.78594 42.70513 33.24554
# Shear Modulus (GPa) = 16.36399 19.11155 17.73777
#
# Velocity S-wave (km/s) = 2.89094 3.12423 3.00985
# Velocity P-wave (km/s) = 4.82613 5.90128 5.39058
#
# Compressibility (1/GPa) = 0.04204164
#
# Stress axis : x y z
#
# Youngs Moduli (GPa) = 21.52203 73.18412 51.67502
#
# Poissons Ratio (x) = 0.26408 0.35097
# Poissons Ratio (y) = 0.07766 0.42988
# Poissons Ratio (z) = 0.14618 0.60881
#
# Static dielectric constant tensor:
#      x y z
#    x 1.690980 0.000000 0.000000 
#    y 0.000000 1.695370 0.000000 
#    z 0.000000 0.000000 1.705300 
# 
# From -- ./inp_files/7070.got.cif
#   From: 2010.05.17/outbox.cif.g08.bks.cpg/sg36_4_cif.got.tgz:7070.got - 2010.06.03 17:41:39.
