data_PCOD9351759
_publ_section_title
;
Structure prediction by ZEFSAII (Michael W. Deem and Ramdas Pophale) SiO2 
 PCOD9351759
Probable space group: C M C 21
;
_chemical_formula_sum "Si O2"
_cell_formula_units_Z 64
_cell_length_a 8.796068
_cell_length_b 14.729599
_cell_length_c 22.156550
_cell_angle_alpha 90.000000
_cell_angle_beta 90.000000
_cell_angle_gamma 90.000000
_cell_volume 2870.659215
_symmetry_space_group_name_H-M "C M C 21"
_symmetry_group_IT_number 36
_symmetry_cell_setting 'orthorhombic'
loop_
_space_group_symop_operation_xyz
x,y,z
-x,-y,1/2+z
x,-y,1/2+z
-x,y,z
1/2+x,1/2+y,z
1/2-x,1/2-y,1/2+z
1/2+x,1/2-y,1/2+z
1/2-x,1/2+y,z
loop_
_atom_site_type_symbol
_atom_site_label
_atom_site_fract_x
_atom_site_fract_y
_atom_site_fract_z
Si Si1 0.678235 0.714062 0.980910
Si Si2 0.678325 0.581298 0.632294
Si Si3 0.323057 0.381761 0.926232
Si Si4 0.676308 0.025963 0.756212
Si Si5 0.675727 0.659869 0.289347
Si Si6 0.822400 0.590379 0.082744
Si Si7 0.320344 0.074153 0.892389
Si Si8 0.679036 0.234947 0.181581
O O1 0.500000 0.730416 0.982637
O O2 0.762408 0.810620 0.975005
O O3 0.724635 0.652254 0.923802
O O4 0.730957 0.650676 0.035739
O O5 0.500000 0.571942 0.619867
O O6 0.716190 0.554172 0.701549
O O7 0.767116 0.512475 0.589497
O O8 0.721664 0.686964 0.633692
O O9 0.500000 0.403092 0.936865
O O10 0.311994 0.330237 0.861154
O O11 0.232466 0.475944 0.918219
O O12 0.500000 0.037041 0.738021
O O13 0.711809 0.921872 0.772661
O O14 0.702355 0.074653 0.820282
O O15 0.500000 0.635064 0.277262
O O16 0.723839 0.737769 0.242650
O O17 0.801165 0.639807 0.147252
O O18 0.000000 0.593908 0.067343
O O19 0.500000 0.086662 0.904262
O O20 0.500000 0.246839 0.195369
#
# Coordination Sequence:
#
# PCOD9351759 Si02
#       8
#     8   8   8   8   8   8   8   8
#     4  12  26  43  66  93 125 170 217 264 317 378
#     4  11  23  39  61  93 126 163 209 256 312 376
#     4  10  22  41  63  94 130 167 210 261 318 376
#     4  10  20  36  60  90 128 166 203 253 315 372
#     4  10  20  35  61  92 127 164 204 256 311 370
#     4  11  24  45  66  87 123 169 213 264 318 372
#     4  10  22  41  64  93 128 167 212 263 317 377
#     4  10  23  40  61  90 125 164 204 253 314 373
#
# _framework density 22.294530000000002
#
# number of rings (size 3 to 8) (size 9 to 14) (size 15 to 20)
#    0.000    1.500    1.250    3.375    1.750    5.500 
#    0.000    3.750    0.000    0.000    0.000    0.000 
#    0.000    0.000    0.000    0.000    0.000    0.000 
#
# Total GULP energy -178955.754237 kJ/mol
# GULP energy per Si atom -5592.367320 kJ/mol
# Density = 2.224379 g / cm^3
# Si number density = 22.294530 Si / 1000 Ang^3
#
#
#
# Elastic Constant Matrix: (Units=GPa)
#
#
# Indices 1 2 3 4 5 6 
#
# 1 53.6592 2.5590 -0.2563 0.0000 0.0000 0.0000
# 2 2.5590 59.1455 -10.1938 0.0000 0.0000 0.0000
# 3 -0.2563 -10.1938 22.6765 0.0000 0.0000 0.0000
# 4 0.0000 0.0000 0.0000 28.2480 0.0000 0.0000
# 5 0.0000 0.0000 0.0000 0.0000 30.4298 0.0000
# 6 0.0000 0.0000 0.0000 0.0000 0.0000 29.5415
#
#
#
# Elastic Compliance Matrix: (Units=1/GPa)
#
#
# Indices 1 2 3 4 5 6 
#
# 1 0.018675 -0.000836 -0.000165 0.000000 0.000000 0.000000
# 2 -0.000836 0.018365 0.008246 0.000000 0.000000 0.000000
# 3 -0.000165 0.008246 0.047804 0.000000 0.000000 0.000000
# 4 0.000000 0.000000 0.000000 0.035401 0.000000 0.000000
# 5 0.000000 0.000000 0.000000 0.000000 0.032862 0.000000
# 6 0.000000 0.000000 0.000000 0.000000 0.000000 0.033851
#
#
# Mechanical properties :
#
#
# Convention : Reuss Voigt Hill
#
# Bulk Modulus (GPa) = 10.06712 13.29989 11.68350
# Shear Modulus (GPa) = 24.32152 27.20201 25.76177
#
# Velocity S-wave (km/s) = 3.30649 3.49681 3.40298
# Velocity P-wave (km/s) = 4.37064 4.72039 4.54888
#
# Compressibility (1/GPa) = 0.09933327
#
# Stress axis : x y z
#
# Youngs Moduli (GPa) = 53.54682 54.45182 20.91892
#
# Poissons Ratio (x) = 0.04555 0.00345
# Poissons Ratio (y) = 0.04479 -0.17250
# Poissons Ratio (z) = 0.00883 -0.44902
#
# Static dielectric constant tensor:
#      x y z
#    x 1.739240 0.000000 0.000000 
#    y 0.000000 1.848060 0.000000 
#    z 0.000000 0.000000 1.866540 
# 
# From -- ./inp_files/16623.got.cif
#   From: 2010.05.17/outbox.cif.g08.bks.cpg/sg36_9_cif.got.tgz:16623.got - 2010.06.03 17:41:39.
