data_PCOD9351283
_publ_section_title
;
Structure prediction by ZEFSAII (Michael W. Deem and Ramdas Pophale) SiO2 
 PCOD9351283
Probable space group: C M C 21
;
_chemical_formula_sum "Si O2"
_cell_formula_units_Z 36
_cell_length_a 12.723853
_cell_length_b 24.555663
_cell_length_c 5.147380
_cell_angle_alpha 90.000000
_cell_angle_beta 90.000000
_cell_angle_gamma 90.000000
_cell_volume 1608.261029
_symmetry_space_group_name_H-M "C M C 21"
_symmetry_group_IT_number 36
_symmetry_cell_setting 'orthorhombic'
loop_
_space_group_symop_operation_xyz
x,y,z
-x,-y,1/2+z
x,-y,1/2+z
-x,y,z
1/2+x,1/2+y,z
1/2-x,1/2-y,1/2+z
1/2+x,1/2-y,1/2+z
1/2-x,1/2+y,z
loop_
_atom_site_type_symbol
_atom_site_label
_atom_site_fract_x
_atom_site_fract_y
_atom_site_fract_z
Si Si1 0.679780 0.751163 0.644380
Si Si2 0.174103 0.631637 0.258518
Si Si3 0.380291 0.477976 0.083982
Si Si4 0.185545 0.864411 0.259524
Si Si5 0.000000 0.539220 0.200055
O O1 0.721744 0.749189 0.349116
O O2 0.875346 0.691480 0.199689
O O3 0.629000 0.693161 0.711362
O O4 0.218308 0.633217 0.551573
O O5 0.098492 0.580782 0.214588
O O6 0.269389 0.630716 0.049306
O O7 0.327353 0.514080 0.306300
O O8 0.500000 0.496857 0.035295
O O9 0.379901 0.417106 0.185264
O O10 0.000000 0.497251 0.440834
#
# Coordination Sequence:
#
# PCOD9351283 Si02
#       5
#     8   8   8   8   4
#     4   8  16  32  54  78 102 129 170 225 270 311
#     4  10  21  37  56  79 109 143 181 231 272 314
#     4  10  21  35  51  77 112 138 168 219 266 315
#     4  10  19  35  60  81 104 142 186 220 273 334
#     4  12  26  40  54  80 118 152 192 236 270 320
#
# _framework density 22.384423000000002
#
# number of rings (size 3 to 8) (size 9 to 14) (size 15 to 20)
#    0.000    2.222    0.000    2.667    0.000    5.333 
#    2.000    0.000    0.000    0.000    0.000    0.000 
#    0.000    0.000    0.000    0.000    0.000    0.000 
#
# Total GULP energy -100388.820902 kJ/mol
# GULP energy per Si atom -5577.156717 kJ/mol
# Density = 2.233348 g / cm^3
# Si number density = 22.384423 Si / 1000 Ang^3
#
#
#
# Elastic Constant Matrix: (Units=GPa)
#
#
# Indices 1 2 3 4 5 6 
#
# 1 40.5661 26.7178 10.3870 0.0000 0.0000 0.0000
# 2 26.7178 186.3147 24.5532 0.0000 0.0000 0.0000
# 3 10.3870 24.5532 112.1177 0.0000 0.0000 0.0000
# 4 0.0000 0.0000 0.0000 43.6176 0.0000 0.0000
# 5 0.0000 0.0000 0.0000 0.0000 7.3409 0.0000
# 6 0.0000 0.0000 0.0000 0.0000 0.0000 -248.0115
#
#
#
# Elastic Compliance Matrix: (Units=1/GPa)
#
#
# Indices 1 2 3 4 5 6 
#
# 1 0.027547 -0.003721 -0.001737 0.000000 0.000000 0.000000
# 2 -0.003721 0.006029 -0.000976 0.000000 0.000000 0.000000
# 3 -0.001737 -0.000976 0.009294 0.000000 0.000000 0.000000
# 4 0.000000 0.000000 0.000000 0.022927 0.000000 0.000000
# 5 0.000000 0.000000 0.000000 0.000000 0.136222 0.000000
# 6 0.000000 0.000000 0.000000 0.000000 0.000000 -0.004032
#
#
# Mechanical properties :
#
#
# Convention : Reuss Voigt Hill
#
# Bulk Modulus (GPa) = 33.33119 51.36829 42.34974
# Shear Modulus (GPa) = 22.63919 -20.92122 0.85899
#
# Velocity S-wave (km/s) = 3.18367 -3.06049 0.62014
# Velocity P-wave (km/s) = 5.33264 3.24179 4.41284
#
# Compressibility (1/GPa) = 0.03000192
#
# Stress axis : x y z
#
# Youngs Moduli (GPa) = 36.30179 165.85161 107.59862
#
# Poissons Ratio (x) = 0.61719 0.18691
# Poissons Ratio (y) = 0.13509 0.10498
# Poissons Ratio (z) = 0.06306 0.16182
#
# Static dielectric constant tensor:
#      x y z
#    x 1.845630 0.000000 0.000000 
#    y 0.000000 1.877370 0.000000 
#    z 0.000000 0.000000 1.836220 
# 
# From -- ./inp_files/697.got.cif
#   From: 2010.05.17/outbox.cif.g08.bks.cpg/sg36_1_cif.got.tgz:697.got - 2010.06.03 17:41:39.
