data_PCOD9351056
_publ_section_title
;
Structure prediction by ZEFSAII (Michael W. Deem and Ramdas Pophale) SiO2 
 PCOD9351056
Probable space group: C M C 21
;
_chemical_formula_sum "Si O2"
_cell_formula_units_Z 64
_cell_length_a 9.015911
_cell_length_b 16.721008
_cell_length_c 19.441191
_cell_angle_alpha 90.000000
_cell_angle_beta 90.000000
_cell_angle_gamma 90.000000
_cell_volume 2930.859081
_symmetry_space_group_name_H-M "C M C 21"
_symmetry_group_IT_number 36
_symmetry_cell_setting 'orthorhombic'
loop_
_space_group_symop_operation_xyz
x,y,z
-x,-y,1/2+z
x,-y,1/2+z
-x,y,z
1/2+x,1/2+y,z
1/2-x,1/2-y,1/2+z
1/2+x,1/2-y,1/2+z
1/2-x,1/2+y,z
loop_
_atom_site_type_symbol
_atom_site_label
_atom_site_fract_x
_atom_site_fract_y
_atom_site_fract_z
Si Si1 0.162185 0.388970 0.676630
Si Si2 0.321815 0.766231 0.845754
Si Si3 0.674103 0.433918 0.805334
Si Si4 0.664581 0.019510 0.031449
Si Si5 0.162433 0.764441 0.612147
Si Si6 0.678957 0.605422 0.767586
Si Si7 0.172990 0.889811 0.106456
Si Si8 0.665724 0.650558 0.966861
O O1 0.292626 0.420593 0.724250
O O2 0.152959 0.433215 0.604093
O O3 0.208285 0.298469 0.660329
O O4 0.000000 0.395352 0.710011
O O5 0.500000 0.774630 0.838470
O O6 0.251080 0.854443 0.837284
O O7 0.271469 0.692868 0.794939
O O8 0.291069 0.725033 0.919426
O O9 0.500000 0.431172 0.821112
O O10 0.727855 0.526924 0.811763
O O11 0.500000 0.986284 0.017230
O O12 0.792622 0.957877 0.051137
O O13 0.718218 0.078831 0.971938
O O14 0.214403 0.679488 0.586936
O O15 0.154036 0.819558 0.545117
O O16 0.000000 0.763157 0.645334
O O17 0.500000 0.605713 0.771998
O O18 0.713901 0.593022 0.686644
O O19 0.000000 0.868192 0.104716
O O20 0.500000 0.624335 0.944333
#
# Coordination Sequence:
#
# PCOD9351056 Si02
#       8
#     8   8   8   8   8   8   8   8
#     4  10  19  33  54  81 110 146 186 228 285 351
#     4  10  21  41  63  84 115 160 204 246 295 359
#     4  11  21  36  58  86 117 153 192 245 299 350
#     4  10  20  34  56  82 113 147 186 238 289 344
#     4  10  20  34  54  83 115 148 188 241 295 349
#     4   9  20  37  59  86 119 152 192 240 293 355
#     4  11  20  34  56  85 118 151 188 236 300 367
#     4   9  20  39  60  79 111 155 198 238 292 355
#
# _framework density 21.836600000000001
#
# number of rings (size 3 to 8) (size 9 to 14) (size 15 to 20)
#    0.000    2.000    1.250    2.625    0.000    3.000 
#    2.250    1.875    0.000    0.000    0.000    0.000 
#    0.000    0.000    0.000    0.000    0.000    0.000 
#
# Total GULP energy -178242.183692 kJ/mol
# GULP energy per Si atom -5570.068240 kJ/mol
# Density = 2.178690 g / cm^3
# Si number density = 21.836600 Si / 1000 Ang^3
#
#
#
# Elastic Constant Matrix: (Units=GPa)
#
#
# Indices 1 2 3 4 5 6 
#
# 1 52.8547 18.9908 -0.1973 0.0000 0.0000 0.0000
# 2 18.9908 51.5148 -8.0785 0.0000 0.0000 0.0000
# 3 -0.1973 -8.0785 25.4572 0.0000 0.0000 0.0000
# 4 0.0000 0.0000 0.0000 25.1342 0.0000 0.0000
# 5 0.0000 0.0000 0.0000 0.0000 16.2157 0.0000
# 6 0.0000 0.0000 0.0000 0.0000 0.0000 23.8966
#
#
#
# Elastic Compliance Matrix: (Units=1/GPa)
#
#
# Indices 1 2 3 4 5 6 
#
# 1 0.021962 -0.008492 -0.002525 0.000000 0.000000 0.000000
# 2 -0.008492 0.023712 0.007459 0.000000 0.000000 0.000000
# 3 -0.002525 0.007459 0.041629 0.000000 0.000000 0.000000
# 4 0.000000 0.000000 0.000000 0.039786 0.000000 0.000000
# 5 0.000000 0.000000 0.000000 0.000000 0.061669 0.000000
# 6 0.000000 0.000000 0.000000 0.000000 0.000000 0.041847
#
#
# Mechanical properties :
#
#
# Convention : Reuss Voigt Hill
#
# Bulk Modulus (GPa) = 12.47080 16.80630 14.63855
# Shear Modulus (GPa) = 18.90723 20.99009 19.94866
#
# Velocity S-wave (km/s) = 2.94573 3.10374 3.02577
# Velocity P-wave (km/s) = 4.15850 4.53402 4.35031
#
# Compressibility (1/GPa) = 0.08018731
#
# Stress axis : x y z
#
# Youngs Moduli (GPa) = 45.53418 42.17253 24.02174
#
# Poissons Ratio (x) = 0.35813 0.06064
# Poissons Ratio (y) = 0.38667 -0.17917
# Poissons Ratio (z) = 0.11495 -0.31456
#
# Static dielectric constant tensor:
#      x y z
#    x 1.787570 0.000000 0.000000 
#    y 0.000000 1.868580 0.000000 
#    z 0.000000 0.000000 1.828980 
# 
# From -- ./inp_files/15745.got.cif
#   From: 2010.05.17/outbox.cif.g08.bks.cpg/sg36_8_cif.got.tgz:15745.got - 2010.06.03 17:41:39.
