data_PCOD9351261
_publ_section_title
;
Structure prediction by ZEFSAII (Michael W. Deem and Ramdas Pophale) SiO2 
 PCOD9351261
Probable space group: C M C 21
;
_chemical_formula_sum "Si O2"
_cell_formula_units_Z 64
_cell_length_a 8.207500
_cell_length_b 15.221686
_cell_length_c 23.852236
_cell_angle_alpha 90.000000
_cell_angle_beta 90.000000
_cell_angle_gamma 90.000000
_cell_volume 2979.907258
_symmetry_space_group_name_H-M "C M C 21"
_symmetry_group_IT_number 36
_symmetry_cell_setting 'orthorhombic'
loop_
_space_group_symop_operation_xyz
x,y,z
-x,-y,1/2+z
x,-y,1/2+z
-x,y,z
1/2+x,1/2+y,z
1/2-x,1/2-y,1/2+z
1/2+x,1/2-y,1/2+z
1/2-x,1/2+y,z
loop_
_atom_site_type_symbol
_atom_site_label
_atom_site_fract_x
_atom_site_fract_y
_atom_site_fract_z
Si Si1 0.809583 0.011520 0.630380
Si Si2 0.194555 0.157549 0.275986
Si Si3 0.694070 0.392265 0.461098
Si Si4 0.810611 0.434246 0.010145
Si Si5 0.198671 0.042236 0.753986
Si Si6 0.197360 0.186045 0.843940
Si Si7 0.689824 0.820216 0.655949
Si Si8 0.697566 0.750775 0.046739
O O1 0.713760 0.036789 0.574831
O O2 0.750126 0.052403 0.689185
O O3 0.793247 0.906889 0.640528
O O4 0.000000 0.032881 0.621526
O O5 0.247997 0.055313 0.275117
O O6 0.246994 0.216344 0.328269
O O7 0.268586 0.201535 0.219892
O O8 0.000000 0.158145 0.271301
O O9 0.500000 0.380626 0.460544
O O10 0.728100 0.494201 0.470841
O O11 0.756527 0.351049 0.403440
O O12 0.754024 0.336588 0.514504
O O13 0.750015 0.334406 0.010223
O O14 0.000000 0.434098 0.995993
O O15 0.000000 0.042781 0.753141
O O16 0.253321 0.118403 0.795571
O O17 0.000000 0.185249 0.844207
O O18 0.500000 0.842136 0.652110
O O19 0.732283 0.748529 0.609257
O O20 0.500000 0.752030 0.050780
#
# Coordination Sequence:
#
# PCOD9351261 Si02
#       8
#     8   8   8   8   8   8   8   8
#     4  10  19  35  58  84 120 157 188 236 306 358
#     4  10  21  38  58  85 119 158 190 240 308 355
#     4  10  22  41  62  82 118 163 200 245 304 353
#     4  11  23  37  57  86 117 152 201 247 290 352
#     4   8  18  36  57  82 116 152 189 237 292 354
#     4  10  21  39  62  88 114 155 208 248 287 354
#     4  11  21  35  59  89 119 155 197 245 293 354
#     4  10  22  39  57  84 121 160 195 242 302 356
#
# _framework density 21.477179
#
# number of rings (size 3 to 8) (size 9 to 14) (size 15 to 20)
#    0.000    2.000    1.250    3.000    1.750    2.500 
#    0.000    3.125    0.000    0.000    0.000    0.000 
#    0.000    0.000    0.000    0.000    0.000    0.000 
#
# Total GULP energy -178761.908763 kJ/mol
# GULP energy per Si atom -5586.309649 kJ/mol
# Density = 2.142830 g / cm^3
# Si number density = 21.477179 Si / 1000 Ang^3
#
#
#
# Elastic Constant Matrix: (Units=GPa)
#
#
# Indices 1 2 3 4 5 6 
#
# 1 20.8466 2.3890 1.7135 0.0000 0.0000 0.0000
# 2 2.3890 47.3252 -10.4011 0.0000 0.0000 0.0000
# 3 1.7135 -10.4011 25.3429 0.0000 0.0000 0.0000
# 4 0.0000 0.0000 0.0000 25.1575 0.0000 0.0000
# 5 0.0000 0.0000 0.0000 0.0000 18.6119 0.0000
# 6 0.0000 0.0000 0.0000 0.0000 0.0000 16.7064
#
#
#
# Elastic Compliance Matrix: (Units=1/GPa)
#
#
# Indices 1 2 3 4 5 6 
#
# 1 0.048760 -0.003502 -0.004734 0.000000 0.000000 0.000000
# 2 -0.003502 0.023477 0.009872 0.000000 0.000000 0.000000
# 3 -0.004734 0.009872 0.043830 0.000000 0.000000 0.000000
# 4 0.000000 0.000000 0.000000 0.039750 0.000000 0.000000
# 5 0.000000 0.000000 0.000000 0.000000 0.053729 0.000000
# 6 0.000000 0.000000 0.000000 0.000000 0.000000 0.059857
#
#
# Mechanical properties :
#
#
# Convention : Reuss Voigt Hill
#
# Bulk Modulus (GPa) = 8.37944 8.99082 8.68513
# Shear Modulus (GPa) = 16.34467 18.74939 17.54703
#
# Velocity S-wave (km/s) = 2.76166 2.95785 2.86144
# Velocity P-wave (km/s) = 3.75221 3.98252 3.86908
#
# Compressibility (1/GPa) = 0.11933973
#
# Stress axis : x y z
#
# Youngs Moduli (GPa) = 20.50872 42.59520 22.81517
#
# Poissons Ratio (x) = 0.14916 0.10800
# Poissons Ratio (y) = 0.07182 -0.22523
# Poissons Ratio (z) = 0.09709 -0.42050
#
# Static dielectric constant tensor:
#      x y z
#    x 1.739200 0.000000 0.000000 
#    y 0.000000 1.800620 0.000000 
#    z 0.000000 0.000000 1.778970 
# 
# From -- ./inp_files/16541.got.cif
#   From: 2010.05.17/outbox.cif.g08.bks.cpg/sg36_9_cif.got.tgz:16541.got - 2010.06.03 17:41:39.
