data_PCOD9351901
_publ_section_title
;
Structure prediction by ZEFSAII (Michael W. Deem and Ramdas Pophale) SiO2 
 PCOD9351901
Probable space group: C M C 21
;
_chemical_formula_sum "Si O2"
_cell_formula_units_Z 48
_cell_length_a 16.365561
_cell_length_b 8.266866
_cell_length_c 15.727082
_cell_angle_alpha 90.000000
_cell_angle_beta 90.000000
_cell_angle_gamma 90.000000
_cell_volume 2127.746802
_symmetry_space_group_name_H-M "C M C 21"
_symmetry_group_IT_number 36
_symmetry_cell_setting 'orthorhombic'
loop_
_space_group_symop_operation_xyz
x,y,z
-x,-y,1/2+z
x,-y,1/2+z
-x,y,z
1/2+x,1/2+y,z
1/2-x,1/2-y,1/2+z
1/2+x,1/2-y,1/2+z
1/2-x,1/2+y,z
loop_
_atom_site_type_symbol
_atom_site_label
_atom_site_fract_x
_atom_site_fract_y
_atom_site_fract_z
Si Si1 0.332678 0.744304 0.000000
Si Si2 0.000000 0.602867 0.288933
Si Si3 0.668568 0.582995 0.813913
Si Si4 0.331478 0.067545 0.250166
Si Si5 0.166600 0.411454 0.557436
Si Si6 0.500000 0.585809 0.045058
Si Si7 0.000000 0.967393 0.351752
Si Si8 0.500000 0.246196 0.098519
O O1 0.248654 0.691140 0.044791
O O2 0.334659 0.937218 0.994301
O O3 0.330490 0.659391 0.908128
O O4 0.416044 0.686775 0.046474
O O5 0.914232 0.512743 0.297783
O O6 0.000000 0.768288 0.343636
O O7 0.000000 0.659715 0.190197
O O8 0.664691 0.736554 0.751184
O O9 0.749179 0.484715 0.795206
O O10 0.584770 0.481991 0.809489
O O11 0.330700 0.014032 0.152597
O O12 0.083271 0.309278 0.552494
O O13 0.500000 0.499265 0.951793
O O14 0.500000 0.438414 0.110158
#
# Coordination Sequence:
#
# PCOD9351901 Si02
#       8
#     8   4   8   8   8   4   4   4
#     4  11  22  37  58  85 119 153 192 239 292 345
#     4   8  18  37  59  81 112 151 188 235 289 339
#     4  10  20  37  57  80 111 151 188 233 285 342
#     4  10  20  37  59  82 111 148 191 234 285 342
#     4  11  22  38  59  87 117 154 194 241 289 344
#     4  10  21  37  58  85 117 153 192 237 288 349
#     4   8  18  35  55  77 109 146 182 222 281 339
#     4  10  21  37  60  85 116 152 196 240 290 343
#
# _framework density 22.559073999999999
#
# number of rings (size 3 to 8) (size 9 to 14) (size 15 to 20)
#    0.000    2.000    0.000    3.500    0.000    4.000 
#    0.000    3.333    0.000    0.000    0.000    0.000 
#    0.000    0.000    0.000    0.000    0.000    0.000 
#
# Total GULP energy -134114.259587 kJ/mol
# GULP energy per Si atom -5588.094149 kJ/mol
# Density = 2.250773 g / cm^3
# Si number density = 22.559074 Si / 1000 Ang^3
#
#
#
# Elastic Constant Matrix: (Units=GPa)
#
#
# Indices 1 2 3 4 5 6 
#
# 1 234.1289 27.4607 27.8962 0.0000 0.0000 0.0000
# 2 27.4607 32.7797 -5.7869 0.0000 0.0000 0.0000
# 3 27.8962 -5.7869 46.8564 0.0000 0.0000 0.0000
# 4 0.0000 0.0000 0.0000 23.2754 0.0000 0.0000
# 5 0.0000 0.0000 0.0000 0.0000 33.0241 0.0000
# 6 0.0000 0.0000 0.0000 0.0000 0.0000 32.2819
#
#
#
# Elastic Compliance Matrix: (Units=1/GPa)
#
#
# Indices 1 2 3 4 5 6 
#
# 1 0.005327 -0.005134 -0.003805 0.000000 0.000000 0.000000
# 2 -0.005134 0.036135 0.007519 0.000000 0.000000 0.000000
# 3 -0.003805 0.007519 0.024536 0.000000 0.000000 0.000000
# 4 0.000000 0.000000 0.000000 0.042964 0.000000 0.000000
# 5 0.000000 0.000000 0.000000 0.000000 0.030281 0.000000
# 6 0.000000 0.000000 0.000000 0.000000 0.000000 0.030977
#
#
# Mechanical properties :
#
#
# Convention : Reuss Voigt Hill
#
# Bulk Modulus (GPa) = 15.83336 45.87834 30.85585
# Shear Modulus (GPa) = 25.75821 35.32926 30.54374
#
# Velocity S-wave (km/s) = 3.38274 3.96166 3.68359
# Velocity P-wave (km/s) = 4.72134 6.42709 5.63909
#
# Compressibility (1/GPa) = 0.06315781
#
# Stress axis : x y z
#
# Youngs Moduli (GPa) = 187.73192 27.67378 40.75640
#
# Poissons Ratio (x) = 0.14208 0.15509
# Poissons Ratio (y) = 0.96385 -0.30647
# Poissons Ratio (z) = 0.71439 -0.20809
#
# Static dielectric constant tensor:
#      x y z
#    x 1.910440 0.000000 0.000000 
#    y 0.000000 1.828520 0.000000 
#    z 0.000000 0.000000 1.895300 
# 
# From -- ./inp_files/12537.got.cif
#   From: 2010.05.17/outbox.cif.g08.bks.cpg/sg36_7_cif.got.tgz:12537.got - 2010.06.03 17:41:39.
