data_PCOD9351270
_publ_section_title
;
Structure prediction by ZEFSAII (Michael W. Deem and Ramdas Pophale) SiO2 
 PCOD9351270
Probable space group: C M C 21
;
_chemical_formula_sum "Si O2"
_cell_formula_units_Z 64
_cell_length_a 9.026000
_cell_length_b 20.910864
_cell_length_c 19.663437
_cell_angle_alpha 90.000000
_cell_angle_beta 90.000000
_cell_angle_gamma 90.000000
_cell_volume 3711.305778
_symmetry_space_group_name_H-M "C M C 21"
_symmetry_group_IT_number 36
_symmetry_cell_setting 'orthorhombic'
loop_
_space_group_symop_operation_xyz
x,y,z
-x,-y,1/2+z
x,-y,1/2+z
-x,y,z
1/2+x,1/2+y,z
1/2-x,1/2-y,1/2+z
1/2+x,1/2-y,1/2+z
1/2-x,1/2+y,z
loop_
_atom_site_type_symbol
_atom_site_label
_atom_site_fract_x
_atom_site_fract_y
_atom_site_fract_z
Si Si1 0.322927 0.691137 0.916440
Si Si2 0.822695 0.443134 0.929812
Si Si3 0.823274 0.935983 0.501171
Si Si4 0.823369 0.686717 0.511208
Si Si5 0.678497 0.118442 0.289365
Si Si6 0.176445 0.237834 0.643182
Si Si7 0.823710 0.611050 0.135204
Si Si8 0.323345 0.757792 0.285854
O O1 0.500000 0.691067 0.903233
O O2 0.235622 0.697939 0.846383
O O3 0.284254 0.628004 0.958805
O O4 0.289804 0.753533 0.961976
O O5 0.782885 0.428107 0.851381
O O6 0.000000 0.453101 0.932572
O O7 0.742238 0.503062 0.962764
O O8 0.789233 0.378939 0.972539
O O9 0.759363 0.927381 0.576905
O O10 0.000000 0.940151 0.504392
O O11 0.735008 0.696618 0.580583
O O12 0.000000 0.688395 0.525059
O O13 0.500000 0.129867 0.291867
O O14 0.713768 0.094038 0.213424
O O15 0.757711 0.186617 0.298603
O O16 0.209784 0.313002 0.628403
O O17 0.258021 0.221332 0.713221
O O18 0.000000 0.232422 0.651634
O O19 0.000000 0.602968 0.126400
O O20 0.500000 0.755732 0.284127
#
# Coordination Sequence:
#
# PCOD9351270 Si02
#       8
#     8   8   8   8   8   8   8   8
#     4  10  20  37  57  79 112 148 186 230 280 329
#     4  10  21  38  59  81 113 151 186 228 279 338
#     4  11  23  37  56  82 115 150 186 232 279 328
#     4  10  19  35  59  83 110 145 187 230 277 329
#     4   9  18  36  58  82 110 146 185 228 282 333
#     4  10  20  34  55  83 116 148 183 233 285 333
#     4   9  18  33  56  82 109 143 186 226 274 336
#     4  11  21  32  54  86 115 145 187 235 280 334
#
# _framework density 17.244603999999999
#
# number of rings (size 3 to 8) (size 9 to 14) (size 15 to 20)
#    0.000    2.000    2.500    2.625    0.000    4.500 
#    0.000    1.250    0.000    4.500    0.000    0.000 
#    0.000    0.000    0.000    0.000    0.000    0.000 
#
# Total GULP energy -178630.837615 kJ/mol
# GULP energy per Si atom -5582.213675 kJ/mol
# Density = 1.720535 g / cm^3
# Si number density = 17.244604 Si / 1000 Ang^3
#
#
#
# Elastic Constant Matrix: (Units=GPa)
#
#
# Indices 1 2 3 4 5 6 
#
# 1 46.2468 43.4537 67.5352 0.0000 0.0000 0.0000
# 2 43.4537 96.3535 68.4307 0.0000 0.0000 0.0000
# 3 67.5352 68.4307 167.1232 0.0000 0.0000 0.0000
# 4 0.0000 0.0000 0.0000 24.3865 0.0000 0.0000
# 5 0.0000 0.0000 0.0000 0.0000 30.1850 0.0000
# 6 0.0000 0.0000 0.0000 0.0000 0.0000 22.9996
#
#
#
# Elastic Compliance Matrix: (Units=1/GPa)
#
#
# Indices 1 2 3 4 5 6 
#
# 1 0.065351 -0.015111 -0.020221 0.000000 0.000000 0.000000
# 2 -0.015111 0.018128 -0.001316 0.000000 0.000000 0.000000
# 3 -0.020221 -0.001316 0.014694 0.000000 0.000000 0.000000
# 4 0.000000 0.000000 0.000000 0.041006 0.000000 0.000000
# 5 0.000000 0.000000 0.000000 0.000000 0.033129 0.000000
# 6 0.000000 0.000000 0.000000 0.000000 0.000000 0.043479
#
#
# Mechanical properties :
#
#
# Convention : Reuss Voigt Hill
#
# Bulk Modulus (GPa) = 40.19925 74.28474 57.24199
# Shear Modulus (GPa) = 16.81371 24.20116 20.50744
#
# Velocity S-wave (km/s) = 3.12591 3.75027 3.45223
# Velocity P-wave (km/s) = 6.03243 7.86914 7.01119
#
# Compressibility (1/GPa) = 0.02487609
#
# Stress axis : x y z
#
# Youngs Moduli (GPa) = 15.30202 55.16310 68.05437
#
# Poissons Ratio (x) = 0.83356 1.37614
# Poissons Ratio (y) = 0.23123 0.08959
# Poissons Ratio (z) = 0.30943 0.07262
#
# Static dielectric constant tensor:
#      x y z
#    x 1.570820 0.000000 0.000000 
#    y 0.000000 1.558540 0.000000 
#    z 0.000000 0.000000 1.587200 
# 
# From -- ./inp_files/15693.got.cif
#   From: 2010.05.17/outbox.cif.g08.bks.cpg/sg36_8_cif.got.tgz:15693.got - 2010.06.03 17:41:39.
