data_PCOD9351842
_publ_section_title
;
Structure prediction by ZEFSAII (Michael W. Deem and Ramdas Pophale) SiO2 
 PCOD9351842
Probable space group: C M C 21
;
_chemical_formula_sum "Si O2"
_cell_formula_units_Z 64
_cell_length_a 8.002907
_cell_length_b 29.880307
_cell_length_c 12.922084
_cell_angle_alpha 90.000000
_cell_angle_beta 90.000000
_cell_angle_gamma 90.000000
_cell_volume 3090.049135
_symmetry_space_group_name_H-M "C M C 21"
_symmetry_group_IT_number 36
_symmetry_cell_setting 'orthorhombic'
loop_
_space_group_symop_operation_xyz
x,y,z
-x,-y,1/2+z
x,-y,1/2+z
-x,y,z
1/2+x,1/2+y,z
1/2-x,1/2-y,1/2+z
1/2+x,1/2-y,1/2+z
1/2-x,1/2+y,z
loop_
_atom_site_type_symbol
_atom_site_label
_atom_site_fract_x
_atom_site_fract_y
_atom_site_fract_z
Si Si1 0.307322 0.431008 0.313910
Si Si2 0.702033 0.381159 0.002607
Si Si3 0.797830 0.334091 0.595316
Si Si4 0.801369 0.028528 0.608206
Si Si5 0.202500 0.223187 0.894562
Si Si6 0.799134 0.318642 0.827179
Si Si7 0.309145 0.931943 0.540408
Si Si8 0.692041 0.665685 0.704389
O O1 0.500000 0.443270 0.341004
O O2 0.237402 0.462727 0.224142
O O3 0.201833 0.430260 0.416790
O O4 0.312637 0.381932 0.263165
O O5 0.500000 0.380922 0.008930
O O6 0.759979 0.431358 0.033089
O O7 0.765995 0.346895 0.092397
O O8 0.750586 0.362566 0.891251
O O9 0.750991 0.303092 0.498239
O O10 0.740411 0.317862 0.708262
O O11 0.734344 0.384917 0.578731
O O12 0.000000 0.335652 0.595999
O O13 0.000000 0.035692 0.616181
O O14 0.771460 0.978398 0.573570
O O15 0.259135 0.274523 0.888615
O O16 0.266352 0.199380 0.788799
O O17 0.000000 0.221562 0.890481
O O18 0.000000 0.316962 0.823888
O O19 0.500000 0.933556 0.576031
O O20 0.500000 0.680652 0.685756
#
# Coordination Sequence:
#
# PCOD9351842 Si02
#       8
#     8   8   8   8   8   8   8   8
#     4   9  17  34  57  79 106 143 188 239 285 330
#     4   9  19  37  60  84 111 147 193 236 283 338
#     4  10  23  41  57  81 119 155 188 231 288 347
#     4   9  20  37  58  84 111 148 198 242 284 337
#     4  10  20  36  60  85 108 145 194 236 279 335
#     4  10  23  39  56  83 121 158 188 228 288 347
#     4  11  22  35  55  84 116 151 188 232 291 350
#     4   8  15  31  57  82 104 137 183 236 282 324
#
# _framework density 20.711645000000001
#
# number of rings (size 3 to 8) (size 9 to 14) (size 15 to 20)
#    0.000    2.500    1.250    1.875    1.750    3.500 
#    0.000    5.000    0.000    0.000    0.000    0.000 
#    0.000    0.000    0.000    0.000    0.000    0.000 
#
# Total GULP energy -178430.498827 kJ/mol
# GULP energy per Si atom -5575.953088 kJ/mol
# Density = 2.066450 g / cm^3
# Si number density = 20.711645 Si / 1000 Ang^3
#
#
#
# Elastic Constant Matrix: (Units=GPa)
#
#
# Indices 1 2 3 4 5 6 
#
# 1 14.3828 6.9792 4.8970 0.0000 0.0000 0.0000
# 2 6.9792 114.2795 57.5710 0.0000 0.0000 0.0000
# 3 4.8970 57.5710 93.0772 0.0000 0.0000 0.0000
# 4 0.0000 0.0000 0.0000 18.1836 0.0000 0.0000
# 5 0.0000 0.0000 0.0000 0.0000 11.9410 0.0000
# 6 0.0000 0.0000 0.0000 0.0000 0.0000 32.9512
#
#
#
# Elastic Compliance Matrix: (Units=1/GPa)
#
#
# Indices 1 2 3 4 5 6 
#
# 1 0.071804 -0.003605 -0.001548 0.000000 0.000000 0.000000
# 2 -0.003605 0.012892 -0.007785 0.000000 0.000000 0.000000
# 3 -0.001548 -0.007785 0.015640 0.000000 0.000000 0.000000
# 4 0.000000 0.000000 0.000000 0.054995 0.000000 0.000000
# 5 0.000000 0.000000 0.000000 0.000000 0.083745 0.000000
# 6 0.000000 0.000000 0.000000 0.000000 0.000000 0.030348
#
#
# Mechanical properties :
#
#
# Convention : Reuss Voigt Hill
#
# Bulk Modulus (GPa) = 13.42982 40.07044 26.75013
# Shear Modulus (GPa) = 15.61913 22.76798 19.19356
#
# Velocity S-wave (km/s) = 2.74911 3.31914 3.04748
# Velocity P-wave (km/s) = 4.07125 5.83762 5.03254
#
# Compressibility (1/GPa) = 0.07446117
#
# Stress axis : x y z
#
# Youngs Moduli (GPa) = 13.92676 77.56542 63.93778
#
# Poissons Ratio (x) = 0.27966 0.09896
# Poissons Ratio (y) = 0.05021 0.49773
# Poissons Ratio (z) = 0.02155 0.60382
#
# Static dielectric constant tensor:
#      x y z
#    x 1.765710 0.000000 0.000000 
#    y 0.000000 1.749290 0.000000 
#    z 0.000000 0.000000 1.742870 
# 
# From -- ./inp_files/7236.got.cif
#   From: 2010.05.17/outbox.cif.g08.bks.cpg/sg36_4_cif.got.tgz:7236.got - 2010.06.03 17:41:39.
