data_PCOD9351295
_publ_section_title
;
Structure prediction by ZEFSAII (Michael W. Deem and Ramdas Pophale) SiO2 
 PCOD9351295
Probable space group: C M C 21
;
_chemical_formula_sum "Si O2"
_cell_formula_units_Z 56
_cell_length_a 13.423887
_cell_length_b 22.564926
_cell_length_c 8.430586
_cell_angle_alpha 90.000000
_cell_angle_beta 90.000000
_cell_angle_gamma 90.000000
_cell_volume 2553.700516
_symmetry_space_group_name_H-M "C M C 21"
_symmetry_group_IT_number 36
_symmetry_cell_setting 'orthorhombic'
loop_
_space_group_symop_operation_xyz
x,y,z
-x,-y,1/2+z
x,-y,1/2+z
-x,y,z
1/2+x,1/2+y,z
1/2-x,1/2-y,1/2+z
1/2+x,1/2-y,1/2+z
1/2-x,1/2+y,z
loop_
_atom_site_type_symbol
_atom_site_label
_atom_site_fract_x
_atom_site_fract_y
_atom_site_fract_z
Si Si1 0.194432 0.560997 0.158810
Si Si2 0.772184 0.239746 0.292471
Si Si3 0.111681 0.550741 0.495949
Si Si4 0.114378 0.032364 0.347823
Si Si5 0.227669 0.667328 0.567743
Si Si6 0.613116 0.410640 0.199660
Si Si7 0.880389 0.311547 0.567858
O O1 0.121293 0.552341 0.307880
O O2 0.304684 0.561955 0.233420
O O3 0.159582 0.621452 0.079600
O O4 0.180102 0.502932 0.053480
O O5 0.815550 0.270173 0.130958
O O6 0.782832 0.180364 0.400515
O O7 0.824129 0.284149 0.416996
O O8 0.661538 0.224517 0.221711
O O9 0.149848 0.614605 0.552721
O O10 0.000000 0.540084 0.549229
O O11 0.120502 0.057156 0.526543
O O12 0.000000 0.041419 0.293600
O O13 0.133228 0.961616 0.329152
O O14 0.309057 0.642603 0.691923
O O15 0.500000 0.389616 0.218692
O O16 0.000000 0.308945 0.557163
#
# Coordination Sequence:
#
# PCOD9351295 Si02
#       7
#     8   8   8   8   8   8   8
#     4  12  23  42  65 101 142 178 224 283 347 428
#     4  10  25  43  68  96 130 182 240 291 341 402
#     4  12  25  40  64  96 137 182 224 280 350 418
#     4  10  19  35  60  93 130 168 207 263 337 405
#     4  11  22  43  63  93 132 174 229 295 338 415
#     4  10  20  36  61  90 124 167 210 265 337 405
#     4  11  24  47  73 101 143 187 234 297 354 411
#
# _framework density 21.92896
#
# number of rings (size 3 to 8) (size 9 to 14) (size 15 to 20)
#    0.000    1.143    4.286    1.286    2.000    4.000 
#    0.000    3.571    0.000    0.000    0.000    0.000 
#    0.000    0.000    0.000    0.000    0.000    0.000 
#
# Total GULP energy -155947.123057 kJ/mol
# GULP energy per Si atom -5569.540109 kJ/mol
# Density = 2.187905 g / cm^3
# Si number density = 21.928960 Si / 1000 Ang^3
#
#
#
# Elastic Constant Matrix: (Units=GPa)
#
#
# Indices 1 2 3 4 5 6 
#
# 1 106.5388 37.2084 10.4536 0.0000 0.0000 0.0000
# 2 37.2084 82.7815 19.2026 0.0000 0.0000 0.0000
# 3 10.4536 19.2026 21.1933 0.0000 0.0000 0.0000
# 4 0.0000 0.0000 0.0000 45.5836 0.0000 0.0000
# 5 0.0000 0.0000 0.0000 0.0000 24.5475 0.0000
# 6 0.0000 0.0000 0.0000 0.0000 0.0000 41.8037
#
#
#
# Elastic Compliance Matrix: (Units=1/GPa)
#
#
# Indices 1 2 3 4 5 6 
#
# 1 0.011159 -0.004734 -0.001215 0.000000 0.000000 0.000000
# 2 -0.004734 0.017303 -0.013343 0.000000 0.000000 0.000000
# 3 -0.001215 -0.013343 0.059873 0.000000 0.000000 0.000000
# 4 0.000000 0.000000 0.000000 0.021938 0.000000 0.000000
# 5 0.000000 0.000000 0.000000 0.000000 0.040737 0.000000
# 6 0.000000 0.000000 0.000000 0.000000 0.000000 0.023921
#
#
# Mechanical properties :
#
#
# Convention : Reuss Voigt Hill
#
# Bulk Modulus (GPa) = 20.09958 38.24918 29.17438
# Shear Modulus (GPa) = 21.72990 31.96356 26.84673
#
# Velocity S-wave (km/s) = 3.15131 3.82199 3.50274
# Velocity P-wave (km/s) = 4.73568 6.07923 5.44902
#
# Compressibility (1/GPa) = 0.04975228
#
# Stress axis : x y z
#
# Youngs Moduli (GPa) = 89.61607 57.79431 16.70194
#
# Poissons Ratio (x) = 0.27358 0.02029
# Poissons Ratio (y) = 0.42422 0.22285
# Poissons Ratio (z) = 0.10888 0.77112
#
# Static dielectric constant tensor:
#      x y z
#    x 1.780650 0.000000 0.000000 
#    y 0.000000 1.862620 0.000000 
#    z 0.000000 0.000000 1.842050 
# 
# From -- ./inp_files/4212.got.cif
#   From: 2010.05.17/outbox.cif.g08.bks.cpg/sg36_3_cif.got.tgz:4212.got - 2010.06.03 17:41:39.
