data_PCOD9351547
_publ_section_title
;
Structure prediction by ZEFSAII (Michael W. Deem and Ramdas Pophale) SiO2 
 PCOD9351547
Probable space group: C M C 21
;
_chemical_formula_sum "Si O2"
_cell_formula_units_Z 56
_cell_length_a 19.888820
_cell_length_b 13.712370
_cell_length_c 8.332661
_cell_angle_alpha 90.000000
_cell_angle_beta 90.000000
_cell_angle_gamma 90.000000
_cell_volume 2272.507129
_symmetry_space_group_name_H-M "C M C 21"
_symmetry_group_IT_number 36
_symmetry_cell_setting 'orthorhombic'
loop_
_space_group_symop_operation_xyz
x,y,z
-x,-y,1/2+z
x,-y,1/2+z
-x,y,z
1/2+x,1/2+y,z
1/2-x,1/2-y,1/2+z
1/2+x,1/2-y,1/2+z
1/2-x,1/2+y,z
loop_
_atom_site_type_symbol
_atom_site_label
_atom_site_fract_x
_atom_site_fract_y
_atom_site_fract_z
Si Si1 0.386769 0.542780 0.625000
Si Si2 0.119332 0.225161 0.442509
Si Si3 0.000000 0.350768 0.576022
Si Si4 0.888170 0.334118 0.105123
Si Si5 0.000000 0.531662 0.750258
Si Si6 0.605637 0.352864 0.455761
Si Si7 0.726457 0.963136 0.181205
Si Si8 0.265871 0.855280 0.510477
O O1 0.396172 0.612783 0.471545
O O2 0.410138 0.599793 0.783435
O O3 0.414991 0.436448 0.583519
O O4 0.305835 0.537965 0.645364
O O5 0.117458 0.262300 0.260622
O O6 0.192535 0.256238 0.507227
O O7 0.065098 0.285861 0.543570
O O8 0.000000 0.416357 0.732875
O O9 0.000000 0.429750 0.430763
O O10 0.818274 0.390081 0.073639
O O11 0.936488 0.420173 0.162231
O O12 0.917150 0.258266 0.976251
O O13 0.686556 0.341862 0.486007
O O14 0.713690 0.921992 0.358108
O O15 0.711557 0.077403 0.158390
#
# Coordination Sequence:
#
# PCOD9351547 Si02
#       8
#     8   8   4   8   4   8   8   8
#     4  10  20  34  53  78 105 136 172 213 260 310
#     4  10  20  35  53  76 106 139 174 214 256 302
#     4  10  22  38  57  80 107 138 173 212 254 300
#     4  10  20  35  53  76 106 139 174 214 256 302
#     4  10  22  38  57  80 107 138 173 212 254 300
#     4  10  20  34  53  78 105 136 172 213 260 310
#     4   9  18  31  50  77 108 138 170 210 258 308
#     4   9  18  31  50  77 108 138 170 210 258 308
#
# _framework density 24.642388
#
# number of rings (size 3 to 8) (size 9 to 14) (size 15 to 20)
#    0.000    2.286    0.000    2.571    0.000    3.429 
#    0.000    0.714    0.000    0.000    0.000    0.000 
#    0.000    0.000    0.000    0.000    0.000    0.000 
#
# Total GULP energy -156481.770076 kJ/mol
# GULP energy per Si atom -5588.634646 kJ/mol
# Density = 2.458630 g / cm^3
# Si number density = 24.642388 Si / 1000 Ang^3
#
#
#
# Elastic Constant Matrix: (Units=GPa)
#
#
# Indices 1 2 3 4 5 6 
#
# 1 53.6754 1.3381 7.9643 0.0000 0.0000 0.0000
# 2 1.3381 73.0531 15.0980 0.0000 0.0000 0.0000
# 3 7.9643 15.0980 45.7402 0.0000 0.0000 0.0000
# 4 0.0000 0.0000 0.0000 47.1486 0.0000 0.0000
# 5 0.0000 0.0000 0.0000 0.0000 7.3048 0.0000
# 6 0.0000 0.0000 0.0000 0.0000 0.0000 -17.6513
#
#
#
# Elastic Compliance Matrix: (Units=1/GPa)
#
#
# Indices 1 2 3 4 5 6 
#
# 1 0.019134 0.000363 -0.003451 0.000000 0.000000 0.000000
# 2 0.000363 0.014698 -0.004915 0.000000 0.000000 0.000000
# 3 -0.003451 -0.004915 0.024086 0.000000 0.000000 0.000000
# 4 0.000000 0.000000 0.000000 0.021210 0.000000 0.000000
# 5 0.000000 0.000000 0.000000 0.000000 0.136897 0.000000
# 6 0.000000 0.000000 0.000000 0.000000 0.000000 -0.056653
#
#
# Mechanical properties :
#
#
# Convention : Reuss Voigt Hill
#
# Bulk Modulus (GPa) = 23.86016 24.58550 24.22283
# Shear Modulus (GPa) = 26.40650 17.23164 21.81907
#
# Velocity S-wave (km/s) = 3.27706 2.64724 2.97884
# Velocity P-wave (km/s) = 4.90127 4.39800 4.65644
#
# Compressibility (1/GPa) = 0.04191087
#
# Stress axis : x y z
#
# Youngs Moduli (GPa) = 52.26417 68.03767 41.51822
#
# Poissons Ratio (x) = -0.02469 0.14329
# Poissons Ratio (y) = -0.01896 0.20405
# Poissons Ratio (z) = 0.18038 0.33438
#
# Static dielectric constant tensor:
#      x y z
#    x 1.973770 0.000000 0.000000 
#    y 0.000000 1.922310 0.000000 
#    z 0.000000 0.000000 1.990390 
# 
# From -- ./inp_files/5230.got.cif
#   From: 2010.05.17/outbox.cif.g08.bks.cpg/sg36_3_cif.got.tgz:5230.got - 2010.06.03 17:41:39.
