data_PCOD9351158
_publ_section_title
;
Structure prediction by ZEFSAII (Michael W. Deem and Ramdas Pophale) SiO2 
 PCOD9351158
Probable space group: C M C 21
;
_chemical_formula_sum "Si O2"
_cell_formula_units_Z 64
_cell_length_a 7.779393
_cell_length_b 29.805991
_cell_length_c 12.838069
_cell_angle_alpha 90.000000
_cell_angle_beta 90.000000
_cell_angle_gamma 90.000000
_cell_volume 2976.795382
_symmetry_space_group_name_H-M "C M C 21"
_symmetry_group_IT_number 36
_symmetry_cell_setting 'orthorhombic'
loop_
_space_group_symop_operation_xyz
x,y,z
-x,-y,1/2+z
x,-y,1/2+z
-x,y,z
1/2+x,1/2+y,z
1/2-x,1/2-y,1/2+z
1/2+x,1/2-y,1/2+z
1/2-x,1/2+y,z
loop_
_atom_site_type_symbol
_atom_site_label
_atom_site_fract_x
_atom_site_fract_y
_atom_site_fract_z
Si Si1 0.198094 0.322214 0.403650
Si Si2 0.710860 0.221779 0.693776
Si Si3 0.794438 0.083960 0.191043
Si Si4 0.697075 0.681117 0.133643
Si Si5 0.296569 0.435782 0.919438
Si Si6 0.208322 0.370463 0.090492
Si Si7 0.300854 0.970407 0.486150
Si Si8 0.698220 0.081089 0.792473
O O1 0.260729 0.290216 0.311634
O O2 0.301893 0.321123 0.508971
O O3 0.197203 0.371787 0.354455
O O4 0.000000 0.310895 0.428777
O O5 0.500000 0.221426 0.690275
O O6 0.774444 0.270936 0.663941
O O7 0.765154 0.179880 0.621048
O O8 0.723933 0.134243 0.171933
O O9 0.729029 0.065082 0.300986
O O10 0.000000 0.087978 0.201967
O O11 0.766638 0.053010 0.090220
O O12 0.500000 0.682068 0.171841
O O13 0.500000 0.443728 0.917766
O O14 0.215203 0.476310 0.984466
O O15 0.262226 0.389359 0.979303
O O16 0.273272 0.405078 0.180448
O O17 0.000000 0.370559 0.096564
O O18 0.500000 0.957082 0.482244
O O19 0.221698 0.953032 0.376082
O O20 0.500000 0.066737 0.772433
#
# Coordination Sequence:
#
# PCOD9351158 Si02
#       8
#     8   8   8   8   8   8   8   8
#     4   9  16  32  54  78 106 143 187 235 282 329
#     4   8  17  33  56  82 113 152 192 232 282 339
#     4  10  23  41  58  82 121 158 189 231 289 351
#     4  10  19  34  56  83 114 151 189 231 284 338
#     4  11  25  41  56  83 122 157 190 231 290 353
#     4   9  18  37  60  83 112 150 194 236 283 335
#     4  11  22  38  62  87 110 143 194 244 287 339
#     4   8  16  32  56  82 106 134 181 240 285 326
#
# _framework density 21.49963
#
# number of rings (size 3 to 8) (size 9 to 14) (size 15 to 20)
#    0.000    2.500    1.250    2.250    1.750    2.000 
#    0.000    5.625    0.000    0.000    0.000    0.000 
#    0.000    0.000    0.000    0.000    0.000    0.000 
#
# Total GULP energy -178480.814453 kJ/mol
# GULP energy per Si atom -5577.525452 kJ/mol
# Density = 2.145070 g / cm^3
# Si number density = 21.499630 Si / 1000 Ang^3
#
#
#
# Elastic Constant Matrix: (Units=GPa)
#
#
# Indices 1 2 3 4 5 6 
#
# 1 31.0322 -3.4587 2.8371 0.0000 0.0000 0.0000
# 2 -3.4587 101.6220 51.2598 0.0000 0.0000 0.0000
# 3 2.8371 51.2598 83.7416 0.0000 0.0000 0.0000
# 4 0.0000 0.0000 0.0000 22.6083 0.0000 0.0000
# 5 0.0000 0.0000 0.0000 0.0000 19.5506 0.0000
# 6 0.0000 0.0000 0.0000 0.0000 0.0000 41.2910
#
#
#
# Elastic Compliance Matrix: (Units=1/GPa)
#
#
# Indices 1 2 3 4 5 6 
#
# 1 0.032731 0.002421 -0.002591 0.000000 0.000000 0.000000
# 2 0.002421 0.014415 -0.008906 0.000000 0.000000 0.000000
# 3 -0.002591 -0.008906 0.017481 0.000000 0.000000 0.000000
# 4 0.000000 0.000000 0.000000 0.044231 0.000000 0.000000
# 5 0.000000 0.000000 0.000000 0.000000 0.051149 0.000000
# 6 0.000000 0.000000 0.000000 0.000000 0.000000 0.024218
#
#
# Mechanical properties :
#
#
# Convention : Reuss Voigt Hill
#
# Bulk Modulus (GPa) = 21.51667 35.29693 28.40680
# Shear Modulus (GPa) = 22.94957 27.74049 25.34503
#
# Velocity S-wave (km/s) = 3.27071 3.59594 3.43718
# Velocity P-wave (km/s) = 4.92880 5.80467 5.38457
#
# Compressibility (1/GPa) = 0.04647559
#
# Stress axis : x y z
#
# Youngs Moduli (GPa) = 30.55185 69.37243 57.20629
#
# Poissons Ratio (x) = -0.16794 0.14821
# Poissons Ratio (y) = -0.07396 0.50946
# Poissons Ratio (z) = 0.07915 0.61781
#
# Static dielectric constant tensor:
#      x y z
#    x 1.793030 0.000000 0.000000 
#    y 0.000000 1.782580 0.000000 
#    z 0.000000 0.000000 1.785360 
# 
# From -- ./inp_files/7173.got.cif
#   From: 2010.05.17/outbox.cif.g08.bks.cpg/sg36_4_cif.got.tgz:7173.got - 2010.06.03 17:41:39.
