data_PCOD9351101
_publ_section_title
;
Structure prediction by ZEFSAII (Michael W. Deem and Ramdas Pophale) SiO2 
 PCOD9351101
Probable space group: C M C 21
;
_chemical_formula_sum "Si O2"
_cell_formula_units_Z 64
_cell_length_a 8.880414
_cell_length_b 20.520870
_cell_length_c 20.076180
_cell_angle_alpha 90.000000
_cell_angle_beta 90.000000
_cell_angle_gamma 90.000000
_cell_volume 3658.558997
_symmetry_space_group_name_H-M "C M C 21"
_symmetry_group_IT_number 36
_symmetry_cell_setting 'orthorhombic'
loop_
_space_group_symop_operation_xyz
x,y,z
-x,-y,1/2+z
x,-y,1/2+z
-x,y,z
1/2+x,1/2+y,z
1/2-x,1/2-y,1/2+z
1/2+x,1/2-y,1/2+z
1/2-x,1/2+y,z
loop_
_atom_site_type_symbol
_atom_site_label
_atom_site_fract_x
_atom_site_fract_y
_atom_site_fract_z
Si Si1 0.820292 0.299335 0.315390
Si Si2 0.180810 0.024389 0.976298
Si Si3 0.319051 0.076870 0.727606
Si Si4 0.179193 0.336990 0.468069
Si Si5 0.680630 0.587355 0.582554
Si Si6 0.320277 0.202763 0.500426
Si Si7 0.180584 0.973148 0.828713
Si Si8 0.679194 0.834328 0.846966
O O1 0.778576 0.353840 0.261698
O O2 0.787436 0.328129 0.389031
O O3 0.735934 0.230741 0.310249
O O4 0.000000 0.288000 0.311974
O O5 0.258282 0.093326 0.989618
O O6 0.222893 0.999144 0.902531
O O7 0.000000 0.032739 0.977278
O O8 0.221169 0.969911 0.030492
O O9 0.500000 0.072486 0.726022
O O10 0.251407 0.073706 0.654173
O O11 0.253664 0.020085 0.774160
O O12 0.257220 0.275941 0.503822
O O13 0.000000 0.333576 0.476648
O O14 0.500000 0.590317 0.586955
O O15 0.743884 0.654422 0.552438
O O16 0.500000 0.202547 0.508430
O O17 0.284977 0.177037 0.425494
O O18 0.000000 0.974715 0.823272
O O19 0.239488 0.899509 0.823054
O O20 0.500000 0.841016 0.840572
#
# Coordination Sequence:
#
# PCOD9351101 Si02
#       8
#     8   8   8   8   8   8   8   8
#     4   9  19  35  55  81 114 148 184 230 285 341
#     4  10  21  36  57  85 117 151 192 239 288 342
#     4  11  23  40  59  85 118 155 195 240 292 351
#     4  10  19  33  57  86 115 146 186 237 287 337
#     4  11  23  40  59  84 117 157 197 238 291 353
#     4  10  20  35  56  84 116 150 188 235 287 342
#     4  11  21  36  59  86 117 154 193 239 291 345
#     4  10  20  33  56  87 116 145 187 238 285 335
#
# _framework density 17.493227000000001
#
# number of rings (size 3 to 8) (size 9 to 14) (size 15 to 20)
#    0.000    1.750    2.500    2.250    0.000    4.000 
#    0.000    1.250    0.000    7.500    0.000    0.000 
#    0.000    0.000    0.000    0.000    0.000    0.000 
#
# Total GULP energy -178745.356561 kJ/mol
# GULP energy per Si atom -5585.792393 kJ/mol
# Density = 1.745341 g / cm^3
# Si number density = 17.493227 Si / 1000 Ang^3
#
#
#
# Elastic Constant Matrix: (Units=GPa)
#
#
# Indices 1 2 3 4 5 6 
#
# 1 48.0307 54.7599 44.0238 0.0000 0.0000 0.0000
# 2 54.7599 148.5022 60.2412 0.0000 0.0000 0.0000
# 3 44.0238 60.2412 97.3977 0.0000 0.0000 0.0000
# 4 0.0000 0.0000 0.0000 25.1717 0.0000 0.0000
# 5 0.0000 0.0000 0.0000 0.0000 27.4600 0.0000
# 6 0.0000 0.0000 0.0000 0.0000 0.0000 36.2092
#
#
#
# Elastic Compliance Matrix: (Units=1/GPa)
#
#
# Indices 1 2 3 4 5 6 
#
# 1 0.046908 -0.011609 -0.014022 0.000000 0.000000 0.000000
# 2 -0.011609 0.011862 -0.002090 0.000000 0.000000 0.000000
# 3 -0.014022 -0.002090 0.017898 0.000000 0.000000 0.000000
# 4 0.000000 0.000000 0.000000 0.039727 0.000000 0.000000
# 5 0.000000 0.000000 0.000000 0.000000 0.036417 0.000000
# 6 0.000000 0.000000 0.000000 0.000000 0.000000 0.027617
#
#
# Mechanical properties :
#
#
# Convention : Reuss Voigt Hill
#
# Bulk Modulus (GPa) = 47.11143 67.99783 57.55463
# Shear Modulus (GPa) = 20.58073 26.76192 23.67132
#
# Velocity S-wave (km/s) = 3.43373 3.91557 3.68254
# Velocity P-wave (km/s) = 6.53532 7.70698 7.14521
#
# Compressibility (1/GPa) = 0.02122627
#
# Stress axis : x y z
#
# Youngs Moduli (GPa) = 21.31844 84.29994 55.87317
#
# Poissons Ratio (x) = 0.97863 0.78346
# Poissons Ratio (y) = 0.24749 0.11676
# Poissons Ratio (z) = 0.29893 0.17616
#
# Static dielectric constant tensor:
#      x y z
#    x 1.578620 0.000000 0.000000 
#    y 0.000000 1.572240 0.000000 
#    z 0.000000 0.000000 1.576380 
# 
# From -- ./inp_files/13862.got.cif
#   From: 2010.05.17/outbox.cif.g08.bks.cpg/sg36_7_cif.got.tgz:13862.got - 2010.06.03 17:41:39.
