data_PCOD9351030
_publ_section_title
;
Structure prediction by ZEFSAII (Michael W. Deem and Ramdas Pophale) SiO2 
 PCOD9351030
Probable space group: C M C 21
;
_chemical_formula_sum "Si O2"
_cell_formula_units_Z 64
_cell_length_a 8.790614
_cell_length_b 29.650555
_cell_length_c 14.487475
_cell_angle_alpha 90.000000
_cell_angle_beta 90.000000
_cell_angle_gamma 90.000000
_cell_volume 3776.110868
_symmetry_space_group_name_H-M "C M C 21"
_symmetry_group_IT_number 36
_symmetry_cell_setting 'orthorhombic'
loop_
_space_group_symop_operation_xyz
x,y,z
-x,-y,1/2+z
x,-y,1/2+z
-x,y,z
1/2+x,1/2+y,z
1/2-x,1/2-y,1/2+z
1/2+x,1/2-y,1/2+z
1/2-x,1/2+y,z
loop_
_atom_site_type_symbol
_atom_site_label
_atom_site_fract_x
_atom_site_fract_y
_atom_site_fract_z
Si Si1 0.679224 0.006794 0.060850
Si Si2 0.683220 0.259358 0.582612
Si Si3 0.683977 0.925277 0.404508
Si Si4 0.317635 0.680139 0.460838
Si Si5 0.680376 0.451011 0.210747
Si Si6 0.321806 0.093060 0.542341
Si Si7 0.184351 0.241363 0.293265
Si Si8 0.816088 0.678821 0.927558
O O1 0.500000 0.012533 0.081671
O O2 0.767011 0.996052 0.155595
O O3 0.693841 0.958629 0.007359
O O4 0.731627 0.046902 0.995423
O O5 0.500000 0.258635 0.579930
O O6 0.746877 0.213778 0.536570
O O7 0.736313 0.262806 0.688427
O O8 0.744805 0.299912 0.519490
O O9 0.500000 0.927935 0.399274
O O10 0.752391 0.946623 0.312204
O O11 0.727495 0.872821 0.411445
O O12 0.500000 0.682170 0.466595
O O13 0.260373 0.630174 0.481682
O O14 0.270388 0.700842 0.361810
O O15 0.500000 0.447925 0.211828
O O16 0.750186 0.411615 0.144926
O O17 0.500000 0.103677 0.549728
O O18 0.229962 0.287897 0.343790
O O19 0.000000 0.241493 0.290707
O O20 0.000000 0.680996 0.935095
#
# Coordination Sequence:
#
# PCOD9351030 Si02
#       8
#     8   8   8   8   8   8   8   8
#     4   8  18  35  53  75 105 139 177 218 265 320
#     4  10  19  33  52  74 105 143 178 217 265 322
#     4  10  19  35  59  80 105 144 182 223 271 321
#     4  10  19  33  52  76 103 135 175 221 267 315
#     4  10  20  33  52  81 109 135 172 219 269 316
#     4   9  18  34  53  75 102 133 171 214 260 316
#     4   8  17  32  49  71 102 139 174 209 264 321
#     4   9  19  35  54  78 105 138 179 223 269 315
#
# _framework density 16.948654999999999
#
# number of rings (size 3 to 8) (size 9 to 14) (size 15 to 20)
#    0.750    2.000    0.000    2.625    1.750    1.000 
#    0.000    7.500    0.000    4.500    0.000    0.000 
#    0.000    0.000    0.000    0.000    0.000    0.000 
#
# Total GULP energy -178142.300000 kJ/mol
# GULP energy per Si atom -5566.946875 kJ/mol
# Density = 1.691008 g / cm^3
# Si number density = 16.948655 Si / 1000 Ang^3
#
#
#
# Elastic Constant Matrix: (Units=GPa)
#
#
# Indices 1 2 3 4 5 6 
#
# 1 40.3647 20.2430 23.7965 0.0000 0.0000 0.0000
# 2 20.2430 51.8322 33.1816 0.0000 0.0000 0.0000
# 3 23.7965 33.1816 114.4118 0.0000 0.0000 0.0000
# 4 0.0000 0.0000 0.0000 12.7980 0.0000 0.0000
# 5 0.0000 0.0000 0.0000 0.0000 23.2408 0.0000
# 6 0.0000 0.0000 0.0000 0.0000 0.0000 22.5438
#
#
#
# Elastic Compliance Matrix: (Units=1/GPa)
#
#
# Indices 1 2 3 4 5 6 
#
# 1 0.032053 -0.010131 -0.003728 0.000000 0.000000 0.000000
# 2 -0.010131 0.026894 -0.005693 0.000000 0.000000 0.000000
# 3 -0.003728 -0.005693 0.011167 0.000000 0.000000 0.000000
# 4 0.000000 0.000000 0.000000 0.078137 0.000000 0.000000
# 5 0.000000 0.000000 0.000000 0.000000 0.043028 0.000000
# 6 0.000000 0.000000 0.000000 0.000000 0.000000 0.044358
#
#
# Mechanical properties :
#
#
# Convention : Reuss Voigt Hill
#
# Bulk Modulus (GPa) = 32.24856 40.11674 36.18265
# Shear Modulus (GPa) = 17.53904 20.34236 18.94070
#
# Velocity S-wave (km/s) = 3.22037 3.46820 3.34658
# Velocity P-wave (km/s) = 5.73553 6.30546 6.02723
#
# Compressibility (1/GPa) = 0.03100914
#
# Stress axis : x y z
#
# Youngs Moduli (GPa) = 31.19824 37.18292 89.55139
#
# Poissons Ratio (x) = 0.37672 0.33388
# Poissons Ratio (y) = 0.31608 0.50978
# Poissons Ratio (z) = 0.11632 0.21167
#
# Static dielectric constant tensor:
#      x y z
#    x 1.568950 0.000000 0.000000 
#    y 0.000000 1.576790 0.000000 
#    z 0.000000 0.000000 1.564240 
# 
# From -- ./inp_files/11200.got.cif
#   From: 2010.05.17/outbox.cif.g08.bks.cpg/sg36_6_cif.got.tgz:11200.got - 2010.06.03 17:41:39.
