data_PCOD9351178
_publ_section_title
;
Structure prediction by ZEFSAII (Michael W. Deem and Ramdas Pophale) SiO2 
 PCOD9351178
Probable space group: C M C 21
;
_chemical_formula_sum "Si O2"
_cell_formula_units_Z 64
_cell_length_a 7.726206
_cell_length_b 15.880412
_cell_length_c 24.465273
_cell_angle_alpha 90.000000
_cell_angle_beta 90.000000
_cell_angle_gamma 90.000000
_cell_volume 3001.774854
_symmetry_space_group_name_H-M "C M C 21"
_symmetry_group_IT_number 36
_symmetry_cell_setting 'orthorhombic'
loop_
_space_group_symop_operation_xyz
x,y,z
-x,-y,1/2+z
x,-y,1/2+z
-x,y,z
1/2+x,1/2+y,z
1/2-x,1/2-y,1/2+z
1/2+x,1/2-y,1/2+z
1/2-x,1/2+y,z
loop_
_atom_site_type_symbol
_atom_site_label
_atom_site_fract_x
_atom_site_fract_y
_atom_site_fract_z
Si Si1 0.201805 0.158536 0.443710
Si Si2 0.288099 0.749009 0.625711
Si Si3 0.210821 0.650076 0.929342
Si Si4 0.799603 0.397513 0.828674
Si Si5 0.287656 0.747887 0.750783
Si Si6 0.298289 0.419192 0.311412
Si Si7 0.205449 0.399775 0.548416
Si Si8 0.790872 0.087238 0.557967
O O1 0.269929 0.252447 0.432204
O O2 0.216020 0.105502 0.388506
O O3 0.274776 0.113610 0.497421
O O4 0.000000 0.172038 0.456239
O O5 0.500000 0.750289 0.625556
O O6 0.232823 0.758229 0.688264
O O7 0.227165 0.825284 0.587065
O O8 0.235103 0.659961 0.599636
O O9 0.278156 0.607003 0.874705
O O10 0.000000 0.646932 0.926020
O O11 0.269726 0.607518 0.985967
O O12 0.728843 0.324476 0.789403
O O13 0.784687 0.489828 0.803270
O O14 0.000000 0.378218 0.838409
O O15 0.500000 0.748364 0.751582
O O16 0.229778 0.658886 0.775957
O O17 0.500000 0.428672 0.298521
O O18 0.235766 0.492737 0.570977
O O19 0.000000 0.385804 0.544673
O O20 0.000000 0.086689 0.557551
#
# Coordination Sequence:
#
# PCOD9351178 Si02
#       8
#     8   8   8   8   8   8   8   8
#     4  10  19  34  57  84 112 144 180 222 273 328
#     4   9  18  37  59  77 105 147 184 221 270 324
#     4  10  19  34  57  84 112 144 180 222 273 328
#     4  11  22  37  56  83 112 145 184 224 272 326
#     4   9  20  37  57  79 107 143 186 227 270 322
#     4  11  22  37  56  83 112 145 184 224 272 326
#     4  10  20  35  57  83 110 142 180 220 269 325
#     4  10  20  35  57  83 110 142 180 220 269 325
#
# _framework density 21.320719
#
# number of rings (size 3 to 8) (size 9 to 14) (size 15 to 20)
#    0.000    2.000    2.500    1.500    0.000    4.000 
#    0.000    0.625    0.000    4.500    0.000    0.000 
#    0.000    0.000    0.000    0.000    0.000    0.000 
#
# Total GULP energy -178776.537905 kJ/mol
# GULP energy per Si atom -5586.766810 kJ/mol
# Density = 2.127219 g / cm^3
# Si number density = 21.320719 Si / 1000 Ang^3
#
#
#
# Elastic Constant Matrix: (Units=GPa)
#
#
# Indices 1 2 3 4 5 6 
#
# 1 27.2583 -13.6972 -8.8394 0.0000 0.0000 0.0000
# 2 -13.6972 108.8952 16.7562 0.0000 0.0000 0.0000
# 3 -8.8394 16.7562 94.2481 0.0000 0.0000 0.0000
# 4 0.0000 0.0000 0.0000 7.5744 0.0000 0.0000
# 5 0.0000 0.0000 0.0000 0.0000 13.8466 0.0000
# 6 0.0000 0.0000 0.0000 0.0000 0.0000 14.9470
#
#
#
# Elastic Compliance Matrix: (Units=1/GPa)
#
#
# Indices 1 2 3 4 5 6 
#
# 1 0.039934 0.004572 0.002933 0.000000 0.000000 0.000000
# 2 0.004572 0.009965 -0.001343 0.000000 0.000000 0.000000
# 3 0.002933 -0.001343 0.011124 0.000000 0.000000 0.000000
# 4 0.000000 0.000000 0.000000 0.132023 0.000000 0.000000
# 5 0.000000 0.000000 0.000000 0.000000 0.072220 0.000000
# 6 0.000000 0.000000 0.000000 0.000000 0.000000 0.066903
#
#
# Mechanical properties :
#
#
# Convention : Reuss Voigt Hill
#
# Bulk Modulus (GPa) = 13.63394 24.31564 18.97479
# Shear Modulus (GPa) = 14.52241 23.01906 18.77073
#
# Velocity S-wave (km/s) = 2.61270 3.28938 2.97037
# Velocity P-wave (km/s) = 3.93829 5.08489 4.54787
#
# Compressibility (1/GPa) = 0.07334636
#
# Stress axis : x y z
#
# Youngs Moduli (GPa) = 25.04111 100.35291 89.89509
#
# Poissons Ratio (x) = -0.45880 -0.26362
# Poissons Ratio (y) = -0.11448 0.12071
# Poissons Ratio (z) = -0.07343 0.13476
#
# Static dielectric constant tensor:
#      x y z
#    x 1.798740 0.000000 0.000000 
#    y 0.000000 1.758730 0.000000 
#    z 0.000000 0.000000 1.743280 
# 
# From -- ./inp_files/16647.got.cif
#   From: 2010.05.17/outbox.cif.g08.bks.cpg/sg36_9_cif.got.tgz:16647.got - 2010.06.03 17:41:39.
