data_PCOD9351052
_publ_section_title
;
Structure prediction by ZEFSAII (Michael W. Deem and Ramdas Pophale) SiO2 
 PCOD9351052
Probable space group: C M C 21
;
_chemical_formula_sum "Si O2"
_cell_formula_units_Z 64
_cell_length_a 7.507446
_cell_length_b 24.017307
_cell_length_c 16.650046
_cell_angle_alpha 90.000000
_cell_angle_beta 90.000000
_cell_angle_gamma 90.000000
_cell_volume 3002.147073
_symmetry_space_group_name_H-M "C M C 21"
_symmetry_group_IT_number 36
_symmetry_cell_setting 'orthorhombic'
loop_
_space_group_symop_operation_xyz
x,y,z
-x,-y,1/2+z
x,-y,1/2+z
-x,y,z
1/2+x,1/2+y,z
1/2-x,1/2-y,1/2+z
1/2+x,1/2-y,1/2+z
1/2-x,1/2+y,z
loop_
_atom_site_type_symbol
_atom_site_label
_atom_site_fract_x
_atom_site_fract_y
_atom_site_fract_z
Si Si1 0.787157 0.800331 0.956370
Si Si2 0.288794 0.607785 0.329495
Si Si3 0.213005 0.592588 0.994683
Si Si4 0.218844 0.721589 0.709423
Si Si5 0.801521 0.375034 0.098923
Si Si6 0.285346 0.653720 0.163106
Si Si7 0.783111 0.310860 0.387549
Si Si8 0.212303 0.467277 0.983113
O O1 0.755794 0.833250 0.873672
O O2 0.732859 0.736875 0.950474
O O3 0.000000 0.803789 0.971834
O O4 0.686494 0.833185 0.024023
O O5 0.500000 0.600243 0.322932
O O6 0.219570 0.616040 0.238882
O O7 0.233719 0.561406 0.395333
O O8 0.242448 0.624557 0.078727
O O9 0.000000 0.588514 0.984813
O O10 0.280513 0.630658 0.921436
O O11 0.282856 0.529740 0.990126
O O12 0.283183 0.665942 0.663773
O O13 0.276217 0.781774 0.674508
O O14 0.272673 0.711103 0.801068
O O15 0.000000 0.721533 0.705205
O O16 0.000000 0.390578 0.128514
O O17 0.714800 0.428220 0.055341
O O18 0.500000 0.655987 0.169023
O O19 0.000000 0.311899 0.385098
O O20 0.000000 0.468198 0.996414
#
# Coordination Sequence:
#
# PCOD9351052 Si02
#       8
#     8   8   8   8   8   8   8   8
#     4   9  15  27  49  72  94 121 156 200 247 294
#     4   9  17  31  53  76  95 125 167 209 250 299
#     4  10  21  35  50  74 106 138 172 207 249 301
#     4   9  16  29  50  75  98 125 166 207 250 305
#     4   9  17  29  48  71  96 126 160 202 244 290
#     4  10  19  33  54  78 101 127 167 215 260 306
#     4   9  16  29  49  71  98 130 164 202 245 299
#     4   9  19  35  49  71 104 134 170 208 245 294
#
# _framework density 21.318078
#
# number of rings (size 3 to 8) (size 9 to 14) (size 15 to 20)
#    0.000    2.750    1.250    0.750    0.000    1.000 
#    2.250    0.000    0.000    2.250    0.000    0.000 
#    0.000    0.000    0.000    0.000    0.000    0.000 
#
# Total GULP energy -178295.837404 kJ/mol
# GULP energy per Si atom -5571.744919 kJ/mol
# Density = 2.126956 g / cm^3
# Si number density = 21.318078 Si / 1000 Ang^3
#
#
#
# Elastic Constant Matrix: (Units=GPa)
#
#
# Indices 1 2 3 4 5 6 
#
# 1 46.1512 7.6346 -0.6526 0.0000 0.0000 0.0000
# 2 7.6346 190.6023 58.8445 0.0000 0.0000 0.0000
# 3 -0.6526 58.8445 70.0194 0.0000 0.0000 0.0000
# 4 0.0000 0.0000 0.0000 27.0495 0.0000 0.0000
# 5 0.0000 0.0000 0.0000 0.0000 14.9428 0.0000
# 6 0.0000 0.0000 0.0000 0.0000 0.0000 100.2549
#
#
#
# Elastic Compliance Matrix: (Units=1/GPa)
#
#
# Indices 1 2 3 4 5 6 
#
# 1 0.021896 -0.001269 0.001271 0.000000 0.000000 0.000000
# 2 -0.001269 0.007158 -0.006028 0.000000 0.000000 0.000000
# 3 0.001271 -0.006028 0.019359 0.000000 0.000000 0.000000
# 4 0.000000 0.000000 0.000000 0.036969 0.000000 0.000000
# 5 0.000000 0.000000 0.000000 0.000000 0.066922 0.000000
# 6 0.000000 0.000000 0.000000 0.000000 0.000000 0.009975
#
#
# Mechanical properties :
#
#
# Convention : Reuss Voigt Hill
#
# Bulk Modulus (GPa) = 27.50195 48.71398 38.10797
# Shear Modulus (GPa) = 26.81654 44.51252 35.66453
#
# Velocity S-wave (km/s) = 3.55057 4.57444 4.09463
# Velocity P-wave (km/s) = 5.45321 7.12750 6.34582
#
# Compressibility (1/GPa) = 0.03636106
#
# Stress axis : x y z
#
# Youngs Moduli (GPa) = 45.67067 139.69822 51.65485
#
# Poissons Ratio (x) = 0.17733 -0.06565
# Poissons Ratio (y) = 0.05797 0.31136
# Poissons Ratio (z) = -0.05804 0.84205
#
# Static dielectric constant tensor:
#      x y z
#    x 1.861490 0.000000 0.000000 
#    y 0.000000 1.799350 0.000000 
#    z 0.000000 0.000000 1.831570 
# 
# From -- ./inp_files/8004.got.cif
#   From: 2010.05.17/outbox.cif.g08.bks.cpg/sg36_5_cif.got.tgz:8004.got - 2010.06.03 17:41:39.
