data_PCOD9351450
_publ_section_title
;
Structure prediction by ZEFSAII (Michael W. Deem and Ramdas Pophale) SiO2 
 PCOD9351450
Probable space group: C M C 21
;
_chemical_formula_sum "Si O2"
_cell_formula_units_Z 64
_cell_length_a 9.512906
_cell_length_b 23.102403
_cell_length_c 17.517982
_cell_angle_alpha 90.000000
_cell_angle_beta 90.000000
_cell_angle_gamma 90.000000
_cell_volume 3849.944214
_symmetry_space_group_name_H-M "C M C 21"
_symmetry_group_IT_number 36
_symmetry_cell_setting 'orthorhombic'
loop_
_space_group_symop_operation_xyz
x,y,z
-x,-y,1/2+z
x,-y,1/2+z
-x,y,z
1/2+x,1/2+y,z
1/2-x,1/2-y,1/2+z
1/2+x,1/2-y,1/2+z
1/2-x,1/2+y,z
loop_
_atom_site_type_symbol
_atom_site_label
_atom_site_fract_x
_atom_site_fract_y
_atom_site_fract_z
Si Si1 0.160528 0.173916 0.340530
Si Si2 0.834257 0.436350 0.388101
Si Si3 0.664774 0.121420 0.722372
Si Si4 0.339590 0.668080 0.951926
Si Si5 0.339847 0.273391 0.283078
Si Si6 0.666299 0.610409 0.579728
Si Si7 0.332707 0.446566 0.915024
Si Si8 0.839864 0.767539 0.009220
O O1 0.267172 0.210880 0.289925
O O2 0.198704 0.107714 0.359254
O O3 0.158049 0.205461 0.423492
O O4 0.000000 0.176394 0.311247
O O5 0.820073 0.414698 0.300551
O O6 0.754325 0.388741 0.439574
O O7 0.759699 0.497800 0.397777
O O8 0.000000 0.438328 0.406016
O O9 0.500000 0.130425 0.708403
O O10 0.744159 0.182071 0.736631
O O11 0.740217 0.091706 0.650772
O O12 0.500000 0.654594 0.973394
O O13 0.343966 0.699585 0.868838
O O14 0.265487 0.713958 0.007828
O O15 0.500000 0.270991 0.254716
O O16 0.500000 0.606347 0.596990
O O17 0.691783 0.575536 0.501605
O O18 0.698212 0.677864 0.561403
O O19 0.500000 0.458840 0.907976
O O20 0.000000 0.749229 0.026222
#
# Coordination Sequence:
#
# PCOD9351450 Si02
#       8
#     8   8   8   8   8   8   8   8
#     4   8  14  26  44  66  92 118 144 181 230 280
#     4  10  20  32  47  69  97 130 168 207 244 284
#     4  10  20  32  47  69  97 128 161 199 245 294
#     4   9  16  26  43  67  92 118 150 188 229 274
#     4   9  16  26  43  67  92 118 149 186 229 276
#     4   9  18  32  50  72  97 125 157 196 245 297
#     4   9  18  32  50  72  97 127 164 204 245 291
#     4   8  14  26  44  66  92 118 143 177 227 282
#
# _framework density 16.623616999999999
#
# number of rings (size 3 to 8) (size 9 to 14) (size 15 to 20)
#    0.000    3.000    0.000    3.000    0.000    6.000 
#    0.000    2.500    0.000    1.500    0.000    7.000 
#    0.000    0.000    0.000    0.000    0.000    0.000 
#
# Total GULP energy -178254.566912 kJ/mol
# GULP energy per Si atom -5570.455216 kJ/mol
# Density = 1.658578 g / cm^3
# Si number density = 16.623617 Si / 1000 Ang^3
#
#
#
# Elastic Constant Matrix: (Units=GPa)
#
#
# Indices 1 2 3 4 5 6 
#
# 1 123.0472 89.6792 38.8671 0.0000 0.0000 0.0000
# 2 89.6792 117.4905 17.7927 0.0000 0.0000 0.0000
# 3 38.8671 17.7927 32.0236 0.0000 0.0000 0.0000
# 4 0.0000 0.0000 0.0000 7.0957 0.0000 0.0000
# 5 0.0000 0.0000 0.0000 0.0000 20.3033 0.0000
# 6 0.0000 0.0000 0.0000 0.0000 0.0000 33.2244
#
#
#
# Elastic Compliance Matrix: (Units=1/GPa)
#
#
# Indices 1 2 3 4 5 6 
#
# 1 0.030492 -0.019293 -0.026288 0.000000 0.000000 0.000000
# 2 -0.019293 0.021500 0.011470 0.000000 0.000000 0.000000
# 3 -0.026288 0.011470 0.056760 0.000000 0.000000 0.000000
# 4 0.000000 0.000000 0.000000 0.140929 0.000000 0.000000
# 5 0.000000 0.000000 0.000000 0.000000 0.049253 0.000000
# 6 0.000000 0.000000 0.000000 0.000000 0.000000 0.030098
#
#
# Mechanical properties :
#
#
# Convention : Reuss Voigt Hill
#
# Bulk Modulus (GPa) = 24.67329 62.80435 43.73882
# Shear Modulus (GPa) = 12.17237 20.53953 16.35595
#
# Velocity S-wave (km/s) = 2.70892 3.51887 3.14012
# Velocity P-wave (km/s) = 4.96577 7.37375 6.28614
#
# Compressibility (1/GPa) = 0.04052965
#
# Stress axis : x y z
#
# Youngs Moduli (GPa) = 32.79572 46.51077 17.61791
#
# Poissons Ratio (x) = 0.89733 0.46315
# Poissons Ratio (y) = 0.63273 -0.20208
# Poissons Ratio (z) = 0.86215 -0.53347
#
# Static dielectric constant tensor:
#      x y z
#    x 1.558890 0.000000 0.000000 
#    y 0.000000 1.546150 0.000000 
#    z 0.000000 0.000000 1.574910 
# 
# From -- ./inp_files/13786.got.cif
#   From: 2010.05.17/outbox.cif.g08.bks.cpg/sg36_7_cif.got.tgz:13786.got - 2010.06.03 17:41:39.
