data_PCOD9351463
_publ_section_title
;
Structure prediction by ZEFSAII (Michael W. Deem and Ramdas Pophale) SiO2 
 PCOD9351463
Probable space group: C M C 21
;
_chemical_formula_sum "Si O2"
_cell_formula_units_Z 64
_cell_length_a 7.837589
_cell_length_b 15.687123
_cell_length_c 19.216301
_cell_angle_alpha 90.000000
_cell_angle_beta 90.000000
_cell_angle_gamma 90.000000
_cell_volume 2362.629270
_symmetry_space_group_name_H-M "C M C 21"
_symmetry_group_IT_number 36
_symmetry_cell_setting 'orthorhombic'
loop_
_space_group_symop_operation_xyz
x,y,z
-x,-y,1/2+z
x,-y,1/2+z
-x,y,z
1/2+x,1/2+y,z
1/2-x,1/2-y,1/2+z
1/2+x,1/2-y,1/2+z
1/2-x,1/2+y,z
loop_
_atom_site_type_symbol
_atom_site_label
_atom_site_fract_x
_atom_site_fract_y
_atom_site_fract_z
Si Si1 0.708428 0.294715 0.742100
Si Si2 0.805168 0.126440 0.826658
Si Si3 0.791862 0.899713 0.868663
Si Si4 0.698125 0.620820 0.109131
Si Si5 0.202483 0.349258 0.069228
Si Si6 0.702031 0.231884 0.954227
Si Si7 0.700657 0.516312 0.983788
Si Si8 0.695990 0.961269 0.193900
O O1 0.500000 0.287208 0.740177
O O2 0.776493 0.214512 0.784344
O O3 0.754637 0.375860 0.790495
O O4 0.772280 0.312324 0.664527
O O5 0.767136 0.153492 0.906861
O O6 0.713187 0.060779 0.774851
O O7 0.000000 0.099622 0.824011
O O8 0.736190 0.816436 0.912503
O O9 0.000000 0.902477 0.871420
O O10 0.729153 0.983250 0.909485
O O11 0.500000 0.643818 0.095759
O O12 0.779068 0.586189 0.036800
O O13 0.695543 0.535483 0.158270
O O14 0.288079 0.427065 0.027155
O O15 0.235094 0.374947 0.149199
O O16 0.000000 0.355386 0.059478
O O17 0.253555 0.259938 0.033055
O O18 0.500000 0.228156 0.948431
O O19 0.500000 0.535513 0.977749
O O20 0.500000 0.983863 0.178942
#
# Coordination Sequence:
#
# PCOD9351463 Si02
#       8
#     8   8   8   8   8   8   8   8
#     4   9  17  30  47  68  95 125 156 193 240 287
#     4  11  21  32  49  72  97 126 165 206 240 284
#     4   7  11  21  39  61  84 112 146 183 224 271
#     4   9  17  29  47  70  94 122 158 196 234 284
#     4   9  16  26  43  68  93 118 154 198 238 280
#     4   9  16  28  46  67  93 122 152 192 243 291
#     4   8  13  23  40  62  87 116 151 190 231 273
#     4  10  20  33  49  70  99 131 162 200 244 286
#
# _framework density 27.088464999999999
#
# number of rings (size 3 to 8) (size 9 to 14) (size 15 to 20)
#    0.000    3.000    0.000    3.750    0.000    2.000 
#    0.000    0.000    0.000    1.500    0.000    5.250 
#    0.000    0.000    0.000    0.000    0.000    0.000 
#
# Total GULP energy -178843.663941 kJ/mol
# GULP energy per Si atom -5588.864498 kJ/mol
# Density = 2.702681 g / cm^3
# Si number density = 27.088465 Si / 1000 Ang^3
#
#
#
# Elastic Constant Matrix: (Units=GPa)
#
#
# Indices 1 2 3 4 5 6 
#
# 1 53.8424 1.5963 -6.0416 0.0000 0.0000 0.0000
# 2 1.5963 95.7032 -2.8358 0.0000 0.0000 0.0000
# 3 -6.0416 -2.8358 209.6336 0.0000 0.0000 0.0000
# 4 0.0000 0.0000 0.0000 53.8355 0.0000 0.0000
# 5 0.0000 0.0000 0.0000 0.0000 19.3466 0.0000
# 6 0.0000 0.0000 0.0000 0.0000 0.0000 20.5844
#
#
#
# Elastic Compliance Matrix: (Units=1/GPa)
#
#
# Indices 1 2 3 4 5 6 
#
# 1 0.018641 -0.000295 0.000533 0.000000 0.000000 0.000000
# 2 -0.000295 0.010458 0.000133 0.000000 0.000000 0.000000
# 3 0.000533 0.000133 0.004787 0.000000 0.000000 0.000000
# 4 0.000000 0.000000 0.000000 0.018575 0.000000 0.000000
# 5 0.000000 0.000000 0.000000 0.000000 0.051689 0.000000
# 6 0.000000 0.000000 0.000000 0.000000 0.000000 0.048581
#
#
# Mechanical properties :
#
#
# Convention : Reuss Voigt Hill
#
# Bulk Modulus (GPa) = 28.87780 38.29079 33.58430
# Shear Modulus (GPa) = 30.57513 43.18398 36.87955
#
# Velocity S-wave (km/s) = 3.36328 3.99705 3.69378
# Velocity P-wave (km/s) = 5.07601 5.95551 5.53326
#
# Compressibility (1/GPa) = 0.03462867
#
# Stress axis : x y z
#
# Youngs Moduli (GPa) = 53.64432 95.62205 208.88195
#
# Poissons Ratio (x) = 0.02822 -0.11138
# Poissons Ratio (y) = 0.01583 -0.02777
# Poissons Ratio (z) = -0.02861 -0.01271
#
# Static dielectric constant tensor:
#      x y z
#    x 1.973570 0.000000 0.000000 
#    y 0.000000 2.222360 0.000000 
#    z 0.000000 0.000000 2.189730 
# 
# From -- ./inp_files/15793.got.cif
#   From: 2010.05.17/outbox.cif.g08.bks.cpg/sg36_8_cif.got.tgz:15793.got - 2010.06.03 17:41:39.
