data_PCOD9351446
_publ_section_title
;
Structure prediction by ZEFSAII (Michael W. Deem and Ramdas Pophale) SiO2 
 PCOD9351446
Probable space group: C M C 21
;
_chemical_formula_sum "Si O2"
_cell_formula_units_Z 64
_cell_length_a 7.535959
_cell_length_b 29.522940
_cell_length_c 14.552128
_cell_angle_alpha 90.000000
_cell_angle_beta 90.000000
_cell_angle_gamma 90.000000
_cell_volume 3237.610777
_symmetry_space_group_name_H-M "C M C 21"
_symmetry_group_IT_number 36
_symmetry_cell_setting 'orthorhombic'
loop_
_space_group_symop_operation_xyz
x,y,z
-x,-y,1/2+z
x,-y,1/2+z
-x,y,z
1/2+x,1/2+y,z
1/2-x,1/2-y,1/2+z
1/2+x,1/2-y,1/2+z
1/2-x,1/2+y,z
loop_
_atom_site_type_symbol
_atom_site_label
_atom_site_fract_x
_atom_site_fract_y
_atom_site_fract_z
Si Si1 0.206529 0.050067 0.029790
Si Si2 0.786335 0.874747 0.170214
Si Si3 0.291419 0.878722 0.384262
Si Si4 0.215050 0.872426 0.665883
Si Si5 0.290237 0.800386 0.515605
Si Si6 0.783725 0.875278 0.875301
Si Si7 0.717137 0.448153 0.022342
Si Si8 0.783027 0.801846 0.024247
O O1 0.280970 0.084824 0.105706
O O2 0.000000 0.044344 0.053976
O O3 0.281994 0.999631 0.025117
O O4 0.215221 0.076739 0.933363
O O5 0.733325 0.876353 0.275808
O O6 0.728746 0.918320 0.110579
O O7 0.726390 0.830192 0.114210
O O8 0.000000 0.874652 0.167934
O O9 0.500000 0.880516 0.404034
O O10 0.217993 0.834305 0.437081
O O11 0.266393 0.827310 0.610731
O O12 0.277198 0.873749 0.770592
O O13 0.000000 0.873829 0.666086
O O14 0.500000 0.795593 0.497738
O O15 0.218115 0.749566 0.519470
O O16 0.000000 0.875438 0.873718
O O17 0.728401 0.919713 0.932391
O O18 0.731054 0.831864 0.936082
O O19 0.500000 0.448636 0.020924
O O20 0.000000 0.801256 0.026151
#
# Coordination Sequence:
#
# PCOD9351446 Si02
#       8
#     8   8   8   8   8   8   8   8
#     4   9  17  30  48  70  94 119 151 189 227 268
#     4   9  17  31  51  72  93 118 152 194 235 273
#     4  10  20  32  46  67  96 128 158 187 225 273
#     4   9  17  28  45  69  92 114 145 187 227 262
#     4   9  18  32  47  63  89 124 156 184 220 272
#     4   8  14  26  45  69  93 114 143 185 228 269
#     4   8  15  28  48  72  93 116 149 189 230 271
#     4   8  15  29  48  68  90 119 152 185 226 274
#
# _framework density 19.767662999999999
#
# number of rings (size 3 to 8) (size 9 to 14) (size 15 to 20)
#    0.000    3.250    0.000    1.875    0.000    2.500 
#    0.000    6.250    0.000    7.500    0.000    0.000 
#    0.000    0.000    0.000    0.000    0.000    0.000 
#
# Total GULP energy -178409.487355 kJ/mol
# GULP energy per Si atom -5575.296480 kJ/mol
# Density = 1.972267 g / cm^3
# Si number density = 19.767663 Si / 1000 Ang^3
#
#
#
# Elastic Constant Matrix: (Units=GPa)
#
#
# Indices 1 2 3 4 5 6 
#
# 1 44.4238 2.1662 -12.1256 0.0000 0.0000 0.0000
# 2 2.1662 206.7476 87.7123 0.0000 0.0000 0.0000
# 3 -12.1256 87.7123 162.2498 0.0000 0.0000 0.0000
# 4 0.0000 0.0000 0.0000 7.1204 0.0000 0.0000
# 5 0.0000 0.0000 0.0000 0.0000 -4.5418 0.0000
# 6 0.0000 0.0000 0.0000 0.0000 0.0000 3.2527
#
#
#
# Elastic Compliance Matrix: (Units=1/GPa)
#
#
# Indices 1 2 3 4 5 6 
#
# 1 0.023234 -0.001272 0.002424 0.000000 0.000000 0.000000
# 2 -0.001272 0.006346 -0.003526 0.000000 0.000000 0.000000
# 3 0.002424 -0.003526 0.008250 0.000000 0.000000 0.000000
# 4 0.000000 0.000000 0.000000 0.140442 0.000000 0.000000
# 5 0.000000 0.000000 0.000000 0.000000 -0.220176 0.000000
# 6 0.000000 0.000000 0.000000 0.000000 0.000000 0.307440
#
#
# Mechanical properties :
#
#
# Convention : Reuss Voigt Hill
#
# Bulk Modulus (GPa) = 30.22662 63.21413 46.72037
# Shear Modulus (GPa) = 17.77389 23.54413 20.65901
#
# Velocity S-wave (km/s) = 3.00182 3.45489 3.23629
# Velocity P-wave (km/s) = 5.22864 6.92553 6.13603
#
# Compressibility (1/GPa) = 0.03308342
#
# Stress axis : x y z
#
# Youngs Moduli (GPa) = 43.04017 157.58247 121.20562
#
# Poissons Ratio (x) = 0.20041 -0.29379
# Poissons Ratio (y) = 0.05474 0.42733
# Poissons Ratio (z) = -0.10433 0.55558
#
# Static dielectric constant tensor:
#      x y z
#    x 1.753350 0.000000 0.000000 
#    y 0.000000 1.689350 0.000000 
#    z 0.000000 0.000000 1.661720 
# 
# From -- ./inp_files/11212.got.cif
#   From: 2010.05.17/outbox.cif.g08.bks.cpg/sg36_6_cif.got.tgz:11212.got - 2010.06.03 17:41:39.
