data_PCOD9351735
_publ_section_title
;
Structure prediction by ZEFSAII (Michael W. Deem and Ramdas Pophale) SiO2 
 PCOD9351735
Probable space group: C M C 21
;
_chemical_formula_sum "Si O2"
_cell_formula_units_Z 56
_cell_length_a 14.446660
_cell_length_b 20.599359
_cell_length_c 8.797702
_cell_angle_alpha 90.000000
_cell_angle_beta 90.000000
_cell_angle_gamma 90.000000
_cell_volume 2618.125168
_symmetry_space_group_name_H-M "C M C 21"
_symmetry_group_IT_number 36
_symmetry_cell_setting 'orthorhombic'
loop_
_space_group_symop_operation_xyz
x,y,z
-x,-y,1/2+z
x,-y,1/2+z
-x,y,z
1/2+x,1/2+y,z
1/2-x,1/2-y,1/2+z
1/2+x,1/2-y,1/2+z
1/2-x,1/2+y,z
loop_
_atom_site_type_symbol
_atom_site_label
_atom_site_fract_x
_atom_site_fract_y
_atom_site_fract_z
Si Si1 0.223227 0.316763 0.628790
Si Si2 0.752932 0.688415 0.782212
Si Si3 0.102412 0.121762 0.640166
Si Si4 0.889681 0.581544 0.712867
Si Si5 0.687261 0.045751 0.042318
Si Si6 0.399393 0.530015 0.085693
Si Si7 0.395297 0.643524 0.303964
O O1 0.212969 0.301239 0.452024
O O2 0.200766 0.252500 0.721761
O O3 0.178970 0.388715 0.647884
O O4 0.329918 0.323128 0.682143
O O5 0.670075 0.637250 0.775353
O O6 0.834674 0.650266 0.691367
O O7 0.139502 0.147202 0.476508
O O8 0.000000 0.148648 0.662445
O O9 0.096283 0.045435 0.619077
O O10 0.849074 0.521446 0.614007
O O11 0.000000 0.587852 0.690653
O O12 0.866204 0.561244 0.886906
O O13 0.798014 0.040571 0.014528
O O14 0.500000 0.548820 0.012446
O O15 0.397145 0.569474 0.244903
O O16 0.500000 0.668298 0.301159
#
# Coordination Sequence:
#
# PCOD9351735 Si02
#       7
#     8   8   8   8   8   8   8
#     4  10  23  38  62  86 124 163 212 265 323 391
#     4  11  23  42  60  91 121 168 212 266 327 389
#     4  10  20  35  58  88 123 157 196 247 313 384
#     4  11  24  42  65  92 125 170 220 271 318 375
#     4  10  22  40  63  94 124 165 209 264 319 383
#     4   9  18  31  55  92 126 154 189 240 310 381
#     4   9  19  34  55  85 119 157 195 239 301 371
#
# _framework density 21.389351999999999
#
# number of rings (size 3 to 8) (size 9 to 14) (size 15 to 20)
#    0.000    2.000    1.429    1.286    4.000    3.429 
#    0.000   10.000    0.000    0.000    0.000    0.000 
#    0.000    0.000    0.000    0.000    0.000    0.000 
#
# Total GULP energy -155945.682746 kJ/mol
# GULP energy per Si atom -5569.488669 kJ/mol
# Density = 2.134067 g / cm^3
# Si number density = 21.389352 Si / 1000 Ang^3
#
#
#
# Elastic Constant Matrix: (Units=GPa)
#
#
# Indices 1 2 3 4 5 6 
#
# 1 98.4703 7.6467 0.7406 0.0000 0.0000 0.0000
# 2 7.6467 64.1787 2.1008 0.0000 0.0000 0.0000
# 3 0.7406 2.1008 10.3440 0.0000 0.0000 0.0000
# 4 0.0000 0.0000 0.0000 29.7017 0.0000 0.0000
# 5 0.0000 0.0000 0.0000 0.0000 26.4983 0.0000
# 6 0.0000 0.0000 0.0000 0.0000 0.0000 8.8453
#
#
#
# Elastic Compliance Matrix: (Units=1/GPa)
#
#
# Indices 1 2 3 4 5 6 
#
# 1 0.010253 -0.001206 -0.000489 0.000000 0.000000 0.000000
# 2 -0.001206 0.015828 -0.003128 0.000000 0.000000 0.000000
# 3 -0.000489 -0.003128 0.097345 0.000000 0.000000 0.000000
# 4 0.000000 0.000000 0.000000 0.033668 0.000000 0.000000
# 5 0.000000 0.000000 0.000000 0.000000 0.037738 0.000000
# 6 0.000000 0.000000 0.000000 0.000000 0.000000 0.113055
#
#
# Mechanical properties :
#
#
# Convention : Reuss Voigt Hill
#
# Bulk Modulus (GPa) = 8.78895 21.55214 15.17054
# Shear Modulus (GPa) = 14.06633 23.84270 18.95452
#
# Velocity S-wave (km/s) = 2.56722 3.34233 2.98008
# Velocity P-wave (km/s) = 3.59241 4.99929 4.35306
#
# Compressibility (1/GPa) = 0.11377925
#
# Stress axis : x y z
#
# Youngs Moduli (GPa) = 97.53583 63.18100 10.27274
#
# Poissons Ratio (x) = 0.07617 0.00503
# Poissons Ratio (y) = 0.11759 0.03214
# Poissons Ratio (z) = 0.04772 0.19764
#
# Static dielectric constant tensor:
#      x y z
#    x 1.827000 0.000000 0.000000 
#    y 0.000000 1.928100 0.000000 
#    z 0.000000 0.000000 1.796280 
# 
# From -- ./inp_files/4220.got.cif
#   From: 2010.05.17/outbox.cif.g08.bks.cpg/sg36_3_cif.got.tgz:4220.got - 2010.06.03 17:41:39.
