data_PCOD9351234
_publ_section_title
;
Structure prediction by ZEFSAII (Michael W. Deem and Ramdas Pophale) SiO2 
 PCOD9351234
Probable space group: C M C 21
;
_chemical_formula_sum "Si O2"
_cell_formula_units_Z 56
_cell_length_a 19.799586
_cell_length_b 12.948798
_cell_length_c 13.408907
_cell_angle_alpha 90.000000
_cell_angle_beta 90.000000
_cell_angle_gamma 90.000000
_cell_volume 3437.786835
_symmetry_space_group_name_H-M "C M C 21"
_symmetry_group_IT_number 36
_symmetry_cell_setting 'orthorhombic'
loop_
_space_group_symop_operation_xyz
x,y,z
-x,-y,1/2+z
x,-y,1/2+z
-x,y,z
1/2+x,1/2+y,z
1/2-x,1/2-y,1/2+z
1/2+x,1/2-y,1/2+z
1/2-x,1/2+y,z
loop_
_atom_site_type_symbol
_atom_site_label
_atom_site_fract_x
_atom_site_fract_y
_atom_site_fract_z
Si Si1 0.782684 0.622865 0.171810
Si Si2 0.196052 0.225019 0.336311
Si Si3 0.078261 0.880981 0.956282
Si Si4 0.205248 0.607148 0.671156
Si Si5 0.696131 0.724673 0.006577
Si Si6 0.421733 0.381445 0.387005
Si Si7 0.359563 0.337215 0.171685
O O1 0.733557 0.641277 0.266227
O O2 0.816196 0.511137 0.171464
O O3 0.836774 0.716521 0.171851
O O4 0.733423 0.641596 0.077602
O O5 0.128479 0.184229 0.386875
O O6 0.184468 0.325012 0.266771
O O7 0.249952 0.250847 0.421270
O O8 0.000000 0.850906 0.945528
O O9 0.084805 0.999759 0.921611
O O10 0.101165 0.865666 0.070964
O O11 0.184797 0.674461 0.575049
O O12 0.287115 0.605728 0.671482
O O13 0.628421 0.683755 0.956518
O O14 0.500000 0.351395 0.397686
O O15 0.398769 0.366004 0.272365
#
# Coordination Sequence:
#
# PCOD9351234 Si02
#       7
#     8   8   8   8   8   8   8
#     4  10  20  33  59  83 109 147 186 232 276 320
#     4  10  19  35  54  84 113 140 185 234 270 322
#     4  11  22  36  58  84 114 149 179 226 287 335
#     4  10  20  33  56  84 108 145 187 232 276 317
#     4  10  19  35  54  84 113 140 185 234 270 322
#     4  11  22  36  58  84 114 149 179 226 287 335
#     4  10  19  38  53  83 114 138 191 232 265 339
#
# _framework density 16.289550999999999
#
# number of rings (size 3 to 8) (size 9 to 14) (size 15 to 20)
#    0.000    2.000    5.714    2.143    0.000    1.143 
#    0.000    5.714    0.000    5.143    0.000    0.000 
#    0.000    0.000    0.000    0.000    0.000    0.000 
#
# Total GULP energy -156143.881850 kJ/mol
# GULP energy per Si atom -5576.567209 kJ/mol
# Density = 1.625247 g / cm^3
# Si number density = 16.289551 Si / 1000 Ang^3
#
#
#
# Elastic Constant Matrix: (Units=GPa)
#
#
# Indices 1 2 3 4 5 6 
#
# 1 134.4909 45.9733 72.1100 0.0000 0.0000 0.0000
# 2 45.9733 103.7571 57.1538 0.0000 0.0000 0.0000
# 3 72.1100 57.1538 154.5240 0.0000 0.0000 0.0000
# 4 0.0000 0.0000 0.0000 5.8227 0.0000 0.0000
# 5 0.0000 0.0000 0.0000 0.0000 15.2131 0.0000
# 6 0.0000 0.0000 0.0000 0.0000 0.0000 23.0509
#
#
#
# Elastic Compliance Matrix: (Units=1/GPa)
#
#
# Indices 1 2 3 4 5 6 
#
# 1 0.010381 -0.002425 -0.003947 0.000000 0.000000 0.000000
# 2 -0.002425 0.012671 -0.003555 0.000000 0.000000 0.000000
# 3 -0.003947 -0.003555 0.009628 0.000000 0.000000 0.000000
# 4 0.000000 0.000000 0.000000 0.171742 0.000000 0.000000
# 5 0.000000 0.000000 0.000000 0.000000 0.065733 0.000000
# 6 0.000000 0.000000 0.000000 0.000000 0.000000 0.043382
#
#
# Mechanical properties :
#
#
# Convention : Reuss Voigt Hill
#
# Bulk Modulus (GPa) = 77.97128 82.58291 80.27709
# Shear Modulus (GPa) = 14.80752 23.31968 19.06360
#
# Velocity S-wave (km/s) = 3.01827 3.78772 3.42467
# Velocity P-wave (km/s) = 7.75347 8.36277 8.06388
#
# Compressibility (1/GPa) = 0.01282524
#
# Stress axis : x y z
#
# Youngs Moduli (GPa) = 96.33062 78.92303 103.86043
#
# Poissons Ratio (x) = 0.19141 0.40997
# Poissons Ratio (y) = 0.23363 0.36919
# Poissons Ratio (z) = 0.38025 0.28055
#
# Static dielectric constant tensor:
#      x y z
#    x 1.518110 0.000000 0.000000 
#    y 0.000000 1.558370 0.000000 
#    z 0.000000 0.000000 1.578080 
# 
# From -- ./inp_files/9237.got.cif
#   From: 2010.05.17/outbox.cif.g08.bks.cpg/sg36_5_cif.got.tgz:9237.got - 2010.06.03 17:41:39.
