data_PCOD9351465
_publ_section_title
;
Structure prediction by ZEFSAII (Michael W. Deem and Ramdas Pophale) SiO2 
 PCOD9351465
Probable space group: C M C 21
;
_chemical_formula_sum "Si O2"
_cell_formula_units_Z 64
_cell_length_a 9.649835
_cell_length_b 23.106436
_cell_length_c 16.219120
_cell_angle_alpha 90.000000
_cell_angle_beta 90.000000
_cell_angle_gamma 90.000000
_cell_volume 3616.430626
_symmetry_space_group_name_H-M "C M C 21"
_symmetry_group_IT_number 36
_symmetry_cell_setting 'orthorhombic'
loop_
_space_group_symop_operation_xyz
x,y,z
-x,-y,1/2+z
x,-y,1/2+z
-x,y,z
1/2+x,1/2+y,z
1/2-x,1/2-y,1/2+z
1/2+x,1/2-y,1/2+z
1/2-x,1/2+y,z
loop_
_atom_site_type_symbol
_atom_site_label
_atom_site_fract_x
_atom_site_fract_y
_atom_site_fract_z
Si Si1 0.333644 0.779003 0.950340
Si Si2 0.841692 0.971993 0.769894
Si Si3 0.155305 0.471361 0.489182
Si Si4 0.157680 0.896550 0.605533
Si Si5 0.167515 0.288004 0.307040
Si Si6 0.168065 0.766181 0.631160
Si Si7 0.657025 0.075515 0.801794
Si Si8 0.835589 0.413490 0.912249
O O1 0.500000 0.768000 0.941913
O O2 0.248925 0.742339 0.882315
O O3 0.310239 0.847266 0.935201
O O4 0.292495 0.763634 0.044542
O O5 0.843687 0.934804 0.687356
O O6 0.757421 0.934462 0.836507
O O7 0.000000 0.981808 0.797600
O O8 0.763375 0.032816 0.757128
O O9 0.256350 0.431308 0.539278
O O10 0.154799 0.448257 0.395405
O O11 0.192740 0.539225 0.483730
O O12 0.000000 0.466266 0.522861
O O13 0.213646 0.832840 0.625393
O O14 0.000000 0.889005 0.575776
O O15 0.211416 0.261826 0.218108
O O16 0.193316 0.356923 0.304025
O O17 0.000000 0.279834 0.317269
O O18 0.000000 0.764759 0.633929
O O19 0.500000 0.069903 0.768326
O O20 0.000000 0.419943 0.892460
#
# Coordination Sequence:
#
# PCOD9351465 Si02
#       8
#     8   8   8   8   8   8   8   8
#     4  10  20  35  56  80 108 143 179 218 264 313
#     4  10  20  33  52  76 102 135 173 214 260 311
#     4   9  18  32  50  73 100 130 167 213 260 308
#     4  10  20  33  49  73 103 133 170 213 257 308
#     4  10  20  36  58  80 106 143 181 217 262 317
#     4   9  19  35  54  77 106 141 179 215 260 323
#     4   9  19  35  54  77 103 132 171 216 262 312
#     4   9  19  35  53  76 104 133 172 216 259 310
#
# _framework density 17.697006999999999
#
# number of rings (size 3 to 8) (size 9 to 14) (size 15 to 20)
#    0.000    2.500    0.000    2.625    0.000    6.000 
#    0.000    3.750    0.000    0.000    0.000    0.000 
#    0.000    0.000    0.000    0.000    0.000    0.000 
#
# Total GULP energy -178359.226952 kJ/mol
# GULP energy per Si atom -5573.725842 kJ/mol
# Density = 1.765673 g / cm^3
# Si number density = 17.697007 Si / 1000 Ang^3
#
#
#
# Elastic Constant Matrix: (Units=GPa)
#
#
# Indices 1 2 3 4 5 6 
#
# 1 38.7537 45.3411 21.5270 0.0000 0.0000 0.0000
# 2 45.3411 142.9686 37.0725 0.0000 0.0000 0.0000
# 3 21.5270 37.0725 64.6211 0.0000 0.0000 0.0000
# 4 0.0000 0.0000 0.0000 26.6402 0.0000 0.0000
# 5 0.0000 0.0000 0.0000 0.0000 19.5324 0.0000
# 6 0.0000 0.0000 0.0000 0.0000 0.0000 22.6708
#
#
#
# Elastic Compliance Matrix: (Units=1/GPa)
#
#
# Indices 1 2 3 4 5 6 
#
# 1 0.044171 -0.011974 -0.007845 0.000000 0.000000 0.000000
# 2 -0.011974 0.011463 -0.002587 0.000000 0.000000 0.000000
# 3 -0.007845 -0.002587 0.019573 0.000000 0.000000 0.000000
# 4 0.000000 0.000000 0.000000 0.037537 0.000000 0.000000
# 5 0.000000 0.000000 0.000000 0.000000 0.051197 0.000000
# 6 0.000000 0.000000 0.000000 0.000000 0.000000 0.044110
#
#
# Mechanical properties :
#
#
# Convention : Reuss Voigt Hill
#
# Bulk Modulus (GPa) = 32.90163 50.46939 41.68551
# Shear Modulus (GPa) = 19.01175 23.26221 21.13698
#
# Velocity S-wave (km/s) = 3.28119 3.62950 3.45973
# Velocity P-wave (km/s) = 5.74343 6.79300 6.29014
#
# Compressibility (1/GPa) = 0.03039363
#
# Stress axis : x y z
#
# Youngs Moduli (GPa) = 22.63904 87.23758 51.09201
#
# Poissons Ratio (x) = 1.04461 0.40082
# Poissons Ratio (y) = 0.27109 0.13219
# Poissons Ratio (z) = 0.17761 0.22570
#
# Static dielectric constant tensor:
#      x y z
#    x 1.622650 0.000000 0.000000 
#    y 0.000000 1.602520 0.000000 
#    z 0.000000 0.000000 1.589470 
# 
# From -- ./inp_files/11035.got.cif
#   From: 2010.05.17/outbox.cif.g08.bks.cpg/sg36_6_cif.got.tgz:11035.got - 2010.06.03 17:41:39.
