data_PCOD9351767
_publ_section_title
;
Structure prediction by ZEFSAII (Michael W. Deem and Ramdas Pophale) SiO2 
 PCOD9351767
Probable space group: C M C 21
;
_chemical_formula_sum "Si O2"
_cell_formula_units_Z 64
_cell_length_a 23.129529
_cell_length_b 15.898680
_cell_length_c 8.797982
_cell_angle_alpha 90.000000
_cell_angle_beta 90.000000
_cell_angle_gamma 90.000000
_cell_volume 3235.272948
_symmetry_space_group_name_H-M "C M C 21"
_symmetry_group_IT_number 36
_symmetry_cell_setting 'orthorhombic'
loop_
_space_group_symop_operation_xyz
x,y,z
-x,-y,1/2+z
x,-y,1/2+z
-x,y,z
1/2+x,1/2+y,z
1/2-x,1/2-y,1/2+z
1/2+x,1/2-y,1/2+z
1/2-x,1/2+y,z
loop_
_atom_site_type_symbol
_atom_site_label
_atom_site_fract_x
_atom_site_fract_y
_atom_site_fract_z
Si Si1 0.068012 0.234213 0.921240
Si Si2 0.226340 0.730315 0.323529
Si Si3 0.687042 0.491671 0.963170
Si Si4 0.935008 0.567486 0.420162
Si Si5 0.731606 0.065696 0.196779
Si Si6 0.646116 0.620263 0.732349
Si Si7 0.129662 0.554061 0.711182
Si Si8 0.666508 0.237262 0.647594
O O1 0.075606 0.333939 0.886340
O O2 0.092508 0.179028 0.781498
O O3 0.000000 0.219592 0.950200
O O4 0.110485 0.219865 0.067647
O O5 0.200578 0.654532 0.221714
O O6 0.201305 0.819713 0.268584
O O7 0.293529 0.721558 0.276643
O O8 0.207674 0.721286 0.498939
O O9 0.717939 0.560015 0.072694
O O10 0.656256 0.421954 0.068255
O O11 0.737726 0.455442 0.856530
O O12 0.645942 0.542615 0.850190
O O13 0.890333 0.502612 0.349451
O O14 0.924296 0.556383 0.597992
O O15 0.000000 0.547495 0.375459
O O16 0.686237 0.994267 0.152441
O O17 0.146852 0.650560 0.725071
#
# Coordination Sequence:
#
# PCOD9351767 Si02
#       8
#     8   8   8   8   8   8   8   8
#     4   9  19  38  60  81 109 148 192 232 278 333
#     4  11  20  34  54  80 114 147 187 224 276 336
#     4  10  21  33  50  76 111 136 173 224 281 326
#     4  10  21  36  56  80 110 148 188 233 272 315
#     4  11  19  31  50  77 108 144 173 219 271 330
#     4  10  20  36  54  78 105 142 179 225 279 331
#     4  11  20  34  53  80 112 145 189 223 270 334
#     4  10  21  34  53  82 111 148 185 230 279 329
#
# _framework density 19.781948
#
# number of rings (size 3 to 8) (size 9 to 14) (size 15 to 20)
#    0.000    1.750    0.000    7.875    0.000    1.500 
#    0.000    1.875    0.000    0.000    0.000   18.375 
#    0.000    0.000    0.000    0.000    0.000    0.000 
#
# Total GULP energy -178332.581544 kJ/mol
# GULP energy per Si atom -5572.893173 kJ/mol
# Density = 1.973692 g / cm^3
# Si number density = 19.781948 Si / 1000 Ang^3
#
#
#
# Elastic Constant Matrix: (Units=GPa)
#
#
# Indices 1 2 3 4 5 6 
#
# 1 105.8736 15.3383 31.5881 0.0000 0.0000 0.0000
# 2 15.3383 72.7778 30.1140 0.0000 0.0000 0.0000
# 3 31.5881 30.1140 65.3047 0.0000 0.0000 0.0000
# 4 0.0000 0.0000 0.0000 24.0705 0.0000 0.0000
# 5 0.0000 0.0000 0.0000 0.0000 27.6161 0.0000
# 6 0.0000 0.0000 0.0000 0.0000 0.0000 21.1855
#
#
#
# Elastic Compliance Matrix: (Units=1/GPa)
#
#
# Indices 1 2 3 4 5 6 
#
# 1 0.011039 -0.000145 -0.005273 0.000000 0.000000 0.000000
# 2 -0.000145 0.016982 -0.007761 0.000000 0.000000 0.000000
# 3 -0.005273 -0.007761 0.021442 0.000000 0.000000 0.000000
# 4 0.000000 0.000000 0.000000 0.041545 0.000000 0.000000
# 5 0.000000 0.000000 0.000000 0.000000 0.036211 0.000000
# 6 0.000000 0.000000 0.000000 0.000000 0.000000 0.047202
#
#
# Mechanical properties :
#
#
# Convention : Reuss Voigt Hill
#
# Bulk Modulus (GPa) = 43.27818 44.22633 43.75226
# Shear Modulus (GPa) = 23.98296 25.70214 24.84255
#
# Velocity S-wave (km/s) = 3.48568 3.60845 3.54760
# Velocity P-wave (km/s) = 6.17455 6.30608 6.24066
#
# Compressibility (1/GPa) = 0.02310633
#
# Stress axis : x y z
#
# Youngs Moduli (GPa) = 90.58421 58.88473 46.63680
#
# Poissons Ratio (x) = 0.00852 0.24592
# Poissons Ratio (y) = 0.01311 0.36195
# Poissons Ratio (z) = 0.47766 0.45701
#
# Static dielectric constant tensor:
#      x y z
#    x 1.708160 0.000000 0.000000 
#    y 0.000000 1.752860 0.000000 
#    z 0.000000 0.000000 1.710300 
# 
# From -- ./inp_files/5665.got.cif
#   From: 2010.05.17/outbox.cif.g08.bks.cpg/sg36_3_cif.got.tgz:5665.got - 2010.06.03 17:41:39.
