data_PCOD9351329
_publ_section_title
;
Structure prediction by ZEFSAII (Michael W. Deem and Ramdas Pophale) SiO2 
 PCOD9351329
Probable space group: C M C 21
;
_chemical_formula_sum "Si O2"
_cell_formula_units_Z 56
_cell_length_a 16.036107
_cell_length_b 31.504284
_cell_length_c 5.234145
_cell_angle_alpha 90.000000
_cell_angle_beta 90.000000
_cell_angle_gamma 90.000000
_cell_volume 2644.321821
_symmetry_space_group_name_H-M "C M C 21"
_symmetry_group_IT_number 36
_symmetry_cell_setting 'orthorhombic'
loop_
_space_group_symop_operation_xyz
x,y,z
-x,-y,1/2+z
x,-y,1/2+z
-x,y,z
1/2+x,1/2+y,z
1/2-x,1/2-y,1/2+z
1/2+x,1/2-y,1/2+z
1/2-x,1/2+y,z
loop_
_atom_site_type_symbol
_atom_site_label
_atom_site_fract_x
_atom_site_fract_y
_atom_site_fract_z
Si Si1 0.314753 0.181957 0.007230
Si Si2 0.000000 0.305340 0.428584
Si Si3 0.588842 0.971671 0.419420
Si Si4 0.902654 0.163911 0.468168
Si Si5 0.670441 0.733089 0.745812
Si Si6 0.000000 0.246836 0.936021
Si Si7 0.727032 0.470785 0.492515
Si Si8 0.333623 0.620548 0.979548
O O1 0.322738 0.216183 0.236209
O O2 0.257477 0.141007 0.041580
O O3 0.409678 0.171664 0.927176
O O4 0.256447 0.211273 0.824568
O O5 0.000000 0.276169 0.682059
O O6 0.000000 0.275316 0.184472
O O7 0.500000 0.948372 0.454718
O O8 0.678646 0.951902 0.467532
O O9 0.588577 0.009008 0.634046
O O10 0.857538 0.209671 0.485165
O O11 0.888649 0.138675 0.208870
O O12 0.000000 0.170731 0.508238
O O13 0.863510 0.137402 0.704358
O O14 0.588900 0.722998 0.920522
O O15 0.717742 0.503038 0.254842
O O16 0.668448 0.430130 0.480387
#
# Coordination Sequence:
#
# PCOD9351329 Si02
#       8
#     8   4   8   8   8   4   8   8
#     4  10  21  37  58  90 126 165 206 255 304 366
#     4  10  22  36  54  80 124 169 200 243 300 362
#     4   8  14  26  48  78 107 138 182 236 285 344
#     4  11  23  41  64  93 125 164 208 261 309 368
#     4  10  19  36  59  90 120 167 212 254 304 357
#     4  10  20  34  56  84 114 159 218 253 292 354
#     4  10  20  38  63  89 117 158 204 251 315 388
#     4  11  24  40  64  93 126 160 205 260 322 371
#
# _framework density 21.177451999999999
#
# number of rings (size 3 to 8) (size 9 to 14) (size 15 to 20)
#    0.000    2.000    0.714    3.000    0.000    6.857 
#    1.286    0.000    0.000    8.571    0.000    0.000 
#    0.000    0.000    0.000    0.000    0.000    0.000 
#
# Total GULP energy -156078.462631 kJ/mol
# GULP energy per Si atom -5574.230808 kJ/mol
# Density = 2.112925 g / cm^3
# Si number density = 21.177452 Si / 1000 Ang^3
#
#
#
# Elastic Constant Matrix: (Units=GPa)
#
#
# Indices 1 2 3 4 5 6 
#
# 1 123.6525 18.1691 13.1635 0.0000 0.0000 0.0000
# 2 18.1691 79.1759 16.4160 0.0000 0.0000 0.0000
# 3 13.1635 16.4160 97.5277 0.0000 0.0000 0.0000
# 4 0.0000 0.0000 0.0000 15.7514 0.0000 0.0000
# 5 0.0000 0.0000 0.0000 0.0000 25.7441 0.0000
# 6 0.0000 0.0000 0.0000 0.0000 0.0000 18.4709
#
#
#
# Elastic Compliance Matrix: (Units=1/GPa)
#
#
# Indices 1 2 3 4 5 6 
#
# 1 0.008436 -0.001761 -0.000842 0.000000 0.000000 0.000000
# 2 -0.001761 0.013455 -0.002027 0.000000 0.000000 0.000000
# 3 -0.000842 -0.002027 0.010708 0.000000 0.000000 0.000000
# 4 0.000000 0.000000 0.000000 0.063486 0.000000 0.000000
# 5 0.000000 0.000000 0.000000 0.000000 0.038844 0.000000
# 6 0.000000 0.000000 0.000000 0.000000 0.000000 0.054139
#
#
# Mechanical properties :
#
#
# Convention : Reuss Voigt Hill
#
# Bulk Modulus (GPa) = 42.84873 43.98370 43.41622
# Shear Modulus (GPa) = 24.25914 28.83377 26.54645
#
# Velocity S-wave (km/s) = 3.38822 3.69390 3.54436
# Velocity P-wave (km/s) = 5.96522 6.24559 6.10701
#
# Compressibility (1/GPa) = 0.02333791
#
# Stress axis : x y z
#
# Youngs Moduli (GPa) = 118.54507 74.32441 93.38509
#
# Poissons Ratio (x) = 0.13090 0.07864
# Poissons Ratio (y) = 0.20878 0.18929
# Poissons Ratio (z) = 0.09983 0.15065
#
# Static dielectric constant tensor:
#      x y z
#    x 1.848070 0.000000 0.000000 
#    y 0.000000 1.731370 0.000000 
#    z 0.000000 0.000000 1.818850 
# 
# From -- ./inp_files/958.got.cif
#   From: 2010.05.17/outbox.cif.g08.bks.cpg/sg36_1_cif.got.tgz:958.got - 2010.06.03 17:41:39.
