data_PCOD9351199
_publ_section_title
;
Structure prediction by ZEFSAII (Michael W. Deem and Ramdas Pophale) SiO2 
 PCOD9351199
Probable space group: C M C 21
;
_chemical_formula_sum "Si O2"
_cell_formula_units_Z 64
_cell_length_a 8.195089
_cell_length_b 23.795484
_cell_length_c 16.570840
_cell_angle_alpha 90.000000
_cell_angle_beta 90.000000
_cell_angle_gamma 90.000000
_cell_volume 3231.415034
_symmetry_space_group_name_H-M "C M C 21"
_symmetry_group_IT_number 36
_symmetry_cell_setting 'orthorhombic'
loop_
_space_group_symop_operation_xyz
x,y,z
-x,-y,1/2+z
x,-y,1/2+z
-x,y,z
1/2+x,1/2+y,z
1/2-x,1/2-y,1/2+z
1/2+x,1/2-y,1/2+z
1/2-x,1/2+y,z
loop_
_atom_site_type_symbol
_atom_site_label
_atom_site_fract_x
_atom_site_fract_y
_atom_site_fract_z
Si Si1 0.306589 0.562604 0.591930
Si Si2 0.812304 0.050898 0.012397
Si Si3 0.196732 0.843829 0.975611
Si Si4 0.806714 0.595038 0.312445
Si Si5 0.805733 0.529446 0.765263
Si Si6 0.184678 0.622593 0.878375
Si Si7 0.302191 0.783833 0.496724
Si Si8 0.309617 0.642135 0.146240
O O1 0.500000 0.432742 0.110076
O O2 0.289580 0.514555 0.524438
O O3 0.244216 0.619575 0.551879
O O4 0.220764 0.539639 0.671139
O O5 0.792983 0.083746 0.096625
O O6 0.000000 0.061668 0.985736
O O7 0.687025 0.077490 0.950861
O O8 0.239593 0.874523 0.891969
O O9 0.253907 0.779704 0.983253
O O10 0.000000 0.843073 0.980455
O O11 0.741207 0.531223 0.295717
O O12 0.772777 0.632319 0.232437
O O13 0.000000 0.590198 0.322314
O O14 0.735216 0.585496 0.808320
O O15 0.000000 0.529271 0.781908
O O16 0.259641 0.676668 0.922968
O O17 0.000000 0.637868 0.853913
O O18 0.500000 0.785593 0.493908
O O19 0.253102 0.811211 0.582578
O O20 0.500000 0.652670 0.160500
#
# Coordination Sequence:
#
# PCOD9351199 Si02
#       8
#     8   8   8   8   8   8   8   8
#     4  10  20  35  54  78 111 147 181 224 280 336
#     4   9  17  30  51  79 106 134 174 220 270 328
#     4  10  22  39  58  81 114 154 192 233 282 334
#     4  11  22  36  57  85 115 146 187 235 286 341
#     4  10  21  35  53  82 114 143 182 229 281 339
#     4   9  18  33  54  78 105 140 179 222 270 323
#     4   9  19  38  59  79 111 149 189 231 277 331
#     4  10  19  34  58  84 110 143 186 230 278 334
#
# _framework density 19.805565000000001
#
# number of rings (size 3 to 8) (size 9 to 14) (size 15 to 20)
#    0.000    2.250    1.250    1.500    0.000    3.000 
#    2.250    0.000    0.000    0.000    0.000    0.000 
#    0.000    0.000    0.000    0.000    0.000    0.000 
#
# Total GULP energy -178344.384254 kJ/mol
# GULP energy per Si atom -5573.262008 kJ/mol
# Density = 1.976049 g / cm^3
# Si number density = 19.805565 Si / 1000 Ang^3
#
#
#
# Elastic Constant Matrix: (Units=GPa)
#
#
# Indices 1 2 3 4 5 6 
#
# 1 10.6434 17.2269 -1.6488 0.0000 0.0000 0.0000
# 2 17.2269 153.6205 52.5274 0.0000 0.0000 0.0000
# 3 -1.6488 52.5274 53.6181 0.0000 0.0000 0.0000
# 4 0.0000 0.0000 0.0000 25.2655 0.0000 0.0000
# 5 0.0000 0.0000 0.0000 0.0000 21.3601 0.0000
# 6 0.0000 0.0000 0.0000 0.0000 0.0000 12.3908
#
#
#
# Elastic Compliance Matrix: (Units=1/GPa)
#
#
# Indices 1 2 3 4 5 6 
#
# 1 0.140498 -0.025913 0.029706 0.000000 0.000000 0.000000
# 2 -0.025913 0.014568 -0.015068 0.000000 0.000000 0.000000
# 3 0.029706 -0.015068 0.034326 0.000000 0.000000 0.000000
# 4 0.000000 0.000000 0.000000 0.039580 0.000000 0.000000
# 5 0.000000 0.000000 0.000000 0.000000 0.046816 0.000000
# 6 0.000000 0.000000 0.000000 0.000000 0.000000 0.080705
#
#
# Mechanical properties :
#
#
# Convention : Reuss Voigt Hill
#
# Bulk Modulus (GPa) = 5.99373 39.34367 22.66870
# Shear Modulus (GPa) = 11.50338 21.78840 16.64589
#
# Velocity S-wave (km/s) = 2.41263 3.32040 2.90222
# Velocity P-wave (km/s) = 3.28540 5.88287 4.76456
#
# Compressibility (1/GPa) = 0.16684110
#
# Stress axis : x y z
#
# Youngs Moduli (GPa) = 7.11756 68.64534 29.13284
#
# Poissons Ratio (x) = 1.77879 -0.86542
# Poissons Ratio (y) = 0.18444 0.43898
# Poissons Ratio (z) = -0.21143 1.03436
#
# Static dielectric constant tensor:
#      x y z
#    x 1.716910 0.000000 0.000000 
#    y 0.000000 1.723600 0.000000 
#    z 0.000000 0.000000 1.714290 
# 
# From -- ./inp_files/10873.got.cif
#   From: 2010.05.17/outbox.cif.g08.bks.cpg/sg36_6_cif.got.tgz:10873.got - 2010.06.03 17:41:39.
