data_PCOD9351316
_publ_section_title
;
Structure prediction by ZEFSAII (Michael W. Deem and Ramdas Pophale) SiO2 
 PCOD9351316
Probable space group: C M C 21
;
_chemical_formula_sum "Si O2"
_cell_formula_units_Z 64
_cell_length_a 7.712571
_cell_length_b 29.858795
_cell_length_c 12.749157
_cell_angle_alpha 90.000000
_cell_angle_beta 90.000000
_cell_angle_gamma 90.000000
_cell_volume 2935.978841
_symmetry_space_group_name_H-M "C M C 21"
_symmetry_group_IT_number 36
_symmetry_cell_setting 'orthorhombic'
loop_
_space_group_symop_operation_xyz
x,y,z
-x,-y,1/2+z
x,-y,1/2+z
-x,y,z
1/2+x,1/2+y,z
1/2-x,1/2-y,1/2+z
1/2+x,1/2-y,1/2+z
1/2-x,1/2+y,z
loop_
_atom_site_type_symbol
_atom_site_label
_atom_site_fract_x
_atom_site_fract_y
_atom_site_fract_z
Si Si1 0.712595 0.571932 0.895060
Si Si2 0.287343 0.725949 0.184506
Si Si3 0.304730 0.177502 0.625563
Si Si4 0.209327 0.025653 0.454380
Si Si5 0.292806 0.637194 0.069580
Si Si6 0.299488 0.577667 0.659526
Si Si7 0.702339 0.094411 0.285682
Si Si8 0.302659 0.318464 0.898414
O O1 0.500000 0.574076 0.891767
O O2 0.760113 0.526216 0.954425
O O3 0.775633 0.569197 0.775173
O O4 0.772717 0.614665 0.962696
O O5 0.500000 0.726538 0.178632
O O6 0.226303 0.776273 0.166980
O O7 0.227817 0.686325 0.105751
O O8 0.240037 0.710414 0.300779
O O9 0.500000 0.172116 0.667271
O O10 0.207965 0.131116 0.644074
O O11 0.309224 0.184537 0.501088
O O12 0.275352 0.052972 0.556471
O O13 0.267013 0.047893 0.344615
O O14 0.000000 0.028050 0.454669
O O15 0.500000 0.641610 0.059950
O O16 0.259735 0.602932 0.166385
O O17 0.500000 0.563067 0.664184
O O18 0.500000 0.105204 0.290771
O O19 0.801386 0.130944 0.355763
O O20 0.500000 0.305786 0.924706
#
# Coordination Sequence:
#
# PCOD9351316 Si02
#       8
#     8   8   8   8   8   8   8   8
#     4   9  20  36  60  89 113 149 196 240 282 340
#     4   8  18  34  54  80 111 149 188 229 282 342
#     4  11  21  35  56  84 118 152 188 234 293 347
#     4  10  20  35  58  84 112 146 189 239 287 336
#     4   9  18  37  61  83 113 150 190 236 287 335
#     4  10  21  37  57  86 119 149 194 239 283 343
#     4  11  21  34  55  83 111 143 187 237 287 341
#     4  10  19  36  57  79 107 146 194 240 285 332
#
# _framework density 21.798521999999998
#
# number of rings (size 3 to 8) (size 9 to 14) (size 15 to 20)
#    0.000    2.250    1.250    2.625    1.750    1.000 
#    0.000    9.375    0.000    0.000    0.000    0.000 
#    0.000    0.000    0.000    0.000    0.000    0.000 
#
# Total GULP energy -178565.178035 kJ/mol
# GULP energy per Si atom -5580.161814 kJ/mol
# Density = 2.174891 g / cm^3
# Si number density = 21.798522 Si / 1000 Ang^3
#
#
#
# Elastic Constant Matrix: (Units=GPa)
#
#
# Indices 1 2 3 4 5 6 
#
# 1 40.6104 -5.1919 -4.6982 0.0000 0.0000 0.0000
# 2 -5.1919 90.5434 36.7567 0.0000 0.0000 0.0000
# 3 -4.6982 36.7567 59.7663 0.0000 0.0000 0.0000
# 4 0.0000 0.0000 0.0000 19.7323 0.0000 0.0000
# 5 0.0000 0.0000 0.0000 0.0000 1.8825 0.0000
# 6 0.0000 0.0000 0.0000 0.0000 0.0000 9.9354
#
#
#
# Elastic Compliance Matrix: (Units=1/GPa)
#
#
# Indices 1 2 3 4 5 6 
#
# 1 0.024899 0.000844 0.001438 0.000000 0.000000 0.000000
# 2 0.000844 0.014748 -0.009004 0.000000 0.000000 0.000000
# 3 0.001438 -0.009004 0.022382 0.000000 0.000000 0.000000
# 4 0.000000 0.000000 0.000000 0.050678 0.000000 0.000000
# 5 0.000000 0.000000 0.000000 0.000000 0.531203 0.000000
# 6 0.000000 0.000000 0.000000 0.000000 0.000000 0.100650
#
#
# Mechanical properties :
#
#
# Convention : Reuss Voigt Hill
#
# Bulk Modulus (GPa) = 20.58227 27.18370 23.88299
# Shear Modulus (GPa) = 6.45829 17.24695 11.85262
#
# Velocity S-wave (km/s) = 1.72312 2.81588 2.33434
# Velocity P-wave (km/s) = 3.66352 4.80309 4.27148
#
# Compressibility (1/GPa) = 0.04858549
#
# Stress axis : x y z
#
# Youngs Moduli (GPa) = 40.16305 67.80598 44.67819
#
# Poissons Ratio (x) = -0.05722 -0.06426
# Poissons Ratio (y) = -0.03389 0.40227
# Poissons Ratio (z) = -0.05777 0.61051
#
# Static dielectric constant tensor:
#      x y z
#    x 1.770810 0.000000 0.000000 
#    y 0.000000 1.801000 0.000000 
#    z 0.000000 0.000000 1.794380 
# 
# From -- ./inp_files/7136.got.cif
#   From: 2010.05.17/outbox.cif.g08.bks.cpg/sg36_4_cif.got.tgz:7136.got - 2010.06.03 17:41:39.
