data_PCOD9351356
_publ_section_title
;
Structure prediction by ZEFSAII (Michael W. Deem and Ramdas Pophale) SiO2 
 PCOD9351356
Probable space group: C M C 21
;
_chemical_formula_sum "Si O2"
_cell_formula_units_Z 56
_cell_length_a 10.383029
_cell_length_b 14.040933
_cell_length_c 18.175031
_cell_angle_alpha 90.000000
_cell_angle_beta 90.000000
_cell_angle_gamma 90.000000
_cell_volume 2649.690778
_symmetry_space_group_name_H-M "C M C 21"
_symmetry_group_IT_number 36
_symmetry_cell_setting 'orthorhombic'
loop_
_space_group_symop_operation_xyz
x,y,z
-x,-y,1/2+z
x,-y,1/2+z
-x,y,z
1/2+x,1/2+y,z
1/2-x,1/2-y,1/2+z
1/2+x,1/2-y,1/2+z
1/2-x,1/2+y,z
loop_
_atom_site_type_symbol
_atom_site_label
_atom_site_fract_x
_atom_site_fract_y
_atom_site_fract_z
Si Si1 0.640246 0.362178 0.928350
Si Si2 0.847688 0.690356 0.318142
Si Si3 0.226541 0.526081 0.545422
Si Si4 0.363210 0.222964 0.602850
Si Si5 0.646436 0.159342 0.772582
Si Si6 0.650055 0.966045 0.699974
Si Si7 0.640927 0.174458 0.022110
O O1 0.500000 0.378527 0.892759
O O2 0.765477 0.370132 0.877337
O O3 0.656076 0.433124 0.997720
O O4 0.642447 0.253510 0.958495
O O5 0.763996 0.786764 0.311024
O O6 0.837677 0.633699 0.241039
O O7 0.000000 0.701653 0.335385
O O8 0.145994 0.622922 0.558817
O O9 0.238811 0.487487 0.629445
O O10 0.166987 0.435462 0.503223
O O11 0.500000 0.269353 0.586095
O O12 0.356822 0.198342 0.688637
O O13 0.248134 0.288317 0.577343
O O14 0.500000 0.173807 0.802617
O O15 0.670225 0.047591 0.761247
O O16 0.500000 0.977640 0.675562
O O17 0.500000 0.179725 0.057018
#
# Coordination Sequence:
#
# PCOD9351356 Si02
#       7
#     8   8   8   8   8   8   8
#     4  10  24  42  56  81 121 158 194 243 300 356
#     4  11  23  39  60  85 113 154 204 248 290 347
#     4  10  19  36  62  87 114 149 193 241 290 349
#     4   9  18  32  54  84 114 142 178 226 281 339
#     4   9  18  35  56  79 111 147 179 224 286 344
#     4   9  19  36  60  89 118 150 192 241 296 353
#     4  10  20  34  56  81 109 148 188 229 283 340
#
# _framework density 21.134540999999999
#
# number of rings (size 3 to 8) (size 9 to 14) (size 15 to 20)
#    0.000    2.286    0.000    3.429    0.000    6.857 
#    0.000    9.286    0.000    0.000    0.000    0.000 
#    0.000    0.000    0.000    0.000    0.000    0.000 
#
# Total GULP energy -155998.383161 kJ/mol
# GULP energy per Si atom -5571.370827 kJ/mol
# Density = 2.108644 g / cm^3
# Si number density = 21.134541 Si / 1000 Ang^3
#
#
#
# Elastic Constant Matrix: (Units=GPa)
#
#
# Indices 1 2 3 4 5 6 
#
# 1 146.4208 45.1435 31.6812 0.0000 0.0000 0.0000
# 2 45.1435 98.1062 12.8756 0.0000 0.0000 0.0000
# 3 31.6812 12.8756 43.6754 0.0000 0.0000 0.0000
# 4 0.0000 0.0000 0.0000 28.7284 0.0000 0.0000
# 5 0.0000 0.0000 0.0000 0.0000 20.6115 0.0000
# 6 0.0000 0.0000 0.0000 0.0000 0.0000 5.4369
#
#
#
# Elastic Compliance Matrix: (Units=1/GPa)
#
#
# Indices 1 2 3 4 5 6 
#
# 1 0.009104 -0.003456 -0.005585 0.000000 0.000000 0.000000
# 2 -0.003456 0.011915 -0.001006 0.000000 0.000000 0.000000
# 3 -0.005585 -0.001006 0.027244 0.000000 0.000000 0.000000
# 4 0.000000 0.000000 0.000000 0.034809 0.000000 0.000000
# 5 0.000000 0.000000 0.000000 0.000000 0.048517 0.000000
# 6 0.000000 0.000000 0.000000 0.000000 0.000000 0.183928
#
#
# Mechanical properties :
#
#
# Convention : Reuss Voigt Hill
#
# Bulk Modulus (GPa) = 35.49913 51.95588 43.72750
# Shear Modulus (GPa) = 14.49283 24.18884 19.34084
#
# Velocity S-wave (km/s) = 2.62151 3.38674 3.02839
# Velocity P-wave (km/s) = 5.09865 6.31903 5.74136
#
# Compressibility (1/GPa) = 0.02816970
#
# Stress axis : x y z
#
# Youngs Moduli (GPa) = 109.84733 83.92557 36.70572
#
# Poissons Ratio (x) = 0.29005 0.20499
# Poissons Ratio (y) = 0.37964 0.03692
# Poissons Ratio (z) = 0.61346 0.08440
#
# Static dielectric constant tensor:
#      x y z
#    x 1.753410 0.000000 0.000000 
#    y 0.000000 1.773190 0.000000 
#    z 0.000000 0.000000 1.815330 
# 
# From -- ./inp_files/15485.got.cif
#   From: 2010.05.17/outbox.cif.g08.bks.cpg/sg36_8_cif.got.tgz:15485.got - 2010.06.03 17:41:39.
