data_PCOD9351645
_publ_section_title
;
Structure prediction by ZEFSAII (Michael W. Deem and Ramdas Pophale) SiO2 
 PCOD9351645
Probable space group: C M C 21
;
_chemical_formula_sum "Si O2"
_cell_formula_units_Z 48
_cell_length_a 31.543648
_cell_length_b 9.307769
_cell_length_c 7.906651
_cell_angle_alpha 90.000000
_cell_angle_beta 90.000000
_cell_angle_gamma 90.000000
_cell_volume 2321.400553
_symmetry_space_group_name_H-M "C M C 21"
_symmetry_group_IT_number 36
_symmetry_cell_setting 'orthorhombic'
loop_
_space_group_symop_operation_xyz
x,y,z
-x,-y,1/2+z
x,-y,1/2+z
-x,y,z
1/2+x,1/2+y,z
1/2-x,1/2-y,1/2+z
1/2+x,1/2-y,1/2+z
1/2-x,1/2+y,z
loop_
_atom_site_type_symbol
_atom_site_label
_atom_site_fract_x
_atom_site_fract_y
_atom_site_fract_z
Si Si1 0.786911 0.721400 0.848420
Si Si2 0.120613 0.722422 0.769118
Si Si3 0.451885 0.578436 0.155476
Si Si4 0.452112 0.278149 0.283674
Si Si5 0.287899 0.912112 0.721959
Si Si6 0.621279 0.082353 0.396421
O O1 0.833141 0.786497 0.808202
O O2 0.749539 0.833272 0.822116
O O3 0.780898 0.583482 0.725840
O O4 0.787727 0.652866 0.034721
O O5 0.083120 0.836423 0.761639
O O6 0.122128 0.647414 0.583985
O O7 0.114281 0.588787 0.895374
O O8 0.500000 0.595827 0.222800
O O9 0.442812 0.408780 0.156888
O O10 0.451442 0.644168 0.967774
O O11 0.500000 0.223468 0.254238
O O12 0.416735 0.157178 0.294314
O O13 0.333514 0.888734 0.808846
#
# Coordination Sequence:
#
# PCOD9351645 Si02
#       6
#     8   8   8   8   8   8
#     4  11  22  38  58  81 109 141 179 221 268 319
#     4  10  20  35  54  78 108 140 177 219 264 314
#     4   9  19  35  54  77 106 139 176 218 262 311
#     4   9  19  35  54  77 106 139 176 218 262 311
#     4  11  22  38  58  81 109 141 179 221 268 319
#     4  10  20  35  54  78 108 140 177 219 264 314
#
# _framework density 20.677173
#
# number of rings (size 3 to 8) (size 9 to 14) (size 15 to 20)
#    0.000    2.000    0.000    6.000    0.000    4.667 
#    0.000    3.333    0.000    0.000    0.000    0.000 
#    0.000    0.000    0.000    0.000    0.000    0.000 
#
# Total GULP energy -134140.818779 kJ/mol
# GULP energy per Si atom -5589.200782 kJ/mol
# Density = 2.063011 g / cm^3
# Si number density = 20.677173 Si / 1000 Ang^3
#
#
#
# Elastic Constant Matrix: (Units=GPa)
#
#
# Indices 1 2 3 4 5 6 
#
# 1 88.8751 43.8551 9.3370 0.0000 0.0000 0.0000
# 2 43.8551 32.8792 -7.3474 0.0000 0.0000 0.0000
# 3 9.3370 -7.3474 61.9675 0.0000 0.0000 0.0000
# 4 0.0000 0.0000 0.0000 30.2394 0.0000 0.0000
# 5 0.0000 0.0000 0.0000 0.0000 22.8551 0.0000
# 6 0.0000 0.0000 0.0000 0.0000 0.0000 41.1816
#
#
#
# Elastic Compliance Matrix: (Units=1/GPa)
#
#
# Indices 1 2 3 4 5 6 
#
# 1 0.041136 -0.057785 -0.013050 0.000000 0.000000 0.000000
# 2 -0.057785 0.112413 0.022035 0.000000 0.000000 0.000000
# 3 -0.013050 0.022035 0.020716 0.000000 0.000000 0.000000
# 4 0.000000 0.000000 0.000000 0.033069 0.000000 0.000000
# 5 0.000000 0.000000 0.000000 0.000000 0.043754 0.000000
# 6 0.000000 0.000000 0.000000 0.000000 0.000000 0.024283
#
#
# Mechanical properties :
#
#
# Convention : Reuss Voigt Hill
#
# Bulk Modulus (GPa) = 13.04328 30.60123 21.82225
# Shear Modulus (GPa) = 12.54622 28.04704 20.29663
#
# Velocity S-wave (km/s) = 2.46594 3.68696 3.13644
# Velocity P-wave (km/s) = 3.79862 5.74078 4.86755
#
# Compressibility (1/GPa) = 0.07666785
#
# Stress axis : x y z
#
# Youngs Moduli (GPa) = 24.30935 8.89574 48.27080
#
# Poissons Ratio (x) = 0.51404 0.62992
# Poissons Ratio (y) = 1.40471 -1.06367
# Poissons Ratio (z) = 0.31723 -0.19602
#
# Static dielectric constant tensor:
#      x y z
#    x 1.719680 0.000000 0.000000 
#    y 0.000000 1.701280 0.000000 
#    z 0.000000 0.000000 1.794630 
# 
# From -- ./inp_files/5963.got.cif
#   From: 2010.05.17/outbox.cif.g08.bks.cpg/sg36_3_cif.got.tgz:5963.got - 2010.06.03 17:41:39.
