data_PCOD9351176
_publ_section_title
;
Structure prediction by ZEFSAII (Michael W. Deem and Ramdas Pophale) SiO2 
 PCOD9351176
Probable space group: C M C 21
;
_chemical_formula_sum "Si O2"
_cell_formula_units_Z 64
_cell_length_a 15.092241
_cell_length_b 18.762751
_cell_length_c 10.525676
_cell_angle_alpha 90.000000
_cell_angle_beta 90.000000
_cell_angle_gamma 90.000000
_cell_volume 2980.576302
_symmetry_space_group_name_H-M "C M C 21"
_symmetry_group_IT_number 36
_symmetry_cell_setting 'orthorhombic'
loop_
_space_group_symop_operation_xyz
x,y,z
-x,-y,1/2+z
x,-y,1/2+z
-x,y,z
1/2+x,1/2+y,z
1/2-x,1/2-y,1/2+z
1/2+x,1/2-y,1/2+z
1/2-x,1/2+y,z
loop_
_atom_site_type_symbol
_atom_site_label
_atom_site_fract_x
_atom_site_fract_y
_atom_site_fract_z
Si Si1 0.316519 0.716288 0.816650
Si Si2 0.898508 0.351260 0.738077
Si Si3 0.316519 0.716287 0.110920
Si Si4 0.391340 0.946505 0.963785
Si Si5 0.392902 0.440176 0.611158
Si Si6 0.392833 0.887576 0.463785
Si Si7 0.892902 0.940176 0.316410
Si Si8 0.398508 0.851259 0.189493
O O1 0.396011 0.773035 0.797184
O O2 0.250000 0.750000 0.713785
O O3 0.347857 0.636141 0.790110
O O4 0.288920 0.721883 0.963785
O O5 0.857312 0.405852 0.838935
O O6 0.859740 0.355433 0.596312
O O7 0.000000 0.374921 0.723970
O O8 0.347858 0.636140 0.137458
O O9 0.396010 0.773035 0.130386
O O10 0.500000 0.941741 0.963786
O O11 0.370100 0.029241 0.963785
O O12 0.357312 0.905853 0.088636
O O13 0.500000 0.431727 0.619387
O O14 0.372542 0.459843 0.463784
O O15 0.366694 0.500000 0.713784
O O16 0.500000 0.878974 0.463785
O O17 0.359740 0.855432 0.331259
O O18 0.000000 0.931726 0.308181
O O19 0.500000 0.874920 0.203601
#
# Coordination Sequence:
#
# PCOD9351176 Si02
#       8
#     8   8   8   8   8   8   8   8
#     4  11  24  40  60  84 120 158 194 242 302 366
#     4  10  19  34  57  83 111 148 196 242 289 344
#     4  11  24  40  60  84 120 158 194 242 302 366
#     4   9  16  30  53  78 109 147 187 230 272 324
#     4   9  19  39  67  95 120 152 201 258 310 360
#     4   9  18  30  49  82 117 145 181 232 278 322
#     4   9  19  39  67  95 120 152 201 258 310 360
#     4  10  19  34  57  83 111 148 196 242 289 344
#
# _framework density 21.472359000000001
#
# number of rings (size 3 to 8) (size 9 to 14) (size 15 to 20)
#    0.000    2.250    1.250    1.500    1.750    5.000 
#    0.000    2.500    0.000    0.000    0.000    0.000 
#    0.000    0.000    0.000    0.000    0.000    0.000 
#
# Total GULP energy -178577.106931 kJ/mol
# GULP energy per Si atom -5580.534592 kJ/mol
# Density = 2.142349 g / cm^3
# Si number density = 21.472359 Si / 1000 Ang^3
#
#
#
# Elastic Constant Matrix: (Units=GPa)
#
#
# Indices 1 2 3 4 5 6 
#
# 1 33.3740 18.1792 44.1923 0.0000 0.0000 0.0000
# 2 18.1792 159.9728 127.4437 0.0000 0.0000 0.0000
# 3 44.1923 127.4437 230.8153 0.0000 0.0000 0.0000
# 4 0.0000 0.0000 0.0000 42.5318 0.0000 0.0000
# 5 0.0000 0.0000 0.0000 0.0000 18.3883 0.0000
# 6 0.0000 0.0000 0.0000 0.0000 0.0000 20.9205
#
#
#
# Elastic Compliance Matrix: (Units=1/GPa)
#
#
# Indices 1 2 3 4 5 6 
#
# 1 0.040848 0.002836 -0.009387 0.000000 0.000000 0.000000
# 2 0.002836 0.011357 -0.006814 0.000000 0.000000 0.000000
# 3 -0.009387 -0.006814 0.009892 0.000000 0.000000 0.000000
# 4 0.000000 0.000000 0.000000 0.023512 0.000000 0.000000
# 5 0.000000 0.000000 0.000000 0.000000 0.054382 0.000000
# 6 0.000000 0.000000 0.000000 0.000000 0.000000 0.047800
#
#
# Mechanical properties :
#
#
# Convention : Reuss Voigt Hill
#
# Bulk Modulus (GPa) = 28.27400 89.31029 58.79214
# Shear Modulus (GPa) = 22.09365 31.99125 27.04245
#
# Velocity S-wave (km/s) = 3.21118 3.86408 3.55266
# Velocity P-wave (km/s) = 5.19087 7.84803 6.65345
#
# Compressibility (1/GPa) = 0.03536818
#
# Stress axis : x y z
#
# Youngs Moduli (GPa) = 24.48089 88.05167 101.09343
#
# Poissons Ratio (x) = -0.24972 0.94894
# Poissons Ratio (y) = -0.06943 0.68882
# Poissons Ratio (z) = 0.22980 0.59996
#
# Static dielectric constant tensor:
#      x y z
#    x 1.871240 0.000000 0.000000 
#    y 0.000000 1.729910 0.000000 
#    z 0.000000 0.000000 1.785350 
# 
# From -- ./inp_files/5339.got.cif
#   From: 2010.05.17/outbox.cif.g08.bks.cpg/sg36_3_cif.got.tgz:5339.got - 2010.06.03 17:41:39.
