data_PCOD9351857
_publ_section_title
;
Structure prediction by ZEFSAII (Michael W. Deem and Ramdas Pophale) SiO2 
 PCOD9351857
Probable space group: C M C 21
;
_chemical_formula_sum "Si O2"
_cell_formula_units_Z 64
_cell_length_a 8.751112
_cell_length_b 15.720471
_cell_length_c 24.271627
_cell_angle_alpha 90.000000
_cell_angle_beta 90.000000
_cell_angle_gamma 90.000000
_cell_volume 3339.086620
_symmetry_space_group_name_H-M "C M C 21"
_symmetry_group_IT_number 36
_symmetry_cell_setting 'orthorhombic'
loop_
_space_group_symop_operation_xyz
x,y,z
-x,-y,1/2+z
x,-y,1/2+z
-x,y,z
1/2+x,1/2+y,z
1/2-x,1/2-y,1/2+z
1/2+x,1/2-y,1/2+z
1/2-x,1/2+y,z
loop_
_atom_site_type_symbol
_atom_site_label
_atom_site_fract_x
_atom_site_fract_y
_atom_site_fract_z
Si Si1 0.180212 0.648197 0.205030
Si Si2 0.818729 0.410541 0.314033
Si Si3 0.683899 0.248085 0.509008
Si Si4 0.181409 0.091040 0.319318
Si Si5 0.183698 0.905440 0.077687
Si Si6 0.819116 0.147692 0.701281
Si Si7 0.684821 0.597416 0.087832
Si Si8 0.183721 0.752520 0.381544
O O1 0.271013 0.609582 0.256209
O O2 0.199639 0.750495 0.205101
O O3 0.241384 0.613352 0.147250
O O4 0.000000 0.630022 0.211425
O O5 0.743117 0.497958 0.334074
O O6 0.772450 0.396001 0.250321
O O7 0.754000 0.330428 0.347536
O O8 0.000000 0.415098 0.319237
O O9 0.500000 0.246182 0.510372
O O10 0.745071 0.162115 0.536314
O O11 0.733571 0.328219 0.546195
O O12 0.729863 0.257291 0.445523
O O13 0.258549 0.164646 0.355422
O O14 0.000000 0.094748 0.325160
O O15 0.228313 0.882475 0.140555
O O16 0.000000 0.897579 0.074879
O O17 0.225187 0.003289 0.066855
O O18 0.000000 0.128496 0.708319
O O19 0.500000 0.600593 0.093684
O O20 0.000000 0.756475 0.377275
#
# Coordination Sequence:
#
# PCOD9351857 Si02
#       8
#     8   8   8   8   8   8   8   8
#     4  11  21  36  62  94 127 161 201 252 308 366
#     4  12  25  41  65  96 126 163 205 251 313 376
#     4  10  23  41  62  88 120 159 204 256 306 357
#     4  12  25  42  65  92 123 163 208 258 314 369
#     4  10  21  38  61  89 122 161 203 247 299 363
#     4  10  20  36  60  91 129 166 200 249 306 361
#     4  10  21  38  61  90 124 162 204 247 302 369
#     4  11  24  44  64  88 125 165 211 262 308 363
#
# _framework density 19.166919
#
# number of rings (size 3 to 8) (size 9 to 14) (size 15 to 20)
#    0.000    1.250    2.500    3.750    0.000    4.500 
#    0.000    1.250    0.000    0.000    0.000    0.000 
#    0.000    0.000    0.000    0.000    0.000    0.000 
#
# Total GULP energy -178988.226853 kJ/mol
# GULP energy per Si atom -5593.382089 kJ/mol
# Density = 1.912329 g / cm^3
# Si number density = 19.166919 Si / 1000 Ang^3
#
#
#
# Elastic Constant Matrix: (Units=GPa)
#
#
# Indices 1 2 3 4 5 6 
#
# 1 45.1446 8.7822 8.4349 0.0000 0.0000 0.0000
# 2 8.7822 76.9746 4.1305 0.0000 0.0000 0.0000
# 3 8.4349 4.1305 76.0342 0.0000 0.0000 0.0000
# 4 0.0000 0.0000 0.0000 -3.1912 0.0000 0.0000
# 5 0.0000 0.0000 0.0000 0.0000 29.7174 0.0000
# 6 0.0000 0.0000 0.0000 0.0000 0.0000 6.3016
#
#
#
# Elastic Compliance Matrix: (Units=1/GPa)
#
#
# Indices 1 2 3 4 5 6 
#
# 1 0.023091 -0.002504 -0.002426 0.000000 0.000000 0.000000
# 2 -0.002504 0.013301 -0.000445 0.000000 0.000000 0.000000
# 3 -0.002426 -0.000445 0.013445 0.000000 0.000000 0.000000
# 4 0.000000 0.000000 0.000000 -0.313364 0.000000 0.000000
# 5 0.000000 0.000000 0.000000 0.000000 0.033650 0.000000
# 6 0.000000 0.000000 0.000000 0.000000 0.000000 0.158690
#
#
# Mechanical properties :
#
#
# Convention : Reuss Voigt Hill
#
# Bulk Modulus (GPa) = 25.58326 26.76097 26.17211
# Shear Modulus (GPa) = -105.46879 18.35262 -43.55808
#
# Velocity S-wave (km/s) = -7.42603 3.09773 -4.77232
# Velocity P-wave (km/s) = 7.75573 5.17561 4.08438
#
# Compressibility (1/GPa) = 0.03908806
#
# Stress axis : x y z
#
# Youngs Moduli (GPa) = 43.30608 75.18292 74.37588
#
# Poissons Ratio (x) = 0.18829 0.18041
# Poissons Ratio (y) = 0.10846 0.03308
# Poissons Ratio (z) = 0.10504 0.03344
#
# Static dielectric constant tensor:
#      x y z
#    x 1.646440 0.000000 0.000000 
#    y 0.000000 1.655800 0.000000 
#    z 0.000000 0.000000 1.638500 
# 
# From -- ./inp_files/16600.got.cif
#   From: 2010.05.17/outbox.cif.g08.bks.cpg/sg36_9_cif.got.tgz:16600.got - 2010.06.03 17:41:39.
