data_PCOD9351197
_publ_section_title
;
Structure prediction by ZEFSAII (Michael W. Deem and Ramdas Pophale) SiO2 
 PCOD9351197
Probable space group: C M C 21
;
_chemical_formula_sum "Si O2"
_cell_formula_units_Z 56
_cell_length_a 18.303338
_cell_length_b 27.002638
_cell_length_c 5.580454
_cell_angle_alpha 90.000000
_cell_angle_beta 90.000000
_cell_angle_gamma 90.000000
_cell_volume 2758.074713
_symmetry_space_group_name_H-M "C M C 21"
_symmetry_group_IT_number 36
_symmetry_cell_setting 'orthorhombic'
loop_
_space_group_symop_operation_xyz
x,y,z
-x,-y,1/2+z
x,-y,1/2+z
-x,y,z
1/2+x,1/2+y,z
1/2-x,1/2-y,1/2+z
1/2+x,1/2-y,1/2+z
1/2-x,1/2+y,z
loop_
_atom_site_type_symbol
_atom_site_label
_atom_site_fract_x
_atom_site_fract_y
_atom_site_fract_z
Si Si1 0.000000 0.321381 0.955991
Si Si2 0.696784 0.484913 0.210163
Si Si3 0.136056 0.521935 0.131325
Si Si4 0.000000 0.258411 0.451618
Si Si5 0.262964 0.200705 0.015775
Si Si6 0.849479 0.203172 0.375962
Si Si7 0.229900 0.878942 0.137058
Si Si8 0.857195 0.375010 0.805946
O O1 0.928508 0.355424 0.936232
O O2 0.000000 0.287380 0.709216
O O3 0.000000 0.293123 0.212003
O O4 0.662363 0.489166 0.943387
O O5 0.777459 0.508091 0.156470
O O6 0.701693 0.426724 0.273878
O O7 0.105912 0.497517 0.887486
O O8 0.125824 0.581268 0.119697
O O9 0.071533 0.224369 0.427011
O O10 0.178966 0.201180 0.102637
O O11 0.293680 0.255028 0.976427
O O12 0.315510 0.172855 0.202493
O O13 0.265666 0.164105 0.793566
O O14 0.831748 0.149927 0.487677
O O15 0.295829 0.898807 0.975074
#
# Coordination Sequence:
#
# PCOD9351197 Si02
#       8
#     4   8   8   4   8   8   8   8
#     4  12  28  42  62  85 120 181 222 260 306 383
#     4  10  19  35  56  90 122 157 193 257 324 368
#     4  10  19  34  58  83 119 161 199 264 317 364
#     4  12  28  48  62  87 136 175 210 258 326 383
#     4  11  21  37  60  92 122 162 212 267 313 372
#     4  11  24  38  62  92 126 168 208 269 317 383
#     4  11  22  36  65  91 124 161 211 268 318 380
#     4  11  23  38  60  87 123 168 223 258 319 372
#
# _framework density 20.304017000000002
#
# number of rings (size 3 to 8) (size 9 to 14) (size 15 to 20)
#    0.000    1.143    5.714    2.571    6.000    0.000 
#    0.000    0.714    0.000    0.000    0.000    1.000 
#    0.000    0.000    0.000    0.000    0.000    0.000 
#
# Total GULP energy -156119.201724 kJ/mol
# GULP energy per Si atom -5575.685776 kJ/mol
# Density = 2.025780 g / cm^3
# Si number density = 20.304017 Si / 1000 Ang^3
#
#
#
# Elastic Constant Matrix: (Units=GPa)
#
#
# Indices 1 2 3 4 5 6 
#
# 1 46.3259 25.6433 4.3495 0.0000 0.0000 0.0000
# 2 25.6433 102.0153 15.6246 0.0000 0.0000 0.0000
# 3 4.3495 15.6246 86.6174 0.0000 0.0000 0.0000
# 4 0.0000 0.0000 0.0000 12.0486 0.0000 0.0000
# 5 0.0000 0.0000 0.0000 0.0000 3.1148 0.0000
# 6 0.0000 0.0000 0.0000 0.0000 0.0000 7.4111
#
#
#
# Elastic Compliance Matrix: (Units=1/GPa)
#
#
# Indices 1 2 3 4 5 6 
#
# 1 0.025077 -0.006284 -0.000126 0.000000 0.000000 0.000000
# 2 -0.006284 0.011656 -0.001787 0.000000 0.000000 0.000000
# 3 -0.000126 -0.001787 0.011874 0.000000 0.000000 0.000000
# 4 0.000000 0.000000 0.000000 0.082997 0.000000 0.000000
# 5 0.000000 0.000000 0.000000 0.000000 0.321046 0.000000
# 6 0.000000 0.000000 0.000000 0.000000 0.000000 0.134933
#
#
# Mechanical properties :
#
#
# Convention : Reuss Voigt Hill
#
# Bulk Modulus (GPa) = 31.04394 36.24370 33.64382
# Shear Modulus (GPa) = 8.13388 17.13765 12.63576
#
# Velocity S-wave (km/s) = 2.00368 2.90841 2.49736
# Velocity P-wave (km/s) = 4.54706 5.40071 4.99217
#
# Compressibility (1/GPa) = 0.03221241
#
# Stress axis : x y z
#
# Youngs Moduli (GPa) = 39.87790 85.79432 84.21988
#
# Poissons Ratio (x) = 0.53915 0.01058
# Poissons Ratio (y) = 0.25060 0.15050
# Poissons Ratio (z) = 0.00501 0.15331
#
# Static dielectric constant tensor:
#      x y z
#    x 1.702940 0.000000 0.000000 
#    y 0.000000 1.715640 0.000000 
#    z 0.000000 0.000000 1.900420 
# 
# From -- ./inp_files/1193.got.cif
#   From: 2010.05.17/outbox.cif.g08.bks.cpg/sg36_1_cif.got.tgz:1193.got - 2010.06.03 17:41:39.
