data_PCOD9351455
_publ_section_title
;
Structure prediction by ZEFSAII (Michael W. Deem and Ramdas Pophale) SiO2 
 PCOD9351455
Probable space group: C M C 21
;
_chemical_formula_sum "Si O2"
_cell_formula_units_Z 48
_cell_length_a 21.661331
_cell_length_b 18.442055
_cell_length_c 5.051640
_cell_angle_alpha 90.000000
_cell_angle_beta 90.000000
_cell_angle_gamma 90.000000
_cell_volume 2018.026408
_symmetry_space_group_name_H-M "C M C 21"
_symmetry_group_IT_number 36
_symmetry_cell_setting 'orthorhombic'
loop_
_space_group_symop_operation_xyz
x,y,z
-x,-y,1/2+z
x,-y,1/2+z
-x,y,z
1/2+x,1/2+y,z
1/2-x,1/2-y,1/2+z
1/2+x,1/2-y,1/2+z
1/2-x,1/2+y,z
loop_
_atom_site_type_symbol
_atom_site_label
_atom_site_fract_x
_atom_site_fract_y
_atom_site_fract_z
Si Si1 0.073482 0.449529 0.078480
Si Si2 0.376553 0.334799 0.320534
Si Si3 0.073485 0.049528 0.456950
Si Si4 0.500000 0.195554 0.054436
Si Si5 0.874649 0.337611 0.715508
Si Si6 0.750583 0.197007 0.022807
Si Si7 0.500000 0.297878 0.559835
O O1 0.086412 0.492385 0.345079
O O2 0.000000 0.431570 0.066655
O O3 0.112973 0.380194 0.986542
O O4 0.388699 0.381374 0.059135
O O5 0.372713 0.249194 0.256237
O O6 0.311435 0.349165 0.457487
O O7 0.437871 0.341968 0.500748
O O8 0.000000 0.067084 0.469381
O O9 0.086409 0.988704 0.680710
O O10 0.563163 0.150930 0.043048
O O11 0.500000 0.234050 0.340406
O O12 0.500000 0.258565 0.839001
O O13 0.808739 0.352133 0.586965
O O14 0.763435 0.250112 0.273026
#
# Coordination Sequence:
#
# PCOD9351455 Si02
#       7
#     8   8   8   4   8   8   4
#     4  10  22  39  58  86 122 157 192 245 304 352
#     4  10  21  40  62  90 118 158 201 247 294 354
#     4  10  22  39  58  86 122 157 192 245 304 352
#     4  10  20  32  54  86 112 140 191 242 281 334
#     4  10  21  40  62  90 118 158 201 247 294 354
#     4  10  22  38  58  88 124 154 192 250 306 344
#     4  10  20  32  54  86 112 140 191 242 281 334
#
# _framework density 23.785616000000001
#
# number of rings (size 3 to 8) (size 9 to 14) (size 15 to 20)
#    0.000    2.000    1.667    1.000    0.000   10.667 
#    0.000    1.667    0.000    0.000    0.000    0.000 
#    0.000    0.000    0.000    0.000    0.000    0.000 
#
# Total GULP energy -134374.009420 kJ/mol
# GULP energy per Si atom -5598.917059 kJ/mol
# Density = 2.373148 g / cm^3
# Si number density = 23.785616 Si / 1000 Ang^3
#
#
#
# Elastic Constant Matrix: (Units=GPa)
#
#
# Indices 1 2 3 4 5 6 
#
# 1 157.7699 -1.5019 -0.4214 0.0000 0.0000 0.0000
# 2 -1.5019 102.9687 21.7923 0.0000 0.0000 0.0000
# 3 -0.4214 21.7923 81.2229 0.0000 0.0000 0.0000
# 4 0.0000 0.0000 0.0000 37.6595 0.0000 0.0000
# 5 0.0000 0.0000 0.0000 0.0000 25.1330 0.0000
# 6 0.0000 0.0000 0.0000 0.0000 0.0000 4.3791
#
#
#
# Elastic Compliance Matrix: (Units=1/GPa)
#
#
# Indices 1 2 3 4 5 6 
#
# 1 0.006339 0.000091 0.000009 0.000000 0.000000 0.000000
# 2 0.000091 0.010298 -0.002762 0.000000 0.000000 0.000000
# 3 0.000009 -0.002762 0.013053 0.000000 0.000000 0.000000
# 4 0.000000 0.000000 0.000000 0.026554 0.000000 0.000000
# 5 0.000000 0.000000 0.000000 0.000000 0.039788 0.000000
# 6 0.000000 0.000000 0.000000 0.000000 0.000000 0.228359
#
#
# Mechanical properties :
#
#
# Convention : Reuss Voigt Hill
#
# Bulk Modulus (GPa) = 41.04504 42.41108 41.72806
# Shear Modulus (GPa) = 14.79998 34.90714 24.85356
#
# Velocity S-wave (km/s) = 2.49715 3.83505 3.23600
# Velocity P-wave (km/s) = 5.06044 6.12204 5.61638
#
# Compressibility (1/GPa) = 0.02436348
#
# Stress axis : x y z
#
# Youngs Moduli (GPa) = 157.74788 97.10955 76.61072
#
# Poissons Ratio (x) = -0.00880 -0.00066
# Poissons Ratio (y) = -0.01430 0.21163
# Poissons Ratio (z) = -0.00135 0.26826
#
# Static dielectric constant tensor:
#      x y z
#    x 1.947870 0.000000 0.000000 
#    y 0.000000 1.943820 0.000000 
#    z 0.000000 0.000000 1.980140 
# 
# From -- ./inp_files/1579.got.cif
#   From: 2010.05.17/outbox.cif.g08.bks.cpg/sg36_1_cif.got.tgz:1579.got - 2010.06.03 17:41:39.
