data_PCOD9351290
_publ_section_title
;
Structure prediction by ZEFSAII (Michael W. Deem and Ramdas Pophale) SiO2 
 PCOD9351290
Probable space group: C M C 21
;
_chemical_formula_sum "Si O2"
_cell_formula_units_Z 60
_cell_length_a 17.904115
_cell_length_b 8.923339
_cell_length_c 14.400728
_cell_angle_alpha 90.000000
_cell_angle_beta 90.000000
_cell_angle_gamma 90.000000
_cell_volume 2300.724931
_symmetry_space_group_name_H-M "C M C 21"
_symmetry_group_IT_number 36
_symmetry_cell_setting 'orthorhombic'
loop_
_space_group_symop_operation_xyz
x,y,z
-x,-y,1/2+z
x,-y,1/2+z
-x,y,z
1/2+x,1/2+y,z
1/2-x,1/2-y,1/2+z
1/2+x,1/2-y,1/2+z
1/2-x,1/2+y,z
loop_
_atom_site_type_symbol
_atom_site_label
_atom_site_fract_x
_atom_site_fract_y
_atom_site_fract_z
Si Si1 0.285863 0.366324 0.849150
Si Si2 0.257306 0.473716 0.637618
Si Si3 0.606480 0.101016 0.056354
Si Si4 0.919613 0.923907 0.350193
Si Si5 0.642501 0.129534 0.741444
Si Si6 0.419287 0.429579 0.125848
Si Si7 0.500000 0.866278 0.165973
Si Si8 0.377420 0.903689 0.888458
O O1 0.266536 0.412938 0.742749
O O2 0.351119 0.474730 0.881578
O O3 0.316978 0.201527 0.831862
O O4 0.210400 0.375199 0.906203
O O5 0.195612 0.390775 0.576382
O O6 0.207301 0.621679 0.663614
O O7 0.340491 0.493877 0.600054
O O8 0.579580 0.266608 0.078243
O O9 0.565590 0.975835 0.120675
O O10 0.591389 0.026995 0.957535
O O11 0.914488 0.905511 0.237888
O O12 0.914538 0.758153 0.393031
O O13 0.000000 0.990631 0.373285
O O14 0.568977 0.224033 0.716723
O O15 0.614462 0.971482 0.785519
O O16 0.500000 0.504676 0.104797
#
# Coordination Sequence:
#
# PCOD9351290 Si02
#       8
#     8   8   8   8   8   8   4   8
#     4  10  20  40  61  91 121 161 211 258 311 372
#     4   9  19  36  60  88 120 163 203 261 314 373
#     4  11  22  36  60  89 128 160 206 259 313 373
#     4  10  22  37  62  88 120 162 205 259 314 365
#     4  10  21  37  65  93 122 155 216 267 308 362
#     4  10  19  35  60  87 116 161 215 258 305 366
#     4  10  22  38  58  90 120 156 206 266 304 348
#     4  11  23  36  63  92 123 163 206 250 312 384
#
# _framework density 26.078738000000001
#
# number of rings (size 3 to 8) (size 9 to 14) (size 15 to 20)
#    0.000    1.867    0.667    5.600    4.667    2.133 
#    0.000    0.000    0.000    0.800    0.000    0.000 
#    0.000    0.000    0.000    0.000    0.000    0.000 
#
# Total GULP energy -167188.269878 kJ/mol
# GULP energy per Si atom -5572.942329 kJ/mol
# Density = 2.601938 g / cm^3
# Si number density = 26.078738 Si / 1000 Ang^3
#
#
#
# Elastic Constant Matrix: (Units=GPa)
#
#
# Indices 1 2 3 4 5 6 
#
# 1 220.3982 11.4768 13.4952 0.0000 0.0000 0.0000
# 2 11.4768 22.3377 -12.8407 0.0000 0.0000 0.0000
# 3 13.4952 -12.8407 59.1364 0.0000 0.0000 0.0000
# 4 0.0000 0.0000 0.0000 25.3798 0.0000 0.0000
# 5 0.0000 0.0000 0.0000 0.0000 -7.6350 0.0000
# 6 0.0000 0.0000 0.0000 0.0000 0.0000 44.1422
#
#
#
# Elastic Compliance Matrix: (Units=1/GPa)
#
#
# Indices 1 2 3 4 5 6 
#
# 1 0.004838 -0.003565 -0.001878 0.000000 0.000000 0.000000
# 2 -0.003565 0.053780 0.012491 0.000000 0.000000 0.000000
# 3 -0.001878 0.012491 0.020051 0.000000 0.000000 0.000000
# 4 0.000000 0.000000 0.000000 0.039401 0.000000 0.000000
# 5 0.000000 0.000000 0.000000 0.000000 -0.130976 0.000000
# 6 0.000000 0.000000 0.000000 0.000000 0.000000 0.022654
#
#
# Mechanical properties :
#
#
# Convention : Reuss Voigt Hill
#
# Bulk Modulus (GPa) = 10.78005 36.23719 23.50862
# Shear Modulus (GPa) = 188.15578 31.69348 109.92463
#
# Velocity S-wave (km/s) = 8.50328 3.48990 6.49943
# Velocity P-wave (km/s) = 10.02748 5.49223 8.08440
#
# Compressibility (1/GPa) = 0.09276398
#
# Stress axis : x y z
#
# Youngs Moduli (GPa) = 206.70116 18.59436 49.87291
#
# Poissons Ratio (x) = 0.06629 0.09367
# Poissons Ratio (y) = 0.73695 -0.62297
# Poissons Ratio (z) = 0.38822 -0.23227
#
# Static dielectric constant tensor:
#      x y z
#    x 2.826400 0.000000 0.000000 
#    y 0.000000 2.158030 0.000000 
#    z 0.000000 0.000000 2.128320 
# 
# From -- ./inp_files/14883.got.cif
#   From: 2010.05.17/outbox.cif.g08.bks.cpg/sg36_8_cif.got.tgz:14883.got - 2010.06.03 17:41:39.
