data_PCOD9351575
_publ_section_title
;
Structure prediction by ZEFSAII (Michael W. Deem and Ramdas Pophale) SiO2 
 PCOD9351575
Probable space group: C M C 21
;
_chemical_formula_sum "Si O2"
_cell_formula_units_Z 40
_cell_length_a 11.636691
_cell_length_b 32.108410
_cell_length_c 5.148012
_cell_angle_alpha 90.000000
_cell_angle_beta 90.000000
_cell_angle_gamma 90.000000
_cell_volume 1923.480788
_symmetry_space_group_name_H-M "C M C 21"
_symmetry_group_IT_number 36
_symmetry_cell_setting 'orthorhombic'
loop_
_space_group_symop_operation_xyz
x,y,z
-x,-y,1/2+z
x,-y,1/2+z
-x,y,z
1/2+x,1/2+y,z
1/2-x,1/2-y,1/2+z
1/2+x,1/2-y,1/2+z
1/2-x,1/2+y,z
loop_
_atom_site_type_symbol
_atom_site_label
_atom_site_fract_x
_atom_site_fract_y
_atom_site_fract_z
Si Si1 0.762099 0.616619 0.194850
Si Si2 0.862363 0.473470 0.588997
Si Si3 0.871320 0.856729 0.200473
Si Si4 0.874784 0.778835 0.885331
Si Si5 0.123983 0.301236 0.669406
O O1 0.800435 0.569766 0.147823
O O2 0.714459 0.624337 0.484684
O O3 0.864028 0.649454 0.136173
O O4 0.666495 0.630424 0.986011
O O5 0.833721 0.492564 0.309219
O O6 0.000000 0.466642 0.600334
O O7 0.000000 0.871732 0.147456
O O8 0.872414 0.806760 0.150059
O O9 0.749321 0.789020 0.777593
O O10 0.000000 0.791134 0.763508
O O11 0.880070 0.729521 0.924586
O O12 0.000000 0.292957 0.804605
#
# Coordination Sequence:
#
# PCOD9351575 Si02
#       5
#     8   8   8   8   8
#     4  11  21  37  61  87 115 149 192 244 294 343
#     4  10  21  38  60  85 114 148 186 233 298 369
#     4  10  21  37  59  85 117 158 198 233 279 346
#     4   9  19  34  52  80 119 163 200 235 288 349
#     4  10  20  34  54  85 120 154 200 251 292 337
#
# _framework density 20.795632000000001
#
# number of rings (size 3 to 8) (size 9 to 14) (size 15 to 20)
#    0.000    2.000    0.000    3.600    0.000    1.600 
#    0.000   11.000    0.000   12.000    0.000    0.000 
#    0.000    0.000    0.000    0.000    0.000    0.000 
#
# Total GULP energy -111409.834912 kJ/mol
# GULP energy per Si atom -5570.491746 kJ/mol
# Density = 2.074830 g / cm^3
# Si number density = 20.795632 Si / 1000 Ang^3
#
#
#
# Elastic Constant Matrix: (Units=GPa)
#
#
# Indices 1 2 3 4 5 6 
#
# 1 146.4686 31.3097 6.2775 0.0000 0.0000 0.0000
# 2 31.3097 71.1822 -10.3151 0.0000 0.0000 0.0000
# 3 6.2775 -10.3151 36.0383 0.0000 0.0000 0.0000
# 4 0.0000 0.0000 0.0000 23.4127 0.0000 0.0000
# 5 0.0000 0.0000 0.0000 0.0000 23.6692 0.0000
# 6 0.0000 0.0000 0.0000 0.0000 0.0000 17.6948
#
#
#
# Elastic Compliance Matrix: (Units=1/GPa)
#
#
# Indices 1 2 3 4 5 6 
#
# 1 0.007733 -0.003752 -0.002421 0.000000 0.000000 0.000000
# 2 -0.003752 0.016477 0.005370 0.000000 0.000000 0.000000
# 3 -0.002421 0.005370 0.029707 0.000000 0.000000 0.000000
# 4 0.000000 0.000000 0.000000 0.042712 0.000000 0.000000
# 5 0.000000 0.000000 0.000000 0.000000 0.042249 0.000000
# 6 0.000000 0.000000 0.000000 0.000000 0.000000 0.056514
#
#
# Mechanical properties :
#
#
# Convention : Reuss Voigt Hill
#
# Bulk Modulus (GPa) = 19.11679 34.24814 26.68247
# Shear Modulus (GPa) = 23.31699 28.04980 25.68340
#
# Velocity S-wave (km/s) = 3.35213 3.67663 3.51812
# Velocity P-wave (km/s) = 4.91884 5.87606 5.41863
#
# Compressibility (1/GPa) = 0.05231004
#
# Stress axis : x y z
#
# Youngs Moduli (GPa) = 129.31112 60.69033 33.66216
#
# Poissons Ratio (x) = 0.22773 0.08150
# Poissons Ratio (y) = 0.48522 -0.18076
# Poissons Ratio (z) = 0.31307 -0.32589
#
# Static dielectric constant tensor:
#      x y z
#    x 1.772630 0.000000 0.000000 
#    y 0.000000 1.746400 0.000000 
#    z 0.000000 0.000000 1.785660 
# 
# From -- ./inp_files/497.got.cif
#   From: 2010.05.17/outbox.cif.g08.bks.cpg/sg36_1_cif.got.tgz:497.got - 2010.06.03 17:41:39.
