data_PCOD9351357
_publ_section_title
;
Structure prediction by ZEFSAII (Michael W. Deem and Ramdas Pophale) SiO2 
 PCOD9351357
Probable space group: C M C 21
;
_chemical_formula_sum "Si O2"
_cell_formula_units_Z 64
_cell_length_a 9.180764
_cell_length_b 29.423955
_cell_length_c 12.412642
_cell_angle_alpha 90.000000
_cell_angle_beta 90.000000
_cell_angle_gamma 90.000000
_cell_volume 3353.081435
_symmetry_space_group_name_H-M "C M C 21"
_symmetry_group_IT_number 36
_symmetry_cell_setting 'orthorhombic'
loop_
_space_group_symop_operation_xyz
x,y,z
-x,-y,1/2+z
x,-y,1/2+z
-x,y,z
1/2+x,1/2+y,z
1/2-x,1/2-y,1/2+z
1/2+x,1/2-y,1/2+z
1/2-x,1/2+y,z
loop_
_atom_site_type_symbol
_atom_site_label
_atom_site_fract_x
_atom_site_fract_y
_atom_site_fract_z
Si Si1 0.340506 0.067631 0.522900
Si Si2 0.324957 0.379049 0.314289
Si Si3 0.333124 0.936456 0.768645
Si Si4 0.328601 0.176185 0.987758
Si Si5 0.829042 0.026956 0.707598
Si Si6 0.668424 0.832288 0.114694
Si Si7 0.824739 0.667242 0.237161
Si Si8 0.826867 0.778480 0.930569
O O1 0.500000 0.052172 0.564246
O O2 0.332481 0.058937 0.397435
O O3 0.214093 0.044241 0.589382
O O4 0.333800 0.121370 0.544442
O O5 0.500000 0.375891 0.307395
O O6 0.266229 0.361882 0.428554
O O7 0.281200 0.431064 0.285168
O O8 0.251098 0.346795 0.223594
O O9 0.500000 0.938762 0.729706
O O10 0.278980 0.885671 0.743989
O O11 0.245427 0.978874 0.724984
O O12 0.500000 0.164219 0.979067
O O13 0.305243 0.224322 0.929000
O O14 0.296603 0.182245 0.114462
O O15 0.000000 0.022122 0.720549
O O16 0.500000 0.819222 0.136189
O O17 0.752491 0.796688 0.040243
O O18 0.745062 0.696880 0.327864
O O19 0.000000 0.669316 0.257170
O O20 0.000000 0.787658 0.933681
#
# Coordination Sequence:
#
# PCOD9351357 Si02
#       8
#     8   8   8   8   8   8   8   8
#     4   9  18  35  57  82 111 149 200 246 289 350
#     4  10  22  40  60  86 122 160 203 250 303 360
#     4  10  20  37  61  87 114 153 206 250 295 356
#     4  10  24  42  61  88 124 164 204 248 304 365
#     4  10  22  37  56  87 122 157 197 245 309 364
#     4  10  19  36  62  87 115 152 198 249 299 353
#     4  10  22  43  64  87 121 161 206 252 302 361
#     4  11  23  38  59  92 123 154 200 248 305 365
#
# _framework density 19.086922000000001
#
# number of rings (size 3 to 8) (size 9 to 14) (size 15 to 20)
#    0.000    2.000    1.250    1.500    1.750    5.500 
#    0.000    3.750    0.000    0.000    0.000    0.000 
#    0.000    0.000    0.000    0.000    0.000    0.000 
#
# Total GULP energy -178620.118826 kJ/mol
# GULP energy per Si atom -5581.878713 kJ/mol
# Density = 1.904348 g / cm^3
# Si number density = 19.086922 Si / 1000 Ang^3
#
#
#
# Elastic Constant Matrix: (Units=GPa)
#
#
# Indices 1 2 3 4 5 6 
#
# 1 62.7512 49.2462 25.0639 0.0000 0.0000 0.0000
# 2 49.2462 96.5840 37.4358 0.0000 0.0000 0.0000
# 3 25.0639 37.4358 46.0668 0.0000 0.0000 0.0000
# 4 0.0000 0.0000 0.0000 21.9499 0.0000 0.0000
# 5 0.0000 0.0000 0.0000 0.0000 30.5735 0.0000
# 6 0.0000 0.0000 0.0000 0.0000 0.0000 27.0000
#
#
#
# Elastic Compliance Matrix: (Units=1/GPa)
#
#
# Indices 1 2 3 4 5 6 
#
# 1 0.027390 -0.011955 -0.005187 0.000000 0.000000 0.000000
# 2 -0.011955 0.020333 -0.010019 0.000000 0.000000 0.000000
# 3 -0.005187 -0.010019 0.032671 0.000000 0.000000 0.000000
# 4 0.000000 0.000000 0.000000 0.045558 0.000000 0.000000
# 5 0.000000 0.000000 0.000000 0.000000 0.032708 0.000000
# 6 0.000000 0.000000 0.000000 0.000000 0.000000 0.037037
#
#
# Mechanical properties :
#
#
# Convention : Reuss Voigt Hill
#
# Bulk Modulus (GPa) = 38.35484 47.65488 43.00486
# Shear Modulus (GPa) = 19.32672 22.14842 20.73757
#
# Velocity S-wave (km/s) = 3.18553 3.41016 3.29976
# Velocity P-wave (km/s) = 5.80247 6.36609 6.09080
#
# Compressibility (1/GPa) = 0.02607233
#
# Stress axis : x y z
#
# Youngs Moduli (GPa) = 36.50982 49.18230 30.60795
#
# Poissons Ratio (x) = 0.58798 0.15876
# Poissons Ratio (y) = 0.43648 0.30665
# Poissons Ratio (z) = 0.18938 0.49274
#
# Static dielectric constant tensor:
#      x y z
#    x 1.664970 0.000000 0.000000 
#    y 0.000000 1.653490 0.000000 
#    z 0.000000 0.000000 1.656900 
# 
# From -- ./inp_files/7127.got.cif
#   From: 2010.05.17/outbox.cif.g08.bks.cpg/sg36_4_cif.got.tgz:7127.got - 2010.06.03 17:41:39.
