data_PCOD9351143
_publ_section_title
;
Structure prediction by ZEFSAII (Michael W. Deem and Ramdas Pophale) SiO2 
 PCOD9351143
Probable space group: C M C 21
;
_chemical_formula_sum "Si O2"
_cell_formula_units_Z 64
_cell_length_a 25.003814
_cell_length_b 5.332633
_cell_length_c 26.046641
_cell_angle_alpha 90.000000
_cell_angle_beta 90.000000
_cell_angle_gamma 90.000000
_cell_volume 3472.959187
_symmetry_space_group_name_H-M "C M C 21"
_symmetry_group_IT_number 36
_symmetry_cell_setting 'orthorhombic'
loop_
_space_group_symop_operation_xyz
x,y,z
-x,-y,1/2+z
x,-y,1/2+z
-x,y,z
1/2+x,1/2+y,z
1/2-x,1/2-y,1/2+z
1/2+x,1/2-y,1/2+z
1/2-x,1/2+y,z
loop_
_atom_site_type_symbol
_atom_site_label
_atom_site_fract_x
_atom_site_fract_y
_atom_site_fract_z
Si Si1 0.235794 0.720170 0.611160
Si Si2 0.935402 0.281925 0.443647
Si Si3 0.400475 0.781227 0.766702
Si Si4 0.939840 0.181570 0.657603
Si Si5 0.889158 0.314387 0.116776
Si Si6 0.064998 0.217645 0.004497
Si Si7 0.564995 0.283374 0.824950
Si Si8 0.720153 0.269040 0.225789
O O1 0.251967 0.472570 0.581720
O O2 0.173941 0.707806 0.625088
O O3 0.271806 0.726094 0.663457
O O4 0.920071 0.546689 0.468602
O O5 0.919375 0.250521 0.384545
O O6 0.000000 0.279128 0.443415
O O7 0.919246 0.043868 0.477970
O O8 0.438073 0.749481 0.717286
O O9 0.412756 0.546072 0.803506
O O10 0.340300 0.765532 0.744028
O O11 0.412427 0.046039 0.793504
O O12 0.907794 0.404815 0.629955
O O13 0.000000 0.182196 0.637014
O O14 0.916086 0.904050 0.650663
O O15 0.906874 0.252021 0.059037
O O16 0.000000 0.219449 0.011383
O O17 0.500000 0.284883 0.821120
O O18 0.744730 0.532451 0.243684
#
# Coordination Sequence:
#
# PCOD9351143 Si02
#       8
#     8   8   8   8   8   8   8   8
#     4  10  20  36  54  75 103 139 187 238 272 312
#     4   9  19  35  57  80 111 145 183 233 277 322
#     4  12  23  36  56  82 113 154 192 230 278 332
#     4  12  23  35  50  79 121 159 183 214 267 343
#     4  12  23  37  57  82 114 154 189 229 280 333
#     4  10  19  34  55  84 113 145 184 226 276 337
#     4  11  22  38  57  85 118 152 189 229 277 340
#     4  10  19  35  54  75 103 138 185 239 274 311
#
# _framework density 18.428090000000001
#
# number of rings (size 3 to 8) (size 9 to 14) (size 15 to 20)
#    0.000    1.250    0.000    9.000    0.000    3.000 
#    0.000    0.000    0.000    0.000    0.000   17.500 
#    0.000    0.000    0.000    0.000    0.000    0.000 
#
# Total GULP energy -178720.882134 kJ/mol
# GULP energy per Si atom -5585.027567 kJ/mol
# Density = 1.838615 g / cm^3
# Si number density = 18.428090 Si / 1000 Ang^3
#
#
#
# Elastic Constant Matrix: (Units=GPa)
#
#
# Indices 1 2 3 4 5 6 
#
# 1 79.6934 15.0273 -2.9793 0.0000 0.0000 0.0000
# 2 15.0273 90.0527 -22.2107 0.0000 0.0000 0.0000
# 3 -2.9793 -22.2107 46.1604 0.0000 0.0000 0.0000
# 4 0.0000 0.0000 0.0000 29.2087 0.0000 0.0000
# 5 0.0000 0.0000 0.0000 0.0000 4.8409 0.0000
# 6 0.0000 0.0000 0.0000 0.0000 0.0000 45.0886
#
#
#
# Elastic Compliance Matrix: (Units=1/GPa)
#
#
# Indices 1 2 3 4 5 6 
#
# 1 0.012958 -0.002219 -0.000232 0.000000 0.000000 0.000000
# 2 -0.002219 0.012980 0.006102 0.000000 0.000000 0.000000
# 3 -0.000232 0.006102 0.024585 0.000000 0.000000 0.000000
# 4 0.000000 0.000000 0.000000 0.034236 0.000000 0.000000
# 5 0.000000 0.000000 0.000000 0.000000 0.206574 0.000000
# 6 0.000000 0.000000 0.000000 0.000000 0.000000 0.022179
#
#
# Mechanical properties :
#
#
# Convention : Reuss Voigt Hill
#
# Bulk Modulus (GPa) = 17.29346 21.73124 19.51235
# Shear Modulus (GPa) = 15.36172 30.89891 23.13032
#
# Velocity S-wave (km/s) = 2.89035 4.09923 3.54668
# Velocity P-wave (km/s) = 4.53249 5.85004 5.23290
#
# Compressibility (1/GPa) = 0.05782533
#
# Stress axis : x y z
#
# Youngs Moduli (GPa) = 77.17280 77.04136 40.67547
#
# Poissons Ratio (x) = 0.17099 0.00942
# Poissons Ratio (y) = 0.17128 -0.24821
# Poissons Ratio (z) = 0.01787 -0.47013
#
# Static dielectric constant tensor:
#      x y z
#    x 1.627950 0.000000 0.000000 
#    y 0.000000 1.689500 0.000000 
#    z 0.000000 0.000000 1.616730 
# 
# From -- ./inp_files/17059.got.cif
#   From: 2010.05.17/outbox.cif.g08.bks.cpg/sg36_9_cif.got.tgz:17059.got - 2010.06.03 17:41:39.
