data_PCOD9351373
_publ_section_title
;
Structure prediction by ZEFSAII (Michael W. Deem and Ramdas Pophale) SiO2 
 PCOD9351373
Probable space group: C M C 21
;
_chemical_formula_sum "Si O2"
_cell_formula_units_Z 56
_cell_length_a 11.897671
_cell_length_b 16.566284
_cell_length_c 14.604606
_cell_angle_alpha 90.000000
_cell_angle_beta 90.000000
_cell_angle_gamma 90.000000
_cell_volume 2878.570716
_symmetry_space_group_name_H-M "C M C 21"
_symmetry_group_IT_number 36
_symmetry_cell_setting 'orthorhombic'
loop_
_space_group_symop_operation_xyz
x,y,z
-x,-y,1/2+z
x,-y,1/2+z
-x,y,z
1/2+x,1/2+y,z
1/2-x,1/2-y,1/2+z
1/2+x,1/2-y,1/2+z
1/2-x,1/2+y,z
loop_
_atom_site_type_symbol
_atom_site_label
_atom_site_fract_x
_atom_site_fract_y
_atom_site_fract_z
Si Si1 0.126457 0.344942 0.474410
Si Si2 0.874669 0.946806 0.784053
Si Si3 0.367345 0.755683 0.784053
Si Si4 0.786177 0.168100 0.131323
Si Si5 0.786176 0.831900 0.936783
Si Si6 0.781865 0.401082 0.284053
Si Si7 0.626457 0.155058 0.593696
O O1 0.225264 0.370530 0.543811
O O2 0.143781 0.247843 0.464228
O O3 0.147054 0.384142 0.375353
O O4 0.000000 0.362103 0.506359
O O5 0.857711 0.891164 0.694472
O O6 0.857710 0.891163 0.873633
O O7 0.000000 0.981861 0.784053
O O8 0.777099 0.012838 0.784053
O O9 0.500000 0.756925 0.784052
O O10 0.314632 0.799479 0.695895
O O11 0.314633 0.799478 0.872212
O O12 0.316632 0.666040 0.784053
O O13 0.856218 0.247843 0.103878
O O14 0.725264 0.870530 0.024295
O O15 0.852946 0.384142 0.192753
O O16 0.500000 0.137897 0.561747
#
# Coordination Sequence:
#
# PCOD9351373 Si02
#       7
#     8   8   8   8   8   8   8
#     4  10  19  37  58  81 110 143 179 228 270 313
#     4  11  22  40  57  78 110 142 175 225 273 321
#     4   9  16  32  53  78 108 140 175 229 275 309
#     4   9  20  34  58  85 104 135 189 225 266 327
#     4   9  20  34  58  85 104 135 189 225 266 327
#     4  10  22  34  52  80 112 148 188 212 260 332
#     4  10  19  37  58  81 110 143 179 228 270 313
#
# _framework density 19.454098999999999
#
# number of rings (size 3 to 8) (size 9 to 14) (size 15 to 20)
#    0.000    2.286    0.000    3.429    0.000    1.143 
#    0.000   15.714    0.000    0.000    0.000    0.000 
#    0.000    0.000    0.000    0.000    0.000    0.000 
#
# Total GULP energy -156295.966172 kJ/mol
# GULP energy per Si atom -5581.998792 kJ/mol
# Density = 1.940982 g / cm^3
# Si number density = 19.454099 Si / 1000 Ang^3
#
#
#
# Elastic Constant Matrix: (Units=GPa)
#
#
# Indices 1 2 3 4 5 6 
#
# 1 83.1753 -2.0608 0.4391 0.0000 0.0000 0.0000
# 2 -2.0608 30.2009 0.1995 0.0000 0.0000 0.0000
# 3 0.4391 0.1995 92.8896 0.0000 0.0000 0.0000
# 4 0.0000 0.0000 0.0000 5.4549 0.0000 0.0000
# 5 0.0000 0.0000 0.0000 0.0000 6.4664 0.0000
# 6 0.0000 0.0000 0.0000 0.0000 0.0000 8.0070
#
#
#
# Elastic Compliance Matrix: (Units=1/GPa)
#
#
# Indices 1 2 3 4 5 6 
#
# 1 0.012043 0.000822 -0.000059 0.000000 0.000000 0.000000
# 2 0.000822 0.033168 -0.000075 0.000000 0.000000 0.000000
# 3 -0.000059 -0.000075 0.010766 0.000000 0.000000 0.000000
# 4 0.000000 0.000000 0.000000 0.183320 0.000000 0.000000
# 5 0.000000 0.000000 0.000000 0.000000 0.154646 0.000000
# 6 0.000000 0.000000 0.000000 0.000000 0.000000 0.124891
#
#
# Mechanical properties :
#
#
# Convention : Reuss Voigt Hill
#
# Bulk Modulus (GPa) = 17.43548 22.60238 20.01893
# Shear Modulus (GPa) = 9.31834 17.83152 13.57493
#
# Velocity S-wave (km/s) = 2.19096 3.03082 2.64444
# Velocity P-wave (km/s) = 3.92202 4.88788 4.43134
#
# Compressibility (1/GPa) = 0.05735433
#
# Stress axis : x y z
#
# Youngs Moduli (GPa) = 83.03242 30.14935 92.88585
#
# Poissons Ratio (x) = -0.02479 0.00545
# Poissons Ratio (y) = -0.06827 0.00698
# Poissons Ratio (z) = 0.00487 0.00227
#
# Static dielectric constant tensor:
#      x y z
#    x 1.624840 0.000000 0.000000 
#    y 0.000000 1.669160 0.000000 
#    z 0.000000 0.000000 1.713370 
# 
# From -- ./inp_files/11601.got.cif
#   From: 2010.05.17/outbox.cif.g08.bks.cpg/sg36_6_cif.got.tgz:11601.got - 2010.06.03 17:41:39.
