data_PCOD9351827
_publ_section_title
;
Structure prediction by ZEFSAII (Michael W. Deem and Ramdas Pophale) SiO2 
 PCOD9351827
Probable space group: C M C 21
;
_chemical_formula_sum "Si O2"
_cell_formula_units_Z 64
_cell_length_a 20.967917
_cell_length_b 28.666242
_cell_length_c 5.247174
_cell_angle_alpha 90.000000
_cell_angle_beta 90.000000
_cell_angle_gamma 90.000000
_cell_volume 3153.926133
_symmetry_space_group_name_H-M "C M C 21"
_symmetry_group_IT_number 36
_symmetry_cell_setting 'orthorhombic'
loop_
_space_group_symop_operation_xyz
x,y,z
-x,-y,1/2+z
x,-y,1/2+z
-x,y,z
1/2+x,1/2+y,z
1/2-x,1/2-y,1/2+z
1/2+x,1/2-y,1/2+z
1/2-x,1/2+y,z
loop_
_atom_site_type_symbol
_atom_site_label
_atom_site_fract_x
_atom_site_fract_y
_atom_site_fract_z
Si Si1 0.886570 0.134550 0.789160
Si Si2 0.886565 0.365456 0.194209
Si Si3 0.572794 0.690961 0.278086
Si Si4 0.250001 0.329120 0.241691
Si Si5 0.422924 0.972583 0.262651
Si Si6 0.077076 0.972582 0.220894
Si Si7 0.072794 0.309048 0.705291
Si Si8 0.326379 0.750005 0.491714
O O1 0.910354 0.161704 0.534999
O O2 0.810685 0.141473 0.826818
O O3 0.901806 0.080381 0.759402
O O4 0.918917 0.157861 0.034743
O O5 0.810682 0.358526 0.156530
O O6 0.901794 0.419624 0.224033
O O7 0.910352 0.338298 0.448357
O O8 0.918919 0.342154 0.948613
O O9 0.500000 0.707622 0.289113
O O10 0.624050 0.733035 0.275159
O O11 0.280711 0.293445 0.040478
O O12 0.219288 0.293455 0.442952
O O13 0.500000 0.972435 0.263265
O O14 0.401528 0.994909 0.528842
O O15 0.000000 0.972442 0.220277
O O16 0.098477 0.005077 0.454749
O O17 0.124048 0.266973 0.708262
O O18 0.000000 0.292387 0.694270
#
# Coordination Sequence:
#
# PCOD9351827 Si02
#       8
#     8   8   8   8   8   8   8   8
#     4  11  23  39  61  87 120 158 195 238 291 349
#     4  11  23  39  61  87 120 158 195 238 291 349
#     4  11  22  37  60  89 121 153 195 248 296 341
#     4  10  22  40  60  84 118 162 202 236 280 348
#     4  10  20  36  59  86 115 146 187 239 295 350
#     4  10  20  36  59  86 115 146 187 239 295 350
#     4  11  22  37  60  89 121 153 195 248 296 341
#     4  10  21  38  60  86 117 160 202 242 286 342
#
# _framework density 20.292169000000001
#
# number of rings (size 3 to 8) (size 9 to 14) (size 15 to 20)
#    0.000    1.500    0.000    5.625    0.000    8.000 
#    0.000    7.500    0.000    0.000    0.000    0.000 
#    0.000    0.000    0.000    0.000    0.000    0.000 
#
# Total GULP energy -178800.123753 kJ/mol
# GULP energy per Si atom -5587.503867 kJ/mol
# Density = 2.024598 g / cm^3
# Si number density = 20.292169 Si / 1000 Ang^3
#
#
#
# Elastic Constant Matrix: (Units=GPa)
#
#
# Indices 1 2 3 4 5 6 
#
# 1 92.9750 -9.4645 31.0462 0.0000 0.0000 0.0000
# 2 -9.4645 59.5595 14.5386 0.0000 0.0000 0.0000
# 3 31.0462 14.5386 94.3975 0.0000 0.0000 0.0000
# 4 0.0000 0.0000 0.0000 27.5478 0.0000 0.0000
# 5 0.0000 0.0000 0.0000 0.0000 14.8337 0.0000
# 6 0.0000 0.0000 0.0000 0.0000 0.0000 32.4875
#
#
#
# Elastic Compliance Matrix: (Units=1/GPa)
#
#
# Indices 1 2 3 4 5 6 
#
# 1 0.012622 0.003137 -0.004635 0.000000 0.000000 0.000000
# 2 0.003137 0.018225 -0.003839 0.000000 0.000000 0.000000
# 3 -0.004635 -0.003839 0.012709 0.000000 0.000000 0.000000
# 4 0.000000 0.000000 0.000000 0.036301 0.000000 0.000000
# 5 0.000000 0.000000 0.000000 0.000000 0.067414 0.000000
# 6 0.000000 0.000000 0.000000 0.000000 0.000000 0.030781
#
#
# Mechanical properties :
#
#
# Convention : Reuss Voigt Hill
#
# Bulk Modulus (GPa) = 30.40936 35.46361 32.93649
# Shear Modulus (GPa) = 25.03927 29.02793 27.03360
#
# Velocity S-wave (km/s) = 3.51656 3.78630 3.65392
# Velocity P-wave (km/s) = 5.61307 6.05220 5.83677
#
# Compressibility (1/GPa) = 0.03288461
#
# Stress axis : x y z
#
# Youngs Moduli (GPa) = 79.22368 54.86818 78.68463
#
# Poissons Ratio (x) = -0.17213 0.36467
# Poissons Ratio (y) = -0.24853 0.30205
# Poissons Ratio (z) = 0.36717 0.21063
#
# Static dielectric constant tensor:
#      x y z
#    x 1.727040 0.000000 0.000000 
#    y 0.000000 1.696060 0.000000 
#    z 0.000000 0.000000 1.780720 
# 
# From -- ./inp_files/1489.got.cif
#   From: 2010.05.17/outbox.cif.g08.bks.cpg/sg36_1_cif.got.tgz:1489.got - 2010.06.03 17:41:39.
