data_PCOD9351026
_publ_section_title
;
Structure prediction by ZEFSAII (Michael W. Deem and Ramdas Pophale) SiO2 
 PCOD9351026
Probable space group: C M C 21
;
_chemical_formula_sum "Si O2"
_cell_formula_units_Z 64
_cell_length_a 8.918833
_cell_length_b 15.889073
_cell_length_c 19.002190
_cell_angle_alpha 90.000000
_cell_angle_beta 90.000000
_cell_angle_gamma 90.000000
_cell_volume 2692.838133
_symmetry_space_group_name_H-M "C M C 21"
_symmetry_group_IT_number 36
_symmetry_cell_setting 'orthorhombic'
loop_
_space_group_symop_operation_xyz
x,y,z
-x,-y,1/2+z
x,-y,1/2+z
-x,y,z
1/2+x,1/2+y,z
1/2-x,1/2-y,1/2+z
1/2+x,1/2-y,1/2+z
1/2-x,1/2+y,z
loop_
_atom_site_type_symbol
_atom_site_label
_atom_site_fract_x
_atom_site_fract_y
_atom_site_fract_z
Si Si1 0.173765 0.657861 0.498070
Si Si2 0.326761 0.433933 0.874510
Si Si3 0.822392 0.653120 0.256434
Si Si4 0.319439 0.191335 0.840645
Si Si5 0.174598 0.483778 0.588664
Si Si6 0.675016 0.738271 0.130012
Si Si7 0.676058 0.915463 0.215942
Si Si8 0.325855 0.394344 0.464528
O O1 0.273214 0.636425 0.430813
O O2 0.173438 0.571235 0.543799
O O3 0.221588 0.731607 0.551904
O O4 0.000000 0.671961 0.476906
O O5 0.500000 0.421001 0.856071
O O6 0.231839 0.426073 0.802897
O O7 0.312117 0.519748 0.918554
O O8 0.753688 0.729004 0.302984
O O9 0.764453 0.671728 0.177514
O O10 0.000000 0.655639 0.255901
O O11 0.500000 0.196856 0.837213
O O12 0.266505 0.112590 0.791726
O O13 0.264454 0.173049 0.918904
O O14 0.239998 0.513798 0.663814
O O15 0.263922 0.418004 0.541222
O O16 0.000000 0.458161 0.595662
O O17 0.500000 0.714236 0.127949
O O18 0.683089 0.826659 0.173363
O O19 0.500000 0.936704 0.223005
O O20 0.500000 0.372078 0.468153
#
# Coordination Sequence:
#
# PCOD9351026 Si02
#       8
#     8   8   8   8   8   8   8   8
#     4   8  14  26  46  70  94 121 157 200 240 281
#     4  10  20  33  49  70 100 133 163 199 243 290
#     4  11  21  32  49  73 100 128 163 204 241 285
#     4  10  19  33  52  72  97 129 161 196 243 292
#     4   8  13  25  45  67  91 120 154 192 235 281
#     4   8  14  27  46  68  95 124 155 195 242 285
#     4   7  12  24  44  68  90 116 154 194 231 277
#     4  10  20  32  47  72 101 127 159 198 237 281
#
# _framework density 23.766745
#
# number of rings (size 3 to 8) (size 9 to 14) (size 15 to 20)
#    0.000    3.000    0.000    4.500    0.000    2.000 
#    0.000    6.875    0.000    1.500    0.000    3.500 
#    0.000    0.000    0.000    0.000    0.000    0.000 
#
# Total GULP energy -178868.774139 kJ/mol
# GULP energy per Si atom -5589.649192 kJ/mol
# Density = 2.371265 g / cm^3
# Si number density = 23.766745 Si / 1000 Ang^3
#
#
#
# Elastic Constant Matrix: (Units=GPa)
#
#
# Indices 1 2 3 4 5 6 
#
# 1 82.2077 20.0968 50.9944 0.0000 0.0000 0.0000
# 2 20.0968 100.5957 20.0879 0.0000 0.0000 0.0000
# 3 50.9944 20.0879 162.9623 0.0000 0.0000 0.0000
# 4 0.0000 0.0000 0.0000 52.5536 0.0000 0.0000
# 5 0.0000 0.0000 0.0000 0.0000 33.6823 0.0000
# 6 0.0000 0.0000 0.0000 0.0000 0.0000 15.9939
#
#
#
# Elastic Compliance Matrix: (Units=1/GPa)
#
#
# Indices 1 2 3 4 5 6 
#
# 1 0.015551 -0.002189 -0.004596 0.000000 0.000000 0.000000
# 2 -0.002189 0.010500 -0.000609 0.000000 0.000000 0.000000
# 3 -0.004596 -0.000609 0.007650 0.000000 0.000000 0.000000
# 4 0.000000 0.000000 0.000000 0.019028 0.000000 0.000000
# 5 0.000000 0.000000 0.000000 0.000000 0.029689 0.000000
# 6 0.000000 0.000000 0.000000 0.000000 0.000000 0.062524
#
#
# Mechanical properties :
#
#
# Convention : Reuss Voigt Hill
#
# Bulk Modulus (GPa) = 52.87886 58.68043 55.77964
# Shear Modulus (GPa) = 30.11432 37.41840 33.76636
#
# Velocity S-wave (km/s) = 3.56347 3.97218 3.77336
# Velocity P-wave (km/s) = 6.26326 6.76619 6.51958
#
# Compressibility (1/GPa) = 0.01891115
#
# Stress axis : x y z
#
# Youngs Moduli (GPa) = 64.30649 95.24048 130.72280
#
# Poissons Ratio (x) = 0.20846 0.60084
# Poissons Ratio (y) = 0.14076 0.07966
# Poissons Ratio (z) = 0.29557 0.05803
#
# Static dielectric constant tensor:
#      x y z
#    x 1.785930 0.000000 0.000000 
#    y 0.000000 2.025930 0.000000 
#    z 0.000000 0.000000 1.918430 
# 
# From -- ./inp_files/15776.got.cif
#   From: 2010.05.17/outbox.cif.g08.bks.cpg/sg36_8_cif.got.tgz:15776.got - 2010.06.03 17:41:39.
