data_PCOD9351743
_publ_section_title
;
Structure prediction by ZEFSAII (Michael W. Deem and Ramdas Pophale) SiO2 
 PCOD9351743
Probable space group: C M C 21
;
_chemical_formula_sum "Si O2"
_cell_formula_units_Z 64
_cell_length_a 19.352919
_cell_length_b 9.626827
_cell_length_c 17.448363
_cell_angle_alpha 90.000000
_cell_angle_beta 90.000000
_cell_angle_gamma 90.000000
_cell_volume 3250.755710
_symmetry_space_group_name_H-M "C M C 21"
_symmetry_group_IT_number 36
_symmetry_cell_setting 'orthorhombic'
loop_
_space_group_symop_operation_xyz
x,y,z
-x,-y,1/2+z
x,-y,1/2+z
-x,y,z
1/2+x,1/2+y,z
1/2-x,1/2-y,1/2+z
1/2+x,1/2-y,1/2+z
1/2-x,1/2+y,z
loop_
_atom_site_type_symbol
_atom_site_label
_atom_site_fract_x
_atom_site_fract_y
_atom_site_fract_z
Si Si1 0.356198 0.764413 0.617050
Si Si2 0.693931 0.721099 0.075890
Si Si3 0.817689 0.992129 0.193210
Si Si4 0.817474 0.258620 0.895447
Si Si5 0.417466 0.998317 0.850039
Si Si6 0.919388 0.756197 0.954053
Si Si7 0.180823 0.934710 0.853861
Si Si8 0.155088 0.554951 0.694247
O O1 0.276188 0.757196 0.588513
O O2 0.360469 0.647500 0.682157
O O3 0.403042 0.740527 0.543718
O O4 0.368141 0.913137 0.653895
O O5 0.679624 0.570316 0.111840
O O6 0.652356 0.825175 0.130948
O O7 0.678345 0.744648 0.987483
O O8 0.840100 0.084506 0.264987
O O9 0.737179 0.960308 0.211053
O O10 0.881114 0.350213 0.864410
O O11 0.811590 0.100802 0.865256
O O12 0.750481 0.349203 0.871727
O O13 0.500000 0.985185 0.845065
O O14 0.399561 0.105462 0.918788
O O15 0.386429 0.066064 0.772799
O O16 0.000000 0.776103 0.939635
O O17 0.875701 0.872564 0.910594
#
# Coordination Sequence:
#
# PCOD9351743 Si02
#       8
#     8   8   8   8   8   8   8   8
#     4  10  20  36  58  87 119 160 204 255 312 373
#     4  10  21  34  60  90 124 154 203 261 313 368
#     4  10  21  35  59  91 122 156 202 261 317 367
#     4  12  24  39  65  96 125 168 208 269 316 377
#     4  11  24  42  64  93 131 173 215 260 316 381
#     4  11  24  42  63  88 126 170 212 260 318 384
#     4  12  24  39  66  94 127 165 211 265 323 373
#     4  10  20  35  59  87 124 160 203 259 307 371
#
# _framework density 19.687729000000001
#
# number of rings (size 3 to 8) (size 9 to 14) (size 15 to 20)
#    0.000    1.250    2.500    3.750    7.000    1.000 
#    0.000    1.250    0.000    3.000    0.000    0.000 
#    0.000    0.000    0.000    0.000    0.000    0.000 
#
# Total GULP energy -178800.784420 kJ/mol
# GULP energy per Si atom -5587.524513 kJ/mol
# Density = 1.964292 g / cm^3
# Si number density = 19.687729 Si / 1000 Ang^3
#
#
#
# Elastic Constant Matrix: (Units=GPa)
#
#
# Indices 1 2 3 4 5 6 
#
# 1 52.5228 35.6789 14.1912 0.0000 0.0000 0.0000
# 2 35.6789 111.5136 13.3565 0.0000 0.0000 0.0000
# 3 14.1912 13.3565 95.3716 0.0000 0.0000 0.0000
# 4 0.0000 0.0000 0.0000 34.0855 0.0000 0.0000
# 5 0.0000 0.0000 0.0000 0.0000 22.7893 0.0000
# 6 0.0000 0.0000 0.0000 0.0000 0.0000 17.5074
#
#
#
# Elastic Compliance Matrix: (Units=1/GPa)
#
#
# Indices 1 2 3 4 5 6 
#
# 1 0.024964 -0.007671 -0.002640 0.000000 0.000000 0.000000
# 2 -0.007671 0.011478 -0.000466 0.000000 0.000000 0.000000
# 3 -0.002640 -0.000466 0.010943 0.000000 0.000000 0.000000
# 4 0.000000 0.000000 0.000000 0.029338 0.000000 0.000000
# 5 0.000000 0.000000 0.000000 0.000000 0.043880 0.000000
# 6 0.000000 0.000000 0.000000 0.000000 0.000000 0.057119
#
#
# Mechanical properties :
#
#
# Convention : Reuss Voigt Hill
#
# Bulk Modulus (GPa) = 38.71414 42.87346 40.79380
# Shear Modulus (GPa) = 24.05165 27.95520 26.00343
#
# Velocity S-wave (km/s) = 3.49901 3.77228 3.63822
# Velocity P-wave (km/s) = 6.00257 6.38729 6.19792
#
# Compressibility (1/GPa) = 0.02583036
#
# Stress axis : x y z
#
# Youngs Moduli (GPa) = 40.05838 87.12596 91.37898
#
# Poissons Ratio (x) = 0.66833 0.24127
# Poissons Ratio (y) = 0.30728 0.04258
# Poissons Ratio (z) = 0.10576 0.04060
#
# Static dielectric constant tensor:
#      x y z
#    x 1.661160 0.000000 0.000000 
#    y 0.000000 1.722310 0.000000 
#    z 0.000000 0.000000 1.704410 
# 
# From -- ./inp_files/15023.got.cif
#   From: 2010.05.17/outbox.cif.g08.bks.cpg/sg36_8_cif.got.tgz:15023.got - 2010.06.03 17:41:39.
