data_PCOD9351741
_publ_section_title
;
Structure prediction by ZEFSAII (Michael W. Deem and Ramdas Pophale) SiO2 
 PCOD9351741
Probable space group: C M C 21
;
_chemical_formula_sum "Si O2"
_cell_formula_units_Z 64
_cell_length_a 7.588205
_cell_length_b 24.692785
_cell_length_c 15.708076
_cell_angle_alpha 90.000000
_cell_angle_beta 90.000000
_cell_angle_gamma 90.000000
_cell_volume 2943.283691
_symmetry_space_group_name_H-M "C M C 21"
_symmetry_group_IT_number 36
_symmetry_cell_setting 'orthorhombic'
loop_
_space_group_symop_operation_xyz
x,y,z
-x,-y,1/2+z
x,-y,1/2+z
-x,y,z
1/2+x,1/2+y,z
1/2-x,1/2-y,1/2+z
1/2+x,1/2-y,1/2+z
1/2-x,1/2+y,z
loop_
_atom_site_type_symbol
_atom_site_label
_atom_site_fract_x
_atom_site_fract_y
_atom_site_fract_z
Si Si1 0.715899 0.925493 0.827890
Si Si2 0.210408 0.768782 0.162280
Si Si3 0.198992 0.116570 0.702273
Si Si4 0.284687 0.199578 0.324654
Si Si5 0.789804 0.776238 0.478249
Si Si6 0.796478 0.616131 0.888287
Si Si7 0.215800 0.505158 0.975616
Si Si8 0.296865 0.996073 0.667901
O O1 0.500000 0.926699 0.827583
O O2 0.771481 0.863009 0.823569
O O3 0.777079 0.960064 0.745390
O O4 0.770975 0.955551 0.915050
O O5 0.281388 0.830245 0.159854
O O6 0.275463 0.733349 0.241919
O O7 0.242874 0.740078 0.073367
O O8 0.000000 0.774606 0.174730
O O9 0.196306 0.130352 0.802285
O O10 0.291907 0.059193 0.692531
O O11 0.000000 0.108434 0.670427
O O12 0.500000 0.198900 0.323480
O O13 0.228817 0.231679 0.409328
O O14 0.715616 0.834467 0.452990
O O15 0.000000 0.779636 0.471007
O O16 0.000000 0.607931 0.863908
O O17 0.731992 0.560553 0.929151
O O18 0.280149 0.506793 0.072808
O O19 0.000000 0.503470 0.978489
O O20 0.500000 0.978272 0.660124
#
# Coordination Sequence:
#
# PCOD9351741 Si02
#       8
#     8   8   8   8   8   8   8   8
#     4   9  17  32  54  82 113 144 186 236 280 332
#     4  10  22  40  59  83 115 156 198 234 287 353
#     4  11  22  39  60  84 120 156 192 242 296 348
#     4   9  19  36  57  80 115 155 189 235 293 344
#     4  11  23  39  59  89 119 151 195 244 297 348
#     4  11  21  38  63  87 114 153 199 244 291 346
#     4   9  19  33  55  88 114 141 191 242 280 334
#     4  10  20  35  59  87 112 144 192 241 286 341
#
# _framework density 21.744420999999999
#
# number of rings (size 3 to 8) (size 9 to 14) (size 15 to 20)
#    0.000    2.000    2.500    1.125    3.500    1.000 
#    0.000    1.250    0.000    1.500    0.000    0.000 
#    0.000    0.000    0.000    0.000    0.000    0.000 
#
# Total GULP energy -178766.580024 kJ/mol
# GULP energy per Si atom -5586.455626 kJ/mol
# Density = 2.169493 g / cm^3
# Si number density = 21.744421 Si / 1000 Ang^3
#
#
#
# Elastic Constant Matrix: (Units=GPa)
#
#
# Indices 1 2 3 4 5 6 
#
# 1 48.5328 -0.0325 -2.1565 0.0000 0.0000 0.0000
# 2 -0.0325 111.3935 11.0762 0.0000 0.0000 0.0000
# 3 -2.1565 11.0762 89.9431 0.0000 0.0000 0.0000
# 4 0.0000 0.0000 0.0000 34.1538 0.0000 0.0000
# 5 0.0000 0.0000 0.0000 0.0000 11.3267 0.0000
# 6 0.0000 0.0000 0.0000 0.0000 0.0000 1.0269
#
#
#
# Elastic Compliance Matrix: (Units=1/GPa)
#
#
# Indices 1 2 3 4 5 6 
#
# 1 0.020627 -0.000044 0.000500 0.000000 0.000000 0.000000
# 2 -0.000044 0.009089 -0.001120 0.000000 0.000000 0.000000
# 3 0.000500 -0.001120 0.011268 0.000000 0.000000 0.000000
# 4 0.000000 0.000000 0.000000 0.029279 0.000000 0.000000
# 5 0.000000 0.000000 0.000000 0.000000 0.088287 0.000000
# 6 0.000000 0.000000 0.000000 0.000000 0.000000 0.973836
#
#
# Mechanical properties :
#
#
# Convention : Reuss Voigt Hill
#
# Bulk Modulus (GPa) = 25.21724 29.73820 27.47772
# Shear Modulus (GPa) = 4.35946 25.36695 14.86320
#
# Velocity S-wave (km/s) = 1.41747 3.41925 2.61730
# Velocity P-wave (km/s) = 3.78170 5.41242 4.66881
#
# Compressibility (1/GPa) = 0.03965541
#
# Stress axis : x y z
#
# Youngs Moduli (GPa) = 48.48057 110.02832 88.74622
#
# Poissons Ratio (x) = 0.00481 -0.04437
# Poissons Ratio (y) = 0.00212 0.09942
# Poissons Ratio (z) = -0.02424 0.12326
#
# Static dielectric constant tensor:
#      x y z
#    x 1.825870 0.000000 0.000000 
#    y 0.000000 1.788840 0.000000 
#    z 0.000000 0.000000 1.769820 
# 
# From -- ./inp_files/10955.got.cif
#   From: 2010.05.17/outbox.cif.g08.bks.cpg/sg36_6_cif.got.tgz:10955.got - 2010.06.03 17:41:39.
