data_PCOD9351798
_publ_section_title
;
Structure prediction by ZEFSAII (Michael W. Deem and Ramdas Pophale) SiO2 
 PCOD9351798
Probable space group: C M C 21
;
_chemical_formula_sum "Si O2"
_cell_formula_units_Z 64
_cell_length_a 7.843662
_cell_length_b 30.137741
_cell_length_c 12.750170
_cell_angle_alpha 90.000000
_cell_angle_beta 90.000000
_cell_angle_gamma 90.000000
_cell_volume 3014.015923
_symmetry_space_group_name_H-M "C M C 21"
_symmetry_group_IT_number 36
_symmetry_cell_setting 'orthorhombic'
loop_
_space_group_symop_operation_xyz
x,y,z
-x,-y,1/2+z
x,-y,1/2+z
-x,y,z
1/2+x,1/2+y,z
1/2-x,1/2-y,1/2+z
1/2+x,1/2-y,1/2+z
1/2-x,1/2+y,z
loop_
_atom_site_type_symbol
_atom_site_label
_atom_site_fract_x
_atom_site_fract_y
_atom_site_fract_z
Si Si1 0.695928 0.837792 0.364220
Si Si2 0.298874 0.613094 0.656846
Si Si3 0.290685 0.221611 0.052236
Si Si4 0.795628 0.182060 0.494813
Si Si5 0.700367 0.929876 0.695070
Si Si6 0.805047 0.976418 0.257417
Si Si7 0.802538 0.433787 0.464936
Si Si8 0.706003 0.833596 0.757428
O O1 0.500000 0.826266 0.338549
O O2 0.780650 0.853379 0.255969
O O3 0.767815 0.800645 0.442395
O O4 0.695184 0.882004 0.435534
O O5 0.500000 0.605540 0.641470
O O6 0.227747 0.638521 0.555426
O O7 0.227043 0.564672 0.689684
O O8 0.500000 0.219487 0.050263
O O9 0.236166 0.195012 0.156409
O O10 0.236486 0.272723 0.050411
O O11 0.758459 0.183369 0.371578
O O12 0.000000 0.181022 0.506868
O O13 0.500000 0.921110 0.677627
O O14 0.773208 0.938358 0.579658
O O15 0.767730 0.884612 0.745212
O O16 0.718145 0.975961 0.754358
O O17 0.798130 0.958664 0.375312
O O18 0.000000 0.983171 0.224675
O O19 0.000000 0.449446 0.461387
O O20 0.500000 0.832715 0.755611
#
# Coordination Sequence:
#
# PCOD9351798 Si02
#       8
#     8   8   8   8   8   8   8   8
#     4   9  16  31  57  81 102 135 182 233 276 319
#     4   9  20  37  53  76 113 151 184 224 277 332
#     4   9  18  35  58  82 110 145 181 225 280 330
#     4  10  22  38  56  81 118 157 186 221 279 341
#     4  10  20  36  58  82 109 143 187 236 284 333
#     4  10  21  35  53  80 113 149 189 230 280 338
#     4   9  17  33  55  78 104 139 184 233 281 328
#     4  10  21  39  60  84 113 145 187 234 281 331
#
# _framework density 21.23413
#
# number of rings (size 3 to 8) (size 9 to 14) (size 15 to 20)
#    0.000    2.500    1.250    0.375    1.750    3.000 
#    0.000    3.750    0.000    0.000    0.000    0.000 
#    0.000    0.000    0.000    0.000    0.000    0.000 
#
# Total GULP energy -178431.996562 kJ/mol
# GULP energy per Si atom -5575.999893 kJ/mol
# Density = 2.118580 g / cm^3
# Si number density = 21.234130 Si / 1000 Ang^3
#
#
#
# Elastic Constant Matrix: (Units=GPa)
#
#
# Indices 1 2 3 4 5 6 
#
# 1 22.0440 3.3131 -5.0539 0.0000 0.0000 0.0000
# 2 3.3131 120.5232 46.8618 0.0000 0.0000 0.0000
# 3 -5.0539 46.8618 62.1713 0.0000 0.0000 0.0000
# 4 0.0000 0.0000 0.0000 19.9063 0.0000 0.0000
# 5 0.0000 0.0000 0.0000 0.0000 19.4951 0.0000
# 6 0.0000 0.0000 0.0000 0.0000 0.0000 7.9137
#
#
#
# Elastic Compliance Matrix: (Units=1/GPa)
#
#
# Indices 1 2 3 4 5 6 
#
# 1 0.047534 -0.003974 0.006859 0.000000 0.000000 0.000000
# 2 -0.003974 0.012069 -0.009420 0.000000 0.000000 0.000000
# 3 0.006859 -0.009420 0.023743 0.000000 0.000000 0.000000
# 4 0.000000 0.000000 0.000000 0.050235 0.000000 0.000000
# 5 0.000000 0.000000 0.000000 0.000000 0.051295 0.000000
# 6 0.000000 0.000000 0.000000 0.000000 0.000000 0.126363
#
#
# Mechanical properties :
#
#
# Convention : Reuss Voigt Hill
#
# Bulk Modulus (GPa) = 14.22957 32.77562 23.50259
# Shear Modulus (GPa) = 14.37884 20.10418 17.24151
#
# Velocity S-wave (km/s) = 2.60505 3.08033 2.85260
# Velocity P-wave (km/s) = 3.97041 5.30284 4.68424
#
# Compressibility (1/GPa) = 0.07027617
#
# Stress axis : x y z
#
# Youngs Moduli (GPa) = 21.03771 82.85598 42.11828
#
# Poissons Ratio (x) = 0.32924 -0.28890
# Poissons Ratio (y) = 0.08360 0.39676
# Poissons Ratio (z) = -0.14430 0.78052
#
# Static dielectric constant tensor:
#      x y z
#    x 1.807060 0.000000 0.000000 
#    y 0.000000 1.787310 0.000000 
#    z 0.000000 0.000000 1.755390 
# 
# From -- ./inp_files/7075.got.cif
#   From: 2010.05.17/outbox.cif.g08.bks.cpg/sg36_4_cif.got.tgz:7075.got - 2010.06.03 17:41:39.
