data_PCOD9351502
_publ_section_title
;
Structure prediction by ZEFSAII (Michael W. Deem and Ramdas Pophale) SiO2 
 PCOD9351502
Probable space group: C M C 21
;
_chemical_formula_sum "Si O2"
_cell_formula_units_Z 48
_cell_length_a 8.906330
_cell_length_b 16.046370
_cell_length_c 14.036911
_cell_angle_alpha 90.000000
_cell_angle_beta 90.000000
_cell_angle_gamma 90.000000
_cell_volume 2006.074840
_symmetry_space_group_name_H-M "C M C 21"
_symmetry_group_IT_number 36
_symmetry_cell_setting 'orthorhombic'
loop_
_space_group_symop_operation_xyz
x,y,z
-x,-y,1/2+z
x,-y,1/2+z
-x,y,z
1/2+x,1/2+y,z
1/2-x,1/2-y,1/2+z
1/2+x,1/2-y,1/2+z
1/2-x,1/2+y,z
loop_
_atom_site_type_symbol
_atom_site_label
_atom_site_fract_x
_atom_site_fract_y
_atom_site_fract_z
Si Si1 0.827909 0.208929 0.021470
Si Si2 0.823098 0.206527 0.693486
Si Si3 0.321720 0.357398 0.808427
Si Si4 0.326791 0.118883 0.853704
Si Si5 0.327325 0.053553 0.471368
Si Si6 0.170017 0.032414 0.136444
O O1 0.764895 0.276855 0.095239
O O2 0.829753 0.121459 0.080338
O O3 0.000000 0.225700 0.993094
O O4 0.725638 0.187956 0.930912
O O5 0.773966 0.284641 0.760046
O O6 0.772795 0.129386 0.759268
O O7 0.000000 0.207011 0.676442
O O8 0.500000 0.340085 0.801311
O O9 0.272668 0.380546 0.914467
O O10 0.290357 0.438438 0.742147
O O11 0.500000 0.132081 0.827157
O O12 0.314652 0.032161 0.909989
O O13 0.500000 0.079159 0.470834
O O14 0.274075 0.028385 0.576320
O O15 0.000000 0.999928 0.133508
#
# Coordination Sequence:
#
# PCOD9351502 Si02
#       6
#     8   8   8   8   8   8
#     4   9  17  32  53  76 102 135 175 213 254 308
#     4  11  21  34  54  79 106 137 175 216 259 308
#     4  10  20  35  55  77 104 137 173 214 258 306
#     4  10  20  35  54  78 107 138 174 215 260 308
#     4  10  20  33  53  79 105 134 169 212 257 305
#     4   8  16  31  51  73  98 133 172 208 250 303
#
# _framework density 23.927323999999999
#
# number of rings (size 3 to 8) (size 9 to 14) (size 15 to 20)
#    0.000    2.333    0.000    4.500    0.000    6.667 
#    0.000    1.667    0.000    4.000    0.000    0.000 
#    0.000    0.000    0.000    0.000    0.000    0.000 
#
# Total GULP energy -134345.873768 kJ/mol
# GULP energy per Si atom -5597.744740 kJ/mol
# Density = 2.387286 g / cm^3
# Si number density = 23.927324 Si / 1000 Ang^3
#
#
#
# Elastic Constant Matrix: (Units=GPa)
#
#
# Indices 1 2 3 4 5 6 
#
# 1 82.0574 8.1193 16.8937 0.0000 0.0000 0.0000
# 2 8.1193 93.6921 6.3039 0.0000 0.0000 0.0000
# 3 16.8937 6.3039 89.1835 0.0000 0.0000 0.0000
# 4 0.0000 0.0000 0.0000 46.5208 0.0000 0.0000
# 5 0.0000 0.0000 0.0000 0.0000 35.3857 0.0000
# 6 0.0000 0.0000 0.0000 0.0000 0.0000 13.5320
#
#
#
# Elastic Compliance Matrix: (Units=1/GPa)
#
#
# Indices 1 2 3 4 5 6 
#
# 1 0.012764 -0.000948 -0.002351 0.000000 0.000000 0.000000
# 2 -0.000948 0.010795 -0.000583 0.000000 0.000000 0.000000
# 3 -0.002351 -0.000583 0.011699 0.000000 0.000000 0.000000
# 4 0.000000 0.000000 0.000000 0.021496 0.000000 0.000000
# 5 0.000000 0.000000 0.000000 0.000000 0.028260 0.000000
# 6 0.000000 0.000000 0.000000 0.000000 0.000000 0.073899
#
#
# Mechanical properties :
#
#
# Convention : Reuss Voigt Hill
#
# Bulk Modulus (GPa) = 36.37183 36.39631 36.38407
# Shear Modulus (GPa) = 28.43452 34.66208 31.54830
#
# Velocity S-wave (km/s) = 3.45101 3.81023 3.63506
# Velocity P-wave (km/s) = 5.57793 5.88229 5.73213
#
# Compressibility (1/GPa) = 0.02749380
#
# Stress axis : x y z
#
# Youngs Moduli (GPa) = 78.34292 92.63833 85.47442
#
# Poissons Ratio (x) = 0.08782 0.20094
# Poissons Ratio (y) = 0.07427 0.04987
# Poissons Ratio (z) = 0.18418 0.05405
#
# Static dielectric constant tensor:
#      x y z
#    x 1.794880 0.000000 0.000000 
#    y 0.000000 2.014160 0.000000 
#    z 0.000000 0.000000 1.891660 
# 
# From -- ./inp_files/10345.got.cif
#   From: 2010.05.17/outbox.cif.g08.bks.cpg/sg36_6_cif.got.tgz:10345.got - 2010.06.03 17:41:39.
