data_PCOD9351873
_publ_section_title
;
Structure prediction by ZEFSAII (Michael W. Deem and Ramdas Pophale) SiO2 
 PCOD9351873
Probable space group: C M C 21
;
_chemical_formula_sum "Si O2"
_cell_formula_units_Z 64
_cell_length_a 27.710447
_cell_length_b 7.138773
_cell_length_c 12.845878
_cell_angle_alpha 90.000000
_cell_angle_beta 90.000000
_cell_angle_gamma 90.000000
_cell_volume 2541.153484
_symmetry_space_group_name_H-M "C M C 21"
_symmetry_group_IT_number 36
_symmetry_cell_setting 'orthorhombic'
loop_
_space_group_symop_operation_xyz
x,y,z
-x,-y,1/2+z
x,-y,1/2+z
-x,y,z
1/2+x,1/2+y,z
1/2-x,1/2-y,1/2+z
1/2+x,1/2-y,1/2+z
1/2-x,1/2+y,z
loop_
_atom_site_type_symbol
_atom_site_label
_atom_site_fract_x
_atom_site_fract_y
_atom_site_fract_z
Si Si1 0.110192 0.802873 0.787220
Si Si2 0.213061 0.449782 0.675664
Si Si3 0.696756 0.214818 0.479738
Si Si4 0.879804 0.985716 0.567510
Si Si5 0.554884 0.219328 0.979027
Si Si6 0.555805 0.778642 0.924231
Si Si7 0.869643 0.372738 0.783111
Si Si8 0.714029 0.715212 0.322091
O O1 0.112740 0.925506 0.685800
O O2 0.065775 0.809301 0.865321
O O3 0.113297 0.583041 0.754420
O O4 0.160633 0.855210 0.847792
O O5 0.206968 0.559330 0.568898
O O6 0.169811 0.304067 0.698031
O O7 0.263756 0.374080 0.716049
O O8 0.204744 0.583100 0.774659
O O9 0.672688 0.401925 0.530156
O O10 0.746735 0.234807 0.413801
O O11 0.657408 0.146934 0.395740
O O12 0.917362 0.856084 0.503462
O O13 0.901796 0.191747 0.546208
O O14 0.500000 0.257628 0.013565
O O15 0.560209 0.995459 0.963622
O O16 0.500000 0.734340 0.917667
O O17 0.581590 0.765541 0.811788
#
# Coordination Sequence:
#
# PCOD9351873 Si02
#       8
#     8   8   8   8   8   8   8   8
#     4  10  21  41  62  91 129 169 217 266 328 388
#     4  10  20  37  55  85 124 161 216 256 320 384
#     4  10  20  36  62  86 125 169 210 271 320 384
#     4  11  21  40  69  92 127 175 216 261 331 395
#     4  10  23  41  64  98 134 165 216 276 324 386
#     4   9  19  38  65  94 125 165 211 266 332 388
#     4   8  17  36  57  83 119 157 205 262 316 379
#     4  10  22  35  57  89 122 163 218 268 315 388
#
# _framework density 25.185410999999998
#
# number of rings (size 3 to 8) (size 9 to 14) (size 15 to 20)
#    0.000    2.250    2.500    0.375    1.750    5.000 
#    0.000    6.250    0.000    3.000    0.000    0.000 
#    0.000    0.000    0.000    0.000    0.000    0.000 
#
# Total GULP energy -178509.705550 kJ/mol
# GULP energy per Si atom -5578.428298 kJ/mol
# Density = 2.512809 g / cm^3
# Si number density = 25.185411 Si / 1000 Ang^3
#
#
#
# Elastic Constant Matrix: (Units=GPa)
#
#
# Indices 1 2 3 4 5 6 
#
# 1 133.1285 7.2500 38.0609 0.0000 0.0000 0.0000
# 2 7.2500 55.6168 18.5219 0.0000 0.0000 0.0000
# 3 38.0609 18.5219 51.9650 0.0000 0.0000 0.0000
# 4 0.0000 0.0000 0.0000 40.5420 0.0000 0.0000
# 5 0.0000 0.0000 0.0000 0.0000 32.4612 0.0000
# 6 0.0000 0.0000 0.0000 0.0000 0.0000 36.7855
#
#
#
# Elastic Compliance Matrix: (Units=1/GPa)
#
#
# Indices 1 2 3 4 5 6 
#
# 1 0.009575 0.001234 -0.007453 0.000000 0.000000 0.000000
# 2 0.001234 0.020561 -0.008232 0.000000 0.000000 0.000000
# 3 -0.007453 -0.008232 0.027637 0.000000 0.000000 0.000000
# 4 0.000000 0.000000 0.000000 0.024666 0.000000 0.000000
# 5 0.000000 0.000000 0.000000 0.000000 0.030806 0.000000
# 6 0.000000 0.000000 0.000000 0.000000 0.000000 0.027185
#
#
# Mechanical properties :
#
#
# Convention : Reuss Voigt Hill
#
# Bulk Modulus (GPa) = 34.63792 40.93068 37.78430
# Shear Modulus (GPa) = 27.93999 33.74957 30.84478
#
# Velocity S-wave (km/s) = 3.33434 3.66463 3.50338
# Velocity P-wave (km/s) = 5.34853 5.84748 5.60356
#
# Compressibility (1/GPa) = 0.02887009
#
# Stress axis : x y z
#
# Youngs Moduli (GPa) = 104.43760 48.63605 36.18382
#
# Poissons Ratio (x) = -0.06001 0.26967
# Poissons Ratio (y) = -0.12886 0.29787
# Poissons Ratio (z) = 0.77836 0.40038
#
# Static dielectric constant tensor:
#      x y z
#    x 2.662280 0.000000 0.000000 
#    y 0.000000 2.268230 0.000000 
#    z 0.000000 0.000000 2.000910 
# 
# From -- ./inp_files/9751.got.cif
#   From: 2010.05.17/outbox.cif.g08.bks.cpg/sg36_5_cif.got.tgz:9751.got - 2010.06.03 17:41:39.
