data_PCOD9351128
_publ_section_title
;
Structure prediction by ZEFSAII (Michael W. Deem and Ramdas Pophale) SiO2 
 PCOD9351128
Probable space group: C M C 21
;
_chemical_formula_sum "Si O2"
_cell_formula_units_Z 44
_cell_length_a 30.689629
_cell_length_b 10.167654
_cell_length_c 5.015715
_cell_angle_alpha 90.000000
_cell_angle_beta 90.000000
_cell_angle_gamma 90.000000
_cell_volume 1565.111378
_symmetry_space_group_name_H-M "C M C 21"
_symmetry_group_IT_number 36
_symmetry_cell_setting 'orthorhombic'
loop_
_space_group_symop_operation_xyz
x,y,z
-x,-y,1/2+z
x,-y,1/2+z
-x,y,z
1/2+x,1/2+y,z
1/2-x,1/2-y,1/2+z
1/2+x,1/2-y,1/2+z
1/2-x,1/2+y,z
loop_
_atom_site_type_symbol
_atom_site_label
_atom_site_fract_x
_atom_site_fract_y
_atom_site_fract_z
Si Si1 0.826354 0.573381 0.174920
Si Si2 0.411899 0.096832 0.015802
Si Si3 0.500000 0.904356 0.660103
Si Si4 0.952372 0.096138 0.097305
Si Si5 0.860114 0.906516 0.719016
Si Si6 0.237577 0.810997 0.744001
O O1 0.833953 0.550710 0.483364
O O2 0.865363 0.665924 0.070006
O O3 0.776514 0.602623 0.121615
O O4 0.413759 0.976877 0.234700
O O5 0.455712 0.173031 0.094022
O O6 0.500000 0.026222 0.446981
O O7 0.905908 0.168330 0.150580
O O8 0.000000 0.165216 0.114965
O O9 0.951688 0.980458 0.318234
O O10 0.812350 0.841634 0.684899
O O11 0.860742 0.027374 0.508633
O O12 0.251801 0.687467 0.558217
#
# Coordination Sequence:
#
# PCOD9351128 Si02
#       6
#     8   8   4   8   8   8
#     4  10  19  34  53  72  94 126 166 205 244 291
#     4   8  14  23  40  64  88 112 143 187 233 270
#     4   8  12  20  34  60  90 108 134 182 236 274
#     4   8  14  25  45  75 103 123 157 209 256 300
#     4  10  19  34  55  77 103 137 175 214 257 308
#     4  12  24  36  50  74 103 138 170 210 256 301
#
# _framework density 28.113018
#
# number of rings (size 3 to 8) (size 9 to 14) (size 15 to 20)
#    0.000    2.545    0.000    3.273    0.000    0.000 
#    0.000    0.000    0.000    0.000    4.727    0.000 
#    0.000    0.000    0.000    0.000    0.000    0.000 
#
# Total GULP energy -122810.008271 kJ/mol
# GULP energy per Si atom -5582.273103 kJ/mol
# Density = 2.804903 g / cm^3
# Si number density = 28.113018 Si / 1000 Ang^3
#
#
#
# Elastic Constant Matrix: (Units=GPa)
#
#
# Indices 1 2 3 4 5 6 
#
# 1 319.9364 33.9431 14.8596 0.0000 0.0000 0.0000
# 2 33.9431 44.1886 15.2635 0.0000 0.0000 0.0000
# 3 14.8596 15.2635 149.7379 0.0000 0.0000 0.0000
# 4 0.0000 0.0000 0.0000 19.0853 0.0000 0.0000
# 5 0.0000 0.0000 0.0000 0.0000 45.6812 0.0000
# 6 0.0000 0.0000 0.0000 0.0000 0.0000 37.8859
#
#
#
# Elastic Compliance Matrix: (Units=1/GPa)
#
#
# Indices 1 2 3 4 5 6 
#
# 1 0.003404 -0.002589 -0.000074 0.000000 0.000000 0.000000
# 2 -0.002589 0.025425 -0.002335 0.000000 0.000000 0.000000
# 3 -0.000074 -0.002335 0.006924 0.000000 0.000000 0.000000
# 4 0.000000 0.000000 0.000000 0.052396 0.000000 0.000000
# 5 0.000000 0.000000 0.000000 0.000000 0.021891 0.000000
# 6 0.000000 0.000000 0.000000 0.000000 0.000000 0.026395
#
#
# Mechanical properties :
#
#
# Convention : Reuss Voigt Hill
#
# Bulk Modulus (GPa) = 38.82370 71.33281 55.07825
# Shear Modulus (GPa) = 32.25465 50.51691 41.38578
#
# Velocity S-wave (km/s) = 3.39089 4.24361 3.84099
# Velocity P-wave (km/s) = 5.40099 7.03133 6.26938
#
# Compressibility (1/GPa) = 0.02575746
#
# Stress axis : x y z
#
# Youngs Moduli (GPa) = 293.79519 39.33061 144.43217
#
# Poissons Ratio (x) = 0.10183 0.01067
# Poissons Ratio (y) = 0.76065 0.33722
# Poissons Ratio (z) = 0.02170 0.09183
#
# Static dielectric constant tensor:
#      x y z
#    x 2.438120 0.000000 0.000000 
#    y 0.000000 2.379660 0.000000 
#    z 0.000000 0.000000 2.155440 
# 
# From -- ./inp_files/1845.got.cif
#   From: 2010.05.17/outbox.cif.g08.bks.cpg/sg36_1_cif.got.tgz:1845.got - 2010.06.03 17:41:39.
