data_PCOD9351957
_publ_section_title
;
Structure prediction by ZEFSAII (Michael W. Deem and Ramdas Pophale) SiO2 
 PCOD9351957
Probable space group: C M C 21
;
_chemical_formula_sum "Si O2"
_cell_formula_units_Z 64
_cell_length_a 18.220432
_cell_length_b 14.766655
_cell_length_c 11.856681
_cell_angle_alpha 90.000000
_cell_angle_beta 90.000000
_cell_angle_gamma 90.000000
_cell_volume 3190.097330
_symmetry_space_group_name_H-M "C M C 21"
_symmetry_group_IT_number 36
_symmetry_cell_setting 'orthorhombic'
loop_
_space_group_symop_operation_xyz
x,y,z
-x,-y,1/2+z
x,-y,1/2+z
-x,y,z
1/2+x,1/2+y,z
1/2-x,1/2-y,1/2+z
1/2+x,1/2-y,1/2+z
1/2-x,1/2+y,z
loop_
_atom_site_type_symbol
_atom_site_label
_atom_site_fract_x
_atom_site_fract_y
_atom_site_fract_z
Si Si1 0.918265 0.853276 0.186590
Si Si2 0.916344 0.582597 0.436697
Si Si3 0.344680 0.105625 0.967087
Si Si4 0.801055 0.302897 0.079986
Si Si5 0.643247 0.693564 0.454944
Si Si6 0.267262 0.430050 0.269143
Si Si7 0.295933 0.360984 0.732834
Si Si8 0.641344 0.160007 0.221125
O O1 0.902256 0.857589 0.051799
O O2 0.851117 0.895777 0.256748
O O3 0.910217 0.746039 0.208006
O O4 0.000000 0.885584 0.213412
O O5 0.898299 0.479163 0.462690
O O6 0.863348 0.650058 0.505351
O O7 0.897295 0.592301 0.304799
O O8 0.000000 0.605233 0.459425
O O9 0.273187 0.080378 0.890786
O O10 0.377904 0.202262 0.929600
O O11 0.334940 0.122513 0.100061
O O12 0.724792 0.298549 0.010579
O O13 0.782088 0.370426 0.183752
O O14 0.820151 0.202874 0.128859
O O15 0.648009 0.644188 0.336281
O O16 0.273345 0.533795 0.226685
O O17 0.220100 0.311676 0.771738
#
# Coordination Sequence:
#
# PCOD9351957 Si02
#       8
#     8   8   8   8   8   8   8   8
#     4  10  22  41  64  91 126 170 223 273 333 398
#     4  12  27  42  62  97 141 176 215 275 344 411
#     4  11  21  38  65  95 133 170 223 268 335 409
#     4  11  22  40  66  94 133 169 228 274 332 396
#     4  10  20  37  61  94 126 170 216 275 324 398
#     4  11  22  39  68 100 129 174 229 284 331 404
#     4  12  20  38  66  98 125 167 225 281 326 394
#     4  11  21  41  64  93 126 172 215 274 332 402
#
# _framework density 20.062083000000001
#
# number of rings (size 3 to 8) (size 9 to 14) (size 15 to 20)
#    0.000    1.000    7.500    1.125    0.000    3.500 
#    0.000    1.875    0.000    0.000    0.000    0.000 
#    0.000    0.000    0.000    0.000    0.000    0.000 
#
# Total GULP energy -178378.000753 kJ/mol
# GULP energy per Si atom -5574.312524 kJ/mol
# Density = 2.001642 g / cm^3
# Si number density = 20.062083 Si / 1000 Ang^3
#
#
#
# Elastic Constant Matrix: (Units=GPa)
#
#
# Indices 1 2 3 4 5 6 
#
# 1 102.8245 10.8700 26.0875 0.0000 0.0000 0.0000
# 2 10.8700 92.6811 31.2288 0.0000 0.0000 0.0000
# 3 26.0875 31.2288 78.5574 0.0000 0.0000 0.0000
# 4 0.0000 0.0000 0.0000 11.4265 0.0000 0.0000
# 5 0.0000 0.0000 0.0000 0.0000 12.0960 0.0000
# 6 0.0000 0.0000 0.0000 0.0000 0.0000 15.7651
#
#
#
# Elastic Compliance Matrix: (Units=1/GPa)
#
#
# Indices 1 2 3 4 5 6 
#
# 1 0.010620 -0.000066 -0.003501 0.000000 0.000000 0.000000
# 2 -0.000066 0.012459 -0.004931 0.000000 0.000000 0.000000
# 3 -0.003501 -0.004931 0.015852 0.000000 0.000000 0.000000
# 4 0.000000 0.000000 0.000000 0.087516 0.000000 0.000000
# 5 0.000000 0.000000 0.000000 0.000000 0.082672 0.000000
# 6 0.000000 0.000000 0.000000 0.000000 0.000000 0.063431
#
#
# Mechanical properties :
#
#
# Convention : Reuss Voigt Hill
#
# Bulk Modulus (GPa) = 45.58609 45.60393 45.59501
# Shear Modulus (GPa) = 16.84308 21.58262 19.21285
#
# Velocity S-wave (km/s) = 2.90064 3.28348 3.09798
# Velocity P-wave (km/s) = 5.83010 6.09555 5.96431
#
# Compressibility (1/GPa) = 0.02193651
#
# Stress axis : x y z
#
# Youngs Moduli (GPa) = 94.15818 80.26408 63.08285
#
# Poissons Ratio (x) = 0.00530 0.22083
# Poissons Ratio (y) = 0.00622 0.31105
# Poissons Ratio (z) = 0.32961 0.39577
#
# Static dielectric constant tensor:
#      x y z
#    x 1.716800 0.000000 0.000000 
#    y 0.000000 1.761880 0.000000 
#    z 0.000000 0.000000 1.786110 
# 
# From -- ./inp_files/9010.got.cif
#   From: 2010.05.17/outbox.cif.g08.bks.cpg/sg36_5_cif.got.tgz:9010.got - 2010.06.03 17:41:39.
