data_PCOD9351622
_publ_section_title
;
Structure prediction by ZEFSAII (Michael W. Deem and Ramdas Pophale) SiO2 
 PCOD9351622
Probable space group: C M C 21
;
_chemical_formula_sum "Si O2"
_cell_formula_units_Z 28
_cell_length_a 9.587681
_cell_length_b 25.555204
_cell_length_c 4.939033
_cell_angle_alpha 90.000000
_cell_angle_beta 90.000000
_cell_angle_gamma 90.000000
_cell_volume 1210.137881
_symmetry_space_group_name_H-M "C M C 21"
_symmetry_group_IT_number 36
_symmetry_cell_setting 'orthorhombic'
loop_
_space_group_symop_operation_xyz
x,y,z
-x,-y,1/2+z
x,-y,1/2+z
-x,y,z
1/2+x,1/2+y,z
1/2-x,1/2-y,1/2+z
1/2+x,1/2-y,1/2+z
1/2-x,1/2+y,z
loop_
_atom_site_type_symbol
_atom_site_label
_atom_site_fract_x
_atom_site_fract_y
_atom_site_fract_z
Si Si1 0.000000 0.463077 0.637930
Si Si2 0.152918 0.618201 0.467770
Si Si3 0.338548 0.538304 0.750352
Si Si4 0.329681 0.228410 0.193166
O O1 0.000000 0.486194 0.337697
O O2 0.876730 0.424893 0.734450
O O3 0.253041 0.590024 0.677394
O O4 0.195736 0.671260 0.323127
O O5 0.000000 0.628079 0.597818
O O6 0.313633 0.495603 0.516090
O O7 0.500000 0.553439 0.748713
O O8 0.500000 0.236481 0.176260
O O9 0.247977 0.266169 0.404799
#
# Coordination Sequence:
#
# PCOD9351622 Si02
#       4
#     4   8   8   8
#     4  10  20  34  60  92 124 158 202 264 336 390
#     4   9  22  40  61  92 121 161 217 267 322 396
#     4  10  21  36  55  84 122 158 195 244 312 390
#     4  11  25  46  69  99 133 179 230 294 346 409
#
# _framework density 23.13786
#
# number of rings (size 3 to 8) (size 9 to 14) (size 15 to 20)
#    0.857    1.143    0.000    2.571    0.000    6.857 
#    0.000    2.857    0.000    0.000    0.000    0.000 
#    0.000    0.000    0.000    0.000    0.000    0.000 
#
# Total GULP energy -78214.414662 kJ/mol
# GULP energy per Si atom -5586.743904 kJ/mol
# Density = 2.308520 g / cm^3
# Si number density = 23.137860 Si / 1000 Ang^3
#
#
#
# Elastic Constant Matrix: (Units=GPa)
#
#
# Indices 1 2 3 4 5 6 
#
# 1 89.6023 12.0497 15.7507 0.0000 0.0000 0.0000
# 2 12.0497 69.7100 -13.3309 0.0000 0.0000 0.0000
# 3 15.7507 -13.3309 111.6920 0.0000 0.0000 0.0000
# 4 0.0000 0.0000 0.0000 33.9276 0.0000 0.0000
# 5 0.0000 0.0000 0.0000 0.0000 27.6062 0.0000
# 6 0.0000 0.0000 0.0000 0.0000 0.0000 32.2619
#
#
#
# Elastic Compliance Matrix: (Units=1/GPa)
#
#
# Indices 1 2 3 4 5 6 
#
# 1 0.011830 -0.002419 -0.001957 0.000000 0.000000 0.000000
# 2 -0.002419 0.015175 0.002152 0.000000 0.000000 0.000000
# 3 -0.001957 0.002152 0.009486 0.000000 0.000000 0.000000
# 4 0.000000 0.000000 0.000000 0.029474 0.000000 0.000000
# 5 0.000000 0.000000 0.000000 0.000000 0.036224 0.000000
# 6 0.000000 0.000000 0.000000 0.000000 0.000000 0.030996
#
#
# Mechanical properties :
#
#
# Convention : Reuss Voigt Hill
#
# Bulk Modulus (GPa) = 31.20776 33.32703 32.26739
# Shear Modulus (GPa) = 33.71234 35.86148 34.78691
#
# Velocity S-wave (km/s) = 3.82124 3.94115 3.88166
# Velocity P-wave (km/s) = 5.74336 5.92834 5.83658
#
# Compressibility (1/GPa) = 0.03204332
#
# Stress axis : x y z
#
# Youngs Moduli (GPa) = 84.53270 65.89833 105.41794
#
# Poissons Ratio (x) = 0.15941 0.20630
# Poissons Ratio (y) = 0.20449 -0.22689
# Poissons Ratio (z) = 0.16543 -0.14183
#
# Static dielectric constant tensor:
#      x y z
#    x 1.984780 0.000000 0.000000 
#    y 0.000000 1.832470 0.000000 
#    z 0.000000 0.000000 1.901480 
# 
# From -- ./inp_files/424.got.cif
#   From: 2010.05.17/outbox.cif.g08.bks.cpg/sg36_1_cif.got.tgz:424.got - 2010.06.03 17:41:39.
