data_PCOD9351179
_publ_section_title
;
Structure prediction by ZEFSAII (Michael W. Deem and Ramdas Pophale) SiO2 
 PCOD9351179
Probable space group: C M C 21
;
_chemical_formula_sum "Si O2"
_cell_formula_units_Z 64
_cell_length_a 8.873202
_cell_length_b 20.652340
_cell_length_c 20.089019
_cell_angle_alpha 90.000000
_cell_angle_beta 90.000000
_cell_angle_gamma 90.000000
_cell_volume 3681.360636
_symmetry_space_group_name_H-M "C M C 21"
_symmetry_group_IT_number 36
_symmetry_cell_setting 'orthorhombic'
loop_
_space_group_symop_operation_xyz
x,y,z
-x,-y,1/2+z
x,-y,1/2+z
-x,y,z
1/2+x,1/2+y,z
1/2-x,1/2-y,1/2+z
1/2+x,1/2-y,1/2+z
1/2-x,1/2+y,z
loop_
_atom_site_type_symbol
_atom_site_label
_atom_site_fract_x
_atom_site_fract_y
_atom_site_fract_z
Si Si1 0.318060 0.077477 0.035190
Si Si2 0.819515 0.978539 0.284832
Si Si3 0.319322 0.194790 0.941333
Si Si4 0.318017 0.973179 0.923601
Si Si5 0.819290 0.341348 0.289355
Si Si6 0.319570 0.207822 0.256613
Si Si7 0.319728 0.826728 0.909391
Si Si8 0.180296 0.909653 0.679061
O O1 0.500000 0.078452 0.042890
O O2 0.240929 0.073419 0.106307
O O3 0.271996 0.143279 0.996763
O O4 0.279920 0.018080 0.986211
O O5 0.748730 0.909319 0.266694
O O6 0.000000 0.973281 0.287848
O O7 0.755852 0.999494 0.356609
O O8 0.779129 0.033767 0.231415
O O9 0.500000 0.198871 0.942853
O O10 0.278200 0.168227 0.867723
O O11 0.252382 0.266339 0.947369
O O12 0.500000 0.975769 0.914874
O O13 0.273466 0.898213 0.932192
O O14 0.751598 0.279115 0.252178
O O15 0.000000 0.341866 0.284348
O O16 0.500000 0.211264 0.251269
O O17 0.281069 0.181801 0.331079
O O18 0.253510 0.156976 0.204629
O O19 0.500000 0.821927 0.914856
O O20 0.000000 0.903321 0.678617
#
# Coordination Sequence:
#
# PCOD9351179 Si02
#       8
#     8   8   8   8   8   8   8   8
#     4  10  21  38  58  80 109 151 194 234 284 343
#     4  11  22  35  55  84 115 149 193 239 285 335
#     4   9  18  33  54  80 110 142 179 226 278 333
#     4  10  19  36  58  83 112 145 189 235 285 340
#     4  10  19  34  57  84 115 145 183 234 284 334
#     4  10  19  34  57  84 112 145 186 231 283 339
#     4   9  18  31  54  84 111 139 178 229 279 331
#     4  11  24  39  55  81 116 154 194 236 284 343
#
# _framework density 17.384875999999998
#
# number of rings (size 3 to 8) (size 9 to 14) (size 15 to 20)
#    0.000    2.000    2.500    1.500    0.000    4.000 
#    0.000    1.250    0.000    6.000    0.000    0.000 
#    0.000    0.000    0.000    0.000    0.000    0.000 
#
# Total GULP energy -178632.153623 kJ/mol
# GULP energy per Si atom -5582.254801 kJ/mol
# Density = 1.734531 g / cm^3
# Si number density = 17.384876 Si / 1000 Ang^3
#
#
#
# Elastic Constant Matrix: (Units=GPa)
#
#
# Indices 1 2 3 4 5 6 
#
# 1 29.7580 37.0613 27.9217 0.0000 0.0000 0.0000
# 2 37.0613 139.9858 40.8687 0.0000 0.0000 0.0000
# 3 27.9217 40.8687 73.9974 0.0000 0.0000 0.0000
# 4 0.0000 0.0000 0.0000 25.2411 0.0000 0.0000
# 5 0.0000 0.0000 0.0000 0.0000 25.9327 0.0000
# 6 0.0000 0.0000 0.0000 0.0000 0.0000 32.2292
#
#
#
# Elastic Compliance Matrix: (Units=1/GPa)
#
#
# Indices 1 2 3 4 5 6 
#
# 1 0.065643 -0.012098 -0.018087 0.000000 0.000000 0.000000
# 2 -0.012098 0.010747 -0.001370 0.000000 0.000000 0.000000
# 3 -0.018087 -0.001370 0.021096 0.000000 0.000000 0.000000
# 4 0.000000 0.000000 0.000000 0.039618 0.000000 0.000000
# 5 0.000000 0.000000 0.000000 0.000000 0.038561 0.000000
# 6 0.000000 0.000000 0.000000 0.000000 0.000000 0.031028
#
#
# Mechanical properties :
#
#
# Convention : Reuss Voigt Hill
#
# Bulk Modulus (GPa) = 29.09219 50.60497 39.84858
# Shear Modulus (GPa) = 17.77696 25.87324 21.82510
#
# Velocity S-wave (km/s) = 3.20121 3.86198 3.54702
# Velocity P-wave (km/s) = 5.51672 7.00417 6.30446
#
# Compressibility (1/GPa) = 0.03437348
#
# Stress axis : x y z
#
# Youngs Moduli (GPa) = 15.23383 93.05182 47.40288
#
# Poissons Ratio (x) = 1.12579 0.85740
# Poissons Ratio (y) = 0.18431 0.06495
# Poissons Ratio (z) = 0.27554 0.12750
#
# Static dielectric constant tensor:
#      x y z
#    x 1.580640 0.000000 0.000000 
#    y 0.000000 1.591430 0.000000 
#    z 0.000000 0.000000 1.564540 
# 
# From -- ./inp_files/13861.got.cif
#   From: 2010.05.17/outbox.cif.g08.bks.cpg/sg36_7_cif.got.tgz:13861.got - 2010.06.03 17:41:39.
