data_PCOD9351566
_publ_section_title
;
Structure prediction by ZEFSAII (Michael W. Deem and Ramdas Pophale) SiO2 
 PCOD9351566
Probable space group: C M C 21
;
_chemical_formula_sum "Si O2"
_cell_formula_units_Z 64
_cell_length_a 8.395067
_cell_length_b 29.340193
_cell_length_c 12.862685
_cell_angle_alpha 90.000000
_cell_angle_beta 90.000000
_cell_angle_gamma 90.000000
_cell_volume 3168.245064
_symmetry_space_group_name_H-M "C M C 21"
_symmetry_group_IT_number 36
_symmetry_cell_setting 'orthorhombic'
loop_
_space_group_symop_operation_xyz
x,y,z
-x,-y,1/2+z
x,-y,1/2+z
-x,y,z
1/2+x,1/2+y,z
1/2-x,1/2-y,1/2+z
1/2+x,1/2-y,1/2+z
1/2-x,1/2+y,z
loop_
_atom_site_type_symbol
_atom_site_label
_atom_site_fract_x
_atom_site_fract_y
_atom_site_fract_z
Si Si1 0.682622 0.835125 0.313500
Si Si2 0.805738 0.584157 0.950584
Si Si3 0.315862 0.257659 0.175339
Si Si4 0.307064 0.078441 0.189500
Si Si5 0.818474 0.404909 0.117234
Si Si6 0.804591 0.519204 0.763755
Si Si7 0.311523 0.178320 0.497343
Si Si8 0.816418 0.826546 0.775376
O O1 0.500000 0.820694 0.334527
O O2 0.745426 0.866006 0.408093
O O3 0.778821 0.792313 0.270735
O O4 0.676419 0.871168 0.217416
O O5 0.759513 0.574721 0.068402
O O6 0.000000 0.585194 0.946423
O O7 0.754435 0.545364 0.868506
O O8 0.500000 0.245455 0.174083
O O9 0.214876 0.212210 0.190220
O O10 0.270525 0.285058 0.071546
O O11 0.500000 0.081177 0.193374
O O12 0.237265 0.124373 0.235873
O O13 0.257899 0.033010 0.251128
O O14 0.747459 0.451015 0.164247
O O15 0.000000 0.416054 0.084846
O O16 0.748533 0.372454 0.028454
O O17 0.000000 0.521005 0.761720
O O18 0.500000 0.178834 0.521480
O O19 0.283250 0.186560 0.377247
O O20 0.000000 0.827063 0.804943
#
# Coordination Sequence:
#
# PCOD9351566 Si02
#       8
#     8   8   8   8   8   8   8   8
#     4   8  14  29  52  78 110 145 183 229 278 327
#     4   8  15  29  52  82 114 148 187 233 282 332
#     4  11  22  38  60  86 113 144 188 235 285 342
#     4  10  20  34  54  81 112 146 190 241 288 335
#     4   7  12  25  50  82 110 136 172 222 275 329
#     4   8  14  27  51  84 115 144 184 233 282 335
#     4  10  20  38  63  89 115 144 183 231 286 342
#     4  12  26  42  56  76 113 155 193 234 282 334
#
# _framework density 20.200458000000001
#
# number of rings (size 3 to 8) (size 9 to 14) (size 15 to 20)
#    0.000    2.750    0.000    4.875    0.000    2.000 
#    0.000    8.125    0.000    9.750    0.000    0.000 
#    0.000    0.000    0.000    0.000    0.000    0.000 
#
# Total GULP energy -178448.973683 kJ/mol
# GULP energy per Si atom -5576.530428 kJ/mol
# Density = 2.015448 g / cm^3
# Si number density = 20.200458 Si / 1000 Ang^3
#
#
#
# Elastic Constant Matrix: (Units=GPa)
#
#
# Indices 1 2 3 4 5 6 
#
# 1 17.7688 -2.5243 -3.7031 0.0000 0.0000 0.0000
# 2 -2.5243 102.6963 16.5971 0.0000 0.0000 0.0000
# 3 -3.7031 16.5971 59.9710 0.0000 0.0000 0.0000
# 4 0.0000 0.0000 0.0000 21.2532 0.0000 0.0000
# 5 0.0000 0.0000 0.0000 0.0000 15.0472 0.0000
# 6 0.0000 0.0000 0.0000 0.0000 0.0000 22.2011
#
#
#
# Elastic Compliance Matrix: (Units=1/GPa)
#
#
# Indices 1 2 3 4 5 6 
#
# 1 0.057087 0.000873 0.003284 0.000000 0.000000 0.000000
# 2 0.000873 0.010207 -0.002771 0.000000 0.000000 0.000000
# 3 0.003284 -0.002771 0.017644 0.000000 0.000000 0.000000
# 4 0.000000 0.000000 0.000000 0.047052 0.000000 0.000000
# 5 0.000000 0.000000 0.000000 0.000000 0.066457 0.000000
# 6 0.000000 0.000000 0.000000 0.000000 0.000000 0.045043
#
#
# Mechanical properties :
#
#
# Convention : Reuss Voigt Hill
#
# Bulk Modulus (GPa) = 11.40146 22.35283 16.87714
# Shear Modulus (GPa) = 18.52160 23.03807 20.77983
#
# Velocity S-wave (km/s) = 3.03130 3.38075 3.21079
# Velocity P-wave (km/s) = 4.23180 5.13116 4.70303
#
# Compressibility (1/GPa) = 0.08770810
#
# Stress axis : x y z
#
# Youngs Moduli (GPa) = 17.51725 97.97479 56.67545
#
# Poissons Ratio (x) = -0.08549 -0.18610
# Poissons Ratio (y) = -0.01528 0.15704
# Poissons Ratio (z) = -0.05752 0.27147
#
# Static dielectric constant tensor:
#      x y z
#    x 1.699270 0.000000 0.000000 
#    y 0.000000 1.725960 0.000000 
#    z 0.000000 0.000000 1.742920 
# 
# From -- ./inp_files/7237.got.cif
#   From: 2010.05.17/outbox.cif.g08.bks.cpg/sg36_4_cif.got.tgz:7237.got - 2010.06.03 17:41:39.
