data_PCOD9351209
_publ_section_title
;
Structure prediction by ZEFSAII (Michael W. Deem and Ramdas Pophale) SiO2 
 PCOD9351209
Probable space group: C M C 21
;
_chemical_formula_sum "Si O2"
_cell_formula_units_Z 64
_cell_length_a 9.088218
_cell_length_b 14.800970
_cell_length_c 23.275170
_cell_angle_alpha 90.000000
_cell_angle_beta 90.000000
_cell_angle_gamma 90.000000
_cell_volume 3130.846504
_symmetry_space_group_name_H-M "C M C 21"
_symmetry_group_IT_number 36
_symmetry_cell_setting 'orthorhombic'
loop_
_space_group_symop_operation_xyz
x,y,z
-x,-y,1/2+z
x,-y,1/2+z
-x,y,z
1/2+x,1/2+y,z
1/2-x,1/2-y,1/2+z
1/2+x,1/2-y,1/2+z
1/2-x,1/2+y,z
loop_
_atom_site_type_symbol
_atom_site_label
_atom_site_fract_x
_atom_site_fract_y
_atom_site_fract_z
Si Si1 0.674804 0.844940 0.520210
Si Si2 0.330800 0.767731 0.838924
Si Si3 0.830585 0.946753 0.312901
Si Si4 0.676215 0.091428 0.695947
Si Si5 0.676464 0.443386 0.626680
Si Si6 0.675788 0.181830 0.467927
Si Si7 0.675490 0.296983 0.723232
Si Si8 0.326225 0.008720 0.926628
O O1 0.500000 0.844249 0.530116
O O2 0.756816 0.899259 0.569902
O O3 0.738589 0.744824 0.511933
O O4 0.703616 0.899690 0.461121
O O5 0.500000 0.797794 0.835035
O O6 0.326752 0.659658 0.829896
O O7 0.279670 0.790832 0.902843
O O8 0.242888 0.809786 0.786128
O O9 0.735468 0.952738 0.255192
O O10 0.000000 0.972575 0.301672
O O11 0.764123 0.996863 0.367929
O O12 0.500000 0.084791 0.692547
O O13 0.718579 0.197353 0.699878
O O14 0.751608 0.038490 0.643897
O O15 0.500000 0.450531 0.622988
O O16 0.715403 0.373858 0.678151
O O17 0.500000 0.197506 0.474151
O O18 0.704146 0.075066 0.469045
O O19 0.500000 0.296082 0.728984
O O20 0.500000 0.005415 0.912521
#
# Coordination Sequence:
#
# PCOD9351209 Si02
#       8
#     8   8   8   8   8   8   8   8
#     4  11  24  42  61  86 119 158 202 249 296 351
#     4   9  18  33  57  87 120 153 189 236 293 349
#     4  10  19  34  58  89 123 155 192 240 294 350
#     4  10  21  39  61  87 119 155 195 241 294 352
#     4  11  24  42  63  87 117 158 202 247 297 353
#     4  10  21  39  60  86 117 156 197 241 297 351
#     4   9  21  39  59  85 118 155 194 239 295 349
#     4  10  22  38  59  87 119 156 199 243 296 353
#
# _framework density 20.441755000000001
#
# number of rings (size 3 to 8) (size 9 to 14) (size 15 to 20)
#    0.000    2.000    1.250    1.500    1.750    4.500 
#    0.000    5.000    0.000    0.000    0.000    0.000 
#    0.000    0.000    0.000    0.000    0.000    0.000 
#
# Total GULP energy -178829.092330 kJ/mol
# GULP energy per Si atom -5588.409135 kJ/mol
# Density = 2.039523 g / cm^3
# Si number density = 20.441755 Si / 1000 Ang^3
#
#
#
# Elastic Constant Matrix: (Units=GPa)
#
#
# Indices 1 2 3 4 5 6 
#
# 1 38.9044 17.9310 13.7181 0.0000 0.0000 0.0000
# 2 17.9310 57.0422 -2.8605 0.0000 0.0000 0.0000
# 3 13.7181 -2.8605 20.8189 0.0000 0.0000 0.0000
# 4 0.0000 0.0000 0.0000 23.9614 0.0000 0.0000
# 5 0.0000 0.0000 0.0000 0.0000 35.6424 0.0000
# 6 0.0000 0.0000 0.0000 0.0000 0.0000 22.1831
#
#
#
# Elastic Compliance Matrix: (Units=1/GPa)
#
#
# Indices 1 2 3 4 5 6 
#
# 1 0.043604 -0.015253 -0.030827 0.000000 0.000000 0.000000
# 2 -0.015253 0.022988 0.013209 0.000000 0.000000 0.000000
# 3 -0.030827 0.013209 0.070161 0.000000 0.000000 0.000000
# 4 0.000000 0.000000 0.000000 0.041734 0.000000 0.000000
# 5 0.000000 0.000000 0.000000 0.000000 0.028056 0.000000
# 6 0.000000 0.000000 0.000000 0.000000 0.000000 0.045079
#
#
# Mechanical properties :
#
#
# Convention : Reuss Voigt Hill
#
# Bulk Modulus (GPa) = 14.08243 19.37140 16.72692
# Shear Modulus (GPa) = 14.66125 22.22252 18.44188
#
# Velocity S-wave (km/s) = 2.68100 3.30072 3.00687
# Velocity P-wave (km/s) = 4.06051 4.90135 4.50061
#
# Compressibility (1/GPa) = 0.07101047
#
# Stress axis : x y z
#
# Youngs Moduli (GPa) = 22.93366 43.50113 14.25294
#
# Poissons Ratio (x) = 0.66351 0.43938
# Poissons Ratio (y) = 0.34980 -0.18827
# Poissons Ratio (z) = 0.70699 -0.57460
#
# Static dielectric constant tensor:
#      x y z
#    x 1.687140 0.000000 0.000000 
#    y 0.000000 1.760980 0.000000 
#    z 0.000000 0.000000 1.706680 
# 
# From -- ./inp_files/15732.got.cif
#   From: 2010.05.17/outbox.cif.g08.bks.cpg/sg36_8_cif.got.tgz:15732.got - 2010.06.03 17:41:39.
