data_PCOD9351535
_publ_section_title
;
Structure prediction by ZEFSAII (Michael W. Deem and Ramdas Pophale) SiO2 
 PCOD9351535
Probable space group: C M C 21
;
_chemical_formula_sum "Si O2"
_cell_formula_units_Z 64
_cell_length_a 8.398325
_cell_length_b 20.961293
_cell_length_c 20.358449
_cell_angle_alpha 90.000000
_cell_angle_beta 90.000000
_cell_angle_gamma 90.000000
_cell_volume 3583.896293
_symmetry_space_group_name_H-M "C M C 21"
_symmetry_group_IT_number 36
_symmetry_cell_setting 'orthorhombic'
loop_
_space_group_symop_operation_xyz
x,y,z
-x,-y,1/2+z
x,-y,1/2+z
-x,y,z
1/2+x,1/2+y,z
1/2-x,1/2-y,1/2+z
1/2+x,1/2-y,1/2+z
1/2-x,1/2+y,z
loop_
_atom_site_type_symbol
_atom_site_label
_atom_site_fract_x
_atom_site_fract_y
_atom_site_fract_z
Si Si1 0.192372 0.319233 0.507980
Si Si2 0.692492 0.073446 0.109253
Si Si3 0.694085 0.928950 0.107813
Si Si4 0.190702 0.321380 0.855863
Si Si5 0.192625 0.319566 0.356946
Si Si6 0.311052 0.428436 0.756584
Si Si7 0.192458 0.321381 0.006947
Si Si8 0.192545 0.429881 0.258249
O O1 0.249103 0.373603 0.557867
O O2 0.243494 0.330934 0.432514
O O3 0.250326 0.248848 0.527052
O O4 0.000000 0.319476 0.508604
O O5 0.500000 0.073832 0.108604
O O6 0.746098 0.086183 0.183607
O O7 0.743952 0.001339 0.091550
O O8 0.500000 0.928041 0.106707
O O9 0.742784 0.915863 0.183087
O O10 0.749661 0.876190 0.056292
O O11 0.247381 0.250399 0.836985
O O12 0.255100 0.375247 0.807706
O O13 0.244151 0.332259 0.931476
O O14 0.000000 0.323048 0.854638
O O15 0.247290 0.375615 0.308587
O O16 0.000000 0.318588 0.355795
O O17 0.500000 0.429758 0.754060
O O18 0.249308 0.499006 0.775162
O O19 0.000000 0.321615 0.007474
O O20 0.000000 0.430658 0.259097
#
# Coordination Sequence:
#
# PCOD9351535 Si02
#       8
#     8   8   8   8   8   8   8   8
#     4   9  18  32  51  75 103 133 165 205 249 295
#     4   9  18  34  53  72  97 131 169 208 252 301
#     4   8  15  30  51  73  96 125 165 205 239 285
#     4  10  20  34  52  74 103 138 173 210 253 301
#     4   9  18  33  53  78 106 136 171 208 249 299
#     4  11  22  35  52  74 101 132 169 215 259 303
#     4   9  18  32  51  74 101 134 169 205 245 295
#     4   9  18  34  55  76 101 133 167 206 252 303
#
# _framework density 17.857659999999999
#
# number of rings (size 3 to 8) (size 9 to 14) (size 15 to 20)
#    0.000    2.750    0.000    2.250    0.000    3.500 
#    0.000    7.500    0.000    3.000    0.000    0.000 
#    0.000    0.000    0.000    0.000    0.000    0.000 
#
# Total GULP energy -178452.270328 kJ/mol
# GULP energy per Si atom -5576.633448 kJ/mol
# Density = 1.781702 g / cm^3
# Si number density = 17.857660 Si / 1000 Ang^3
#
#
#
# Elastic Constant Matrix: (Units=GPa)
#
#
# Indices 1 2 3 4 5 6 
#
# 1 12.4011 22.2688 18.1981 0.0000 0.0000 0.0000
# 2 22.2688 191.8071 137.1158 0.0000 0.0000 0.0000
# 3 18.1981 137.1158 117.2461 0.0000 0.0000 0.0000
# 4 0.0000 0.0000 0.0000 45.3282 0.0000 0.0000
# 5 0.0000 0.0000 0.0000 0.0000 13.9701 0.0000
# 6 0.0000 0.0000 0.0000 0.0000 0.0000 29.3397
#
#
#
# Elastic Compliance Matrix: (Units=1/GPa)
#
#
# Indices 1 2 3 4 5 6 
#
# 1 0.104761 -0.003286 -0.012417 0.000000 0.000000 0.000000
# 2 -0.003286 0.031895 -0.036790 0.000000 0.000000 0.000000
# 3 -0.012417 -0.036790 0.053482 0.000000 0.000000 0.000000
# 4 0.000000 0.000000 0.000000 0.022061 0.000000 0.000000
# 5 0.000000 0.000000 0.000000 0.000000 0.071581 0.000000
# 6 0.000000 0.000000 0.000000 0.000000 0.000000 0.034083
#
#
# Mechanical properties :
#
#
# Convention : Reuss Voigt Hill
#
# Bulk Modulus (GPa) = 11.74396 75.17996 43.46196
# Shear Modulus (GPa) = 11.08070 27.31904 19.19987
#
# Velocity S-wave (km/s) = 2.49369 3.91554 3.28252
# Velocity P-wave (km/s) = 3.85772 7.91409 6.22555
#
# Compressibility (1/GPa) = 0.08515019
#
# Stress axis : x y z
#
# Youngs Moduli (GPa) = 9.54555 31.35269 18.69799
#
# Poissons Ratio (x) = 0.10303 0.23218
# Poissons Ratio (y) = 0.03137 0.68791
# Poissons Ratio (z) = 0.11853 1.15348
#
# Static dielectric constant tensor:
#      x y z
#    x 1.617840 0.000000 0.000000 
#    y 0.000000 1.586670 0.000000 
#    z 0.000000 0.000000 1.605770 
# 
# From -- ./inp_files/15730.got.cif
#   From: 2010.05.17/outbox.cif.g08.bks.cpg/sg36_8_cif.got.tgz:15730.got - 2010.06.03 17:41:39.
