data_PCOD9351586
_publ_section_title
;
Structure prediction by ZEFSAII (Michael W. Deem and Ramdas Pophale) SiO2 
 PCOD9351586
Probable space group: C M C 21
;
_chemical_formula_sum "Si O2"
_cell_formula_units_Z 64
_cell_length_a 8.771855
_cell_length_b 20.544220
_cell_length_c 20.184733
_cell_angle_alpha 90.000000
_cell_angle_beta 90.000000
_cell_angle_gamma 90.000000
_cell_volume 3637.509282
_symmetry_space_group_name_H-M "C M C 21"
_symmetry_group_IT_number 36
_symmetry_cell_setting 'orthorhombic'
loop_
_space_group_symop_operation_xyz
x,y,z
-x,-y,1/2+z
x,-y,1/2+z
-x,y,z
1/2+x,1/2+y,z
1/2-x,1/2-y,1/2+z
1/2+x,1/2-y,1/2+z
1/2-x,1/2+y,z
loop_
_atom_site_type_symbol
_atom_site_label
_atom_site_fract_x
_atom_site_fract_y
_atom_site_fract_z
Si Si1 0.816405 0.320317 0.203250
Si Si2 0.318084 0.457985 0.979410
Si Si3 0.182638 0.566427 0.801730
Si Si4 0.818174 0.101929 0.943758
Si Si5 0.182728 0.659215 0.552310
Si Si6 0.682494 0.779246 0.806787
Si Si7 0.181452 0.738460 0.948483
Si Si8 0.682372 0.924337 0.836794
O O1 0.775860 0.387736 0.240568
O O2 0.769948 0.322481 0.126776
O O3 0.745315 0.262264 0.245868
O O4 0.000000 0.314327 0.205534
O O5 0.500000 0.451709 0.984700
O O6 0.278260 0.534572 0.980810
O O7 0.265591 0.432243 0.907172
O O8 0.237221 0.412998 0.033110
O O9 0.266720 0.590908 0.867719
O O10 0.215995 0.489632 0.795261
O O11 0.000000 0.572998 0.812688
O O12 0.735879 0.166454 0.968909
O O13 0.000000 0.110683 0.946386
O O14 0.254528 0.708363 0.499212
O O15 0.000000 0.662568 0.547516
O O16 0.500000 0.773046 0.809806
O O17 0.751619 0.752582 0.875476
O O18 0.722351 0.855881 0.803629
O O19 0.000000 0.741829 0.945638
O O20 0.500000 0.923418 0.849765
#
# Coordination Sequence:
#
# PCOD9351586 Si02
#       8
#     8   8   8   8   8   8   8   8
#     4  10  22  38  57  81 113 153 192 236 286 345
#     4  10  20  34  55  83 113 145 185 232 283 340
#     4   9  17  33  55  80 109 144 184 226 276 335
#     4  10  20  34  55  85 115 143 182 234 287 337
#     4  11  23  39  57  80 115 157 197 236 289 343
#     4  11  21  34  56  85 116 150 187 236 287 338
#     4  12  23  36  57  84 113 150 195 243 289 337
#     4   9  18  32  54  82 112 144 182 229 279 329
#
# _framework density 17.594455
#
# number of rings (size 3 to 8) (size 9 to 14) (size 15 to 20)
#    0.000    1.750    2.500    2.625    0.000    3.000 
#    0.000    1.250    0.000    1.500    0.000    0.000 
#    0.000    0.000    0.000    0.000    0.000    0.000 
#
# Total GULP energy -178653.097295 kJ/mol
# GULP energy per Si atom -5582.909290 kJ/mol
# Density = 1.755441 g / cm^3
# Si number density = 17.594455 Si / 1000 Ang^3
#
#
#
# Elastic Constant Matrix: (Units=GPa)
#
#
# Indices 1 2 3 4 5 6 
#
# 1 39.8604 33.5923 19.0772 0.0000 0.0000 0.0000
# 2 33.5923 107.5492 19.7573 0.0000 0.0000 0.0000
# 3 19.0772 19.7573 46.4591 0.0000 0.0000 0.0000
# 4 0.0000 0.0000 0.0000 24.1340 0.0000 0.0000
# 5 0.0000 0.0000 0.0000 0.0000 22.8524 0.0000
# 6 0.0000 0.0000 0.0000 0.0000 0.0000 27.6636
#
#
#
# Elastic Compliance Matrix: (Units=1/GPa)
#
#
# Indices 1 2 3 4 5 6 
#
# 1 0.039248 -0.010086 -0.011827 0.000000 0.000000 0.000000
# 2 -0.010086 0.012678 -0.001250 0.000000 0.000000 0.000000
# 3 -0.011827 -0.001250 0.026912 0.000000 0.000000 0.000000
# 4 0.000000 0.000000 0.000000 0.041435 0.000000 0.000000
# 5 0.000000 0.000000 0.000000 0.000000 0.043759 0.000000
# 6 0.000000 0.000000 0.000000 0.000000 0.000000 0.036149
#
#
# Mechanical properties :
#
#
# Convention : Reuss Voigt Hill
#
# Bulk Modulus (GPa) = 30.75749 37.63582 34.19665
# Shear Modulus (GPa) = 19.42921 23.02614 21.22767
#
# Velocity S-wave (km/s) = 3.32668 3.62154 3.47724
# Velocity P-wave (km/s) = 5.68111 6.23896 5.96656
#
# Compressibility (1/GPa) = 0.03251241
#
# Stress axis : x y z
#
# Youngs Moduli (GPa) = 25.47898 78.87644 37.15785
#
# Poissons Ratio (x) = 0.79557 0.43946
# Poissons Ratio (y) = 0.25699 0.04644
# Poissons Ratio (z) = 0.30134 0.09859
#
# Static dielectric constant tensor:
#      x y z
#    x 1.588620 0.000000 0.000000 
#    y 0.000000 1.625560 0.000000 
#    z 0.000000 0.000000 1.560940 
# 
# From -- ./inp_files/13915.got.cif
#   From: 2010.05.17/outbox.cif.g08.bks.cpg/sg36_7_cif.got.tgz:13915.got - 2010.06.03 17:41:39.
