data_PCOD9351851
_publ_section_title
;
Structure prediction by ZEFSAII (Michael W. Deem and Ramdas Pophale) SiO2 
 PCOD9351851
Probable space group: C M C 21
;
_chemical_formula_sum "Si O2"
_cell_formula_units_Z 64
_cell_length_a 18.080155
_cell_length_b 19.968194
_cell_length_c 10.020852
_cell_angle_alpha 90.000000
_cell_angle_beta 90.000000
_cell_angle_gamma 90.000000
_cell_volume 3617.808583
_symmetry_space_group_name_H-M "C M C 21"
_symmetry_group_IT_number 36
_symmetry_cell_setting 'orthorhombic'
loop_
_space_group_symop_operation_xyz
x,y,z
-x,-y,1/2+z
x,-y,1/2+z
-x,y,z
1/2+x,1/2+y,z
1/2-x,1/2-y,1/2+z
1/2+x,1/2-y,1/2+z
1/2-x,1/2+y,z
loop_
_atom_site_type_symbol
_atom_site_label
_atom_site_fract_x
_atom_site_fract_y
_atom_site_fract_z
Si Si1 0.086892 0.443968 0.796960
Si Si2 0.772929 0.885395 0.448767
Si Si3 0.211711 0.356977 0.161070
Si Si4 0.413322 0.212501 0.305109
Si Si5 0.185077 0.256240 0.549895
Si Si6 0.584530 0.322174 0.532342
Si Si7 0.169992 0.498937 0.041293
Si Si8 0.412344 0.234456 0.787226
O O1 0.100780 0.365897 0.830997
O O2 0.131036 0.464973 0.665509
O O3 0.000000 0.452325 0.773675
O O4 0.113598 0.489133 0.919368
O O5 0.760559 0.872935 0.292109
O O6 0.729722 0.824583 0.521965
O O7 0.857198 0.877955 0.492303
O O8 0.736323 0.954688 0.490941
O O9 0.256256 0.303416 0.071609
O O10 0.196023 0.425722 0.086041
O O11 0.135346 0.325018 0.218358
O O12 0.500000 0.218625 0.267527
O O13 0.361740 0.236090 0.184932
O O14 0.401658 0.258619 0.434355
O O15 0.129112 0.248433 0.425223
O O16 0.500000 0.343108 0.512752
O O17 0.593375 0.295468 0.682604
O O18 0.500000 0.218616 0.804069
#
# Coordination Sequence:
#
# PCOD9351851 Si02
#       8
#     8   8   8   8   8   8   8   8
#     4  11  24  39  56  85 126 167 200 239 294 370
#     4  11  22  39  60  89 120 156 208 256 302 361
#     4  11  23  39  62  92 122 162 202 257 306 362
#     4  10  20  36  60  88 118 155 201 246 300 363
#     4  11  21  37  64  89 120 157 202 255 306 357
#     4  10  20  37  62  87 117 154 195 255 316 360
#     4  12  24  41  58  86 121 168 208 245 302 363
#     4  10  22  38  60  94 128 157 196 253 312 364
#
# _framework density 17.690268
#
# number of rings (size 3 to 8) (size 9 to 14) (size 15 to 20)
#    0.000    1.250    5.000    1.500    0.000    3.000 
#    0.000    0.000    0.000    2.250    0.000    0.000 
#    0.000    0.000    0.000    0.000    0.000    0.000 
#
# Total GULP energy -178767.324713 kJ/mol
# GULP energy per Si atom -5586.478897 kJ/mol
# Density = 1.765000 g / cm^3
# Si number density = 17.690268 Si / 1000 Ang^3
#
#
#
# Elastic Constant Matrix: (Units=GPa)
#
#
# Indices 1 2 3 4 5 6 
#
# 1 101.6218 43.6237 33.9036 0.0000 0.0000 0.0000
# 2 43.6237 75.0360 12.8186 0.0000 0.0000 0.0000
# 3 33.9036 12.8186 68.7143 0.0000 0.0000 0.0000
# 4 0.0000 0.0000 0.0000 16.4344 0.0000 0.0000
# 5 0.0000 0.0000 0.0000 0.0000 28.7006 0.0000
# 6 0.0000 0.0000 0.0000 0.0000 0.0000 31.2484
#
#
#
# Elastic Compliance Matrix: (Units=1/GPa)
#
#
# Indices 1 2 3 4 5 6 
#
# 1 0.015211 -0.007810 -0.006048 0.000000 0.000000 0.000000
# 2 -0.007810 0.017776 0.000537 0.000000 0.000000 0.000000
# 3 -0.006048 0.000537 0.017437 0.000000 0.000000 0.000000
# 4 0.000000 0.000000 0.000000 0.060848 0.000000 0.000000
# 5 0.000000 0.000000 0.000000 0.000000 0.034842 0.000000
# 6 0.000000 0.000000 0.000000 0.000000 0.000000 0.032002
#
#
# Mechanical properties :
#
#
# Convention : Reuss Voigt Hill
#
# Bulk Modulus (GPa) = 42.04847 47.34044 44.69445
# Shear Modulus (GPa) = 23.50906 25.61175 24.56040
#
# Velocity S-wave (km/s) = 3.64940 3.80911 3.73011
# Velocity P-wave (km/s) = 6.44813 6.79445 6.62355
#
# Compressibility (1/GPa) = 0.02378208
#
# Stress axis : x y z
#
# Youngs Moduli (GPa) = 65.74283 56.25697 57.34968
#
# Poissons Ratio (x) = 0.43936 0.34685
# Poissons Ratio (y) = 0.51344 -0.03082
# Poissons Ratio (z) = 0.39762 -0.03023
#
# Static dielectric constant tensor:
#      x y z
#    x 1.604550 0.000000 0.000000 
#    y 0.000000 1.576750 0.000000 
#    z 0.000000 0.000000 1.601840 
# 
# From -- ./inp_files/4933.got.cif
#   From: 2010.05.17/outbox.cif.g08.bks.cpg/sg36_3_cif.got.tgz:4933.got - 2010.06.03 17:41:39.
