data_PCOD9351597
_publ_section_title
;
Structure prediction by ZEFSAII (Michael W. Deem and Ramdas Pophale) SiO2 
 PCOD9351597
Probable space group: C M C 21
;
_chemical_formula_sum "Si O2"
_cell_formula_units_Z 64
_cell_length_a 8.845201
_cell_length_b 20.977770
_cell_length_c 19.720608
_cell_angle_alpha 90.000000
_cell_angle_beta 90.000000
_cell_angle_gamma 90.000000
_cell_volume 3659.209934
_symmetry_space_group_name_H-M "C M C 21"
_symmetry_group_IT_number 36
_symmetry_cell_setting 'orthorhombic'
loop_
_space_group_symop_operation_xyz
x,y,z
-x,-y,1/2+z
x,-y,1/2+z
-x,y,z
1/2+x,1/2+y,z
1/2-x,1/2-y,1/2+z
1/2+x,1/2-y,1/2+z
1/2-x,1/2+y,z
loop_
_atom_site_type_symbol
_atom_site_label
_atom_site_fract_x
_atom_site_fract_y
_atom_site_fract_z
Si Si1 0.180922 0.065241 0.972840
Si Si2 0.180929 0.312427 0.399342
Si Si3 0.319071 0.187573 0.470105
Si Si4 0.680236 0.751994 0.108051
Si Si5 0.180922 0.934759 0.896607
Si Si6 0.180715 0.387471 0.762449
Si Si7 0.819285 0.387471 0.606997
Si Si8 0.180236 0.251994 0.261396
O O1 0.248059 0.124949 0.931777
O O2 0.000000 0.070651 0.975093
O O3 0.221840 1.000000 0.934723
O O4 0.244917 0.069829 0.049016
O O5 0.250000 0.250000 0.434723
O O6 0.214694 0.302836 0.319555
O O7 0.000000 0.313348 0.408822
O O8 0.500000 0.186652 0.460624
O O9 0.285306 0.197164 0.549891
O O10 0.248059 0.124949 0.437669
O O11 0.500000 0.738727 0.104210
O O12 0.765171 0.685400 0.095272
O O13 0.715347 0.772934 0.184723
O O14 0.244917 0.930171 0.820431
O O15 0.000000 0.929349 0.894353
O O16 0.223441 0.403842 0.684723
O O17 0.234829 0.314600 0.774175
O O18 0.000000 0.390222 0.768078
O O19 0.000000 0.390222 0.601369
O O20 0.000000 0.238727 0.265237
#
# Coordination Sequence:
#
# PCOD9351597 Si02
#       8
#     8   8   8   8   8   8   8   8
#     4  11  24  40  57  80 113 154 196 235 280 335
#     4  11  21  34  57  85 114 146 185 233 284 337
#     4  11  21  34  57  85 114 146 185 233 284 337
#     4   9  18  33  54  81 112 146 183 226 280 339
#     4  11  24  40  57  80 113 154 196 235 280 335
#     4  10  20  34  56  85 112 142 184 233 283 337
#     4  10  20  34  56  85 112 142 184 233 283 337
#     4   9  18  33  54  81 112 146 183 226 280 339
#
# _framework density 17.490113999999998
#
# number of rings (size 3 to 8) (size 9 to 14) (size 15 to 20)
#    0.000    1.750    2.500    2.250    0.000    4.500 
#    0.000    1.250    0.000    4.500    0.000    0.000 
#    0.000    0.000    0.000    0.000    0.000    0.000 
#
# Total GULP energy -178648.423487 kJ/mol
# GULP energy per Si atom -5582.763234 kJ/mol
# Density = 1.745031 g / cm^3
# Si number density = 17.490114 Si / 1000 Ang^3
#
#
#
# Elastic Constant Matrix: (Units=GPa)
#
#
# Indices 1 2 3 4 5 6 
#
# 1 51.7685 47.9368 59.6521 0.0000 0.0000 0.0000
# 2 47.9368 114.3844 81.1293 0.0000 0.0000 0.0000
# 3 59.6521 81.1293 161.5280 0.0000 0.0000 0.0000
# 4 0.0000 0.0000 0.0000 28.6960 0.0000 0.0000
# 5 0.0000 0.0000 0.0000 0.0000 28.3036 0.0000
# 6 0.0000 0.0000 0.0000 0.0000 0.0000 25.6020
#
#
#
# Elastic Compliance Matrix: (Units=1/GPa)
#
#
# Indices 1 2 3 4 5 6 
#
# 1 0.039446 -0.009630 -0.009731 0.000000 0.000000 0.000000
# 2 -0.009630 0.015931 -0.004445 0.000000 0.000000 0.000000
# 3 -0.009731 -0.004445 0.012017 0.000000 0.000000 0.000000
# 4 0.000000 0.000000 0.000000 0.034848 0.000000 0.000000
# 5 0.000000 0.000000 0.000000 0.000000 0.035331 0.000000
# 6 0.000000 0.000000 0.000000 0.000000 0.000000 0.039060
#
#
# Mechanical properties :
#
#
# Convention : Reuss Voigt Hill
#
# Bulk Modulus (GPa) = 50.54858 78.34634 64.44746
# Shear Modulus (GPa) = 21.66008 25.78449 23.72228
#
# Velocity S-wave (km/s) = 3.52293 3.84374 3.68683
# Velocity P-wave (km/s) = 6.74626 8.03685 7.41967
#
# Compressibility (1/GPa) = 0.01978295
#
# Stress axis : x y z
#
# Youngs Moduli (GPa) = 25.35086 62.77073 83.21381
#
# Poissons Ratio (x) = 0.60445 0.80975
# Poissons Ratio (y) = 0.24412 0.36991
# Poissons Ratio (z) = 0.24669 0.27904
#
# Static dielectric constant tensor:
#      x y z
#    x 1.585360 0.000000 0.000000 
#    y 0.000000 1.545290 0.000000 
#    z 0.000000 0.000000 1.634590 
# 
# From -- ./inp_files/15645.got.cif
#   From: 2010.05.17/outbox.cif.g08.bks.cpg/sg36_8_cif.got.tgz:15645.got - 2010.06.03 17:41:39.
