data_PCOD9351917
_publ_section_title
;
Structure prediction by ZEFSAII (Michael W. Deem and Ramdas Pophale) SiO2 
 PCOD9351917
Probable space group: C M C 21
;
_chemical_formula_sum "Si O2"
_cell_formula_units_Z 64
_cell_length_a 7.572398
_cell_length_b 15.072749
_cell_length_c 21.780077
_cell_angle_alpha 90.000000
_cell_angle_beta 90.000000
_cell_angle_gamma 90.000000
_cell_volume 2485.909477
_symmetry_space_group_name_H-M "C M C 21"
_symmetry_group_IT_number 36
_symmetry_cell_setting 'orthorhombic'
loop_
_space_group_symop_operation_xyz
x,y,z
-x,-y,1/2+z
x,-y,1/2+z
-x,y,z
1/2+x,1/2+y,z
1/2-x,1/2-y,1/2+z
1/2+x,1/2-y,1/2+z
1/2-x,1/2+y,z
loop_
_atom_site_type_symbol
_atom_site_label
_atom_site_fract_x
_atom_site_fract_y
_atom_site_fract_z
Si Si1 0.707545 0.032258 0.630570
Si Si2 0.292303 0.102400 0.303282
Si Si3 0.708354 0.410317 0.457499
Si Si4 0.701389 0.407132 0.997529
Si Si5 0.283123 0.087838 0.763750
Si Si6 0.704329 0.229865 0.854470
Si Si7 0.292731 0.829688 0.676452
Si Si8 0.214218 0.731942 0.052606
O O1 0.500000 0.052003 0.620902
O O2 0.717962 0.928598 0.647837
O O3 0.803768 0.057625 0.568230
O O4 0.770289 0.079892 0.693007
O O5 0.500000 0.092268 0.291454
O O6 0.276036 0.170346 0.359544
O O7 0.215749 0.155462 0.244113
O O8 0.225504 0.001561 0.300452
O O9 0.500000 0.417648 0.447078
O O10 0.782421 0.510415 0.460108
O O11 0.782195 0.340476 0.409158
O O12 0.740156 0.361206 0.521809
O O13 0.500000 0.394316 0.975034
O O14 0.782839 0.310441 0.008715
O O15 0.500000 0.090907 0.764658
O O16 0.214618 0.174278 0.798041
O O17 0.500000 0.244538 0.843654
O O18 0.500000 0.806783 0.682964
O O19 0.219159 0.766689 0.622837
O O20 0.000000 0.739041 0.054080
#
# Coordination Sequence:
#
# PCOD9351917 Si02
#       8
#     8   8   8   8   8   8   8   8
#     4   9  16  32  58  84 114 152 189 224 270 338
#     4   9  18  36  59  85 115 151 189 230 276 335
#     4  11  24  42  57  79 114 151 191 240 285 332
#     4  10  22  36  55  85 118 146 183 237 289 331
#     4   8  18  36  57  83 116 151 187 227 276 337
#     4  11  23  39  59  83 111 150 193 237 283 334
#     4   8  15  30  56  84 114 150 185 220 273 339
#     4  10  20  37  59  85 114 151 189 229 282 342
#
# _framework density 25.745104000000001
#
# number of rings (size 3 to 8) (size 9 to 14) (size 15 to 20)
#    0.000    2.500    1.250    2.250    1.750    2.000 
#    0.000    7.500    0.000    0.000    0.000    0.000 
#    0.000    0.000    0.000    0.000    0.000    0.000 
#
# Total GULP energy -178748.094001 kJ/mol
# GULP energy per Si atom -5585.877938 kJ/mol
# Density = 2.568651 g / cm^3
# Si number density = 25.745104 Si / 1000 Ang^3
#
#
#
# Elastic Constant Matrix: (Units=GPa)
#
#
# Indices 1 2 3 4 5 6 
#
# 1 67.9437 4.5879 -4.1854 0.0000 0.0000 0.0000
# 2 4.5879 145.3358 11.9092 0.0000 0.0000 0.0000
# 3 -4.1854 11.9092 36.7637 0.0000 0.0000 0.0000
# 4 0.0000 0.0000 0.0000 47.1217 0.0000 0.0000
# 5 0.0000 0.0000 0.0000 0.0000 10.3437 0.0000
# 6 0.0000 0.0000 0.0000 0.0000 0.0000 0.6170
#
#
#
# Elastic Compliance Matrix: (Units=1/GPa)
#
#
# Indices 1 2 3 4 5 6 
#
# 1 0.014877 -0.000625 0.001896 0.000000 0.000000 0.000000
# 2 -0.000625 0.007094 -0.002369 0.000000 0.000000 0.000000
# 3 0.001896 -0.002369 0.028184 0.000000 0.000000 0.000000
# 4 0.000000 0.000000 0.000000 0.021222 0.000000 0.000000
# 5 0.000000 0.000000 0.000000 0.000000 0.096677 0.000000
# 6 0.000000 0.000000 0.000000 0.000000 0.000000 1.620730
#
#
# Mechanical properties :
#
#
# Convention : Reuss Voigt Hill
#
# Bulk Modulus (GPa) = 20.85100 30.51852 25.68476
# Shear Modulus (GPa) = 2.76707 27.46525 15.11616
#
# Velocity S-wave (km/s) = 1.03785 3.26976 2.42574
# Velocity P-wave (km/s) = 3.09075 5.11223 4.22420
#
# Compressibility (1/GPa) = 0.04795934
#
# Stress axis : x y z
#
# Youngs Moduli (GPa) = 67.21751 140.95430 35.48094
#
# Poissons Ratio (x) = 0.08810 -0.06728
# Poissons Ratio (y) = 0.04201 0.08407
# Poissons Ratio (z) = -0.12746 0.33397
#
# Static dielectric constant tensor:
#      x y z
#    x 1.952190 0.000000 0.000000 
#    y 0.000000 2.054460 0.000000 
#    z 0.000000 0.000000 2.105820 
# 
# From -- ./inp_files/16538.got.cif
#   From: 2010.05.17/outbox.cif.g08.bks.cpg/sg36_9_cif.got.tgz:16538.got - 2010.06.03 17:41:39.
