data_PCOD9351031
_publ_section_title
;
Structure prediction by ZEFSAII (Michael W. Deem and Ramdas Pophale) SiO2 
 PCOD9351031
Probable space group: C M C 21
;
_chemical_formula_sum "Si O2"
_cell_formula_units_Z 64
_cell_length_a 8.430785
_cell_length_b 14.623972
_cell_length_c 29.174800
_cell_angle_alpha 90.000000
_cell_angle_beta 90.000000
_cell_angle_gamma 90.000000
_cell_volume 3597.006715
_symmetry_space_group_name_H-M "C M C 21"
_symmetry_group_IT_number 36
_symmetry_cell_setting 'orthorhombic'
loop_
_space_group_symop_operation_xyz
x,y,z
-x,-y,1/2+z
x,-y,1/2+z
-x,y,z
1/2+x,1/2+y,z
1/2-x,1/2-y,1/2+z
1/2+x,1/2-y,1/2+z
1/2-x,1/2+y,z
loop_
_atom_site_type_symbol
_atom_site_label
_atom_site_fract_x
_atom_site_fract_y
_atom_site_fract_z
Si Si1 0.308430 0.999751 0.864320
Si Si2 0.309739 0.653801 0.542234
Si Si3 0.308242 0.854171 0.788328
Si Si4 0.191930 0.488669 0.968994
Si Si5 0.306935 0.862442 0.542125
Si Si6 0.810195 0.999420 0.718379
Si Si7 0.310006 0.011321 0.615279
Si Si8 0.808352 0.145026 0.794455
O O1 0.500000 0.000531 0.864606
O O2 0.253181 0.990763 0.916567
O O3 0.250478 0.091386 0.839238
O O4 0.257003 0.915125 0.832048
O O5 0.500000 0.654096 0.542246
O O6 0.251015 0.597857 0.497979
O O7 0.251497 0.758299 0.542203
O O8 0.251669 0.598021 0.586608
O O9 0.500000 0.853977 0.787510
O O10 0.249285 0.907877 0.743589
O O11 0.253489 0.749590 0.791359
O O12 0.000000 0.486401 0.969165
O O13 0.241555 0.578599 0.997701
O O14 0.500000 0.860393 0.542194
O O15 0.257713 0.921720 0.586363
O O16 0.748491 0.008688 0.667062
O O17 0.000000 0.999136 0.717859
O O18 0.756915 0.083800 0.750871
O O19 0.500000 0.013321 0.614631
O O20 0.000000 0.145338 0.795096
#
# Coordination Sequence:
#
# PCOD9351031 Si02
#       8
#     8   8   8   8   8   8   8   8
#     4   9  18  32  52  74  99 130 168 207 242 288
#     4  10  19  33  52  74  97 126 164 203 237 285
#     4   9  18  34  52  72  99 134 168 202 248 298
#     4   9  18  34  51  72 102 134 163 199 248 296
#     4   8  17  33  51  69  96 130 160 191 241 297
#     4  10  20  34  51  74 100 128 164 207 245 290
#     4  10  20  36  54  72  98 132 162 198 248 299
#     4   9  19  34  51  71 101 134 165 203 251 297
#
# _framework density 17.792570999999999
#
# number of rings (size 3 to 8) (size 9 to 14) (size 15 to 20)
#    0.000    2.750    0.000    1.875    0.000    3.500 
#    0.000   11.250    0.000    0.000    0.000    0.000 
#    0.000    0.000    0.000    0.000    0.000    0.000 
#
# Total GULP energy -178453.951301 kJ/mol
# GULP energy per Si atom -5576.685978 kJ/mol
# Density = 1.775207 g / cm^3
# Si number density = 17.792571 Si / 1000 Ang^3
#
#
#
# Elastic Constant Matrix: (Units=GPa)
#
#
# Indices 1 2 3 4 5 6 
#
# 1 15.4079 21.3435 21.6480 0.0000 0.0000 0.0000
# 2 21.3435 173.3777 78.5320 0.0000 0.0000 0.0000
# 3 21.6480 78.5320 165.2879 0.0000 0.0000 0.0000
# 4 0.0000 0.0000 0.0000 6.5729 0.0000 0.0000
# 5 0.0000 0.0000 0.0000 0.0000 27.3141 0.0000
# 6 0.0000 0.0000 0.0000 0.0000 0.0000 17.8922
#
#
#
# Elastic Compliance Matrix: (Units=1/GPa)
#
#
# Indices 1 2 3 4 5 6 
#
# 1 0.085661 -0.006962 -0.007911 0.000000 0.000000 0.000000
# 2 -0.006962 0.007915 -0.002849 0.000000 0.000000 0.000000
# 3 -0.007911 -0.002849 0.008440 0.000000 0.000000 0.000000
# 4 0.000000 0.000000 0.000000 0.152140 0.000000 0.000000
# 5 0.000000 0.000000 0.000000 0.000000 0.036611 0.000000
# 6 0.000000 0.000000 0.000000 0.000000 0.000000 0.055890
#
#
# Mechanical properties :
#
#
# Convention : Reuss Voigt Hill
#
# Bulk Modulus (GPa) = 15.02136 66.34671 40.68404
# Shear Modulus (GPa) = 12.36728 25.85915 19.11322
#
# Velocity S-wave (km/s) = 2.63930 3.81644 3.28109
# Velocity P-wave (km/s) = 4.21292 7.53593 6.10487
#
# Compressibility (1/GPa) = 0.06657186
#
# Stress axis : x y z
#
# Youngs Moduli (GPa) = 11.67392 126.33944 118.48617
#
# Poissons Ratio (x) = 0.87953 0.93740
# Poissons Ratio (y) = 0.08127 0.33756
# Poissons Ratio (z) = 0.09236 0.35993
#
# Static dielectric constant tensor:
#      x y z
#    x 1.613510 0.000000 0.000000 
#    y 0.000000 1.599350 0.000000 
#    z 0.000000 0.000000 1.587030 
# 
# From -- ./inp_files/17332.got.cif
#   From: 2010.05.17/outbox.cif.g08.bks.cpg/sg36_9_cif.got.tgz:17332.got - 2010.06.03 17:41:39.
