data_PCOD9351672
_publ_section_title
;
Structure prediction by ZEFSAII (Michael W. Deem and Ramdas Pophale) SiO2 
 PCOD9351672
Probable space group: C M C 21
;
_chemical_formula_sum "Si O2"
_cell_formula_units_Z 64
_cell_length_a 25.091298
_cell_length_b 9.956513
_cell_length_c 12.798104
_cell_angle_alpha 90.000000
_cell_angle_beta 90.000000
_cell_angle_gamma 90.000000
_cell_volume 3197.245822
_symmetry_space_group_name_H-M "C M C 21"
_symmetry_group_IT_number 36
_symmetry_cell_setting 'orthorhombic'
loop_
_space_group_symop_operation_xyz
x,y,z
-x,-y,1/2+z
x,-y,1/2+z
-x,y,z
1/2+x,1/2+y,z
1/2-x,1/2-y,1/2+z
1/2+x,1/2-y,1/2+z
1/2-x,1/2+y,z
loop_
_atom_site_type_symbol
_atom_site_label
_atom_site_fract_x
_atom_site_fract_y
_atom_site_fract_z
Si Si1 0.199541 0.559453 0.466530
Si Si2 0.858221 0.178776 0.036663
Si Si3 0.858221 0.678776 0.044568
Si Si4 0.638318 0.399741 0.305808
Si Si5 0.938383 0.625084 0.870048
Si Si6 0.861682 0.600260 0.275423
Si Si7 0.199541 0.059453 0.614701
Si Si8 0.938383 0.125084 0.211182
O O1 0.156886 0.668281 0.511663
O O2 0.184685 0.402555 0.475781
O O3 0.193330 0.590497 0.342474
O O4 0.250000 0.582837 0.540615
O O5 0.912816 0.166269 0.100218
O O6 0.815315 0.097445 0.105450
O O7 0.855817 0.093371 0.929569
O O8 0.912816 0.666269 0.981012
O O9 0.855817 0.593371 0.151662
O O10 0.843114 0.831719 0.069568
O O11 0.616189 0.250000 0.290615
O O12 0.693330 0.409503 0.238756
O O13 0.597845 0.507230 0.258940
O O14 0.902155 0.507230 0.822290
O O15 0.934837 0.750000 0.790615
O O16 0.000000 0.585926 0.880425
O O17 0.000000 0.085926 0.200806
#
# Coordination Sequence:
#
# PCOD9351672 Si02
#       8
#     8   8   8   8   8   8   8   8
#     4  10  20  35  56  80 109 146 185 226 276 331
#     4  10  20  37  56  81 114 145 183 231 278 330
#     4  10  20  37  56  81 114 145 183 231 278 330
#     4   9  20  37  55  80 114 145 183 230 276 332
#     4  10  21  37  58  83 111 147 188 230 280 334
#     4   9  20  37  55  80 114 145 183 230 276 332
#     4  10  20  35  56  80 109 146 185 226 276 331
#     4  10  21  37  58  83 111 147 188 230 280 334
#
# _framework density 20.017229
#
# number of rings (size 3 to 8) (size 9 to 14) (size 15 to 20)
#    0.000    2.250    0.000    2.250    0.000    2.500 
#    0.000   26.250    0.000    0.000    0.000    0.000 
#    0.000    0.000    0.000    0.000    0.000    0.000 
#
# Total GULP energy -178154.500514 kJ/mol
# GULP energy per Si atom -5567.328141 kJ/mol
# Density = 1.997167 g / cm^3
# Si number density = 20.017229 Si / 1000 Ang^3
#
#
#
# Elastic Constant Matrix: (Units=GPa)
#
#
# Indices 1 2 3 4 5 6 
#
# 1 83.3550 1.4351 34.6246 0.0000 0.0000 0.0000
# 2 1.4351 62.0775 -6.3576 0.0000 0.0000 0.0000
# 3 34.6246 -6.3576 114.4858 0.0000 0.0000 0.0000
# 4 0.0000 0.0000 0.0000 25.6245 0.0000 0.0000
# 5 0.0000 0.0000 0.0000 0.0000 20.0442 0.0000
# 6 0.0000 0.0000 0.0000 0.0000 0.0000 18.6857
#
#
#
# Elastic Compliance Matrix: (Units=1/GPa)
#
#
# Indices 1 2 3 4 5 6 
#
# 1 0.013755 -0.000748 -0.004202 0.000000 0.000000 0.000000
# 2 -0.000748 0.016242 0.001128 0.000000 0.000000 0.000000
# 3 -0.004202 0.001128 0.010068 0.000000 0.000000 0.000000
# 4 0.000000 0.000000 0.000000 0.039025 0.000000 0.000000
# 5 0.000000 0.000000 0.000000 0.000000 0.049890 0.000000
# 6 0.000000 0.000000 0.000000 0.000000 0.000000 0.053517
#
#
# Mechanical properties :
#
#
# Convention : Reuss Voigt Hill
#
# Bulk Modulus (GPa) = 30.84363 35.48029 33.16196
# Shear Modulus (GPa) = 24.88215 28.21861 26.55038
#
# Velocity S-wave (km/s) = 3.52950 3.75869 3.64590
# Velocity P-wave (km/s) = 5.66143 6.04982 5.85885
#
# Compressibility (1/GPa) = 0.03242161
#
# Stress axis : x y z
#
# Youngs Moduli (GPa) = 72.70058 61.56972 99.32393
#
# Poissons Ratio (x) = 0.04607 0.41732
# Poissons Ratio (y) = 0.05440 -0.11206
# Poissons Ratio (z) = 0.30546 -0.06947
#
# Static dielectric constant tensor:
#      x y z
#    x 1.715910 0.000000 0.000000 
#    y 0.000000 1.699450 0.000000 
#    z 0.000000 0.000000 1.821610 
# 
# From -- ./inp_files/9508.got.cif
#   From: 2010.05.17/outbox.cif.g08.bks.cpg/sg36_5_cif.got.tgz:9508.got - 2010.06.03 17:41:39.
