data_PCOD9351145
_publ_section_title
;
Structure prediction by ZEFSAII (Michael W. Deem and Ramdas Pophale) SiO2 
 PCOD9351145
Probable space group: C M C 21
;
_chemical_formula_sum "Si O2"
_cell_formula_units_Z 52
_cell_length_a 17.257191
_cell_length_b 25.651010
_cell_length_c 5.308513
_cell_angle_alpha 90.000000
_cell_angle_beta 90.000000
_cell_angle_gamma 90.000000
_cell_volume 2349.889610
_symmetry_space_group_name_H-M "C M C 21"
_symmetry_group_IT_number 36
_symmetry_cell_setting 'orthorhombic'
loop_
_space_group_symop_operation_xyz
x,y,z
-x,-y,1/2+z
x,-y,1/2+z
-x,y,z
1/2+x,1/2+y,z
1/2-x,1/2-y,1/2+z
1/2+x,1/2-y,1/2+z
1/2-x,1/2+y,z
loop_
_atom_site_type_symbol
_atom_site_label
_atom_site_fract_x
_atom_site_fract_y
_atom_site_fract_z
Si Si1 0.708253 0.978928 0.329540
Si Si2 0.000000 0.534569 0.990844
Si Si3 0.362401 0.118672 0.945930
Si Si4 0.594101 0.820740 0.940727
Si Si5 0.619174 0.521986 0.326952
Si Si6 0.405753 0.698890 0.966597
Si Si7 0.094029 0.859584 0.966838
O O1 0.711638 0.918440 0.403779
O O2 0.670520 0.012486 0.555412
O O3 0.792769 0.003141 0.289998
O O4 0.928008 0.573971 0.961238
O O5 0.000000 0.493381 0.761850
O O6 0.379430 0.154102 0.704021
O O7 0.367020 0.150712 0.203091
O O8 0.500000 0.826266 0.918625
O O9 0.613721 0.759561 0.937680
O O10 0.584458 0.486846 0.550578
O O11 0.616819 0.580999 0.419180
O O12 0.500000 0.696561 0.968306
O O13 0.378551 0.664877 0.729401
O O14 0.378988 0.675108 0.230918
O O15 0.000000 0.858292 0.970342
#
# Coordination Sequence:
#
# PCOD9351145 Si02
#       7
#     8   4   8   8   8   8   8
#     4  10  21  38  54  76 104 144 198 227 271 325
#     4  12  22  32  46  72 110 146 180 232 276 314
#     4  12  21  34  53  77 110 152 192 231 279 323
#     4  11  20  35  52  81 114 149 190 230 279 326
#     4  10  21  36  57  83 110 147 186 227 272 335
#     4   9  19  33  54  80 117 151 179 224 275 337
#     4  10  19  34  55  87 118 146 178 222 282 331
#
# _framework density 22.128696999999999
#
# number of rings (size 3 to 8) (size 9 to 14) (size 15 to 20)
#    0.000    1.538    1.538    4.615    0.000    3.077 
#    0.000    0.000    0.000    0.000    0.000   86.154 
#    0.000    0.000    0.000    0.000    0.000    0.000 
#
# Total GULP energy -145318.563499 kJ/mol
# GULP energy per Si atom -5589.175519 kJ/mol
# Density = 2.207833 g / cm^3
# Si number density = 22.128697 Si / 1000 Ang^3
#
#
#
# Elastic Constant Matrix: (Units=GPa)
#
#
# Indices 1 2 3 4 5 6 
#
# 1 22.2440 11.2872 1.9357 0.0000 0.0000 0.0000
# 2 11.2872 96.8369 9.1376 0.0000 0.0000 0.0000
# 3 1.9357 9.1376 126.9067 0.0000 0.0000 0.0000
# 4 0.0000 0.0000 0.0000 50.8264 0.0000 0.0000
# 5 0.0000 0.0000 0.0000 0.0000 21.0357 0.0000
# 6 0.0000 0.0000 0.0000 0.0000 0.0000 27.0613
#
#
#
# Elastic Compliance Matrix: (Units=1/GPa)
#
#
# Indices 1 2 3 4 5 6 
#
# 1 0.047796 -0.005540 -0.000330 0.000000 0.000000 0.000000
# 2 -0.005540 0.011039 -0.000710 0.000000 0.000000 0.000000
# 3 -0.000330 -0.000710 0.007936 0.000000 0.000000 0.000000
# 4 0.000000 0.000000 0.000000 0.019675 0.000000 0.000000
# 5 0.000000 0.000000 0.000000 0.000000 0.047538 0.000000
# 6 0.000000 0.000000 0.000000 0.000000 0.000000 0.036953
#
#
# Mechanical properties :
#
#
# Convention : Reuss Voigt Hill
#
# Bulk Modulus (GPa) = 18.65314 32.30098 25.47706
# Shear Modulus (GPa) = 24.75639 34.69315 29.72477
#
# Velocity S-wave (km/s) = 3.34839 3.96383 3.66904
# Velocity P-wave (km/s) = 4.83701 5.96471 5.43022
#
# Compressibility (1/GPa) = 0.05361029
#
# Stress axis : x y z
#
# Youngs Moduli (GPa) = 20.92239 90.58465 126.00823
#
# Poissons Ratio (x) = 0.50183 0.04160
# Poissons Ratio (y) = 0.11591 0.08951
# Poissons Ratio (z) = 0.00691 0.06435
#
# Static dielectric constant tensor:
#      x y z
#    x 1.493430 0.000000 0.000000 
#    y 0.000000 1.767750 0.000000 
#    z 0.000000 0.000000 1.865870 
# 
# From -- ./inp_files/1391.got.cif
#   From: 2010.05.17/outbox.cif.g08.bks.cpg/sg36_1_cif.got.tgz:1391.got - 2010.06.03 17:41:39.
