data_PCOD9351900
_publ_section_title
;
Structure prediction by ZEFSAII (Michael W. Deem and Ramdas Pophale) SiO2 
 PCOD9351900
Probable space group: C M C 21
;
_chemical_formula_sum "Si O2"
_cell_formula_units_Z 64
_cell_length_a 7.680834
_cell_length_b 26.817342
_cell_length_c 13.434009
_cell_angle_alpha 90.000000
_cell_angle_beta 90.000000
_cell_angle_gamma 90.000000
_cell_volume 2767.131158
_symmetry_space_group_name_H-M "C M C 21"
_symmetry_group_IT_number 36
_symmetry_cell_setting 'orthorhombic'
loop_
_space_group_symop_operation_xyz
x,y,z
-x,-y,1/2+z
x,-y,1/2+z
-x,y,z
1/2+x,1/2+y,z
1/2-x,1/2-y,1/2+z
1/2+x,1/2-y,1/2+z
1/2-x,1/2+y,z
loop_
_atom_site_type_symbol
_atom_site_label
_atom_site_fract_x
_atom_site_fract_y
_atom_site_fract_z
Si Si1 0.709145 0.558288 0.116080
Si Si2 0.788277 0.755273 0.207029
Si Si3 0.210159 0.697417 0.404575
Si Si4 0.199675 0.712452 0.016999
Si Si5 0.794133 0.410358 0.840866
Si Si6 0.698971 0.383881 0.421815
Si Si7 0.708680 0.548934 0.546771
Si Si8 0.714147 0.630898 0.702774
O O1 0.500000 0.558562 0.109197
O O2 0.746246 0.576380 0.228005
O O3 0.772396 0.502006 0.096958
O O4 0.775194 0.590997 0.021796
O O5 0.744420 0.733273 0.313224
O O6 0.725956 0.811847 0.195589
O O7 0.000000 0.755826 0.199151
O O8 0.727972 0.713534 0.128271
O O9 0.290200 0.728636 0.493896
O O10 0.277765 0.642657 0.380202
O O11 0.000000 0.696417 0.416932
O O12 0.300386 0.675280 0.945446
O O13 0.000000 0.696237 0.012536
O O14 0.000000 0.404519 0.839528
O O15 0.750092 0.448546 0.929531
O O16 0.500000 0.401805 0.414624
O O17 0.773053 0.390295 0.310776
O O18 0.500000 0.549356 0.554882
O O19 0.771661 0.596623 0.610552
O O20 0.500000 0.631654 0.704167
#
# Coordination Sequence:
#
# PCOD9351900 Si02
#       8
#     8   8   8   8   8   8   8   8
#     4  10  23  40  65  94 120 157 208 263 308 359
#     4   9  17  31  53  78 109 150 190 228 281 347
#     4  10  20  37  57  79 114 160 198 234 286 355
#     4  11  21  33  55  87 118 153 196 244 295 349
#     4  11  24  41  62  89 127 166 200 249 312 375
#     4  10  20  37  60  87 120 159 201 246 306 369
#     4  10  22  40  66  93 118 155 208 265 308 359
#     4   9  17  33  60  87 114 152 199 249 302 357
#
# _framework density 23.128647999999998
#
# number of rings (size 3 to 8) (size 9 to 14) (size 15 to 20)
#    0.000    2.000    1.250    2.250    1.750    4.000 
#    0.000    1.875    0.000    0.000    0.000    0.000 
#    0.000    0.000    0.000    0.000    0.000    0.000 
#
# Total GULP energy -178620.435245 kJ/mol
# GULP energy per Si atom -5581.888601 kJ/mol
# Density = 2.307601 g / cm^3
# Si number density = 23.128648 Si / 1000 Ang^3
#
#
#
# Elastic Constant Matrix: (Units=GPa)
#
#
# Indices 1 2 3 4 5 6 
#
# 1 44.9787 0.6074 -1.6735 0.0000 0.0000 0.0000
# 2 0.6074 66.2255 16.4945 0.0000 0.0000 0.0000
# 3 -1.6735 16.4945 130.8338 0.0000 0.0000 0.0000
# 4 0.0000 0.0000 0.0000 36.1416 0.0000 0.0000
# 5 0.0000 0.0000 0.0000 0.0000 3.4648 0.0000
# 6 0.0000 0.0000 0.0000 0.0000 0.0000 24.4479
#
#
#
# Elastic Compliance Matrix: (Units=1/GPa)
#
#
# Indices 1 2 3 4 5 6 
#
# 1 0.022248 -0.000284 0.000320 0.000000 0.000000 0.000000
# 2 -0.000284 0.015593 -0.001969 0.000000 0.000000 0.000000
# 3 0.000320 -0.001969 0.007896 0.000000 0.000000 0.000000
# 4 0.000000 0.000000 0.000000 0.027669 0.000000 0.000000
# 5 0.000000 0.000000 0.000000 0.000000 0.288617 0.000000
# 6 0.000000 0.000000 0.000000 0.000000 0.000000 0.040903
#
#
# Mechanical properties :
#
#
# Convention : Reuss Voigt Hill
#
# Bulk Modulus (GPa) = 23.88272 30.32165 27.10218
# Shear Modulus (GPa) = 11.88356 27.91818 19.90087
#
# Velocity S-wave (km/s) = 2.26918 3.47808 2.93651
# Velocity P-wave (km/s) = 4.14898 5.40997 4.82088
#
# Compressibility (1/GPa) = 0.04187129
#
# Stress axis : x y z
#
# Youngs Moduli (GPa) = 44.94689 64.13112 126.65158
#
# Poissons Ratio (x) = 0.01820 -0.04057
# Poissons Ratio (y) = 0.01276 0.24944
# Poissons Ratio (z) = -0.01440 0.12630
#
# Static dielectric constant tensor:
#      x y z
#    x 1.855840 0.000000 0.000000 
#    y 0.000000 1.900100 0.000000 
#    z 0.000000 0.000000 1.904550 
# 
# From -- ./inp_files/7053.got.cif
#   From: 2010.05.17/outbox.cif.g08.bks.cpg/sg36_4_cif.got.tgz:7053.got - 2010.06.03 17:41:39.
