data_PCOD9351201
_publ_section_title
;
Structure prediction by ZEFSAII (Michael W. Deem and Ramdas Pophale) SiO2 
 PCOD9351201
Probable space group: C M C 21
;
_chemical_formula_sum "Si O2"
_cell_formula_units_Z 56
_cell_length_a 15.104134
_cell_length_b 14.276665
_cell_length_c 13.497316
_cell_angle_alpha 90.000000
_cell_angle_beta 90.000000
_cell_angle_gamma 90.000000
_cell_volume 2910.516158
_symmetry_space_group_name_H-M "C M C 21"
_symmetry_group_IT_number 36
_symmetry_cell_setting 'orthorhombic'
loop_
_space_group_symop_operation_xyz
x,y,z
-x,-y,1/2+z
x,-y,1/2+z
-x,y,z
1/2+x,1/2+y,z
1/2-x,1/2-y,1/2+z
1/2+x,1/2-y,1/2+z
1/2-x,1/2+y,z
loop_
_atom_site_type_symbol
_atom_site_label
_atom_site_fract_x
_atom_site_fract_y
_atom_site_fract_z
Si Si1 0.399126 0.527425 0.005300
Si Si2 0.243731 0.234169 0.670171
Si Si3 0.249906 0.044950 0.170839
Si Si4 0.095461 0.626793 0.893061
Si Si5 0.279246 0.591842 0.847899
Si Si6 0.899615 0.604469 0.655610
Si Si7 0.598410 0.315216 0.007316
O O1 0.500000 0.547488 0.033533
O O2 0.331577 0.532160 0.096140
O O3 0.393751 0.420072 0.967350
O O4 0.363406 0.592562 0.917946
O O5 0.236239 0.344816 0.681754
O O6 0.227073 0.180510 0.774145
O O7 0.338783 0.194985 0.631252
O O8 0.171528 0.202555 0.590021
O O9 0.223521 0.996288 0.274280
O O10 0.337477 0.986438 0.136445
O O11 0.191656 0.585425 0.917801
O O12 0.091688 0.611071 0.775242
O O13 0.000000 0.592734 0.934136
O O14 0.102761 0.735358 0.924029
O O15 0.000000 0.602021 0.615366
O O16 0.500000 0.307833 0.053148
#
# Coordination Sequence:
#
# PCOD9351201 Si02
#       7
#     8   8   8   8   8   8   8
#     4  11  23  38  57  86 123 156 197 249 301 357
#     4  10  20  37  59  84 117 157 199 247 298 361
#     4  10  21  40  61  88 119 161 199 248 307 360
#     4   8  16  33  56  82 110 145 190 239 290 350
#     4  10  22  37  58  88 119 156 198 250 295 357
#     4   9  19  37  59  88 118 150 197 248 298 359
#     4  10  19  34  58  84 114 155 198 243 295 360
#
# _framework density 19.240573999999999
#
# number of rings (size 3 to 8) (size 9 to 14) (size 15 to 20)
#    0.000    2.571    2.857    0.857    4.000    2.286 
#    0.000    0.714    0.000    0.000    0.000    0.000 
#    0.000    0.000    0.000    0.000    0.000    0.000 
#
# Total GULP energy -155918.246549 kJ/mol
# GULP energy per Si atom -5568.508805 kJ/mol
# Density = 1.919678 g / cm^3
# Si number density = 19.240574 Si / 1000 Ang^3
#
#
#
# Elastic Constant Matrix: (Units=GPa)
#
#
# Indices 1 2 3 4 5 6 
#
# 1 147.7081 31.1554 43.3607 0.0000 0.0000 0.0000
# 2 31.1554 84.1780 21.3897 0.0000 0.0000 0.0000
# 3 43.3607 21.3897 37.8969 0.0000 0.0000 0.0000
# 4 0.0000 0.0000 0.0000 8.9765 0.0000 0.0000
# 5 0.0000 0.0000 0.0000 0.0000 26.6442 0.0000
# 6 0.0000 0.0000 0.0000 0.0000 0.0000 18.4324
#
#
#
# Elastic Compliance Matrix: (Units=1/GPa)
#
#
# Indices 1 2 3 4 5 6 
#
# 1 0.010259 -0.000951 -0.011201 0.000000 0.000000 0.000000
# 2 -0.000951 0.013957 -0.006790 0.000000 0.000000 0.000000
# 3 -0.011201 -0.006790 0.043036 0.000000 0.000000 0.000000
# 4 0.000000 0.000000 0.000000 0.111402 0.000000 0.000000
# 5 0.000000 0.000000 0.000000 0.000000 0.037532 0.000000
# 6 0.000000 0.000000 0.000000 0.000000 0.000000 0.054252
#
#
# Mechanical properties :
#
#
# Convention : Reuss Voigt Hill
#
# Bulk Modulus (GPa) = 34.05062 51.28831 42.66946
# Shear Modulus (GPa) = 15.71784 22.40243 19.06014
#
# Velocity S-wave (km/s) = 2.86127 3.41593 3.15083
# Velocity P-wave (km/s) = 5.35271 6.50172 5.95499
#
# Compressibility (1/GPa) = 0.02936804
#
# Stress axis : x y z
#
# Youngs Moduli (GPa) = 97.47666 71.65014 23.23639
#
# Poissons Ratio (x) = 0.06812 0.26028
# Poissons Ratio (y) = 0.09267 0.15777
# Poissons Ratio (z) = 1.09187 0.48648
#
# Static dielectric constant tensor:
#      x y z
#    x 1.739260 0.000000 0.000000 
#    y 0.000000 1.683300 0.000000 
#    z 0.000000 0.000000 1.662250 
# 
# From -- ./inp_files/12245.got.cif
#   From: 2010.05.17/outbox.cif.g08.bks.cpg/sg36_7_cif.got.tgz:12245.got - 2010.06.03 17:41:39.
