data_PCOD9351194
_publ_section_title
;
Structure prediction by ZEFSAII (Michael W. Deem and Ramdas Pophale) SiO2 
 PCOD9351194
Probable space group: C M C 21
;
_chemical_formula_sum "Si O2"
_cell_formula_units_Z 64
_cell_length_a 7.482268
_cell_length_b 20.432854
_cell_length_c 18.781538
_cell_angle_alpha 90.000000
_cell_angle_beta 90.000000
_cell_angle_gamma 90.000000
_cell_volume 2871.398339
_symmetry_space_group_name_H-M "C M C 21"
_symmetry_group_IT_number 36
_symmetry_cell_setting 'orthorhombic'
loop_
_space_group_symop_operation_xyz
x,y,z
-x,-y,1/2+z
x,-y,1/2+z
-x,y,z
1/2+x,1/2+y,z
1/2-x,1/2-y,1/2+z
1/2+x,1/2-y,1/2+z
1/2-x,1/2+y,z
loop_
_atom_site_type_symbol
_atom_site_label
_atom_site_fract_x
_atom_site_fract_y
_atom_site_fract_z
Si Si1 0.714971 0.198654 0.694000
Si Si2 0.718578 0.878927 0.462877
Si Si3 0.711170 0.172191 0.115832
Si Si4 0.219163 0.270797 0.352648
Si Si5 0.794039 0.869968 0.896818
Si Si6 0.216852 0.423505 0.741568
Si Si7 0.781027 0.552248 0.660671
Si Si8 0.793461 0.481539 0.003817
O O1 0.500000 0.195968 0.696924
O O2 0.762114 0.252260 0.635047
O O3 0.778270 0.223813 0.770989
O O4 0.779075 0.125372 0.678834
O O5 0.500000 0.876973 0.459417
O O6 0.777871 0.848473 0.538371
O O7 0.776916 0.833431 0.398015
O O8 0.778840 0.954362 0.463793
O O9 0.500000 0.159094 0.113651
O O10 0.780313 0.127412 0.180778
O O11 0.280604 0.203135 0.388244
O O12 0.000000 0.268726 0.351806
O O13 0.782254 0.902554 0.818891
O O14 0.000000 0.863630 0.917868
O O15 0.711692 0.917987 0.954698
O O16 0.269589 0.496120 0.716628
O O17 0.000000 0.421274 0.744294
O O18 0.717137 0.531663 0.582001
O O19 0.000000 0.553625 0.660069
O O20 0.000000 0.497982 0.017871
#
# Coordination Sequence:
#
# PCOD9351194 Si02
#       8
#     8   8   8   8   8   8   8   8
#     4  10  20  35  55  79 110 145 180 219 269 326
#     4   9  18  34  57  81 106 141 183 223 267 324
#     4  10  19  34  58  83 107 136 180 229 271 318
#     4   9  19  34  52  76 106 145 183 214 259 329
#     4  11  23  37  53  79 114 147 182 222 271 336
#     4  10  19  36  60  83 104 139 185 231 273 315
#     4   9  19  35  58  86 110 137 185 234 270 321
#     4  10  20  37  59  83 109 140 184 234 274 315
#
# _framework density 22.288791
#
# number of rings (size 3 to 8) (size 9 to 14) (size 15 to 20)
#    0.000    2.250    2.500    0.375    3.500    0.000 
#    0.000    1.875    0.000    2.250    0.000    0.000 
#    0.000    0.000    0.000    0.000    0.000    0.000 
#
# Total GULP energy -178802.879137 kJ/mol
# GULP energy per Si atom -5587.589973 kJ/mol
# Density = 2.223806 g / cm^3
# Si number density = 22.288791 Si / 1000 Ang^3
#
#
#
# Elastic Constant Matrix: (Units=GPa)
#
#
# Indices 1 2 3 4 5 6 
#
# 1 57.8350 -3.4989 -3.8592 0.0000 0.0000 0.0000
# 2 -3.4989 131.9220 1.0252 0.0000 0.0000 0.0000
# 3 -3.8592 1.0252 31.7230 0.0000 0.0000 0.0000
# 4 0.0000 0.0000 0.0000 41.6191 0.0000 0.0000
# 5 0.0000 0.0000 0.0000 0.0000 29.0649 0.0000
# 6 0.0000 0.0000 0.0000 0.0000 0.0000 -45.1795
#
#
#
# Elastic Compliance Matrix: (Units=1/GPa)
#
#
# Indices 1 2 3 4 5 6 
#
# 1 0.017458 0.000447 0.002109 0.000000 0.000000 0.000000
# 2 0.000447 0.007594 -0.000191 0.000000 0.000000 0.000000
# 3 0.002109 -0.000191 0.031786 0.000000 0.000000 0.000000
# 4 0.000000 0.000000 0.000000 0.024027 0.000000 0.000000
# 5 0.000000 0.000000 0.000000 0.000000 0.034406 0.000000
# 6 0.000000 0.000000 0.000000 0.000000 0.000000 -0.022134
#
#
# Mechanical properties :
#
#
# Convention : Reuss Voigt Hill
#
# Bulk Modulus (GPa) = 16.24229 23.20157 19.72193
# Shear Modulus (GPa) = 45.90125 20.28840 33.09483
#
# Velocity S-wave (km/s) = 4.54297 3.02031 3.85752
# Velocity P-wave (km/s) = 5.90094 4.75344 5.35800
#
# Compressibility (1/GPa) = 0.06156767
#
# Stress axis : x y z
#
# Youngs Moduli (GPa) = 57.27917 131.69042 31.46067
#
# Poissons Ratio (x) = -0.05882 -0.06636
# Poissons Ratio (y) = -0.02558 0.00601
# Poissons Ratio (z) = -0.12083 0.02516
#
# Static dielectric constant tensor:
#      x y z
#    x 1.841410 0.000000 0.000000 
#    y 0.000000 1.800430 0.000000 
#    z 0.000000 0.000000 1.764660 
# 
# From -- ./inp_files/13764.got.cif
#   From: 2010.05.17/outbox.cif.g08.bks.cpg/sg36_7_cif.got.tgz:13764.got - 2010.06.03 17:41:39.
