data_PCOD9351646
_publ_section_title
;
Structure prediction by ZEFSAII (Michael W. Deem and Ramdas Pophale) SiO2 
 PCOD9351646
Probable space group: C M C 21
;
_chemical_formula_sum "Si O2"
_cell_formula_units_Z 64
_cell_length_a 8.766949
_cell_length_b 21.072859
_cell_length_c 19.753560
_cell_angle_alpha 90.000000
_cell_angle_beta 90.000000
_cell_angle_gamma 90.000000
_cell_volume 3649.365124
_symmetry_space_group_name_H-M "C M C 21"
_symmetry_group_IT_number 36
_symmetry_cell_setting 'orthorhombic'
loop_
_space_group_symop_operation_xyz
x,y,z
-x,-y,1/2+z
x,-y,1/2+z
-x,y,z
1/2+x,1/2+y,z
1/2-x,1/2-y,1/2+z
1/2+x,1/2-y,1/2+z
1/2-x,1/2+y,z
loop_
_atom_site_type_symbol
_atom_site_label
_atom_site_fract_x
_atom_site_fract_y
_atom_site_fract_z
Si Si1 0.181570 0.616419 0.859950
Si Si2 0.682602 0.685577 0.490086
Si Si3 0.315832 0.433378 0.494846
Si Si4 0.314196 0.439579 0.071659
Si Si5 0.681130 0.696431 0.071261
Si Si6 0.816735 0.889204 0.214621
Si Si7 0.182325 0.742394 0.360060
Si Si8 0.681359 0.760776 0.705495
O O1 0.244496 0.573455 0.920652
O O2 0.238619 0.595332 0.785792
O O3 0.247681 0.687554 0.870900
O O4 0.000000 0.618919 0.861667
O O5 0.500000 0.685085 0.485500
O O6 0.732912 0.621498 0.527750
O O7 0.734604 0.746005 0.533841
O O8 0.753425 0.695413 0.416214
O O9 0.500000 0.435256 0.488263
O O10 0.265742 0.495692 0.535719
O O11 0.276104 0.370106 0.536973
O O12 0.500000 0.439338 0.073001
O O13 0.266345 0.429524 0.149547
O O14 0.500000 0.704816 0.063263
O O15 0.727265 0.700810 0.149586
O O16 0.786440 0.814732 0.198721
O O17 0.000000 0.894806 0.223021
O O18 0.217706 0.722504 0.283100
O O19 0.000000 0.748198 0.366268
O O20 0.500000 0.769038 0.694568
#
# Coordination Sequence:
#
# PCOD9351646 Si02
#       8
#     8   8   8   8   8   8   8   8
#     4  11  21  33  53  82 111 143 183 228 275 327
#     4  11  20  34  57  83 109 138 180 231 277 323
#     4  10  21  38  57  79 110 149 189 225 268 327
#     4   9  19  37  59  81 107 146 189 225 269 327
#     4  11  21  32  53  82 111 141 179 226 274 325
#     4   9  17  34  57  79 105 140 183 230 276 326
#     4  10  20  35  54  80 111 146 183 225 278 331
#     4   9  18  33  54  78 108 141 178 224 275 326
#
# _framework density 17.537296999999999
#
# number of rings (size 3 to 8) (size 9 to 14) (size 15 to 20)
#    0.000    2.000    2.500    3.000    0.000    3.000 
#    0.000    3.125    0.000    6.000    0.000    0.000 
#    0.000    0.000    0.000    0.000    0.000    0.000 
#
# Total GULP energy -178617.740853 kJ/mol
# GULP energy per Si atom -5581.804402 kJ/mol
# Density = 1.749738 g / cm^3
# Si number density = 17.537297 Si / 1000 Ang^3
#
#
#
# Elastic Constant Matrix: (Units=GPa)
#
#
# Indices 1 2 3 4 5 6 
#
# 1 44.0819 34.1007 49.2347 0.0000 0.0000 0.0000
# 2 34.1007 98.2926 73.8094 0.0000 0.0000 0.0000
# 3 49.2347 73.8094 163.4144 0.0000 0.0000 0.0000
# 4 0.0000 0.0000 0.0000 28.8463 0.0000 0.0000
# 5 0.0000 0.0000 0.0000 0.0000 33.7098 0.0000
# 6 0.0000 0.0000 0.0000 0.0000 0.0000 17.5940
#
#
#
# Elastic Compliance Matrix: (Units=1/GPa)
#
#
# Indices 1 2 3 4 5 6 
#
# 1 0.036926 -0.006744 -0.008079 0.000000 0.000000 0.000000
# 2 -0.006744 0.016627 -0.005478 0.000000 0.000000 0.000000
# 3 -0.008079 -0.005478 0.011028 0.000000 0.000000 0.000000
# 4 0.000000 0.000000 0.000000 0.034666 0.000000 0.000000
# 5 0.000000 0.000000 0.000000 0.000000 0.029665 0.000000
# 6 0.000000 0.000000 0.000000 0.000000 0.000000 0.056837
#
#
# Mechanical properties :
#
#
# Convention : Reuss Voigt Hill
#
# Bulk Modulus (GPa) = 41.70461 68.89760 55.30111
# Shear Modulus (GPa) = 21.33615 25.93963 23.63789
#
# Velocity S-wave (km/s) = 3.49179 3.85010 3.67531
# Velocity P-wave (km/s) = 6.33158 7.68999 7.04361
#
# Compressibility (1/GPa) = 0.02397816
#
# Stress axis : x y z
#
# Youngs Moduli (GPa) = 27.08152 60.14361 90.67933
#
# Poissons Ratio (x) = 0.40559 0.73262
# Poissons Ratio (y) = 0.18263 0.49675
# Poissons Ratio (z) = 0.21880 0.32947
#
# Static dielectric constant tensor:
#      x y z
#    x 1.591480 0.000000 0.000000 
#    y 0.000000 1.573680 0.000000 
#    z 0.000000 0.000000 1.612350 
# 
# From -- ./inp_files/15652.got.cif
#   From: 2010.05.17/outbox.cif.g08.bks.cpg/sg36_8_cif.got.tgz:15652.got - 2010.06.03 17:41:39.
