data_PCOD9351775
_publ_section_title
;
Structure prediction by ZEFSAII (Michael W. Deem and Ramdas Pophale) SiO2 
 PCOD9351775
Probable space group: C M C 21
;
_chemical_formula_sum "Si O2"
_cell_formula_units_Z 48
_cell_length_a 7.828738
_cell_length_b 29.145447
_cell_length_c 8.164251
_cell_angle_alpha 90.000000
_cell_angle_beta 90.000000
_cell_angle_gamma 90.000000
_cell_volume 1862.854038
_symmetry_space_group_name_H-M "C M C 21"
_symmetry_group_IT_number 36
_symmetry_cell_setting 'orthorhombic'
loop_
_space_group_symop_operation_xyz
x,y,z
-x,-y,1/2+z
x,-y,1/2+z
-x,y,z
1/2+x,1/2+y,z
1/2-x,1/2-y,1/2+z
1/2+x,1/2-y,1/2+z
1/2-x,1/2+y,z
loop_
_atom_site_type_symbol
_atom_site_label
_atom_site_fract_x
_atom_site_fract_y
_atom_site_fract_z
Si Si1 0.301594 0.680916 0.834780
Si Si2 0.707220 0.734658 0.523323
Si Si3 0.697970 0.349434 0.820881
Si Si4 0.691794 0.094003 0.014227
Si Si5 0.295791 0.927971 0.042854
Si Si6 0.207545 0.487684 0.719138
O O1 0.500000 0.678271 0.801476
O O2 0.222389 0.708777 0.683359
O O3 0.272473 0.714593 0.988841
O O4 0.245932 0.629642 0.875453
O O5 0.500000 0.736511 0.527951
O O6 0.756599 0.700855 0.373714
O O7 0.500000 0.348458 0.768383
O O8 0.802611 0.374645 0.679728
O O9 0.710184 0.381018 0.984926
O O10 0.500000 0.080742 0.971522
O O11 0.777760 0.047503 0.080684
O O12 0.500000 0.919515 0.053027
O O13 0.262433 0.962708 0.890180
O O14 0.235826 0.959899 0.193323
O O15 0.000000 0.489277 0.702053
#
# Coordination Sequence:
#
# PCOD9351775 Si02
#       6
#     8   8   8   8   8   8
#     4  11  23  38  57  81 108 138 175 221 269 317
#     4  10  23  40  56  78 109 142 177 218 265 322
#     4  10  20  36  56  79 109 144 181 222 269 317
#     4  10  20  36  57  81 109 142 181 222 266 318
#     4   9  17  32  52  75 104 139 180 223 266 312
#     4   8  16  30  50  74 101 135 174 216 259 308
#
# _framework density 25.766914
#
# number of rings (size 3 to 8) (size 9 to 14) (size 15 to 20)
#    0.000    2.333    0.000    3.500    0.000    6.667 
#    0.000    5.833    0.000    0.000    0.000    0.000 
#    0.000    0.000    0.000    0.000    0.000    0.000 
#
# Total GULP energy -134191.315399 kJ/mol
# GULP energy per Si atom -5591.304808 kJ/mol
# Density = 2.570827 g / cm^3
# Si number density = 25.766914 Si / 1000 Ang^3
#
#
#
# Elastic Constant Matrix: (Units=GPa)
#
#
# Indices 1 2 3 4 5 6 
#
# 1 37.9930 -1.6357 -2.3701 0.0000 0.0000 0.0000
# 2 -1.6357 163.0557 7.0179 0.0000 0.0000 0.0000
# 3 -2.3701 7.0179 67.9559 0.0000 0.0000 0.0000
# 4 0.0000 0.0000 0.0000 52.3244 0.0000 0.0000
# 5 0.0000 0.0000 0.0000 0.0000 18.5020 0.0000
# 6 0.0000 0.0000 0.0000 0.0000 0.0000 13.1239
#
#
#
# Elastic Compliance Matrix: (Units=1/GPa)
#
#
# Indices 1 2 3 4 5 6 
#
# 1 0.026386 0.000226 0.000897 0.000000 0.000000 0.000000
# 2 0.000226 0.006162 -0.000628 0.000000 0.000000 0.000000
# 3 0.000897 -0.000628 0.014812 0.000000 0.000000 0.000000
# 4 0.000000 0.000000 0.000000 0.019112 0.000000 0.000000
# 5 0.000000 0.000000 0.000000 0.000000 0.054048 0.000000
# 6 0.000000 0.000000 0.000000 0.000000 0.000000 0.076197
#
#
# Mechanical properties :
#
#
# Convention : Reuss Voigt Hill
#
# Bulk Modulus (GPa) = 20.68289 30.55877 25.62083
# Shear Modulus (GPa) = 23.60224 34.52288 29.06256
#
# Velocity S-wave (km/s) = 3.02982 3.66432 3.36207
# Velocity P-wave (km/s) = 4.50378 5.45788 5.00362
#
# Compressibility (1/GPa) = 0.04834915
#
# Stress axis : x y z
#
# Youngs Moduli (GPa) = 37.89841 162.27991 67.51459
#
# Poissons Ratio (x) = -0.03669 -0.06055
# Poissons Ratio (y) = -0.00857 0.04243
# Poissons Ratio (z) = -0.03399 0.10199
#
# Static dielectric constant tensor:
#      x y z
#    x 1.926700 0.000000 0.000000 
#    y 0.000000 2.002120 0.000000 
#    z 0.000000 0.000000 2.187840 
# 
# From -- ./inp_files/2690.got.cif
#   From: 2010.05.17/outbox.cif.g08.bks.cpg/sg36_2_cif.got.tgz:2690.got - 2010.06.03 17:41:39.
