data_PCOD9351879
_publ_section_title
;
Structure prediction by ZEFSAII (Michael W. Deem and Ramdas Pophale) SiO2 
 PCOD9351879
Probable space group: C M C 21
;
_chemical_formula_sum "Si O2"
_cell_formula_units_Z 56
_cell_length_a 9.991655
_cell_length_b 19.097094
_cell_length_c 13.759593
_cell_angle_alpha 90.000000
_cell_angle_beta 90.000000
_cell_angle_gamma 90.000000
_cell_volume 2625.489608
_symmetry_space_group_name_H-M "C M C 21"
_symmetry_group_IT_number 36
_symmetry_cell_setting 'orthorhombic'
loop_
_space_group_symop_operation_xyz
x,y,z
-x,-y,1/2+z
x,-y,1/2+z
-x,y,z
1/2+x,1/2+y,z
1/2-x,1/2-y,1/2+z
1/2+x,1/2-y,1/2+z
1/2-x,1/2+y,z
loop_
_atom_site_type_symbol
_atom_site_label
_atom_site_fract_x
_atom_site_fract_y
_atom_site_fract_z
Si Si1 0.143499 0.127286 0.864340
Si Si2 0.659397 0.968460 0.648984
Si Si3 0.839676 0.269450 0.756897
Si Si4 0.844738 0.398571 0.040766
Si Si5 0.848625 0.797234 0.938176
Si Si6 0.346202 0.000684 0.855821
Si Si7 0.262105 0.172055 0.049342
O O1 0.161315 0.186881 0.782738
O O2 0.256325 0.068914 0.864160
O O3 0.000000 0.092643 0.849576
O O4 0.143680 0.165591 0.970237
O O5 0.500000 0.965645 0.636554
O O6 0.711903 0.908112 0.579577
O O7 0.697391 0.048390 0.625744
O O8 0.693829 0.956391 0.760812
O O9 0.745523 0.299432 0.842885
O O10 0.773822 0.289905 0.654031
O O11 0.000000 0.291091 0.758932
O O12 0.737228 0.339474 0.018261
O O13 0.842163 0.450659 0.948231
O O14 0.000000 0.374226 0.053412
O O15 0.000000 0.823549 0.922734
O O16 0.858270 0.718334 0.980517
O O17 0.500000 0.022995 0.841819
#
# Coordination Sequence:
#
# PCOD9351879 Si02
#       7
#     8   8   8   8   8   8   8
#     4  10  23  41  62  96 136 169 205 264 334 384
#     4  10  20  36  62  92 116 157 217 266 306 365
#     4  10  22  40  64  90 123 167 212 259 318 381
#     4  10  21  39  61  88 125 165 208 260 315 374
#     4  11  24  39  62  95 129 165 209 265 321 376
#     4  10  21  39  65  92 120 164 219 265 313 377
#     4  11  22  42  68  91 125 171 220 261 313 385
#
# _framework density 21.329355
#
# number of rings (size 3 to 8) (size 9 to 14) (size 15 to 20)
#    0.000    1.714    1.429    2.571    2.000    5.714 
#    0.000    0.714    0.000    0.000    0.000    0.000 
#    0.000    0.000    0.000    0.000    0.000    0.000 
#
# Total GULP energy -155990.086018 kJ/mol
# GULP energy per Si atom -5571.074501 kJ/mol
# Density = 2.128081 g / cm^3
# Si number density = 21.329355 Si / 1000 Ang^3
#
#
#
# Elastic Constant Matrix: (Units=GPa)
#
#
# Indices 1 2 3 4 5 6 
#
# 1 92.2098 49.7974 3.4827 0.0000 0.0000 0.0000
# 2 49.7974 61.3375 9.3183 0.0000 0.0000 0.0000
# 3 3.4827 9.3183 85.9796 0.0000 0.0000 0.0000
# 4 0.0000 0.0000 0.0000 33.4996 0.0000 0.0000
# 5 0.0000 0.0000 0.0000 0.0000 3.3797 0.0000
# 6 0.0000 0.0000 0.0000 0.0000 0.0000 11.3793
#
#
#
# Elastic Compliance Matrix: (Units=1/GPa)
#
#
# Indices 1 2 3 4 5 6 
#
# 1 0.019386 -0.015881 0.000936 0.000000 0.000000 0.000000
# 2 -0.015881 0.029585 -0.002563 0.000000 0.000000 0.000000
# 3 0.000936 -0.002563 0.011871 0.000000 0.000000 0.000000
# 4 0.000000 0.000000 0.000000 0.029851 0.000000 0.000000
# 5 0.000000 0.000000 0.000000 0.000000 0.295883 0.000000
# 6 0.000000 0.000000 0.000000 0.000000 0.000000 0.087879
#
#
# Mechanical properties :
#
#
# Convention : Reuss Voigt Hill
#
# Bulk Modulus (GPa) = 38.72083 40.52486 39.62285
# Shear Modulus (GPa) = 9.65104 21.44696 15.54900
#
# Velocity S-wave (km/s) = 2.12946 3.17442 2.70292
# Velocity P-wave (km/s) = 4.92334 5.69884 5.32523
#
# Compressibility (1/GPa) = 0.02582589
#
# Stress axis : x y z
#
# Youngs Moduli (GPa) = 51.58431 33.80037 84.24207
#
# Poissons Ratio (x) = 0.53677 -0.07884
# Poissons Ratio (y) = 0.81919 0.21593
# Poissons Ratio (z) = -0.04828 0.08664
#
# Static dielectric constant tensor:
#      x y z
#    x 1.789720 0.000000 0.000000 
#    y 0.000000 1.825420 0.000000 
#    z 0.000000 0.000000 1.815640 
# 
# From -- ./inp_files/10635.got.cif
#   From: 2010.05.17/outbox.cif.g08.bks.cpg/sg36_6_cif.got.tgz:10635.got - 2010.06.03 17:41:39.
