data_PCOD9351708
_publ_section_title
;
Structure prediction by ZEFSAII (Michael W. Deem and Ramdas Pophale) SiO2 
 PCOD9351708
Probable space group: C M C 21
;
_chemical_formula_sum "Si O2"
_cell_formula_units_Z 40
_cell_length_a 18.051009
_cell_length_b 20.558455
_cell_length_c 5.129531
_cell_angle_alpha 90.000000
_cell_angle_beta 90.000000
_cell_angle_gamma 90.000000
_cell_volume 1903.573346
_symmetry_space_group_name_H-M "C M C 21"
_symmetry_group_IT_number 36
_symmetry_cell_setting 'orthorhombic'
loop_
_space_group_symop_operation_xyz
x,y,z
-x,-y,1/2+z
x,-y,1/2+z
-x,y,z
1/2+x,1/2+y,z
1/2-x,1/2-y,1/2+z
1/2+x,1/2-y,1/2+z
1/2-x,1/2+y,z
loop_
_atom_site_type_symbol
_atom_site_label
_atom_site_fract_x
_atom_site_fract_y
_atom_site_fract_z
Si Si1 0.303104 0.660697 0.674960
Si Si2 0.244246 0.456111 0.440330
Si Si3 0.330399 0.208034 0.422155
Si Si4 0.419876 0.955517 0.356863
Si Si5 0.912736 0.745117 0.943292
O O1 0.303302 0.597970 0.854562
O O2 0.233611 0.656836 0.478944
O O3 0.374972 0.685224 0.518805
O O4 0.288320 0.723677 0.858970
O O5 0.250849 0.486543 0.725453
O O6 0.161290 0.426361 0.404083
O O7 0.380982 0.219806 0.672267
O O8 0.383193 0.199051 0.175801
O O9 0.500000 0.920642 0.391784
O O10 0.420206 0.014665 0.566469
O O11 0.000000 0.750022 0.939780
#
# Coordination Sequence:
#
# PCOD9351708 Si02
#       5
#     8   8   8   8   8
#     4  10  21  37  60  83 117 146 192 232 296 334
#     4  10  22  33  54  81 109 149 190 230 269 341
#     4  10  20  35  59  84 108 154 180 241 287 345
#     4   8  14  28  45  64  94 133 173 211 257 305
#     4  10  20  35  57  86 114 146 185 234 298 347
#
# _framework density 21.013114000000002
#
# number of rings (size 3 to 8) (size 9 to 14) (size 15 to 20)
#    1.200    1.200    2.000    0.600    2.800    0.000 
#    0.000    2.000    0.000   10.800    0.000    0.000 
#    0.000    0.000    0.000    0.000    0.000    0.000 
#
# Total GULP energy -111528.617730 kJ/mol
# GULP energy per Si atom -5576.430887 kJ/mol
# Density = 2.096529 g / cm^3
# Si number density = 21.013114 Si / 1000 Ang^3
#
#
#
# Elastic Constant Matrix: (Units=GPa)
#
#
# Indices 1 2 3 4 5 6 
#
# 1 107.8671 12.6581 33.9444 0.0000 0.0000 0.0000
# 2 12.6581 63.6560 15.6093 0.0000 0.0000 0.0000
# 3 33.9444 15.6093 111.3065 0.0000 0.0000 0.0000
# 4 0.0000 0.0000 0.0000 29.5210 0.0000 0.0000
# 5 0.0000 0.0000 0.0000 0.0000 23.6886 0.0000
# 6 0.0000 0.0000 0.0000 0.0000 0.0000 10.0484
#
#
#
# Elastic Compliance Matrix: (Units=1/GPa)
#
#
# Indices 1 2 3 4 5 6 
#
# 1 0.010363 -0.001331 -0.002973 0.000000 0.000000 0.000000
# 2 -0.001331 0.016440 -0.001899 0.000000 0.000000 0.000000
# 3 -0.002973 -0.001899 0.010157 0.000000 0.000000 0.000000
# 4 0.000000 0.000000 0.000000 0.033874 0.000000 0.000000
# 5 0.000000 0.000000 0.000000 0.000000 0.042214 0.000000
# 6 0.000000 0.000000 0.000000 0.000000 0.000000 0.099518
#
#
# Mechanical properties :
#
#
# Convention : Reuss Voigt Hill
#
# Bulk Modulus (GPa) = 40.73131 45.25035 42.99083
# Shear Modulus (GPa) = 21.44457 27.35946 24.40201
#
# Velocity S-wave (km/s) = 3.19804 3.61226 3.41145
# Velocity P-wave (km/s) = 5.75000 6.24332 6.00173
#
# Compressibility (1/GPa) = 0.02455114
#
# Stress axis : x y z
#
# Youngs Moduli (GPa) = 96.50054 60.82738 98.45056
#
# Poissons Ratio (x) = 0.08099 0.29274
# Poissons Ratio (y) = 0.12849 0.18700
# Poissons Ratio (z) = 0.28694 0.11554
#
# Static dielectric constant tensor:
#      x y z
#    x 1.767700 0.000000 0.000000 
#    y 0.000000 1.799610 0.000000 
#    z 0.000000 0.000000 1.787800 
# 
# From -- ./inp_files/1081.got.cif
#   From: 2010.05.17/outbox.cif.g08.bks.cpg/sg36_1_cif.got.tgz:1081.got - 2010.06.03 17:41:39.
