data_PCOD9351371
_publ_section_title
;
Structure prediction by ZEFSAII (Michael W. Deem and Ramdas Pophale) SiO2 
 PCOD9351371
Probable space group: C M C 21
;
_chemical_formula_sum "Si O2"
_cell_formula_units_Z 56
_cell_length_a 30.099723
_cell_length_b 5.300513
_cell_length_c 17.899005
_cell_angle_alpha 90.000000
_cell_angle_beta 90.000000
_cell_angle_gamma 90.000000
_cell_volume 2855.678371
_symmetry_space_group_name_H-M "C M C 21"
_symmetry_group_IT_number 36
_symmetry_cell_setting 'orthorhombic'
loop_
_space_group_symop_operation_xyz
x,y,z
-x,-y,1/2+z
x,-y,1/2+z
-x,y,z
1/2+x,1/2+y,z
1/2-x,1/2-y,1/2+z
1/2+x,1/2-y,1/2+z
1/2-x,1/2+y,z
loop_
_atom_site_type_symbol
_atom_site_label
_atom_site_fract_x
_atom_site_fract_y
_atom_site_fract_z
Si Si1 0.301909 0.137168 0.883060
Si Si2 0.701643 0.633725 0.943116
Si Si3 0.123637 0.487977 0.796181
Si Si4 0.000000 0.497671 0.536132
Si Si5 0.136171 0.029401 0.545581
Si Si6 0.500000 0.501487 0.138633
Si Si7 0.096304 0.470510 0.969405
Si Si8 0.403183 0.487794 0.708660
O O1 0.320645 0.419689 0.891250
O O2 0.250412 0.168528 0.906600
O O3 0.322698 0.026155 0.807754
O O4 0.315487 0.918055 0.940996
O O5 0.688331 0.516476 0.022956
O O6 0.111270 0.224849 0.758807
O O7 0.105924 0.722598 0.748849
O O8 0.104370 0.497183 0.880508
O O9 0.000000 0.240898 0.584391
O O10 0.044114 0.507151 0.486885
O O11 0.000000 0.739746 0.591171
O O12 0.118590 0.296565 0.515179
O O13 0.124887 0.002360 0.631938
O O14 0.111045 0.802992 0.501815
O O15 0.545037 0.492777 0.186693
#
# Coordination Sequence:
#
# PCOD9351371 Si02
#       8
#     8   8   8   4   8   4   8   8
#     4  10  20  36  65  95 123 165 216 269 330 379
#     4  10  19  36  67  96 118 161 225 267 313 396
#     4  12  24  42  62 102 132 175 214 276 339 396
#     4  12  22  42  66  94 126 170 242 282 304 376
#     4  12  21  42  65 101 121 177 223 268 320 405
#     4  12  24  44  64  92 134 190 218 266 350 388
#     4  12  23  39  68  94 123 173 234 274 312 387
#     4  12  26  40  66  93 143 177 216 270 343 409
#
# _framework density 19.610050999999999
#
# number of rings (size 3 to 8) (size 9 to 14) (size 15 to 20)
#    0.000    0.571    5.714    3.429    0.000    1.143 
#    0.000    0.000    0.000   20.571    0.000    0.000 
#    0.000    0.000    0.000    0.000    0.000    0.000 
#
# Total GULP energy -155880.891212 kJ/mol
# GULP energy per Si atom -5567.174686 kJ/mol
# Density = 1.956542 g / cm^3
# Si number density = 19.610051 Si / 1000 Ang^3
#
#
#
# Elastic Constant Matrix: (Units=GPa)
#
#
# Indices 1 2 3 4 5 6 
#
# 1 109.5348 15.2591 38.2615 0.0000 0.0000 0.0000
# 2 15.2591 157.5095 40.4565 0.0000 0.0000 0.0000
# 3 38.2615 40.4565 111.4711 0.0000 0.0000 0.0000
# 4 0.0000 0.0000 0.0000 40.8380 0.0000 0.0000
# 5 0.0000 0.0000 0.0000 0.0000 28.6730 0.0000
# 6 0.0000 0.0000 0.0000 0.0000 0.0000 0.7916
#
#
#
# Elastic Compliance Matrix: (Units=1/GPa)
#
#
# Indices 1 2 3 4 5 6 
#
# 1 0.010375 -0.000100 -0.003525 0.000000 0.000000 0.000000
# 2 -0.000100 0.007002 -0.002507 0.000000 0.000000 0.000000
# 3 -0.003525 -0.002507 0.011091 0.000000 0.000000 0.000000
# 4 0.000000 0.000000 0.000000 0.024487 0.000000 0.000000
# 5 0.000000 0.000000 0.000000 0.000000 0.034876 0.000000
# 6 0.000000 0.000000 0.000000 0.000000 0.000000 1.263244
#
#
# Mechanical properties :
#
#
# Convention : Reuss Voigt Hill
#
# Bulk Modulus (GPa) = 61.71165 62.94107 62.32636
# Shear Modulus (GPa) = 3.65299 33.02974 18.34136
#
# Velocity S-wave (km/s) = 1.36633 4.10851 3.06159
# Velocity P-wave (km/s) = 5.83325 7.39408 6.65955
#
# Compressibility (1/GPa) = 0.01620440
#
# Stress axis : x y z
#
# Youngs Moduli (GPa) = 96.38873 142.80698 90.16531
#
# Poissons Ratio (x) = 0.01424 0.31782
# Poissons Ratio (y) = 0.00961 0.22606
# Poissons Ratio (z) = 0.33975 0.35804
#
# Static dielectric constant tensor:
#      x y z
#    x 2.342960 0.000000 0.000000 
#    y 0.000000 1.725050 0.000000 
#    z 0.000000 0.000000 1.666620 
# 
# From -- ./inp_files/13195.got.cif
#   From: 2010.05.17/outbox.cif.g08.bks.cpg/sg36_7_cif.got.tgz:13195.got - 2010.06.03 17:41:39.
