data_PCOD9351608
_publ_section_title
;
Structure prediction by ZEFSAII (Michael W. Deem and Ramdas Pophale) SiO2 
 PCOD9351608
Probable space group: C M C 21
;
_chemical_formula_sum "Si O2"
_cell_formula_units_Z 48
_cell_length_a 7.817644
_cell_length_b 13.914280
_cell_length_c 23.534732
_cell_angle_alpha 90.000000
_cell_angle_beta 90.000000
_cell_angle_gamma 90.000000
_cell_volume 2560.034896
_symmetry_space_group_name_H-M "C M C 21"
_symmetry_group_IT_number 36
_symmetry_cell_setting 'orthorhombic'
loop_
_space_group_symop_operation_xyz
x,y,z
-x,-y,1/2+z
x,-y,1/2+z
-x,y,z
1/2+x,1/2+y,z
1/2-x,1/2-y,1/2+z
1/2+x,1/2-y,1/2+z
1/2-x,1/2+y,z
loop_
_atom_site_type_symbol
_atom_site_label
_atom_site_fract_x
_atom_site_fract_y
_atom_site_fract_z
Si Si1 0.500000 0.879099 0.832660
Si Si2 0.000000 0.147350 0.840377
Si Si3 0.310437 0.123666 0.629692
Si Si4 0.500000 0.864907 0.700682
Si Si5 0.500000 0.631796 0.708638
Si Si6 0.704650 0.503610 0.025934
Si Si7 0.696028 0.647720 0.118927
Si Si8 0.196711 0.988622 0.895745
O O1 0.500000 0.762921 0.842126
O O2 0.500000 0.899408 0.765172
O O3 0.331810 0.927225 0.860346
O O4 0.000000 0.111288 0.775252
O O5 0.162042 0.095994 0.870934
O O6 0.500000 0.103810 0.651905
O O7 0.165410 0.096537 0.674592
O O8 0.283690 0.072011 0.569644
O O9 0.295034 0.237614 0.619254
O O10 0.500000 0.748211 0.704765
O O11 0.667652 0.890387 0.664304
O O12 0.500000 0.489664 0.026061
O O13 0.738078 0.604957 0.057062
O O14 0.758008 0.495529 0.960882
O O15 0.500000 0.620376 0.132786
O O16 0.000000 0.947923 0.894210
#
# Coordination Sequence:
#
# PCOD9351608 Si02
#       8
#     4   4   8   4   4   8   8   8
#     4  11  22  43  67  85 121 168 197 253 308 342
#     4   9  22  45  63  85 125 164 199 253 302 346
#     4  10  20  34  57  88 114 150 190 230 298 358
#     4   9  20  35  58  87 115 146 200 233 287 366
#     4   9  18  39  56  81 123 150 182 249 289 344
#     4  10  20  38  57  82 121 147 188 247 286 344
#     4   9  20  36  55  84 120 151 182 236 298 349
#     4   9  23  43  58  89 123 154 214 251 284 370
#
# _framework density 18.749745000000001
#
# number of rings (size 3 to 8) (size 9 to 14) (size 15 to 20)
#    0.500    2.000    0.833    0.000    2.333    3.333 
#    3.000    1.667    0.000    0.000    0.000    0.000 
#    0.000    0.000    0.000    0.000    0.000    0.000 
#
# Total GULP energy -133775.481679 kJ/mol
# GULP energy per Si atom -5573.978403 kJ/mol
# Density = 1.870707 g / cm^3
# Si number density = 18.749745 Si / 1000 Ang^3
#
#
#
# Elastic Constant Matrix: (Units=GPa)
#
#
# Indices 1 2 3 4 5 6 
#
# 1 46.6293 9.4130 30.8629 0.0000 0.0000 0.0000
# 2 9.4130 52.9026 -3.8654 0.0000 0.0000 0.0000
# 3 30.8629 -3.8654 100.1241 0.0000 0.0000 0.0000
# 4 0.0000 0.0000 0.0000 13.1663 0.0000 0.0000
# 5 0.0000 0.0000 0.0000 0.0000 14.1480 0.0000
# 6 0.0000 0.0000 0.0000 0.0000 0.0000 -5.8709
#
#
#
# Elastic Compliance Matrix: (Units=1/GPa)
#
#
# Indices 1 2 3 4 5 6 
#
# 1 0.028584 -0.005746 -0.009033 0.000000 0.000000 0.000000
# 2 -0.005746 0.020111 0.002548 0.000000 0.000000 0.000000
# 3 -0.009033 0.002548 0.012870 0.000000 0.000000 0.000000
# 4 0.000000 0.000000 0.000000 0.075951 0.000000 0.000000
# 5 0.000000 0.000000 0.000000 0.000000 0.070681 0.000000
# 6 0.000000 0.000000 0.000000 0.000000 0.000000 -0.170333
#
#
# Mechanical properties :
#
#
# Convention : Reuss Voigt Hill
#
# Bulk Modulus (GPa) = 26.95181 30.27524 28.61353
# Shear Modulus (GPa) = 66.93799 15.17173 41.05486
#
# Velocity S-wave (km/s) = 5.98149 2.84768 4.68442
# Velocity P-wave (km/s) = 7.88099 5.19562 6.67475
#
# Compressibility (1/GPa) = 0.03710326
#
# Stress axis : x y z
#
# Youngs Moduli (GPa) = 34.98418 49.72356 77.69820
#
# Poissons Ratio (x) = 0.28571 0.70184
# Poissons Ratio (y) = 0.20102 -0.19794
# Poissons Ratio (z) = 0.31601 -0.12668
#
# Static dielectric constant tensor:
#      x y z
#    x 1.659110 0.000000 0.000000 
#    y 0.000000 1.666270 0.000000 
#    z 0.000000 0.000000 1.625430 
# 
# From -- ./inp_files/15359.got.cif
#   From: 2010.05.17/outbox.cif.g08.bks.cpg/sg36_8_cif.got.tgz:15359.got - 2010.06.03 17:41:39.
