data_PCOD9351374
_publ_section_title
;
Structure prediction by ZEFSAII (Michael W. Deem and Ramdas Pophale) SiO2 
 PCOD9351374
Probable space group: C M C 21
;
_chemical_formula_sum "Si O2"
_cell_formula_units_Z 64
_cell_length_a 24.274626
_cell_length_b 9.429019
_cell_length_c 14.613464
_cell_angle_alpha 90.000000
_cell_angle_beta 90.000000
_cell_angle_gamma 90.000000
_cell_volume 3344.816003
_symmetry_space_group_name_H-M "C M C 21"
_symmetry_group_IT_number 36
_symmetry_cell_setting 'orthorhombic'
loop_
_space_group_symop_operation_xyz
x,y,z
-x,-y,1/2+z
x,-y,1/2+z
-x,y,z
1/2+x,1/2+y,z
1/2-x,1/2-y,1/2+z
1/2+x,1/2-y,1/2+z
1/2-x,1/2+y,z
loop_
_atom_site_type_symbol
_atom_site_label
_atom_site_fract_x
_atom_site_fract_y
_atom_site_fract_z
Si Si1 0.647141 0.291731 0.026590
Si Si2 0.860062 0.946573 0.415037
Si Si3 0.934781 0.328110 0.942126
Si Si4 0.938356 0.556575 0.084395
Si Si5 0.327381 0.351007 0.230260
Si Si6 0.618357 0.049215 0.267528
Si Si7 0.790196 0.616507 0.668373
Si Si8 0.742292 0.364105 0.539998
O O1 0.606197 0.163240 0.043999
O O2 0.655114 0.370026 0.124959
O O3 0.707255 0.230260 0.001334
O O4 0.623667 0.402833 0.955455
O O5 0.902029 0.819334 0.437690
O O6 0.854189 0.949572 0.305921
O O7 0.800868 0.914004 0.463616
O O8 0.907185 0.435446 0.867920
O O9 0.000000 0.310165 0.922877
O O10 0.928680 0.403082 0.040131
O O11 0.929953 0.557168 0.192833
O O12 0.000000 0.600609 0.059802
O O13 0.344640 0.190979 0.255414
O O14 0.262276 0.368026 0.233846
O O15 0.657495 0.924491 0.229642
O O16 0.772945 0.489519 0.597309
O O17 0.790927 0.761402 0.609975
#
# Coordination Sequence:
#
# PCOD9351374 Si02
#       8
#     8   8   8   8   8   8   8   8
#     4  10  21  39  53  83 119 147 192 238 289 345
#     4  11  22  36  60  82 113 158 189 232 297 345
#     4  10  23  40  59  87 112 145 206 252 286 348
#     4  10  20  38  60  81 109 150 197 245 295 341
#     4   9  20  35  52  80 112 150 187 225 272 354
#     4  10  19  37  59  81 114 155 190 232 296 343
#     4  11  18  36  55  80 120 151 184 232 280 341
#     4  11  20  35  56  84 123 150 182 242 277 349
#
# _framework density 19.134087999999998
#
# number of rings (size 3 to 8) (size 9 to 14) (size 15 to 20)
#    0.000    1.750    6.250    1.125    0.000    3.500 
#    2.250    0.000    0.000    0.000    0.000    0.000 
#    0.000    0.000    0.000    0.000    0.000    0.000 
#
# Total GULP energy -178460.483464 kJ/mol
# GULP energy per Si atom -5576.890108 kJ/mol
# Density = 1.909054 g / cm^3
# Si number density = 19.134088 Si / 1000 Ang^3
#
#
#
# Elastic Constant Matrix: (Units=GPa)
#
#
# Indices 1 2 3 4 5 6 
#
# 1 79.1301 2.7500 4.1066 0.0000 0.0000 0.0000
# 2 2.7500 20.6643 3.6744 0.0000 0.0000 0.0000
# 3 4.1066 3.6744 28.8720 0.0000 0.0000 0.0000
# 4 0.0000 0.0000 0.0000 20.5030 0.0000 0.0000
# 5 0.0000 0.0000 0.0000 0.0000 21.1828 0.0000
# 6 0.0000 0.0000 0.0000 0.0000 0.0000 21.2178
#
#
#
# Elastic Compliance Matrix: (Units=1/GPa)
#
#
# Indices 1 2 3 4 5 6 
#
# 1 0.012771 -0.001408 -0.001637 0.000000 0.000000 0.000000
# 2 -0.001408 0.049668 -0.006121 0.000000 0.000000 0.000000
# 3 -0.001637 -0.006121 0.035647 0.000000 0.000000 0.000000
# 4 0.000000 0.000000 0.000000 0.048773 0.000000 0.000000
# 5 0.000000 0.000000 0.000000 0.000000 0.047208 0.000000
# 6 0.000000 0.000000 0.000000 0.000000 0.000000 0.047130
#
#
# Mechanical properties :
#
#
# Convention : Reuss Voigt Hill
#
# Bulk Modulus (GPa) = 12.53850 16.63649 14.58749
# Shear Modulus (GPa) = 17.47539 20.45641 18.96590
#
# Velocity S-wave (km/s) = 3.02538 3.27327 3.15176
# Velocity P-wave (km/s) = 4.33256 4.79576 4.57003
#
# Compressibility (1/GPa) = 0.07975435
#
# Stress axis : x y z
#
# Youngs Moduli (GPa) = 78.30040 20.13350 28.05247
#
# Poissons Ratio (x) = 0.02836 0.04593
# Poissons Ratio (y) = 0.11028 0.17170
# Poissons Ratio (z) = 0.12820 0.12323
#
# Static dielectric constant tensor:
#      x y z
#    x 1.661570 0.000000 0.000000 
#    y 0.000000 1.674480 0.000000 
#    z 0.000000 0.000000 1.681770 
# 
# From -- ./inp_files/12992.got.cif
#   From: 2010.05.17/outbox.cif.g08.bks.cpg/sg36_7_cif.got.tgz:12992.got - 2010.06.03 17:41:39.
