data_PCOD9351343
_publ_section_title
;
Structure prediction by ZEFSAII (Michael W. Deem and Ramdas Pophale) SiO2 
 PCOD9351343
Probable space group: C M C 21
;
_chemical_formula_sum "Si O2"
_cell_formula_units_Z 48
_cell_length_a 8.017487
_cell_length_b 15.608443
_cell_length_c 19.584898
_cell_angle_alpha 90.000000
_cell_angle_beta 90.000000
_cell_angle_gamma 90.000000
_cell_volume 2450.863710
_symmetry_space_group_name_H-M "C M C 21"
_symmetry_group_IT_number 36
_symmetry_cell_setting 'orthorhombic'
loop_
_space_group_symop_operation_xyz
x,y,z
-x,-y,1/2+z
x,-y,1/2+z
-x,y,z
1/2+x,1/2+y,z
1/2-x,1/2-y,1/2+z
1/2+x,1/2-y,1/2+z
1/2-x,1/2+y,z
loop_
_atom_site_type_symbol
_atom_site_label
_atom_site_fract_x
_atom_site_fract_y
_atom_site_fract_z
Si Si1 0.200807 0.482009 0.783790
Si Si2 0.295866 0.232749 0.639390
Si Si3 0.298938 0.867195 0.383082
Si Si4 0.298881 0.288509 0.791394
Si Si5 0.801343 0.116857 0.039684
Si Si6 0.798983 0.538194 0.633536
O O1 0.261688 0.552759 0.837554
O O2 0.246489 0.385753 0.803405
O O3 0.262025 0.503837 0.707257
O O4 0.000000 0.487971 0.781861
O O5 0.500000 0.233168 0.638999
O O6 0.243286 0.258696 0.715902
O O7 0.236739 0.303981 0.585789
O O8 0.241689 0.135929 0.623222
O O9 0.500000 0.867089 0.378798
O O10 0.239025 0.779423 0.347619
O O11 0.253108 0.875709 0.461726
O O12 0.500000 0.285920 0.790913
O O13 0.000000 0.121169 0.041677
O O14 0.749417 0.028218 0.075103
O O15 0.000000 0.540469 0.636504
#
# Coordination Sequence:
#
# PCOD9351343 Si02
#       6
#     8   8   8   8   8   8
#     4  10  20  35  59  87 112 145 191 234 277 335
#     4   9  18  35  59  83 110 148 188 227 278 336
#     4  10  22  40  59  81 115 155 190 226 280 347
#     4  10  19  36  61  85 112 148 189 234 281 330
#     4  11  23  38  57  85 119 149 184 237 292 330
#     4  10  19  36  61  85 110 149 194 230 274 342
#
# _framework density 19.584934000000001
#
# number of rings (size 3 to 8) (size 9 to 14) (size 15 to 20)
#    0.000    2.000    3.333    0.500    0.000    2.667 
#    0.000    7.500    0.000    0.000    0.000    0.000 
#    0.000    0.000    0.000    0.000    0.000    0.000 
#
# Total GULP energy -134029.760404 kJ/mol
# GULP energy per Si atom -5584.573350 kJ/mol
# Density = 1.954036 g / cm^3
# Si number density = 19.584934 Si / 1000 Ang^3
#
#
#
# Elastic Constant Matrix: (Units=GPa)
#
#
# Indices 1 2 3 4 5 6 
#
# 1 14.5090 8.9492 7.1699 0.0000 0.0000 0.0000
# 2 8.9492 126.2631 22.9244 0.0000 0.0000 0.0000
# 3 7.1699 22.9244 89.5357 0.0000 0.0000 0.0000
# 4 0.0000 0.0000 0.0000 35.3381 0.0000 0.0000
# 5 0.0000 0.0000 0.0000 0.0000 21.5187 0.0000
# 6 0.0000 0.0000 0.0000 0.0000 0.0000 25.8652
#
#
#
# Elastic Compliance Matrix: (Units=1/GPa)
#
#
# Indices 1 2 3 4 5 6 
#
# 1 0.073994 -0.004372 -0.004806 0.000000 0.000000 0.000000
# 2 -0.004372 0.008564 -0.001843 0.000000 0.000000 0.000000
# 3 -0.004806 -0.001843 0.012025 0.000000 0.000000 0.000000
# 4 0.000000 0.000000 0.000000 0.028298 0.000000 0.000000
# 5 0.000000 0.000000 0.000000 0.000000 0.046471 0.000000
# 6 0.000000 0.000000 0.000000 0.000000 0.000000 0.038662
#
#
# Mechanical properties :
#
#
# Convention : Reuss Voigt Hill
#
# Bulk Modulus (GPa) = 13.78496 34.26610 24.02553
# Shear Modulus (GPa) = 19.66663 29.29534 24.48098
#
# Velocity S-wave (km/s) = 3.17230 3.87177 3.53936
# Velocity P-wave (km/s) = 4.52458 6.12549 5.38486
#
# Compressibility (1/GPa) = 0.07254284
#
# Stress axis : x y z
#
# Youngs Moduli (GPa) = 13.51454 116.76235 83.15745
#
# Poissons Ratio (x) = 0.51048 0.39965
# Poissons Ratio (y) = 0.05909 0.15323
# Poissons Ratio (z) = 0.06495 0.21516
#
# Static dielectric constant tensor:
#      x y z
#    x 1.708270 0.000000 0.000000 
#    y 0.000000 1.675350 0.000000 
#    z 0.000000 0.000000 1.664330 
# 
# From -- ./inp_files/13470.got.cif
#   From: 2010.05.17/outbox.cif.g08.bks.cpg/sg36_7_cif.got.tgz:13470.got - 2010.06.03 17:41:39.
