data_PCOD9351639
_publ_section_title
;
Structure prediction by ZEFSAII (Michael W. Deem and Ramdas Pophale) SiO2 
 PCOD9351639
Probable space group: C M C 21
;
_chemical_formula_sum "Si O2"
_cell_formula_units_Z 56
_cell_length_a 16.829356
_cell_length_b 20.660257
_cell_length_c 9.481966
_cell_angle_alpha 90.000000
_cell_angle_beta 90.000000
_cell_angle_gamma 90.000000
_cell_volume 3296.868390
_symmetry_space_group_name_H-M "C M C 21"
_symmetry_group_IT_number 36
_symmetry_cell_setting 'orthorhombic'
loop_
_space_group_symop_operation_xyz
x,y,z
-x,-y,1/2+z
x,-y,1/2+z
-x,y,z
1/2+x,1/2+y,z
1/2-x,1/2-y,1/2+z
1/2+x,1/2-y,1/2+z
1/2-x,1/2+y,z
loop_
_atom_site_type_symbol
_atom_site_label
_atom_site_fract_x
_atom_site_fract_y
_atom_site_fract_z
Si Si1 0.727244 0.942412 0.945420
Si Si2 0.406845 0.260666 0.298065
Si Si3 0.785278 0.654243 0.193095
Si Si4 0.908221 0.613844 0.652275
Si Si5 0.693111 0.352577 0.135927
Si Si6 0.328477 0.754494 0.090725
Si Si7 0.797651 0.591249 0.890877
O O1 0.722905 0.906326 0.796342
O O2 0.728828 0.018704 0.926040
O O3 0.650222 0.920443 0.038553
O O4 0.802085 0.913179 0.031774
O O5 0.500000 0.249495 0.310060
O O6 0.358480 0.197947 0.245454
O O7 0.385897 0.318148 0.189124
O O8 0.367896 0.274178 0.450878
O O9 0.705809 0.698855 0.191428
O O10 0.799892 0.631654 0.033685
O O11 0.888527 0.690854 0.648044
O O12 0.880610 0.589325 0.805686
O O13 0.000000 0.602208 0.622589
O O14 0.748827 0.297593 0.062362
O O15 0.739176 0.375029 0.277705
#
# Coordination Sequence:
#
# PCOD9351639 Si02
#       7
#     8   8   8   8   8   8   8
#     4  10  20  35  55  76 104 143 188 222 258 316
#     4  11  20  33  56  84 111 140 175 226 284 322
#     4  11  19  33  56  82 102 139 190 222 255 328
#     4  10  21  35  49  75 116 145 169 220 277 320
#     4   9  19  35  53  81 103 140 181 226 262 314
#     4   9  18  32  54  74 107 140 176 221 266 321
#     4  10  20  35  54  76 105 143 191 215 255 313
#
# _framework density 16.985816
#
# number of rings (size 3 to 8) (size 9 to 14) (size 15 to 20)
#    0.000    2.286    4.286    2.143    0.000    1.143 
#    0.000    1.429    0.000    1.714    0.000    0.000 
#    0.000    0.000    0.000    0.000    0.000    0.000 
#
# Total GULP energy -155952.131961 kJ/mol
# GULP energy per Si atom -5569.718999 kJ/mol
# Density = 1.694716 g / cm^3
# Si number density = 16.985816 Si / 1000 Ang^3
#
#
#
# Elastic Constant Matrix: (Units=GPa)
#
#
# Indices 1 2 3 4 5 6 
#
# 1 55.3507 18.1242 18.1753 0.0000 0.0000 0.0000
# 2 18.1242 47.0606 -0.4966 0.0000 0.0000 0.0000
# 3 18.1753 -0.4966 70.1468 0.0000 0.0000 0.0000
# 4 0.0000 0.0000 0.0000 23.2018 0.0000 0.0000
# 5 0.0000 0.0000 0.0000 0.0000 16.3719 0.0000
# 6 0.0000 0.0000 0.0000 0.0000 0.0000 10.6131
#
#
#
# Elastic Compliance Matrix: (Units=1/GPa)
#
#
# Indices 1 2 3 4 5 6 
#
# 1 0.022956 -0.008904 -0.006011 0.000000 0.000000 0.000000
# 2 -0.008904 0.024705 0.002482 0.000000 0.000000 0.000000
# 3 -0.006011 0.002482 0.015831 0.000000 0.000000 0.000000
# 4 0.000000 0.000000 0.000000 0.043100 0.000000 0.000000
# 5 0.000000 0.000000 0.000000 0.000000 0.061080 0.000000
# 6 0.000000 0.000000 0.000000 0.000000 0.000000 0.094224
#
#
# Mechanical properties :
#
#
# Convention : Reuss Voigt Hill
#
# Bulk Modulus (GPa) = 25.89002 27.12931 26.50967
# Shear Modulus (GPa) = 16.68683 19.15436 17.92060
#
# Velocity S-wave (km/s) = 3.13772 3.36172 3.25165
# Velocity P-wave (km/s) = 5.32938 5.57446 5.45330
#
# Compressibility (1/GPa) = 0.03862492
#
# Stress axis : x y z
#
# Youngs Moduli (GPa) = 43.56139 40.47816 63.16767
#
# Poissons Ratio (x) = 0.36043 0.37970
# Poissons Ratio (y) = 0.38789 -0.15679
# Poissons Ratio (z) = 0.26185 -0.10047
#
# Static dielectric constant tensor:
#      x y z
#    x 1.558720 0.000000 0.000000 
#    y 0.000000 1.593140 0.000000 
#    z 0.000000 0.000000 1.602790 
# 
# From -- ./inp_files/4892.got.cif
#   From: 2010.05.17/outbox.cif.g08.bks.cpg/sg36_3_cif.got.tgz:4892.got - 2010.06.03 17:41:39.
