data_PCOD9351500
_publ_section_title
;
Structure prediction by ZEFSAII (Michael W. Deem and Ramdas Pophale) SiO2 
 PCOD9351500
Probable space group: C M C 21
;
_chemical_formula_sum "Si O2"
_cell_formula_units_Z 64
_cell_length_a 17.292394
_cell_length_b 26.910973
_cell_length_c 5.843149
_cell_angle_alpha 90.000000
_cell_angle_beta 90.000000
_cell_angle_gamma 90.000000
_cell_volume 2719.139468
_symmetry_space_group_name_H-M "C M C 21"
_symmetry_group_IT_number 36
_symmetry_cell_setting 'orthorhombic'
loop_
_space_group_symop_operation_xyz
x,y,z
-x,-y,1/2+z
x,-y,1/2+z
-x,y,z
1/2+x,1/2+y,z
1/2-x,1/2-y,1/2+z
1/2+x,1/2-y,1/2+z
1/2-x,1/2+y,z
loop_
_atom_site_type_symbol
_atom_site_label
_atom_site_fract_x
_atom_site_fract_y
_atom_site_fract_z
Si Si1 0.614814 0.981470 0.802210
Si Si2 0.301651 0.291644 0.348230
Si Si3 0.585599 0.527787 0.021051
Si Si4 0.202958 0.124677 0.464076
Si Si5 0.630411 0.225875 0.016313
Si Si6 0.846544 0.619560 0.129678
Si Si7 0.084567 0.179826 0.233545
Si Si8 0.255485 0.448925 0.328220
O O1 0.704640 0.001231 0.800448
O O2 0.585686 0.003284 0.556033
O O3 0.608300 0.922394 0.770823
O O4 0.290019 0.331306 0.149157
O O5 0.357083 0.247260 0.268835
O O6 0.217500 0.273514 0.416549
O O7 0.348920 0.316493 0.548325
O O8 0.586779 0.497510 0.774956
O O9 0.500000 0.553089 0.011882
O O10 0.670322 0.552776 0.995119
O O11 0.272955 0.133177 0.287703
O O12 0.115286 0.133392 0.380433
O O13 0.213824 0.072615 0.589695
O O14 0.609051 0.168230 0.041034
O O15 0.586030 0.268206 0.875829
O O16 0.808907 0.589996 0.917730
O O17 0.000000 0.172514 0.138275
#
# Coordination Sequence:
#
# PCOD9351500 Si02
#       8
#     8   8   8   8   8   8   8   8
#     4  10  20  33  52  84 124 161 196 256 325 360
#     4  11  20  37  60  84 116 153 204 251 309 377
#     4  10  22  38  54  73 103 153 212 256 302 364
#     4  11  21  36  59  85 116 154 207 250 309 373
#     4  11  20  36  63  87 115 156 203 250 308 380
#     4  11  21  35  56  92 116 156 203 258 306 378
#     4  11  25  41  60  89 124 159 202 259 318 376
#     4  11  21  34  57  80 116 156 197 254 317 354
#
# _framework density 23.536859
#
# number of rings (size 3 to 8) (size 9 to 14) (size 15 to 20)
#    0.000    1.250    5.000    2.250    1.750    2.500 
#    0.000    1.875    0.000    0.000    0.000    0.000 
#    0.000    4.000    0.000    0.000    0.000    0.000 
#
# Total GULP energy -178456.630988 kJ/mol
# GULP energy per Si atom -5576.769718 kJ/mol
# Density = 2.348329 g / cm^3
# Si number density = 23.536859 Si / 1000 Ang^3
#
#
#
# Elastic Constant Matrix: (Units=GPa)
#
#
# Indices 1 2 3 4 5 6 
#
# 1 79.6091 3.5508 7.8647 0.0000 0.0000 0.0000
# 2 3.5508 101.6631 24.8281 0.0000 0.0000 0.0000
# 3 7.8647 24.8281 92.5528 0.0000 0.0000 0.0000
# 4 0.0000 0.0000 0.0000 39.6259 0.0000 0.0000
# 5 0.0000 0.0000 0.0000 0.0000 -24.4375 0.0000
# 6 0.0000 0.0000 0.0000 0.0000 0.0000 -1.9955
#
#
#
# Elastic Compliance Matrix: (Units=1/GPa)
#
#
# Indices 1 2 3 4 5 6 
#
# 1 0.012671 -0.000192 -0.001025 0.000000 0.000000 0.000000
# 2 -0.000192 0.010529 -0.002808 0.000000 0.000000 0.000000
# 3 -0.001025 -0.002808 0.011645 0.000000 0.000000 0.000000
# 4 0.000000 0.000000 0.000000 0.025236 0.000000 0.000000
# 5 0.000000 0.000000 0.000000 0.000000 -0.040921 0.000000
# 6 0.000000 0.000000 0.000000 0.000000 0.000000 -0.501126
#
#
# Mechanical properties :
#
#
# Convention : Reuss Voigt Hill
#
# Bulk Modulus (GPa) = 37.32157 38.47915 37.90036
# Shear Modulus (GPa) = -10.75307 18.47734 3.86214
#
# Velocity S-wave (km/s) = -2.13975 2.80489 1.28236
# Velocity P-wave (km/s) = 3.12832 5.18400 4.28137
#
# Compressibility (1/GPa) = 0.02679416
#
# Stress axis : x y z
#
# Youngs Moduli (GPa) = 78.91891 94.97639 85.87323
#
# Poissons Ratio (x) = 0.01825 0.08804
# Poissons Ratio (y) = 0.01517 0.24114
# Poissons Ratio (z) = 0.08091 0.26671
#
# Static dielectric constant tensor:
#      x y z
#    x 1.872820 0.000000 0.000000 
#    y 0.000000 1.974480 0.000000 
#    z 0.000000 0.000000 1.965420 
# 
# From -- ./inp_files/1490.got.cif
#   From: 2010.05.17/outbox.cif.g08.bks.cpg/sg36_1_cif.got.tgz:1490.got - 2010.06.03 17:41:39.
