data_PCOD9351987
_publ_section_title
;
Structure prediction by ZEFSAII (Michael W. Deem and Ramdas Pophale) SiO2 
 PCOD9351987
Probable space group: C M C 21
;
_chemical_formula_sum "Si O2"
_cell_formula_units_Z 36
_cell_length_a 13.636397
_cell_length_b 18.874295
_cell_length_c 5.644902
_cell_angle_alpha 90.000000
_cell_angle_beta 90.000000
_cell_angle_gamma 90.000000
_cell_volume 1452.870086
_symmetry_space_group_name_H-M "C M C 21"
_symmetry_group_IT_number 36
_symmetry_cell_setting 'orthorhombic'
loop_
_space_group_symop_operation_xyz
x,y,z
-x,-y,1/2+z
x,-y,1/2+z
-x,y,z
1/2+x,1/2+y,z
1/2-x,1/2-y,1/2+z
1/2+x,1/2-y,1/2+z
1/2-x,1/2+y,z
loop_
_atom_site_type_symbol
_atom_site_label
_atom_site_fract_x
_atom_site_fract_y
_atom_site_fract_z
Si Si1 0.000000 0.958150 0.766810
Si Si2 0.610704 0.692643 0.876602
Si Si3 0.151009 0.474883 0.514341
Si Si4 0.814162 0.088046 0.502361
Si Si5 0.197663 0.676695 0.164659
O O1 0.100822 0.916212 0.805974
O O2 0.000000 0.994282 0.510104
O O3 0.500000 0.691370 0.968092
O O4 0.634633 0.621140 0.731103
O O5 0.700316 0.703627 0.055503
O O6 0.623381 0.759320 0.698107
O O7 0.107060 0.497876 0.767792
O O8 0.257976 0.513909 0.532674
O O9 0.159739 0.390163 0.513087
O O10 0.728980 0.140291 0.412261
#
# Coordination Sequence:
#
# PCOD9351987 Si02
#       5
#     4   8   8   8   8
#     4  12  26  38  60 102 144 176 226 286 360 436
#     4  12  25  42  67  98 137 187 233 280 355 423
#     4  10  20  37  65  93 129 182 220 282 352 410
#     4  11  23  38  63  97 131 183 224 286 351 418
#     4  11  24  44  63  96 142 179 231 286 347 416
#
# _framework density 24.778541000000001
#
# number of rings (size 3 to 8) (size 9 to 14) (size 15 to 20)
#    0.000    0.889    5.556    2.667    4.667    0.000 
#    0.000    0.000    0.000    5.333    0.000    0.000 
#    0.000    0.000    0.000    0.000    0.000    0.000 
#
# Total GULP energy -100661.350876 kJ/mol
# GULP energy per Si atom -5592.297271 kJ/mol
# Density = 2.472214 g / cm^3
# Si number density = 24.778541 Si / 1000 Ang^3
#
#
#
# Elastic Constant Matrix: (Units=GPa)
#
#
# Indices 1 2 3 4 5 6 
#
# 1 108.3853 23.6229 19.1420 0.0000 0.0000 0.0000
# 2 23.6229 101.0873 20.7200 0.0000 0.0000 0.0000
# 3 19.1420 20.7200 117.9521 0.0000 0.0000 0.0000
# 4 0.0000 0.0000 0.0000 39.2649 0.0000 0.0000
# 5 0.0000 0.0000 0.0000 0.0000 -23.9995 0.0000
# 6 0.0000 0.0000 0.0000 0.0000 0.0000 23.5192
#
#
#
# Elastic Compliance Matrix: (Units=1/GPa)
#
#
# Indices 1 2 3 4 5 6 
#
# 1 0.009894 -0.002057 -0.001244 0.000000 0.000000 0.000000
# 2 -0.002057 0.010690 -0.001544 0.000000 0.000000 0.000000
# 3 -0.001244 -0.001544 0.008951 0.000000 0.000000 0.000000
# 4 0.000000 0.000000 0.000000 0.025468 0.000000 0.000000
# 5 0.000000 0.000000 0.000000 0.000000 -0.041668 0.000000
# 6 0.000000 0.000000 0.000000 0.000000 0.000000 0.042519
#
#
# Mechanical properties :
#
#
# Convention : Reuss Voigt Hill
#
# Bulk Modulus (GPa) = 50.39217 50.48827 50.44022
# Shear Modulus (GPa) = 69.29045 25.35291 47.32168
#
# Velocity S-wave (km/s) = 5.29383 3.20219 4.37485
# Velocity P-wave (km/s) = 7.59916 5.83884 6.77641
#
# Compressibility (1/GPa) = 0.01984435
#
# Stress axis : x y z
#
# Youngs Moduli (GPa) = 101.06647 93.54853 111.71716
#
# Poissons Ratio (x) = 0.19244 0.13902
# Poissons Ratio (y) = 0.20791 0.17249
# Poissons Ratio (z) = 0.12576 0.14443
#
# Static dielectric constant tensor:
#      x y z
#    x 1.898410 0.000000 0.000000 
#    y 0.000000 2.004340 0.000000 
#    z 0.000000 0.000000 2.044830 
# 
# From -- ./inp_files/686.got.cif
#   From: 2010.05.17/outbox.cif.g08.bks.cpg/sg36_1_cif.got.tgz:686.got - 2010.06.03 17:41:39.
