data_PCOD9351062
_publ_section_title
;
Structure prediction by ZEFSAII (Michael W. Deem and Ramdas Pophale) SiO2 
 PCOD9351062
Probable space group: C M C 21
;
_chemical_formula_sum "Si O2"
_cell_formula_units_Z 64
_cell_length_a 8.917330
_cell_length_b 20.589424
_cell_length_c 19.677807
_cell_angle_alpha 90.000000
_cell_angle_beta 90.000000
_cell_angle_gamma 90.000000
_cell_volume 3612.898265
_symmetry_space_group_name_H-M "C M C 21"
_symmetry_group_IT_number 36
_symmetry_cell_setting 'orthorhombic'
loop_
_space_group_symop_operation_xyz
x,y,z
-x,-y,1/2+z
x,-y,1/2+z
-x,y,z
1/2+x,1/2+y,z
1/2-x,1/2-y,1/2+z
1/2+x,1/2-y,1/2+z
1/2-x,1/2+y,z
loop_
_atom_site_type_symbol
_atom_site_label
_atom_site_fract_x
_atom_site_fract_y
_atom_site_fract_z
Si Si1 0.179728 0.860092 0.866300
Si Si2 0.321707 0.513279 0.872169
Si Si3 0.820902 0.487392 0.229249
Si Si4 0.177321 0.436318 0.505736
Si Si5 0.821398 0.640811 0.222176
Si Si6 0.821442 0.816426 0.584646
Si Si7 0.677828 0.928795 0.085652
Si Si8 0.820843 0.192670 0.511884
O O1 0.214726 0.936278 0.880158
O O2 0.261029 0.840853 0.796697
O O3 0.000000 0.855820 0.856651
O O4 0.221756 0.819409 0.932976
O O5 0.500000 0.520755 0.879321
O O6 0.267347 0.531316 0.796876
O O7 0.236967 0.553332 0.929788
O O8 0.788615 0.563453 0.213781
O O9 0.784005 0.444487 0.163749
O O10 0.000000 0.483187 0.241480
O O11 0.263676 0.379773 0.544626
O O12 0.201042 0.504490 0.544482
O O13 0.000000 0.422152 0.506707
O O14 0.743435 0.678571 0.160903
O O15 0.000000 0.649030 0.218405
O O16 0.758552 0.753979 0.545500
O O17 0.000000 0.815044 0.586829
O O18 0.500000 0.913117 0.081795
O O19 0.772117 0.871395 0.052948
O O20 0.000000 0.200557 0.514651
#
# Coordination Sequence:
#
# PCOD9351062 Si02
#       8
#     8   8   8   8   8   8   8   8
#     4   9  19  35  56  85 117 151 190 236 287 344
#     4  10  19  33  54  87 120 150 191 239 292 345
#     4   9  18  34  55  84 117 152 191 236 289 345
#     4  11  21  37  60  86 116 152 192 238 289 343
#     4  10  19  35  59  86 115 151 193 237 288 347
#     4  12  25  40  59  85 119 156 197 243 292 346
#     4  10  20  36  59  86 116 148 191 237 285 342
#     4  11  23  40  60  85 120 156 195 238 290 348
#
# _framework density 17.714309
#
# number of rings (size 3 to 8) (size 9 to 14) (size 15 to 20)
#    0.000    1.750    2.500    2.625    0.000    3.000 
#    0.000    1.250    0.000    7.500    0.000    0.000 
#    0.000    0.000    0.000    0.000    0.000    0.000 
#
# Total GULP energy -178739.041128 kJ/mol
# GULP energy per Si atom -5585.595035 kJ/mol
# Density = 1.767399 g / cm^3
# Si number density = 17.714309 Si / 1000 Ang^3
#
#
#
# Elastic Constant Matrix: (Units=GPa)
#
#
# Indices 1 2 3 4 5 6 
#
# 1 82.2550 53.1752 74.0746 0.0000 0.0000 0.0000
# 2 53.1752 62.1343 61.4631 0.0000 0.0000 0.0000
# 3 74.0746 61.4631 158.2594 0.0000 0.0000 0.0000
# 4 0.0000 0.0000 0.0000 25.5951 0.0000 0.0000
# 5 0.0000 0.0000 0.0000 0.0000 33.6442 0.0000
# 6 0.0000 0.0000 0.0000 0.0000 0.0000 28.2686
#
#
#
# Elastic Compliance Matrix: (Units=1/GPa)
#
#
# Indices 1 2 3 4 5 6 
#
# 1 0.031235 -0.019923 -0.006882 0.000000 0.000000 0.000000
# 2 -0.019923 0.038843 -0.005760 0.000000 0.000000 0.000000
# 3 -0.006882 -0.005760 0.011777 0.000000 0.000000 0.000000
# 4 0.000000 0.000000 0.000000 0.039070 0.000000 0.000000
# 5 0.000000 0.000000 0.000000 0.000000 0.029723 0.000000
# 6 0.000000 0.000000 0.000000 0.000000 0.000000 0.035375
#
#
# Mechanical properties :
#
#
# Convention : Reuss Voigt Hill
#
# Bulk Modulus (GPa) = 59.79612 75.56384 67.67998
# Shear Modulus (GPa) = 19.47594 25.09730 22.28662
#
# Velocity S-wave (km/s) = 3.31939 3.76810 3.55084
# Velocity P-wave (km/s) = 6.96565 7.85372 7.42298
#
# Compressibility (1/GPa) = 0.01672349
#
# Stress axis : x y z
#
# Youngs Moduli (GPa) = 32.01567 25.74497 84.91160
#
# Poissons Ratio (x) = 0.51292 0.58437
# Poissons Ratio (y) = 0.63786 0.48909
# Poissons Ratio (z) = 0.22033 0.14829
#
# Static dielectric constant tensor:
#      x y z
#    x 1.590160 0.000000 0.000000 
#    y 0.000000 1.580120 0.000000 
#    z 0.000000 0.000000 1.596480 
# 
# From -- ./inp_files/13870.got.cif
#   From: 2010.05.17/outbox.cif.g08.bks.cpg/sg36_7_cif.got.tgz:13870.got - 2010.06.03 17:41:39.
