data_PCOD9351555
_publ_section_title
;
Structure prediction by ZEFSAII (Michael W. Deem and Ramdas Pophale) SiO2 
 PCOD9351555
Probable space group: C M C 21
;
_chemical_formula_sum "Si O2"
_cell_formula_units_Z 64
_cell_length_a 7.591187
_cell_length_b 14.399693
_cell_length_c 25.545574
_cell_angle_alpha 90.000000
_cell_angle_beta 90.000000
_cell_angle_gamma 90.000000
_cell_volume 2792.406167
_symmetry_space_group_name_H-M "C M C 21"
_symmetry_group_IT_number 36
_symmetry_cell_setting 'orthorhombic'
loop_
_space_group_symop_operation_xyz
x,y,z
-x,-y,1/2+z
x,-y,1/2+z
-x,y,z
1/2+x,1/2+y,z
1/2-x,1/2-y,1/2+z
1/2+x,1/2-y,1/2+z
1/2-x,1/2+y,z
loop_
_atom_site_type_symbol
_atom_site_label
_atom_site_fract_x
_atom_site_fract_y
_atom_site_fract_z
Si Si1 0.292570 0.339986 0.054880
Si Si2 0.208185 0.048330 0.036636
Si Si3 0.786808 0.407905 0.280353
Si Si4 0.203086 0.752431 0.353873
Si Si5 0.795521 0.201436 0.964792
Si Si6 0.715068 0.123109 0.261529
Si Si7 0.710706 0.871994 0.168238
Si Si8 0.711157 0.910412 0.649329
O O1 0.500000 0.337927 0.044074
O O2 0.220859 0.444772 0.045680
O O3 0.273215 0.318632 0.116779
O O4 0.207935 0.272608 0.012889
O O5 0.227036 0.106243 0.090530
O O6 0.000000 0.037850 0.028031
O O7 0.284149 0.107012 0.988602
O O8 0.711651 0.355714 0.330152
O O9 0.741235 0.516175 0.275244
O O10 0.724959 0.355159 0.227223
O O11 0.000000 0.403034 0.282197
O O12 0.283078 0.756183 0.411796
O O13 0.282256 0.688427 0.307970
O O14 0.000000 0.720946 0.358828
O O15 0.000000 0.181455 0.951910
O O16 0.500000 0.129111 0.259729
O O17 0.776832 0.141336 0.201617
O O18 0.500000 0.865408 0.168716
O O19 0.756889 0.980742 0.158861
O O20 0.500000 0.902821 0.648443
#
# Coordination Sequence:
#
# PCOD9351555 Si02
#       8
#     8   8   8   8   8   8   8   8
#     4  10  20  34  54  78 102 130 168 215 256 293
#     4   9  19  35  52  73 104 135 163 205 259 306
#     4   9  18  34  55  77 103 134 165 204 255 305
#     4  10  21  36  53  74 101 136 178 217 252 297
#     4  10  22  38  52  70 102 142 177 209 255 311
#     4   8  16  33  54  75 102 133 164 204 254 304
#     4   8  15  30  52  77 105 134 161 195 252 319
#     4   8  14  28  52  78 101 128 164 203 247 305
#
# _framework density 22.919302999999999
#
# number of rings (size 3 to 8) (size 9 to 14) (size 15 to 20)
#    0.000    3.000    0.000    1.875    0.000    4.000 
#    0.000    5.625    0.000    0.000    0.000    0.000 
#    0.000    0.000    0.000    0.000    0.000    0.000 
#
# Total GULP energy -178529.449536 kJ/mol
# GULP energy per Si atom -5579.045298 kJ/mol
# Density = 2.286714 g / cm^3
# Si number density = 22.919303 Si / 1000 Ang^3
#
#
#
# Elastic Constant Matrix: (Units=GPa)
#
#
# Indices 1 2 3 4 5 6 
#
# 1 43.7051 -10.4288 1.2083 0.0000 0.0000 0.0000
# 2 -10.4288 49.4803 23.5273 0.0000 0.0000 0.0000
# 3 1.2083 23.5273 135.9538 0.0000 0.0000 0.0000
# 4 0.0000 0.0000 0.0000 29.2941 0.0000 0.0000
# 5 0.0000 0.0000 0.0000 0.0000 15.5575 0.0000
# 6 0.0000 0.0000 0.0000 0.0000 0.0000 116.9719
#
#
#
# Elastic Compliance Matrix: (Units=1/GPa)
#
#
# Indices 1 2 3 4 5 6 
#
# 1 0.024271 0.005686 -0.001200 0.000000 0.000000 0.000000
# 2 0.005686 0.023354 -0.004092 0.000000 0.000000 0.000000
# 3 -0.001200 -0.004092 0.008074 0.000000 0.000000 0.000000
# 4 0.000000 0.000000 0.000000 0.034137 0.000000 0.000000
# 5 0.000000 0.000000 0.000000 0.000000 0.064278 0.000000
# 6 0.000000 0.000000 0.000000 0.000000 0.000000 0.008549
#
#
# Mechanical properties :
#
#
# Convention : Reuss Voigt Hill
#
# Bulk Modulus (GPa) = 17.70313 28.63921 23.17117
# Shear Modulus (GPa) = 27.66971 46.68685 37.17828
#
# Velocity S-wave (km/s) = 3.47834 4.51822 4.03195
# Velocity P-wave (km/s) = 4.88597 6.30412 5.63980
#
# Compressibility (1/GPa) = 0.05648718
#
# Stress axis : x y z
#
# Youngs Moduli (GPa) = 41.20225 42.81889 123.85054
#
# Poissons Ratio (x) = -0.24346 0.14858
# Poissons Ratio (y) = -0.23427 0.50680
# Poissons Ratio (z) = 0.04943 0.17522
#
# Static dielectric constant tensor:
#      x y z
#    x 1.856360 0.000000 0.000000 
#    y 0.000000 1.891450 0.000000 
#    z 0.000000 0.000000 1.875820 
# 
# From -- ./inp_files/16573.got.cif
#   From: 2010.05.17/outbox.cif.g08.bks.cpg/sg36_9_cif.got.tgz:16573.got - 2010.06.03 17:41:39.
