data_PCOD9351151
_publ_section_title
;
Structure prediction by ZEFSAII (Michael W. Deem and Ramdas Pophale) SiO2 
 PCOD9351151
Probable space group: C M C 21
;
_chemical_formula_sum "Si O2"
_cell_formula_units_Z 64
_cell_length_a 9.239624
_cell_length_b 20.486181
_cell_length_c 19.775363
_cell_angle_alpha 90.000000
_cell_angle_beta 90.000000
_cell_angle_gamma 90.000000
_cell_volume 3743.171866
_symmetry_space_group_name_H-M "C M C 21"
_symmetry_group_IT_number 36
_symmetry_cell_setting 'orthorhombic'
loop_
_space_group_symop_operation_xyz
x,y,z
-x,-y,1/2+z
x,-y,1/2+z
-x,y,z
1/2+x,1/2+y,z
1/2-x,1/2-y,1/2+z
1/2+x,1/2-y,1/2+z
1/2-x,1/2+y,z
loop_
_atom_site_type_symbol
_atom_site_label
_atom_site_fract_x
_atom_site_fract_y
_atom_site_fract_z
Si Si1 0.328226 0.915090 0.484310
Si Si2 0.329236 0.700449 0.749945
Si Si3 0.170670 0.829906 0.717857
Si Si4 0.329236 0.700449 0.059178
Si Si5 0.173115 0.979797 0.731916
Si Si6 0.670670 0.329906 0.091266
Si Si7 0.173115 0.979797 0.077207
Si Si8 0.171774 0.415090 0.324813
O O1 0.500000 0.912244 0.496544
O O2 0.254264 0.848879 0.510738
O O3 0.303253 0.923335 0.404562
O O4 0.258218 0.974147 0.526285
O O5 0.500000 0.700162 0.764025
O O6 0.264380 0.773136 0.751483
O O7 0.308797 0.675523 0.672481
O O8 0.245736 0.651121 0.798386
O O9 0.191203 0.824477 0.636642
O O10 0.206690 0.903222 0.740089
O O11 0.000000 0.818262 0.730570
O O12 0.500000 0.700162 0.045098
O O13 0.264380 0.773136 0.057641
O O14 0.000000 0.988846 0.741116
O O15 0.205804 0.000000 0.654562
O O16 0.258218 0.025853 0.782839
O O17 0.500000 0.318262 0.078553
O O18 0.706690 0.403222 0.069035
O O19 0.000000 0.988846 0.068008
O O20 0.000000 0.412244 0.312580
#
# Coordination Sequence:
#
# PCOD9351151 Si02
#       8
#     8   8   8   8   8   8   8   8
#     4  11  24  39  55  80 115 152 191 234 282 337
#     4  10  19  34  56  82 111 144 185 229 275 332
#     4   9  18  33  55  84 115 141 176 229 281 329
#     4  10  19  34  56  82 111 144 185 229 275 332
#     4  10  19  36  59  85 114 145 186 233 281 337
#     4   9  18  33  55  84 115 141 176 229 281 329
#     4  10  19  36  59  85 114 145 186 233 281 337
#     4  11  24  39  55  80 115 152 191 234 282 337
#
# _framework density 17.097799999999999
#
# number of rings (size 3 to 8) (size 9 to 14) (size 15 to 20)
#    0.000    2.000    2.500    1.500    0.000    4.500 
#    0.000    1.250    0.000    1.500    0.000    0.000 
#    0.000    0.000    0.000    0.000    0.000    0.000 
#
# Total GULP energy -178658.358277 kJ/mol
# GULP energy per Si atom -5583.073696 kJ/mol
# Density = 1.705888 g / cm^3
# Si number density = 17.097800 Si / 1000 Ang^3
#
#
#
# Elastic Constant Matrix: (Units=GPa)
#
#
# Indices 1 2 3 4 5 6 
#
# 1 99.8526 98.8325 84.1357 0.0000 0.0000 0.0000
# 2 98.8325 163.7487 84.7364 0.0000 0.0000 0.0000
# 3 84.1357 84.7364 89.7691 0.0000 0.0000 0.0000
# 4 0.0000 0.0000 0.0000 19.3444 0.0000 0.0000
# 5 0.0000 0.0000 0.0000 0.0000 24.9283 0.0000
# 6 0.0000 0.0000 0.0000 0.0000 0.0000 36.6687
#
#
#
# Elastic Compliance Matrix: (Units=1/GPa)
#
#
# Indices 1 2 3 4 5 6 
#
# 1 0.060616 -0.014049 -0.043551 0.000000 0.000000 0.000000
# 2 -0.014049 0.015195 -0.001175 0.000000 0.000000 0.000000
# 3 -0.043551 -0.001175 0.053067 0.000000 0.000000 0.000000
# 4 0.000000 0.000000 0.000000 0.051695 0.000000 0.000000
# 5 0.000000 0.000000 0.000000 0.000000 0.040115 0.000000
# 6 0.000000 0.000000 0.000000 0.000000 0.000000 0.027271
#
#
# Mechanical properties :
#
#
# Convention : Reuss Voigt Hill
#
# Bulk Modulus (GPa) = 88.28226 98.75329 93.51777
# Shear Modulus (GPa) = 13.53969 21.89934 17.71952
#
# Velocity S-wave (km/s) = 2.81712 3.58275 3.22275
# Velocity P-wave (km/s) = 7.89477 8.66014 8.28630
#
# Compressibility (1/GPa) = 0.01132730
#
# Stress axis : x y z
#
# Youngs Moduli (GPa) = 16.49725 65.81289 18.84413
#
# Poissons Ratio (x) = 0.92461 0.82068
# Poissons Ratio (y) = 0.23177 0.02215
# Poissons Ratio (z) = 0.71847 0.07735
#
# Static dielectric constant tensor:
#      x y z
#    x 1.566320 0.000000 0.000000 
#    y 0.000000 1.567820 0.000000 
#    z 0.000000 0.000000 1.553320 
# 
# From -- ./inp_files/13855.got.cif
#   From: 2010.05.17/outbox.cif.g08.bks.cpg/sg36_7_cif.got.tgz:13855.got - 2010.06.03 17:41:39.
