data_PCOD9351732
_publ_section_title
;
Structure prediction by ZEFSAII (Michael W. Deem and Ramdas Pophale) SiO2 
 PCOD9351732
Probable space group: C M C 21
;
_chemical_formula_sum "Si O2"
_cell_formula_units_Z 48
_cell_length_a 17.996644
_cell_length_b 24.704890
_cell_length_c 5.037125
_cell_angle_alpha 90.000000
_cell_angle_beta 90.000000
_cell_angle_gamma 90.000000
_cell_volume 2239.531517
_symmetry_space_group_name_H-M "C M C 21"
_symmetry_group_IT_number 36
_symmetry_cell_setting 'orthorhombic'
loop_
_space_group_symop_operation_xyz
x,y,z
-x,-y,1/2+z
x,-y,1/2+z
-x,y,z
1/2+x,1/2+y,z
1/2-x,1/2-y,1/2+z
1/2+x,1/2-y,1/2+z
1/2-x,1/2+y,z
loop_
_atom_site_type_symbol
_atom_site_label
_atom_site_fract_x
_atom_site_fract_y
_atom_site_fract_z
Si Si1 0.083111 0.907188 0.386200
Si Si2 0.302714 0.877796 0.733668
Si Si3 0.800875 0.259549 0.566817
Si Si4 0.912901 0.462046 0.983295
Si Si5 0.266585 0.465975 0.373609
Si Si6 0.362706 0.653449 0.383664
O O1 0.146786 0.951931 0.410946
O O2 0.103883 0.860901 0.599285
O O3 0.000000 0.927096 0.429203
O O4 0.093458 0.881248 0.098079
O O5 0.329594 0.819206 0.634867
O O6 0.362945 0.910936 0.901222
O O7 0.278271 0.914975 0.484753
O O8 0.224214 0.865215 0.881527
O O9 0.760665 0.236835 0.832106
O O10 0.860003 0.216107 0.462879
O O11 0.900373 0.489837 0.268434
O O12 0.000000 0.447119 0.966921
O O13 0.251878 0.515198 0.576018
#
# Coordination Sequence:
#
# PCOD9351732 Si02
#       6
#     8   8   8   8   8   8
#     4  11  23  40  59  81 118 159 192 234 288 338
#     4  10  21  37  62  86 114 150 191 237 286 341
#     4  10  20  35  58  87 116 144 184 240 291 334
#     4  10  22  39  58  83 117 153 188 232 288 343
#     4  11  22  35  54  83 112 144 192 238 276 329
#     4  10  21  38  59  88 114 148 197 237 282 339
#
# _framework density 21.433053000000001
#
# number of rings (size 3 to 8) (size 9 to 14) (size 15 to 20)
#    0.000    1.667    0.000    6.500    0.000    7.333 
#    0.000    1.667    0.000    2.000    0.000    0.000 
#    0.000    0.000    0.000    0.000    0.000    0.000 
#
# Total GULP energy -134290.917115 kJ/mol
# GULP energy per Si atom -5595.454880 kJ/mol
# Density = 2.138427 g / cm^3
# Si number density = 21.433053 Si / 1000 Ang^3
#
#
#
# Elastic Constant Matrix: (Units=GPa)
#
#
# Indices 1 2 3 4 5 6 
#
# 1 91.3376 18.2827 5.2866 0.0000 0.0000 0.0000
# 2 18.2827 112.8322 18.8553 0.0000 0.0000 0.0000
# 3 5.2866 18.8553 91.2860 0.0000 0.0000 0.0000
# 4 0.0000 0.0000 0.0000 30.0185 0.0000 0.0000
# 5 0.0000 0.0000 0.0000 0.0000 21.0965 0.0000
# 6 0.0000 0.0000 0.0000 0.0000 0.0000 19.4317
#
#
#
# Elastic Compliance Matrix: (Units=1/GPa)
#
#
# Indices 1 2 3 4 5 6 
#
# 1 0.011323 -0.001787 -0.000287 0.000000 0.000000 0.000000
# 2 -0.001787 0.009462 -0.001851 0.000000 0.000000 0.000000
# 3 -0.000287 -0.001851 0.011353 0.000000 0.000000 0.000000
# 4 0.000000 0.000000 0.000000 0.033313 0.000000 0.000000
# 5 0.000000 0.000000 0.000000 0.000000 0.047401 0.000000
# 6 0.000000 0.000000 0.000000 0.000000 0.000000 0.051462
#
#
# Mechanical properties :
#
#
# Convention : Reuss Voigt Hill
#
# Bulk Modulus (GPa) = 41.17062 42.25610 41.71336
# Shear Modulus (GPa) = 27.73788 30.97807 29.35798
#
# Velocity S-wave (km/s) = 3.60135 3.80589 3.70503
# Velocity P-wave (km/s) = 6.04513 6.25070 6.14877
#
# Compressibility (1/GPa) = 0.02428916
#
# Stress axis : x y z
#
# Youngs Moduli (GPa) = 88.31869 105.69119 88.07878
#
# Poissons Ratio (x) = 0.18884 0.02525
# Poissons Ratio (y) = 0.15780 0.16302
# Poissons Ratio (z) = 0.02532 0.19562
#
# Static dielectric constant tensor:
#      x y z
#    x 1.810480 0.000000 0.000000 
#    y 0.000000 1.782230 0.000000 
#    z 0.000000 0.000000 1.782370 
# 
# From -- ./inp_files/1126.got.cif
#   From: 2010.05.17/outbox.cif.g08.bks.cpg/sg36_1_cif.got.tgz:1126.got - 2010.06.03 17:41:39.
