data_PCOD9351748
_publ_section_title
;
Structure prediction by ZEFSAII (Michael W. Deem and Ramdas Pophale) SiO2 
 PCOD9351748
Probable space group: C M C 21
;
_chemical_formula_sum "Si O2"
_cell_formula_units_Z 64
_cell_length_a 8.484882
_cell_length_b 15.180633
_cell_length_c 24.104721
_cell_angle_alpha 90.000000
_cell_angle_beta 90.000000
_cell_angle_gamma 90.000000
_cell_volume 3104.829793
_symmetry_space_group_name_H-M "C M C 21"
_symmetry_group_IT_number 36
_symmetry_cell_setting 'orthorhombic'
loop_
_space_group_symop_operation_xyz
x,y,z
-x,-y,1/2+z
x,-y,1/2+z
-x,y,z
1/2+x,1/2+y,z
1/2-x,1/2-y,1/2+z
1/2+x,1/2-y,1/2+z
1/2-x,1/2+y,z
loop_
_atom_site_type_symbol
_atom_site_label
_atom_site_fract_x
_atom_site_fract_y
_atom_site_fract_z
Si Si1 0.686609 0.137643 0.807480
Si Si2 0.314767 0.486091 0.734518
Si Si3 0.189525 0.421003 0.428782
Si Si4 0.811414 0.940177 0.120126
Si Si5 0.190551 0.577373 0.502120
Si Si6 0.312891 0.254829 0.640264
Si Si7 0.182152 0.307437 0.758668
Si Si8 0.809809 0.219942 0.016715
O O1 0.500000 0.121165 0.802458
O O2 0.744368 0.106832 0.867835
O O3 0.719639 0.239817 0.795840
O O4 0.775000 0.079766 0.761475
O O5 0.500000 0.467862 0.738291
O O6 0.272441 0.492302 0.669336
O O7 0.223148 0.409535 0.766174
O O8 0.239333 0.517472 0.450265
O O9 0.242770 0.350178 0.474214
O O10 0.000000 0.420672 0.426949
O O11 0.760964 0.964690 0.058205
O O12 0.722158 0.849014 0.133269
O O13 0.000000 0.925502 0.122101
O O14 0.238985 0.679896 0.500808
O O15 0.000000 0.576006 0.506418
O O16 0.500000 0.268961 0.647904
O O17 0.224539 0.287548 0.694565
O O18 0.263739 0.295509 0.580996
O O19 0.000000 0.290654 0.769129
O O20 0.000000 0.217033 0.015004
#
# Coordination Sequence:
#
# PCOD9351748 Si02
#       8
#     8   8   8   8   8   8   8   8
#     4  11  24  44  65  89 126 166 209 260 311 364
#     4  11  24  41  62  92 126 161 207 257 309 371
#     4  10  23  41  63  90 120 159 206 252 301 364
#     4  10  20  35  59  91 126 158 200 250 304 367
#     4   9  20  39  59  85 122 162 200 243 302 364
#     4  10  20  37  61  89 127 164 200 251 312 368
#     4  12  25  40  62  92 123 164 211 256 312 371
#     4   9  20  37  59  88 122 160 199 245 301 359
#
# _framework density 20.613047000000002
#
# number of rings (size 3 to 8) (size 9 to 14) (size 15 to 20)
#    0.000    1.750    1.250    3.375    1.750    6.500 
#    0.000    1.250    0.000    0.000    0.000    0.000 
#    0.000    0.000    0.000    0.000    0.000    0.000 
#
# Total GULP energy -178827.007131 kJ/mol
# GULP energy per Si atom -5588.343973 kJ/mol
# Density = 2.056613 g / cm^3
# Si number density = 20.613047 Si / 1000 Ang^3
#
#
#
# Elastic Constant Matrix: (Units=GPa)
#
#
# Indices 1 2 3 4 5 6 
#
# 1 17.8950 -4.7586 2.4386 0.0000 0.0000 0.0000
# 2 -4.7586 34.6541 -17.9050 0.0000 0.0000 0.0000
# 3 2.4386 -17.9050 32.0558 0.0000 0.0000 0.0000
# 4 0.0000 0.0000 0.0000 23.5759 0.0000 0.0000
# 5 0.0000 0.0000 0.0000 0.0000 24.9897 0.0000
# 6 0.0000 0.0000 0.0000 0.0000 0.0000 28.6035
#
#
#
# Elastic Compliance Matrix: (Units=1/GPa)
#
#
# Indices 1 2 3 4 5 6 
#
# 1 0.057999 0.007991 0.000051 0.000000 0.000000 0.000000
# 2 0.007991 0.041664 0.022664 0.000000 0.000000 0.000000
# 3 0.000051 0.022664 0.043851 0.000000 0.000000 0.000000
# 4 0.000000 0.000000 0.000000 0.042416 0.000000 0.000000
# 5 0.000000 0.000000 0.000000 0.000000 0.040017 0.000000
# 6 0.000000 0.000000 0.000000 0.000000 0.000000 0.034961
#
#
# Mechanical properties :
#
#
# Convention : Reuss Voigt Hill
#
# Bulk Modulus (GPa) = 4.87985 4.90611 4.89298
# Shear Modulus (GPa) = 18.67034 22.42249 20.54642
#
# Velocity S-wave (km/s) = 3.01284 3.30173 3.16059
# Velocity P-wave (km/s) = 3.80466 4.11345 3.96207
#
# Compressibility (1/GPa) = 0.20492435
#
# Stress axis : x y z
#
# Youngs Moduli (GPa) = 17.24154 24.00175 22.80474
#
# Poissons Ratio (x) = -0.19179 -0.00116
# Poissons Ratio (y) = -0.13777 -0.51684
# Poissons Ratio (z) = -0.00088 -0.54397
#
# Static dielectric constant tensor:
#      x y z
#    x 1.696230 0.000000 0.000000 
#    y 0.000000 1.744700 0.000000 
#    z 0.000000 0.000000 1.732640 
# 
# From -- ./inp_files/16565.got.cif
#   From: 2010.05.17/outbox.cif.g08.bks.cpg/sg36_9_cif.got.tgz:16565.got - 2010.06.03 17:41:39.
