data_PCOD9351363
_publ_section_title
;
Structure prediction by ZEFSAII (Michael W. Deem and Ramdas Pophale) SiO2 
 PCOD9351363
Probable space group: C M C 21
;
_chemical_formula_sum "Si O2"
_cell_formula_units_Z 52
_cell_length_a 7.570016
_cell_length_b 23.504765
_cell_length_c 15.287213
_cell_angle_alpha 90.000000
_cell_angle_beta 90.000000
_cell_angle_gamma 90.000000
_cell_volume 2720.075932
_symmetry_space_group_name_H-M "C M C 21"
_symmetry_group_IT_number 36
_symmetry_cell_setting 'orthorhombic'
loop_
_space_group_symop_operation_xyz
x,y,z
-x,-y,1/2+z
x,-y,1/2+z
-x,y,z
1/2+x,1/2+y,z
1/2-x,1/2-y,1/2+z
1/2+x,1/2-y,1/2+z
1/2-x,1/2+y,z
loop_
_atom_site_type_symbol
_atom_site_label
_atom_site_fract_x
_atom_site_fract_y
_atom_site_fract_z
Si Si1 0.214099 0.002562 0.336420
Si Si2 0.713760 0.483474 0.036567
Si Si3 0.500000 0.281941 0.029820
Si Si4 0.287155 0.581794 0.176969
Si Si5 0.000000 0.335129 0.614673
Si Si6 0.706647 0.626080 0.797086
Si Si7 0.700515 0.141771 0.598819
Si Si8 0.500000 0.821839 0.416994
O O1 0.273423 0.008892 0.436431
O O2 0.266010 0.051280 0.267973
O O3 0.000000 0.003820 0.337144
O O4 0.263381 0.940177 0.301810
O O5 0.500000 0.478908 0.037008
O O6 0.755218 0.536270 0.099910
O O7 0.785416 0.424450 0.073643
O O8 0.500000 0.233285 0.106033
O O9 0.669581 0.321425 0.039577
O O10 0.500000 0.244502 0.942335
O O11 0.500000 0.591361 0.176484
O O12 0.172336 0.637683 0.159036
O O13 0.000000 0.352271 0.511691
O O14 0.500000 0.629391 0.820208
O O15 0.735537 0.646755 0.698649
O O16 0.828757 0.660406 0.863075
O O17 0.500000 0.161116 0.591241
#
# Coordination Sequence:
#
# PCOD9351363 Si02
#       8
#     8   8   4   8   4   8   8   4
#     4   9  19  33  59  99 134 171 205 262 340 399
#     4  10  19  36  62  95 135 168 204 267 334 386
#     4  10  26  48  62  88 130 174 219 285 319 375
#     4  10  20  37  61  94 132 170 207 259 334 401
#     4  10  24  41  63  87 131 172 208 268 325 376
#     4  11  20  39  68  98 128 165 217 271 320 391
#     4  12  23  41  70  93 125 178 225 267 333 388
#     4  10  24  41  63  97 119 162 227 271 320 363
#
# _framework density 19.117114000000001
#
# number of rings (size 3 to 8) (size 9 to 14) (size 15 to 20)
#    0.462    1.231    3.846    0.923    1.077    3.692 
#    2.769    1.538    0.000    0.000    0.000    0.000 
#    0.000    0.000    0.000    0.000    0.000    0.000 
#
# Total GULP energy -145156.199916 kJ/mol
# GULP energy per Si atom -5582.930766 kJ/mol
# Density = 1.907360 g / cm^3
# Si number density = 19.117114 Si / 1000 Ang^3
#
#
#
# Elastic Constant Matrix: (Units=GPa)
#
#
# Indices 1 2 3 4 5 6 
#
# 1 92.9515 18.4363 0.3063 0.0000 0.0000 0.0000
# 2 18.4363 37.8550 -27.2323 0.0000 0.0000 0.0000
# 3 0.3063 -27.2323 50.5498 0.0000 0.0000 0.0000
# 4 0.0000 0.0000 0.0000 32.4662 0.0000 0.0000
# 5 0.0000 0.0000 0.0000 0.0000 18.2458 0.0000
# 6 0.0000 0.0000 0.0000 0.0000 0.0000 -107.3574
#
#
#
# Elastic Compliance Matrix: (Units=1/GPa)
#
#
# Indices 1 2 3 4 5 6 
#
# 1 0.012816 -0.010283 -0.005617 0.000000 0.000000 0.000000
# 2 -0.010283 0.051383 0.027743 0.000000 0.000000 0.000000
# 3 -0.005617 0.027743 0.034762 0.000000 0.000000 0.000000
# 4 0.000000 0.000000 0.000000 0.030801 0.000000 0.000000
# 5 0.000000 0.000000 0.000000 0.000000 0.054807 0.000000
# 6 0.000000 0.000000 0.000000 0.000000 0.000000 -0.009315
#
#
# Mechanical properties :
#
#
# Convention : Reuss Voigt Hill
#
# Bulk Modulus (GPa) = 8.15342 18.26409 13.20875
# Shear Modulus (GPa) = 25.98059 1.32732 13.65395
#
# Velocity S-wave (km/s) = 3.69049 0.83416 2.67540
# Velocity P-wave (km/s) = 4.73644 3.24072 4.05809
#
# Compressibility (1/GPa) = 0.12264797
#
# Stress axis : x y z
#
# Youngs Moduli (GPa) = 78.02541 19.46182 28.76666
#
# Poissons Ratio (x) = 0.20012 0.16159
# Poissons Ratio (y) = 0.80232 -0.79808
# Poissons Ratio (z) = 0.43829 -0.53994
#
# Static dielectric constant tensor:
#      x y z
#    x 1.675080 0.000000 0.000000 
#    y 0.000000 1.637080 0.000000 
#    z 0.000000 0.000000 1.659940 
# 
# From -- ./inp_files/10623.got.cif
#   From: 2010.05.17/outbox.cif.g08.bks.cpg/sg36_6_cif.got.tgz:10623.got - 2010.06.03 17:41:39.
