data_PCOD9351919
_publ_section_title
;
Structure prediction by ZEFSAII (Michael W. Deem and Ramdas Pophale) SiO2 
 PCOD9351919
Probable space group: C M C 21
;
_chemical_formula_sum "Si O2"
_cell_formula_units_Z 64
_cell_length_a 14.996199
_cell_length_b 23.335163
_cell_length_c 9.402258
_cell_angle_alpha 90.000000
_cell_angle_beta 90.000000
_cell_angle_gamma 90.000000
_cell_volume 3290.214393
_symmetry_space_group_name_H-M "C M C 21"
_symmetry_group_IT_number 36
_symmetry_cell_setting 'orthorhombic'
loop_
_space_group_symop_operation_xyz
x,y,z
-x,-y,1/2+z
x,-y,1/2+z
-x,y,z
1/2+x,1/2+y,z
1/2-x,1/2-y,1/2+z
1/2+x,1/2-y,1/2+z
1/2-x,1/2+y,z
loop_
_atom_site_type_symbol
_atom_site_label
_atom_site_fract_x
_atom_site_fract_y
_atom_site_fract_z
Si Si1 0.231079 0.301281 0.728550
Si Si2 0.192794 0.482395 0.232505
Si Si3 0.602091 0.367196 0.648377
Si Si4 0.899725 0.400797 0.801213
Si Si5 0.267324 0.304915 0.061291
Si Si6 0.682386 0.524941 0.989534
Si Si7 0.899974 0.631404 0.634751
Si Si8 0.599431 0.402760 0.980089
O O1 0.323902 0.317564 0.650736
O O2 0.168117 0.357275 0.725320
O O3 0.190016 0.247520 0.646389
O O4 0.248453 0.289471 0.896017
O O5 0.135943 0.534818 0.294037
O O6 0.276705 0.468645 0.333334
O O7 0.233955 0.507280 0.087689
O O8 0.133844 0.426179 0.210650
O O9 0.500000 0.350212 0.617044
O O10 0.634603 0.418600 0.547452
O O11 0.604967 0.390387 0.811038
O O12 0.000000 0.396894 0.743686
O O13 0.901424 0.382907 0.966400
O O14 0.176285 0.320801 0.144064
O O15 0.327611 0.362139 0.053447
O O16 0.619155 0.469616 0.998035
O O17 0.000000 0.647571 0.679245
O O18 0.500000 0.388495 0.029408
#
# Coordination Sequence:
#
# PCOD9351919 Si02
#       8
#     8   8   8   8   8   8   8   8
#     4  10  21  39  60  81 111 154 197 244 294 341
#     4  12  20  36  61  86 119 153 188 230 284 344
#     4  10  21  38  60  86 117 154 192 234 289 348
#     4  10  20  37  59  85 118 155 191 233 289 346
#     4  10  21  39  60  81 111 154 197 244 294 341
#     4  12  20  36  61  86 119 153 188 230 284 344
#     4  10  21  38  60  86 117 154 192 234 289 348
#     4  10  20  37  59  85 118 155 191 233 289 346
#
# _framework density 19.451620999999999
#
# number of rings (size 3 to 8) (size 9 to 14) (size 15 to 20)
#    0.000    1.500    5.000    1.500    0.000    2.000 
#    0.000    0.000    0.000    0.000    0.000    0.000 
#    0.000    0.000    0.000    0.000    0.000    0.000 
#
# Total GULP energy -178632.727190 kJ/mol
# GULP energy per Si atom -5582.272725 kJ/mol
# Density = 1.940735 g / cm^3
# Si number density = 19.451621 Si / 1000 Ang^3
#
#
#
# Elastic Constant Matrix: (Units=GPa)
#
#
# Indices 1 2 3 4 5 6 
#
# 1 102.0405 29.6938 10.5259 0.0000 0.0000 0.0000
# 2 29.6938 80.6538 19.0219 0.0000 0.0000 0.0000
# 3 10.5259 19.0219 24.0205 0.0000 0.0000 0.0000
# 4 0.0000 0.0000 0.0000 23.1004 0.0000 0.0000
# 5 0.0000 0.0000 0.0000 0.0000 7.0623 0.0000
# 6 0.0000 0.0000 0.0000 0.0000 0.0000 6.9336
#
#
#
# Elastic Compliance Matrix: (Units=1/GPa)
#
#
# Indices 1 2 3 4 5 6 
#
# 1 0.011053 -0.003599 -0.001993 0.000000 0.000000 0.000000
# 2 -0.003599 0.016418 -0.011424 0.000000 0.000000 0.000000
# 3 -0.001993 -0.011424 0.051552 0.000000 0.000000 0.000000
# 4 0.000000 0.000000 0.000000 0.043289 0.000000 0.000000
# 5 0.000000 0.000000 0.000000 0.000000 0.141596 0.000000
# 6 0.000000 0.000000 0.000000 0.000000 0.000000 0.144225
#
#
# Mechanical properties :
#
#
# Convention : Reuss Voigt Hill
#
# Bulk Modulus (GPa) = 22.22763 36.13311 29.18037
# Shear Modulus (GPa) = 10.93702 17.25081 14.09391
#
# Velocity S-wave (km/s) = 2.37379 2.98125 2.69469
# Velocity P-wave (km/s) = 4.35490 5.51966 4.97151
#
# Compressibility (1/GPa) = 0.04498906
#
# Stress axis : x y z
#
# Youngs Moduli (GPa) = 90.47304 60.90810 19.39803
#
# Poissons Ratio (x) = 0.21922 0.03867
# Poissons Ratio (y) = 0.32563 0.22161
# Poissons Ratio (z) = 0.18034 0.69584
#
# Static dielectric constant tensor:
#      x y z
#    x 1.710410 0.000000 0.000000 
#    y 0.000000 1.653630 0.000000 
#    z 0.000000 0.000000 1.669430 
# 
# From -- ./inp_files/4361.got.cif
#   From: 2010.05.17/outbox.cif.g08.bks.cpg/sg36_3_cif.got.tgz:4361.got - 2010.06.03 17:41:39.
