data_PCOD9351324
_publ_section_title
;
Structure prediction by ZEFSAII (Michael W. Deem and Ramdas Pophale) SiO2 
 PCOD9351324
Probable space group: C M C 21
;
_chemical_formula_sum "Si O2"
_cell_formula_units_Z 64
_cell_length_a 7.567123
_cell_length_b 20.457111
_cell_length_c 18.658362
_cell_angle_alpha 90.000000
_cell_angle_beta 90.000000
_cell_angle_gamma 90.000000
_cell_volume 2888.341962
_symmetry_space_group_name_H-M "C M C 21"
_symmetry_group_IT_number 36
_symmetry_cell_setting 'orthorhombic'
loop_
_space_group_symop_operation_xyz
x,y,z
-x,-y,1/2+z
x,-y,1/2+z
-x,y,z
1/2+x,1/2+y,z
1/2-x,1/2-y,1/2+z
1/2+x,1/2-y,1/2+z
1/2-x,1/2+y,z
loop_
_atom_site_type_symbol
_atom_site_label
_atom_site_fract_x
_atom_site_fract_y
_atom_site_fract_z
Si Si1 0.215281 0.916306 0.439950
Si Si2 0.713617 0.312774 0.561601
Si Si3 0.293138 0.692972 0.468194
Si Si4 0.783904 0.027612 0.674033
Si Si5 0.293867 0.383383 0.703257
Si Si6 0.716819 0.636504 0.785205
Si Si7 0.284082 0.549634 0.509829
Si Si8 0.297293 0.778883 0.810312
O O1 0.270005 0.865572 0.501653
O O2 0.271670 0.892411 0.362031
O O3 0.000000 0.916325 0.440146
O O4 0.272421 0.989270 0.460453
O O5 0.500000 0.311034 0.561842
O O6 0.772129 0.241829 0.534801
O O7 0.777808 0.338204 0.638691
O O8 0.500000 0.687064 0.452160
O O9 0.222975 0.620763 0.484799
O O10 0.210596 0.722635 0.396259
O O11 0.725285 0.087987 0.722747
O O12 0.731398 0.035563 0.591552
O O13 0.000000 0.029018 0.676371
O O14 0.722146 0.956976 0.702805
O O15 0.500000 0.391701 0.685547
O O16 0.283624 0.344077 0.777052
O O17 0.500000 0.638420 0.785309
O O18 0.779608 0.711240 0.780142
O O19 0.500000 0.550694 0.509255
O O20 0.500000 0.781657 0.788056
#
# Coordination Sequence:
#
# PCOD9351324 Si02
#       8
#     8   8   8   8   8   8   8   8
#     4   9  15  30  53  77 102 140 188 229 272 324
#     4  10  19  36  59  81 111 149 183 222 284 346
#     4  11  23  36  57  87 115 144 189 242 283 327
#     4   9  17  32  53  82 112 139 182 238 281 319
#     4  10  21  36  59  87 113 144 185 234 283 335
#     4   9  18  30  52  78 105 144 189 230 272 325
#     4   9  18  31  52  82 112 139 181 241 281 313
#     4  11  23  39  57  80 116 155 187 226 282 345
#
# _framework density 22.158041000000001
#
# number of rings (size 3 to 8) (size 9 to 14) (size 15 to 20)
#    0.000    2.250    2.500    0.750    3.500    0.500 
#    0.000    0.000    0.000    6.000    0.000    0.000 
#    0.000    0.000    0.000    0.000    0.000    0.000 
#
# Total GULP energy -178779.952685 kJ/mol
# GULP energy per Si atom -5586.873521 kJ/mol
# Density = 2.210761 g / cm^3
# Si number density = 22.158041 Si / 1000 Ang^3
#
#
#
# Elastic Constant Matrix: (Units=GPa)
#
#
# Indices 1 2 3 4 5 6 
#
# 1 49.3625 5.3722 1.5456 0.0000 0.0000 0.0000
# 2 5.3722 146.4880 8.2211 0.0000 0.0000 0.0000
# 3 1.5456 8.2211 30.0541 0.0000 0.0000 0.0000
# 4 0.0000 0.0000 0.0000 41.5177 0.0000 0.0000
# 5 0.0000 0.0000 0.0000 0.0000 9.9632 0.0000
# 6 0.0000 0.0000 0.0000 0.0000 0.0000 3.5885
#
#
#
# Elastic Compliance Matrix: (Units=1/GPa)
#
#
# Indices 1 2 3 4 5 6 
#
# 1 0.020361 -0.000699 -0.000856 0.000000 0.000000 0.000000
# 2 -0.000699 0.006957 -0.001867 0.000000 0.000000 0.000000
# 3 -0.000856 -0.001867 0.033828 0.000000 0.000000 0.000000
# 4 0.000000 0.000000 0.000000 0.024086 0.000000 0.000000
# 5 0.000000 0.000000 0.000000 0.000000 0.100369 0.000000
# 6 0.000000 0.000000 0.000000 0.000000 0.000000 0.278668
#
#
# Mechanical properties :
#
#
# Convention : Reuss Voigt Hill
#
# Bulk Modulus (GPa) = 18.41534 28.46473 23.44003
# Shear Modulus (GPa) = 10.22049 25.06494 17.64272
#
# Velocity S-wave (km/s) = 2.15001 3.36696 2.82480
# Velocity P-wave (km/s) = 3.80688 5.29050 4.60878
#
# Compressibility (1/GPa) = 0.05430255
#
# Stress axis : x y z
#
# Youngs Moduli (GPa) = 49.11321 143.74216 29.56125
#
# Poissons Ratio (x) = 0.10043 0.02531
# Poissons Ratio (y) = 0.03431 0.05519
# Poissons Ratio (z) = 0.04204 0.26838
#
# Static dielectric constant tensor:
#      x y z
#    x 1.864480 0.000000 0.000000 
#    y 0.000000 1.796180 0.000000 
#    z 0.000000 0.000000 1.756130 
# 
# From -- ./inp_files/13947.got.cif
#   From: 2010.05.17/outbox.cif.g08.bks.cpg/sg36_7_cif.got.tgz:13947.got - 2010.06.03 17:41:39.
