data_PCOD9351186
_publ_section_title
;
Structure prediction by ZEFSAII (Michael W. Deem and Ramdas Pophale) SiO2 
 PCOD9351186
Probable space group: C M C 21
;
_chemical_formula_sum "Si O2"
_cell_formula_units_Z 64
_cell_length_a 11.162630
_cell_length_b 35.154166
_cell_length_c 8.979137
_cell_angle_alpha 90.000000
_cell_angle_beta 90.000000
_cell_angle_gamma 90.000000
_cell_volume 3523.529621
_symmetry_space_group_name_H-M "C M C 21"
_symmetry_group_IT_number 36
_symmetry_cell_setting 'orthorhombic'
loop_
_space_group_symop_operation_xyz
x,y,z
-x,-y,1/2+z
x,-y,1/2+z
-x,y,z
1/2+x,1/2+y,z
1/2-x,1/2-y,1/2+z
1/2+x,1/2-y,1/2+z
1/2-x,1/2+y,z
loop_
_atom_site_type_symbol
_atom_site_label
_atom_site_fract_x
_atom_site_fract_y
_atom_site_fract_z
Si Si1 0.245183 0.655649 0.540160
Si Si2 0.144782 0.449771 0.306720
Si Si3 0.215966 0.157445 0.044901
Si Si4 0.643899 0.105717 0.280484
Si Si5 0.860497 0.296847 0.300766
Si Si6 0.357750 0.972682 0.651758
Si Si7 0.633111 0.392220 0.278907
Si Si8 0.637377 0.710525 0.303104
O O1 0.184348 0.623675 0.436681
O O2 0.160393 0.676431 0.658404
O O3 0.348354 0.636211 0.639621
O O4 0.291075 0.688167 0.429263
O O5 0.179493 0.485502 0.202625
O O6 0.159728 0.462994 0.478496
O O7 0.245167 0.417664 0.278619
O O8 0.000000 0.440081 0.286860
O O9 0.299330 0.130932 0.148452
O O10 0.145110 0.184895 0.155632
O O11 0.293576 0.184121 0.938038
O O12 0.140464 0.131214 0.933264
O O13 0.500000 0.106836 0.270372
O O14 0.687363 0.062478 0.251930
O O15 0.818095 0.253468 0.275409
O O16 0.000000 0.295785 0.333738
O O17 0.500000 0.973298 0.676803
O O18 0.500000 0.410365 0.269184
O O19 0.500000 0.712830 0.351159
#
# Coordination Sequence:
#
# PCOD9351186 Si02
#       8
#     8   8   8   8   8   8   8   8
#     4  10  22  35  54  81 113 149 190 234 286 342
#     4  10  21  38  62  87 116 149 191 235 284 340
#     4  10  20  35  56  78 109 148 188 230 284 344
#     4  10  19  34  57  85 114 145 186 238 288 341
#     4  10  20  34  54  82 110 140 183 239 291 340
#     4   9  19  35  58  87 114 144 184 230 283 338
#     4  11  23  39  58  83 118 155 197 236 283 341
#     4  10  20  36  55  75 106 146 190 234 285 340
#
# _framework density 18.163606000000001
#
# number of rings (size 3 to 8) (size 9 to 14) (size 15 to 20)
#    0.000    2.000    1.250    2.250    1.750    2.500 
#    0.000    0.625    0.000   12.000    0.000    0.000 
#    0.000    0.000    0.000    0.000    0.000    0.000 
#
# Total GULP energy -178344.101267 kJ/mol
# GULP energy per Si atom -5573.253165 kJ/mol
# Density = 1.812226 g / cm^3
# Si number density = 18.163606 Si / 1000 Ang^3
#
#
#
# Elastic Constant Matrix: (Units=GPa)
#
#
# Indices 1 2 3 4 5 6 
#
# 1 77.5534 29.6886 13.6491 0.0000 0.0000 0.0000
# 2 29.6886 79.2078 14.9505 0.0000 0.0000 0.0000
# 3 13.6491 14.9505 50.7119 0.0000 0.0000 0.0000
# 4 0.0000 0.0000 0.0000 25.4707 0.0000 0.0000
# 5 0.0000 0.0000 0.0000 0.0000 -1.3690 0.0000
# 6 0.0000 0.0000 0.0000 0.0000 0.0000 23.1173
#
#
#
# Elastic Compliance Matrix: (Units=1/GPa)
#
#
# Indices 1 2 3 4 5 6 
#
# 1 0.015367 -0.005273 -0.002582 0.000000 0.000000 0.000000
# 2 -0.005273 0.015178 -0.003056 0.000000 0.000000 0.000000
# 3 -0.002582 -0.003056 0.021315 0.000000 0.000000 0.000000
# 4 0.000000 0.000000 0.000000 0.039261 0.000000 0.000000
# 5 0.000000 0.000000 0.000000 0.000000 -0.730443 0.000000
# 6 0.000000 0.000000 0.000000 0.000000 0.000000 0.043258
#
#
# Mechanical properties :
#
#
# Convention : Reuss Voigt Hill
#
# Bulk Modulus (GPa) = 33.28844 36.00551 34.64698
# Shear Modulus (GPa) = -8.86161 19.38945 5.26392
#
# Velocity S-wave (km/s) = -2.21119 3.27079 1.70422
# Velocity P-wave (km/s) = 3.44204 5.84209 4.79467
#
# Compressibility (1/GPa) = 0.03004046
#
# Stress axis : x y z
#
# Youngs Moduli (GPa) = 65.07397 65.88467 46.91558
#
# Poissons Ratio (x) = 0.34738 0.12112
# Poissons Ratio (y) = 0.34311 0.14335
# Poissons Ratio (z) = 0.16800 0.20131
#
# Static dielectric constant tensor:
#      x y z
#    x 1.607640 0.000000 0.000000 
#    y 0.000000 1.657180 0.000000 
#    z 0.000000 0.000000 1.613170 
# 
# From -- ./inp_files/3603.got.cif
#   From: 2010.05.17/outbox.cif.g08.bks.cpg/sg36_2_cif.got.tgz:3603.got - 2010.06.03 17:41:39.
