data_PCOD9351846
_publ_section_title
;
Structure prediction by ZEFSAII (Michael W. Deem and Ramdas Pophale) SiO2 
 PCOD9351846
Probable space group: C M C 21
;
_chemical_formula_sum "Si O2"
_cell_formula_units_Z 64
_cell_length_a 15.994874
_cell_length_b 11.109752
_cell_length_c 14.671159
_cell_angle_alpha 90.000000
_cell_angle_beta 90.000000
_cell_angle_gamma 90.000000
_cell_volume 2607.051507
_symmetry_space_group_name_H-M "C M C 21"
_symmetry_group_IT_number 36
_symmetry_cell_setting 'orthorhombic'
loop_
_space_group_symop_operation_xyz
x,y,z
-x,-y,1/2+z
x,-y,1/2+z
-x,y,z
1/2+x,1/2+y,z
1/2-x,1/2-y,1/2+z
1/2+x,1/2-y,1/2+z
1/2-x,1/2+y,z
loop_
_atom_site_type_symbol
_atom_site_label
_atom_site_fract_x
_atom_site_fract_y
_atom_site_fract_z
Si Si1 0.098536 0.335659 0.759080
Si Si2 0.401425 0.440688 0.689265
Si Si3 0.903636 0.926613 0.023035
Si Si4 0.329451 0.943110 0.369689
Si Si5 0.599128 0.060834 0.073525
Si Si6 0.600727 0.698053 0.354842
Si Si7 0.403189 0.793526 0.063756
Si Si8 0.854488 0.851658 0.401252
O O1 0.148007 0.435427 0.817316
O O2 0.126757 0.348156 0.653474
O O3 0.107859 0.208104 0.810283
O O4 0.000000 0.367288 0.760726
O O5 0.500000 0.470491 0.700439
O O6 0.363261 0.536629 0.618927
O O7 0.366974 0.405273 0.787081
O O8 0.397945 0.314133 0.635339
O O9 0.866524 0.826554 0.956975
O O10 0.000000 0.893727 0.041905
O O11 0.903793 0.045550 0.958005
O O12 0.361328 0.942448 0.473937
O O13 0.375509 0.829846 0.323545
O O14 0.233757 0.906621 0.376006
O O15 0.500000 0.080742 0.060415
O O16 0.614124 0.923358 0.106152
O O17 0.500000 0.689243 0.357029
O O18 0.500000 0.798540 0.030188
O O19 0.349126 0.755433 0.976404
#
# Coordination Sequence:
#
# PCOD9351846 Si02
#       8
#     8   8   8   8   8   8   8   8
#     4  11  23  45  72  95 126 177 233 275 322 403
#     4   8  15  31  56  88 111 150 210 250 290 365
#     4   9  19  37  60  85 116 163 215 253 298 381
#     4  12  25  40  63  97 137 160 211 276 344 387
#     4  10  21  40  68  99 126 168 228 280 328 391
#     4  10  20  36  60  87 122 159 198 254 315 375
#     4   9  16  34  65  90 116 162 221 265 307 384
#     4  11  23  39  62  89 129 167 210 265 335 386
#
# _framework density 24.548805999999999
#
# number of rings (size 3 to 8) (size 9 to 14) (size 15 to 20)
#    0.000    2.000    1.250    3.750    1.750    2.000 
#    9.000    0.000    0.000    0.000    0.000    0.000 
#    0.000    0.000    0.000    0.000    0.000    0.000 
#
# Total GULP energy -178838.950412 kJ/mol
# GULP energy per Si atom -5588.717200 kJ/mol
# Density = 2.449293 g / cm^3
# Si number density = 24.548806 Si / 1000 Ang^3
#
#
#
# Elastic Constant Matrix: (Units=GPa)
#
#
# Indices 1 2 3 4 5 6 
#
# 1 53.0950 10.5437 27.6311 0.0000 0.0000 0.0000
# 2 10.5437 59.3630 8.3537 0.0000 0.0000 0.0000
# 3 27.6311 8.3537 116.6310 0.0000 0.0000 0.0000
# 4 0.0000 0.0000 0.0000 38.7445 0.0000 0.0000
# 5 0.0000 0.0000 0.0000 0.0000 2.7128 0.0000
# 6 0.0000 0.0000 0.0000 0.0000 0.0000 32.2515
#
#
#
# Elastic Compliance Matrix: (Units=1/GPa)
#
#
# Indices 1 2 3 4 5 6 
#
# 1 0.022075 -0.003217 -0.004999 0.000000 0.000000 0.000000
# 2 -0.003217 0.017486 -0.000490 0.000000 0.000000 0.000000
# 3 -0.004999 -0.000490 0.009794 0.000000 0.000000 0.000000
# 4 0.000000 0.000000 0.000000 0.025810 0.000000 0.000000
# 5 0.000000 0.000000 0.000000 0.000000 0.368623 0.000000
# 6 0.000000 0.000000 0.000000 0.000000 0.000000 0.031006
#
#
# Mechanical properties :
#
#
# Convention : Reuss Voigt Hill
#
# Bulk Modulus (GPa) = 31.30808 35.79400 33.55104
# Shear Modulus (GPa) = 9.94324 26.91246 18.42785
#
# Velocity S-wave (km/s) = 2.01474 3.31461 2.74279
# Velocity P-wave (km/s) = 4.26537 5.40937 4.87107
#
# Compressibility (1/GPa) = 0.03194063
#
# Stress axis : x y z
#
# Youngs Moduli (GPa) = 45.30067 57.18881 102.10805
#
# Poissons Ratio (x) = 0.18399 0.51047
# Poissons Ratio (y) = 0.14574 0.05006
# Poissons Ratio (z) = 0.22647 0.02804
#
# Static dielectric constant tensor:
#      x y z
#    x 1.914120 0.000000 0.000000 
#    y 0.000000 1.988680 0.000000 
#    z 0.000000 0.000000 2.002700 
# 
# From -- ./inp_files/12645.got.cif
#   From: 2010.05.17/outbox.cif.g08.bks.cpg/sg36_7_cif.got.tgz:12645.got - 2010.06.03 17:41:39.
