data_PCOD9351459
_publ_section_title
;
Structure prediction by ZEFSAII (Michael W. Deem and Ramdas Pophale) SiO2 
 PCOD9351459
Probable space group: C M C 21
;
_chemical_formula_sum "Si O2"
_cell_formula_units_Z 64
_cell_length_a 7.554839
_cell_length_b 18.962136
_cell_length_c 21.869393
_cell_angle_alpha 90.000000
_cell_angle_beta 90.000000
_cell_angle_gamma 90.000000
_cell_volume 3132.919239
_symmetry_space_group_name_H-M "C M C 21"
_symmetry_group_IT_number 36
_symmetry_cell_setting 'orthorhombic'
loop_
_space_group_symop_operation_xyz
x,y,z
-x,-y,1/2+z
x,-y,1/2+z
-x,y,z
1/2+x,1/2+y,z
1/2-x,1/2-y,1/2+z
1/2+x,1/2-y,1/2+z
1/2-x,1/2+y,z
loop_
_atom_site_type_symbol
_atom_site_label
_atom_site_fract_x
_atom_site_fract_y
_atom_site_fract_z
Si Si1 0.287546 0.670742 0.635110
Si Si2 0.282861 0.168502 0.138963
Si Si3 0.213010 0.583199 0.756520
Si Si4 0.710447 0.583771 0.519779
Si Si5 0.287624 0.921795 0.754250
Si Si6 0.285959 0.082261 0.020124
Si Si7 0.701404 0.904288 0.387269
Si Si8 0.210699 0.932972 0.887600
O O1 0.500000 0.674325 0.629060
O O2 0.222899 0.750840 0.638009
O O3 0.251555 0.629133 0.697457
O O4 0.216297 0.628041 0.576412
O O5 0.500000 0.168097 0.139274
O O6 0.223104 0.127294 0.199584
O O7 0.226591 0.127118 0.078068
O O8 0.278348 0.502645 0.748221
O O9 0.281560 0.614416 0.821240
O O10 0.000000 0.579190 0.762988
O O11 0.500000 0.595353 0.519797
O O12 0.740479 0.500115 0.528003
O O13 0.772744 0.601971 0.450931
O O14 0.500000 0.924403 0.749318
O O15 0.244653 0.896467 0.822858
O O16 0.500000 0.085767 0.017455
O O17 0.218173 0.109660 0.954086
O O18 0.500000 0.877010 0.388606
O O19 0.700047 0.990005 0.384538
O O20 0.000000 0.945122 0.892539
#
# Coordination Sequence:
#
# PCOD9351459 Si02
#       8
#     8   8   8   8   8   8   8   8
#     4  10  20  33  47  65  93 127 157 185 224 274
#     4   9  18  32  49  68  91 122 159 193 223 263
#     4   9  17  30  48  71  95 116 146 191 233 267
#     4   9  18  31  47  70  97 120 147 188 232 272
#     4   9  17  31  50  70  92 118 152 193 228 263
#     4   9  16  30  53  73  88 116 157 192 225 268
#     4   8  15  28  47  71  94 116 148 190 230 267
#     4   9  16  27  45  70  96 119 146 184 231 276
#
# _framework density 20.428231
#
# number of rings (size 3 to 8) (size 9 to 14) (size 15 to 20)
#    0.000    3.000    0.000    1.875    0.000    4.000 
#    0.000    3.125    0.000    3.000    0.000    0.000 
#    0.000    0.000    0.000    0.000    0.000    0.000 
#
# Total GULP energy -178349.680402 kJ/mol
# GULP energy per Si atom -5573.427513 kJ/mol
# Density = 2.038174 g / cm^3
# Si number density = 20.428231 Si / 1000 Ang^3
#
#
#
# Elastic Constant Matrix: (Units=GPa)
#
#
# Indices 1 2 3 4 5 6 
#
# 1 50.9066 -1.9401 2.2425 0.0000 0.0000 0.0000
# 2 -1.9401 88.5491 105.5201 0.0000 0.0000 0.0000
# 3 2.2425 105.5201 263.9269 0.0000 0.0000 0.0000
# 4 0.0000 0.0000 0.0000 -6.8762 0.0000 0.0000
# 5 0.0000 0.0000 0.0000 0.0000 21.0185 0.0000
# 6 0.0000 0.0000 0.0000 0.0000 0.0000 8.5418
#
#
#
# Elastic Compliance Matrix: (Units=1/GPa)
#
#
# Indices 1 2 3 4 5 6 
#
# 1 0.019718 0.001206 -0.000650 0.000000 0.000000 0.000000
# 2 0.001206 0.021644 -0.008664 0.000000 0.000000 0.000000
# 3 -0.000650 -0.008664 0.007258 0.000000 0.000000 0.000000
# 4 0.000000 0.000000 0.000000 -0.145430 0.000000 0.000000
# 5 0.000000 0.000000 0.000000 0.000000 0.047577 0.000000
# 6 0.000000 0.000000 0.000000 0.000000 0.000000 0.117071
#
#
# Mechanical properties :
#
#
# Convention : Reuss Voigt Hill
#
# Bulk Modulus (GPa) = 30.85818 68.33640 49.59729
# Shear Modulus (GPa) = 52.71242 24.37417 38.54330
#
# Velocity S-wave (km/s) = 5.08525 3.45796 4.34840
# Velocity P-wave (km/s) = 7.04401 7.03334 7.03868
#
# Compressibility (1/GPa) = 0.03240632
#
# Stress axis : x y z
#
# Youngs Moduli (GPa) = 50.71393 46.20320 137.77538
#
# Poissons Ratio (x) = -0.05574 0.08954
# Poissons Ratio (y) = -0.06119 1.19362
# Poissons Ratio (z) = 0.03296 0.40028
#
# Static dielectric constant tensor:
#      x y z
#    x 1.769750 0.000000 0.000000 
#    y 0.000000 1.667750 0.000000 
#    z 0.000000 0.000000 1.779880 
# 
# From -- ./inp_files/15794.got.cif
#   From: 2010.05.17/outbox.cif.g08.bks.cpg/sg36_8_cif.got.tgz:15794.got - 2010.06.03 17:41:39.
