data_PCOD9351323
_publ_section_title
;
Structure prediction by ZEFSAII (Michael W. Deem and Ramdas Pophale) SiO2 
 PCOD9351323
Probable space group: C M C 21
;
_chemical_formula_sum "Si O2"
_cell_formula_units_Z 56
_cell_length_a 14.482282
_cell_length_b 21.541966
_cell_length_c 9.913099
_cell_angle_alpha 90.000000
_cell_angle_beta 90.000000
_cell_angle_gamma 90.000000
_cell_volume 3092.657166
_symmetry_space_group_name_H-M "C M C 21"
_symmetry_group_IT_number 36
_symmetry_cell_setting 'orthorhombic'
loop_
_space_group_symop_operation_xyz
x,y,z
-x,-y,1/2+z
x,-y,1/2+z
-x,y,z
1/2+x,1/2+y,z
1/2-x,1/2-y,1/2+z
1/2+x,1/2-y,1/2+z
1/2-x,1/2+y,z
loop_
_atom_site_type_symbol
_atom_site_label
_atom_site_fract_x
_atom_site_fract_y
_atom_site_fract_z
Si Si1 0.787437 0.690952 0.116380
Si Si2 0.837732 0.497533 0.793327
Si Si3 0.733800 0.118022 0.390746
Si Si4 0.897406 0.247551 0.182871
Si Si5 0.601221 0.922971 0.540585
Si Si6 0.394692 0.697147 0.489543
Si Si7 0.392083 0.890221 0.133432
O O1 0.786147 0.666027 0.270010
O O2 0.683266 0.715480 0.096625
O O3 0.822776 0.631213 0.033264
O O4 0.854575 0.748212 0.083637
O O5 0.754089 0.451668 0.832488
O O6 0.893732 0.454254 0.688252
O O7 0.827087 0.560550 0.708493
O O8 0.882997 0.523643 0.929970
O O9 0.819473 0.142134 0.479003
O O10 0.642283 0.114028 0.480932
O O11 0.896453 0.222594 0.335550
O O12 0.881996 0.321167 0.190514
O O13 0.000000 0.237011 0.125992
O O14 0.500000 0.895095 0.518553
O O15 0.500000 0.680321 0.525701
O O16 0.500000 0.908748 0.146456
#
# Coordination Sequence:
#
# PCOD9351323 Si02
#       7
#     8   8   8   8   8   8   8
#     4  10  20  34  56  83 113 148 194 239 285 343
#     4  11  22  35  54  80 115 154 191 234 291 351
#     4  10  22  36  53  85 119 152 189 242 292 342
#     4   9  19  35  56  82 111 149 190 230 287 351
#     4  11  21  33  52  83 116 150 191 237 291 350
#     4  10  19  36  59  81 110 150 195 236 284 346
#     4  11  20  33  55  80 116 153 183 228 289 349
#
# _framework density 18.107406999999998
#
# number of rings (size 3 to 8) (size 9 to 14) (size 15 to 20)
#    0.000    1.714    2.857    2.571    0.000    4.571 
#    0.000    0.000    0.000    1.714    0.000    0.000 
#    0.000    0.000    0.000    0.000    0.000    0.000 
#
# Total GULP energy -155939.343770 kJ/mol
# GULP energy per Si atom -5569.262278 kJ/mol
# Density = 1.806619 g / cm^3
# Si number density = 18.107407 Si / 1000 Ang^3
#
#
#
# Elastic Constant Matrix: (Units=GPa)
#
#
# Indices 1 2 3 4 5 6 
#
# 1 93.5719 62.8608 24.7288 0.0000 0.0000 0.0000
# 2 62.8608 107.2521 19.9244 0.0000 0.0000 0.0000
# 3 24.7288 19.9244 50.2302 0.0000 0.0000 0.0000
# 4 0.0000 0.0000 0.0000 29.9619 0.0000 0.0000
# 5 0.0000 0.0000 0.0000 0.0000 14.4906 0.0000
# 6 0.0000 0.0000 0.0000 0.0000 0.0000 19.1170
#
#
#
# Elastic Compliance Matrix: (Units=1/GPa)
#
#
# Indices 1 2 3 4 5 6 
#
# 1 0.018844 -0.010062 -0.005286 0.000000 0.000000 0.000000
# 2 -0.010062 0.015439 -0.001170 0.000000 0.000000 0.000000
# 3 -0.005286 -0.001170 0.022975 0.000000 0.000000 0.000000
# 4 0.000000 0.000000 0.000000 0.033376 0.000000 0.000000
# 5 0.000000 0.000000 0.000000 0.000000 0.069010 0.000000
# 6 0.000000 0.000000 0.000000 0.000000 0.000000 0.052310
#
#
# Mechanical properties :
#
#
# Convention : Reuss Voigt Hill
#
# Bulk Modulus (GPa) = 41.28675 51.78694 46.53684
# Shear Modulus (GPa) = 19.75796 22.28323 21.02060
#
# Velocity S-wave (km/s) = 3.30685 3.51182 3.41087
# Velocity P-wave (km/s) = 6.11807 6.71608 6.42404
#
# Compressibility (1/GPa) = 0.02422085
#
# Stress axis : x y z
#
# Youngs Moduli (GPa) = 53.06823 64.77169 43.52629
#
# Poissons Ratio (x) = 0.65176 0.23006
# Poissons Ratio (y) = 0.53400 0.05093
# Poissons Ratio (z) = 0.28049 0.07579
#
# Static dielectric constant tensor:
#      x y z
#    x 1.630940 0.000000 0.000000 
#    y 0.000000 1.648190 0.000000 
#    z 0.000000 0.000000 1.669460 
# 
# From -- ./inp_files/4193.got.cif
#   From: 2010.05.17/outbox.cif.g08.bks.cpg/sg36_3_cif.got.tgz:4193.got - 2010.06.03 17:41:39.
