data_PCOD9351532
_publ_section_title
;
Structure prediction by ZEFSAII (Michael W. Deem and Ramdas Pophale) SiO2 
 PCOD9351532
Probable space group: C M C 21
;
_chemical_formula_sum "Si O2"
_cell_formula_units_Z 64
_cell_length_a 8.530368
_cell_length_b 13.870416
_cell_length_c 21.910222
_cell_angle_alpha 90.000000
_cell_angle_beta 90.000000
_cell_angle_gamma 90.000000
_cell_volume 2592.412051
_symmetry_space_group_name_H-M "C M C 21"
_symmetry_group_IT_number 36
_symmetry_cell_setting 'orthorhombic'
loop_
_space_group_symop_operation_xyz
x,y,z
-x,-y,1/2+z
x,-y,1/2+z
-x,y,z
1/2+x,1/2+y,z
1/2-x,1/2-y,1/2+z
1/2+x,1/2-y,1/2+z
1/2-x,1/2+y,z
loop_
_atom_site_type_symbol
_atom_site_label
_atom_site_fract_x
_atom_site_fract_y
_atom_site_fract_z
Si Si1 0.187352 0.757337 0.157880
Si Si2 0.690661 0.998492 0.059573
Si Si3 0.323758 0.060104 0.933310
Si Si4 0.321271 0.698199 0.276816
Si Si5 0.680497 0.599938 0.806875
Si Si6 0.314966 0.713460 0.526322
Si Si7 0.314481 0.969760 0.192471
Si Si8 0.826625 0.336119 0.903410
O O1 0.223429 0.686687 0.214452
O O2 0.237637 0.733670 0.088676
O O3 0.271709 0.858735 0.173850
O O4 0.000000 0.771891 0.156167
O O5 0.500000 0.983242 0.058611
O O6 0.778900 0.898799 0.043686
O O7 0.729861 0.023747 0.129553
O O8 0.722889 0.072070 0.004010
O O9 0.500000 0.099750 0.922201
O O10 0.338571 0.944209 0.928073
O O11 0.208001 0.082967 0.878245
O O12 0.500000 0.676587 0.263456
O O13 0.294280 0.811279 0.292511
O O14 0.269948 0.655406 0.341450
O O15 0.500000 0.623905 0.794614
O O16 0.728538 0.517921 0.757629
O O17 0.500000 0.727557 0.519683
O O18 0.240546 0.726583 0.459259
O O19 0.500000 0.980411 0.202176
O O20 0.000000 0.300519 0.887237
#
# Coordination Sequence:
#
# PCOD9351532 Si02
#       8
#     8   8   8   8   8   8   8   8
#     4   9  16  27  44  68  97 125 157 198 240 281
#     4   8  15  27  45  68  93 122 157 198 241 283
#     4   9  18  33  51  72  98 128 160 196 240 288
#     4  11  21  33  51  73  99 130 165 203 243 290
#     4  11  21  32  48  72 101 131 163 199 240 286
#     4   9  16  26  44  70  97 124 157 197 238 283
#     4   9  15  26  45  68  93 122 158 198 240 283
#     4  10  20  34  52  73 100 130 161 201 246 292
#
# _framework density 24.687435000000001
#
# number of rings (size 3 to 8) (size 9 to 14) (size 15 to 20)
#    0.000    2.500    0.000    6.000    0.000    4.500 
#    0.000    0.000    0.000    1.500    0.000    7.000 
#    0.000    0.000    0.000    0.000    0.000    0.000 
#
# Total GULP energy -178686.331654 kJ/mol
# GULP energy per Si atom -5583.947864 kJ/mol
# Density = 2.463125 g / cm^3
# Si number density = 24.687435 Si / 1000 Ang^3
#
#
#
# Elastic Constant Matrix: (Units=GPa)
#
#
# Indices 1 2 3 4 5 6 
#
# 1 69.1674 -2.9517 36.5905 0.0000 0.0000 0.0000
# 2 -2.9517 45.6409 34.9577 0.0000 0.0000 0.0000
# 3 36.5905 34.9577 218.8315 0.0000 0.0000 0.0000
# 4 0.0000 0.0000 0.0000 54.0691 0.0000 0.0000
# 5 0.0000 0.0000 0.0000 0.0000 22.7586 0.0000
# 6 0.0000 0.0000 0.0000 0.0000 0.0000 -7.7438
#
#
#
# Elastic Compliance Matrix: (Units=1/GPa)
#
#
# Indices 1 2 3 4 5 6 
#
# 1 0.016362 0.003593 -0.003310 0.000000 0.000000 0.000000
# 2 0.003593 0.025754 -0.004715 0.000000 0.000000 0.000000
# 3 -0.003310 -0.004715 0.005876 0.000000 0.000000 0.000000
# 4 0.000000 0.000000 0.000000 0.018495 0.000000 0.000000
# 5 0.000000 0.000000 0.000000 0.000000 0.043939 0.000000
# 6 0.000000 0.000000 0.000000 0.000000 0.000000 -0.129135
#
#
# Mechanical properties :
#
#
# Convention : Reuss Voigt Hill
#
# Bulk Modulus (GPa) = 25.55632 52.31473 38.93553
# Shear Modulus (GPa) = 1563.60583 31.48631 797.54607
#
# Velocity S-wave (km/s) = 25.19397 3.57515 17.99330
# Velocity P-wave (km/s) = 29.26925 6.18701 21.15382
#
# Compressibility (1/GPa) = 0.03912927
#
# Stress axis : x y z
#
# Youngs Moduli (GPa) = 61.11718 38.82906 170.17315
#
# Poissons Ratio (x) = -0.13953 0.56325
# Poissons Ratio (y) = -0.21961 0.80236
# Poissons Ratio (z) = 0.20229 0.18308
#
# Static dielectric constant tensor:
#      x y z
#    x 1.845300 0.000000 0.000000 
#    y 0.000000 2.097890 0.000000 
#    z 0.000000 0.000000 2.040050 
# 
# From -- ./inp_files/15802.got.cif
#   From: 2010.05.17/outbox.cif.g08.bks.cpg/sg36_8_cif.got.tgz:15802.got - 2010.06.03 17:41:39.
