data_PCOD9351391
_publ_section_title
;
Structure prediction by ZEFSAII (Michael W. Deem and Ramdas Pophale) SiO2 
 PCOD9351391
Probable space group: C M C 21
;
_chemical_formula_sum "Si O2"
_cell_formula_units_Z 56
_cell_length_a 19.842860
_cell_length_b 13.847925
_cell_length_c 8.855614
_cell_angle_alpha 90.000000
_cell_angle_beta 90.000000
_cell_angle_gamma 90.000000
_cell_volume 2433.367197
_symmetry_space_group_name_H-M "C M C 21"
_symmetry_group_IT_number 36
_symmetry_cell_setting 'orthorhombic'
loop_
_space_group_symop_operation_xyz
x,y,z
-x,-y,1/2+z
x,-y,1/2+z
-x,y,z
1/2+x,1/2+y,z
1/2-x,1/2-y,1/2+z
1/2+x,1/2-y,1/2+z
1/2-x,1/2+y,z
loop_
_atom_site_type_symbol
_atom_site_label
_atom_site_fract_x
_atom_site_fract_y
_atom_site_fract_z
Si Si1 0.928036 0.191794 0.682700
Si Si2 0.500000 0.013976 0.511231
Si Si3 0.428130 0.558152 0.969202
Si Si4 0.186558 0.077427 0.584315
Si Si5 0.742847 0.405221 0.779370
Si Si6 0.500000 0.848249 0.306481
Si Si7 0.122423 0.768078 0.665799
Si Si8 0.882447 0.363082 0.875275
O O1 0.926716 0.102859 0.802855
O O2 0.853855 0.175895 0.614438
O O3 0.926397 0.286809 0.782233
O O4 0.000000 0.188873 0.599101
O O5 0.500000 0.066406 0.675872
O O6 0.568300 0.053198 0.431890
O O7 0.500000 0.900637 0.469276
O O8 0.500000 0.511862 0.993145
O O9 0.370186 0.483546 0.997064
O O10 0.417964 0.644025 0.087851
O O11 0.241942 0.091835 0.459644
O O12 0.216328 0.006893 0.711747
O O13 0.690841 0.319859 0.728423
O O14 0.822516 0.391264 0.759704
O O15 0.431392 0.785979 0.275122
O O16 0.138647 0.696303 0.526898
#
# Coordination Sequence:
#
# PCOD9351391 Si02
#       8
#     8   4   8   8   8   4   8   8
#     4  10  19  37  64  88 121 165 211 257 306 378
#     4  10  22  44  70  89 121 164 216 269 317 368
#     4   9  16  33  60  88 122 166 203 247 307 369
#     4  11  22  40  57  98 132 164 206 250 321 380
#     4  11  25  41  64  96 133 170 207 261 317 387
#     4  10  20  44  68  95 123 162 216 267 315 372
#     4   9  20  40  65  91 126 168 209 256 314 378
#     4  10  22  43  65  90 122 170 214 262 322 369
#
# _framework density 23.013377999999999
#
# number of rings (size 3 to 8) (size 9 to 14) (size 15 to 20)
#    0.000    2.000    2.857    0.429    2.000    2.286 
#    5.143    0.000    0.000    0.000    0.000    0.000 
#    0.000    0.000    0.000    0.000    0.000    0.000 
#
# Total GULP energy -156067.080119 kJ/mol
# GULP energy per Si atom -5573.824290 kJ/mol
# Density = 2.296100 g / cm^3
# Si number density = 23.013378 Si / 1000 Ang^3
#
#
#
# Elastic Constant Matrix: (Units=GPa)
#
#
# Indices 1 2 3 4 5 6 
#
# 1 101.3391 9.1019 12.2847 0.0000 0.0000 0.0000
# 2 9.1019 41.6854 8.5459 0.0000 0.0000 0.0000
# 3 12.2847 8.5459 45.3762 0.0000 0.0000 0.0000
# 4 0.0000 0.0000 0.0000 26.0135 0.0000 0.0000
# 5 0.0000 0.0000 0.0000 0.0000 5.7818 0.0000
# 6 0.0000 0.0000 0.0000 0.0000 0.0000 11.8287
#
#
#
# Elastic Compliance Matrix: (Units=1/GPa)
#
#
# Indices 1 2 3 4 5 6 
#
# 1 0.010324 -0.001749 -0.002466 0.000000 0.000000 0.000000
# 2 -0.001749 0.025249 -0.004282 0.000000 0.000000 0.000000
# 3 -0.002466 -0.004282 0.023512 0.000000 0.000000 0.000000
# 4 0.000000 0.000000 0.000000 0.038442 0.000000 0.000000
# 5 0.000000 0.000000 0.000000 0.000000 0.172956 0.000000
# 6 0.000000 0.000000 0.000000 0.000000 0.000000 0.084540
#
#
# Mechanical properties :
#
#
# Convention : Reuss Voigt Hill
#
# Bulk Modulus (GPa) = 23.75733 27.58510 25.67121
# Shear Modulus (GPa) = 12.95183 19.28934 16.12059
#
# Velocity S-wave (km/s) = 2.37491 2.89827 2.64954
# Velocity P-wave (km/s) = 4.22681 4.81794 4.53202
#
# Compressibility (1/GPa) = 0.04209228
#
# Stress axis : x y z
#
# Youngs Moduli (GPa) = 96.86340 39.60578 42.53156
#
# Poissons Ratio (x) = 0.06926 0.10487
# Poissons Ratio (y) = 0.16939 0.18211
# Poissons Ratio (z) = 0.23883 0.16959
#
# Static dielectric constant tensor:
#      x y z
#    x 2.277790 0.000000 0.000000 
#    y 0.000000 1.864250 0.000000 
#    z 0.000000 0.000000 1.902940 
# 
# From -- ./inp_files/5251.got.cif
#   From: 2010.05.17/outbox.cif.g08.bks.cpg/sg36_3_cif.got.tgz:5251.got - 2010.06.03 17:41:39.
