data_PCOD9351989
_publ_section_title
;
Structure prediction by ZEFSAII (Michael W. Deem and Ramdas Pophale) SiO2 
 PCOD9351989
Probable space group: C M C 21
;
_chemical_formula_sum "Si O2"
_cell_formula_units_Z 56
_cell_length_a 19.919504
_cell_length_b 13.910987
_cell_length_c 9.625046
_cell_angle_alpha 90.000000
_cell_angle_beta 90.000000
_cell_angle_gamma 90.000000
_cell_volume 2667.099873
_symmetry_space_group_name_H-M "C M C 21"
_symmetry_group_IT_number 36
_symmetry_cell_setting 'orthorhombic'
loop_
_space_group_symop_operation_xyz
x,y,z
-x,-y,1/2+z
x,-y,1/2+z
-x,y,z
1/2+x,1/2+y,z
1/2-x,1/2-y,1/2+z
1/2+x,1/2-y,1/2+z
1/2-x,1/2+y,z
loop_
_atom_site_type_symbol
_atom_site_label
_atom_site_fract_x
_atom_site_fract_y
_atom_site_fract_z
Si Si1 0.306091 0.319681 0.373550
Si Si2 0.075408 0.923666 0.040710
Si Si3 0.918671 0.545704 0.027733
Si Si4 0.653265 0.477387 0.784034
Si Si5 0.078365 0.730186 0.199099
Si Si6 0.694396 0.723640 0.191161
Si Si7 0.081137 0.374158 0.224297
O O1 0.311225 0.434379 0.360760
O O2 0.375893 0.271630 0.321661
O O3 0.291550 0.286647 0.528514
O O4 0.249819 0.286029 0.267272
O O5 0.081522 0.811373 0.078932
O O6 0.000000 0.953397 0.074675
O O7 0.125605 0.980668 0.140310
O O8 0.092468 0.945851 0.883213
O O9 0.896924 0.630854 0.132275
O O10 0.899550 0.443941 0.095347
O O11 0.000000 0.547566 0.029880
O O12 0.900298 0.571841 0.869522
O O13 0.695249 0.382337 0.756718
O O14 0.000000 0.720050 0.241023
O O15 0.622786 0.776118 0.213022
O O16 0.000000 0.359967 0.223952
#
# Coordination Sequence:
#
# PCOD9351989 Si02
#       7
#     8   8   8   8   8   8   8
#     4  11  28  46  68 101 130 179 224 279 344 404
#     4  10  20  37  67 102 135 174 218 274 341 401
#     4   9  19  38  64  98 138 176 221 279 333 391
#     4  11  23  46  66  97 138 172 226 280 333 408
#     4   9  20  40  68  96 132 176 225 281 337 395
#     4  12  28  47  71  98 138 181 225 284 340 409
#     4  10  23  42  68 104 138 180 229 279 338 400
#
# _framework density 20.996590000000001
#
# number of rings (size 3 to 8) (size 9 to 14) (size 15 to 20)
#    0.000    1.714    1.429    1.286    8.000    4.571 
#    0.000    0.000    0.000    0.000    0.000    0.000 
#    0.000    0.000    0.000    0.000    0.000    0.000 
#
# Total GULP energy -156476.403468 kJ/mol
# GULP energy per Si atom -5588.442981 kJ/mol
# Density = 2.094880 g / cm^3
# Si number density = 20.996590 Si / 1000 Ang^3
#
#
#
# Elastic Constant Matrix: (Units=GPa)
#
#
# Indices 1 2 3 4 5 6 
#
# 1 54.7107 34.0280 25.1672 0.0000 0.0000 0.0000
# 2 34.0280 83.9068 32.9870 0.0000 0.0000 0.0000
# 3 25.1672 32.9870 110.8274 0.0000 0.0000 0.0000
# 4 0.0000 0.0000 0.0000 6.5598 0.0000 0.0000
# 5 0.0000 0.0000 0.0000 0.0000 26.2934 0.0000
# 6 0.0000 0.0000 0.0000 0.0000 0.0000 17.1747
#
#
#
# Elastic Compliance Matrix: (Units=1/GPa)
#
#
# Indices 1 2 3 4 5 6 
#
# 1 0.025323 -0.009070 -0.003051 0.000000 0.000000 0.000000
# 2 -0.009070 0.016746 -0.002925 0.000000 0.000000 0.000000
# 3 -0.003051 -0.002925 0.010586 0.000000 0.000000 0.000000
# 4 0.000000 0.000000 0.000000 0.152444 0.000000 0.000000
# 5 0.000000 0.000000 0.000000 0.000000 0.038032 0.000000
# 6 0.000000 0.000000 0.000000 0.000000 0.000000 0.058225
#
#
# Mechanical properties :
#
#
# Convention : Reuss Voigt Hill
#
# Bulk Modulus (GPa) = 44.31837 48.20104 46.25971
# Shear Modulus (GPa) = 14.75063 20.48976 17.62019
#
# Velocity S-wave (km/s) = 2.65339 3.12727 2.90003
# Velocity P-wave (km/s) = 5.52635 6.00385 5.77004
#
# Compressibility (1/GPa) = 0.02256401
#
# Stress axis : x y z
#
# Youngs Moduli (GPa) = 39.49046 59.71525 94.46148
#
# Poissons Ratio (x) = 0.54162 0.28818
# Poissons Ratio (y) = 0.35818 0.27627
# Poissons Ratio (z) = 0.12047 0.17465
#
# Static dielectric constant tensor:
#      x y z
#    x 1.743180 0.000000 0.000000 
#    y 0.000000 1.762130 0.000000 
#    z 0.000000 0.000000 1.722910 
# 
# From -- ./inp_files/5207.got.cif
#   From: 2010.05.17/outbox.cif.g08.bks.cpg/sg36_3_cif.got.tgz:5207.got - 2010.06.03 17:41:39.
