data_PCOD9351887
_publ_section_title
;
Structure prediction by ZEFSAII (Michael W. Deem and Ramdas Pophale) SiO2 
 PCOD9351887
Probable space group: C M C 21
;
_chemical_formula_sum "Si O2"
_cell_formula_units_Z 40
_cell_length_a 13.134473
_cell_length_b 8.639224
_cell_length_c 16.234152
_cell_angle_alpha 90.000000
_cell_angle_beta 90.000000
_cell_angle_gamma 90.000000
_cell_volume 1842.116085
_symmetry_space_group_name_H-M "C M C 21"
_symmetry_group_IT_number 36
_symmetry_cell_setting 'orthorhombic'
loop_
_space_group_symop_operation_xyz
x,y,z
-x,-y,1/2+z
x,-y,1/2+z
-x,y,z
1/2+x,1/2+y,z
1/2-x,1/2-y,1/2+z
1/2+x,1/2-y,1/2+z
1/2-x,1/2+y,z
loop_
_atom_site_type_symbol
_atom_site_label
_atom_site_fract_x
_atom_site_fract_y
_atom_site_fract_z
Si Si1 0.115652 0.425373 0.668550
Si Si2 0.315300 0.464859 0.461375
Si Si3 0.610113 0.554961 0.293948
Si Si4 0.807861 0.400891 0.306016
Si Si5 0.781123 0.291360 0.080552
O O1 0.124810 0.463462 0.766128
O O2 0.144811 0.592585 0.628837
O O3 0.202912 0.311512 0.634520
O O4 0.000000 0.379375 0.648407
O O5 0.392756 0.514797 0.390977
O O6 0.217381 0.421318 0.402796
O O7 0.286494 0.603776 0.520482
O O8 0.342076 0.323569 0.520257
O O9 0.500000 0.536446 0.254973
O O10 0.697676 0.438402 0.263879
O O11 0.648594 0.731552 0.289392
#
# Coordination Sequence:
#
# PCOD9351887 Si02
#       5
#     8   8   8   8   8
#     4  11  24  41  64  91 125 171 204 248 320 373
#     4   9  18  38  62  88 123 163 198 261 303 352
#     4  10  20  36  63  88 117 159 202 252 309 352
#     4  10  20  39  61  90 124 157 208 259 297 360
#     4  10  21  40  61  91 129 158 205 260 304 371
#
# _framework density 21.714157
#
# number of rings (size 3 to 8) (size 9 to 14) (size 15 to 20)
#    1.200    0.800    2.000    1.800    0.000    1.600 
#    0.000    9.000    0.000    0.000    0.000    0.000 
#    0.000    0.000    0.000    0.000    0.000    0.000 
#
# Total GULP energy -111410.591061 kJ/mol
# GULP energy per Si atom -5570.529553 kJ/mol
# Density = 2.166474 g / cm^3
# Si number density = 21.714157 Si / 1000 Ang^3
#
#
#
# Elastic Constant Matrix: (Units=GPa)
#
#
# Indices 1 2 3 4 5 6 
#
# 1 90.9189 2.7276 -6.1141 0.0000 0.0000 0.0000
# 2 2.7276 76.2565 13.8997 0.0000 0.0000 0.0000
# 3 -6.1141 13.8997 64.1660 0.0000 0.0000 0.0000
# 4 0.0000 0.0000 0.0000 41.0805 0.0000 0.0000
# 5 0.0000 0.0000 0.0000 0.0000 15.9185 0.0000
# 6 0.0000 0.0000 0.0000 0.0000 0.0000 9.0484
#
#
#
# Elastic Compliance Matrix: (Units=1/GPa)
#
#
# Indices 1 2 3 4 5 6 
#
# 1 0.011097 -0.000614 0.001190 0.000000 0.000000 0.000000
# 2 -0.000614 0.013687 -0.003023 0.000000 0.000000 0.000000
# 3 0.001190 -0.003023 0.016353 0.000000 0.000000 0.000000
# 4 0.000000 0.000000 0.000000 0.024342 0.000000 0.000000
# 5 0.000000 0.000000 0.000000 0.000000 0.062820 0.000000
# 6 0.000000 0.000000 0.000000 0.000000 0.000000 0.110517
#
#
# Mechanical properties :
#
#
# Convention : Reuss Voigt Hill
#
# Bulk Modulus (GPa) = 27.59139 28.04088 27.81614
# Shear Modulus (GPa) = 19.54724 27.93136 23.73930
#
# Velocity S-wave (km/s) = 3.00360 3.59042 3.31004
# Velocity P-wave (km/s) = 4.97625 5.48907 5.23894
#
# Compressibility (1/GPa) = 0.03624318
#
# Stress axis : x y z
#
# Youngs Moduli (GPa) = 90.11217 73.06382 61.15119
#
# Poissons Ratio (x) = 0.04486 -0.07279
# Poissons Ratio (y) = 0.05532 0.18488
# Poissons Ratio (z) = -0.10727 0.22089
#
# Static dielectric constant tensor:
#      x y z
#    x 1.794310 0.000000 0.000000 
#    y 0.000000 1.790190 0.000000 
#    z 0.000000 0.000000 1.825430 
# 
# From -- ./inp_files/14147.got.cif
#   From: 2010.05.17/outbox.cif.g08.bks.cpg/sg36_8_cif.got.tgz:14147.got - 2010.06.03 17:41:39.
