data_PCOD9351362
_publ_section_title
;
Structure prediction by ZEFSAII (Michael W. Deem and Ramdas Pophale) SiO2 
 PCOD9351362
Probable space group: C M C 21
;
_chemical_formula_sum "Si O2"
_cell_formula_units_Z 52
_cell_length_a 7.691299
_cell_length_b 21.410770
_cell_length_c 14.694179
_cell_angle_alpha 90.000000
_cell_angle_beta 90.000000
_cell_angle_gamma 90.000000
_cell_volume 2419.787936
_symmetry_space_group_name_H-M "C M C 21"
_symmetry_group_IT_number 36
_symmetry_cell_setting 'orthorhombic'
loop_
_space_group_symop_operation_xyz
x,y,z
-x,-y,1/2+z
x,-y,1/2+z
-x,y,z
1/2+x,1/2+y,z
1/2-x,1/2-y,1/2+z
1/2+x,1/2-y,1/2+z
1/2-x,1/2+y,z
loop_
_atom_site_type_symbol
_atom_site_label
_atom_site_fract_x
_atom_site_fract_y
_atom_site_fract_z
Si Si1 0.703175 0.151097 0.553870
Si Si2 0.685709 0.585694 0.381206
Si Si3 0.000000 0.497546 0.916066
Si Si4 0.699531 0.793615 0.777823
Si Si5 0.290450 0.346410 0.261436
Si Si6 0.292223 0.588770 0.945614
Si Si7 0.791426 0.207616 0.071846
O O1 0.500000 0.144467 0.529012
O O2 0.802181 0.105039 0.487386
O O3 0.723316 0.138521 0.661008
O O4 0.760140 0.223025 0.539070
O O5 0.500000 0.556572 0.359349
O O6 0.847190 0.541858 0.362205
O O7 0.704096 0.651024 0.328174
O O8 0.156279 0.535643 0.970979
O O9 0.500000 0.793771 0.810657
O O10 0.770392 0.723232 0.789406
O O11 0.706732 0.804234 0.669486
O O12 0.500000 0.342848 0.255765
O O13 0.246617 0.394669 0.340456
O O14 0.500000 0.575515 0.953987
O O15 0.258822 0.652014 0.002331
O O16 0.000000 0.211266 0.086326
#
# Coordination Sequence:
#
# PCOD9351362 Si02
#       7
#     8   8   4   8   8   8   8
#     4  10  19  36  62  95 129 158 198 253 314 377
#     4  12  24  42  63  86 122 165 210 260 307 357
#     4  12  26  44  62  90 120 170 226 250 294 370
#     4  10  19  36  62  95 129 158 198 253 314 377
#     4   9  19  36  61  95 129 158 196 253 315 373
#     4  10  22  42  63  86 124 165 206 258 305 355
#     4   9  19  36  61  95 129 158 196 253 315 373
#
# _framework density 21.489484999999998
#
# number of rings (size 3 to 8) (size 9 to 14) (size 15 to 20)
#    0.000    1.846    1.538    2.308    2.154    3.692 
#    2.769    3.077    0.000    5.538    0.000    0.000 
#    0.000    0.000    0.000    0.000    0.000    0.000 
#
# Total GULP energy -144735.955895 kJ/mol
# GULP energy per Si atom -5566.767534 kJ/mol
# Density = 2.144057 g / cm^3
# Si number density = 21.489485 Si / 1000 Ang^3
#
#
#
# Elastic Constant Matrix: (Units=GPa)
#
#
# Indices 1 2 3 4 5 6 
#
# 1 115.5265 24.1886 10.2774 0.0000 0.0000 0.0000
# 2 24.1886 38.9231 13.2699 0.0000 0.0000 0.0000
# 3 10.2774 13.2699 37.4117 0.0000 0.0000 0.0000
# 4 0.0000 0.0000 0.0000 4.7598 0.0000 0.0000
# 5 0.0000 0.0000 0.0000 0.0000 17.9160 0.0000
# 6 0.0000 0.0000 0.0000 0.0000 0.0000 4.3953
#
#
#
# Elastic Compliance Matrix: (Units=1/GPa)
#
#
# Indices 1 2 3 4 5 6 
#
# 1 0.009963 -0.005982 -0.000615 0.000000 0.000000 0.000000
# 2 -0.005982 0.032817 -0.009997 0.000000 0.000000 0.000000
# 3 -0.000615 -0.009997 0.030444 0.000000 0.000000 0.000000
# 4 0.000000 0.000000 0.000000 0.210094 0.000000 0.000000
# 5 0.000000 0.000000 0.000000 0.000000 0.055816 0.000000
# 6 0.000000 0.000000 0.000000 0.000000 0.000000 0.227518
#
#
# Mechanical properties :
#
#
# Convention : Reuss Voigt Hill
#
# Bulk Modulus (GPa) = 24.97696 31.92590 28.45143
# Shear Modulus (GPa) = 8.15412 15.02257 11.58835
#
# Velocity S-wave (km/s) = 1.95005 2.64685 2.32471
# Velocity P-wave (km/s) = 4.08881 4.92239 4.52484
#
# Compressibility (1/GPa) = 0.04003689
#
# Stress axis : x y z
#
# Youngs Moduli (GPa) = 100.36920 30.47178 32.84668
#
# Poissons Ratio (x) = 0.18228 0.02021
# Poissons Ratio (y) = 0.60039 0.32837
# Poissons Ratio (z) = 0.06175 0.30462
#
# Static dielectric constant tensor:
#      x y z
#    x 1.818490 0.000000 0.000000 
#    y 0.000000 1.833120 0.000000 
#    z 0.000000 0.000000 1.761370 
# 
# From -- ./inp_files/10556.got.cif
#   From: 2010.05.17/outbox.cif.g08.bks.cpg/sg36_6_cif.got.tgz:10556.got - 2010.06.03 17:41:39.
