data_PCOD9351536
_publ_section_title
;
Structure prediction by ZEFSAII (Michael W. Deem and Ramdas Pophale) SiO2 
 PCOD9351536
Probable space group: C M C 21
;
_chemical_formula_sum "Si O2"
_cell_formula_units_Z 64
_cell_length_a 11.600558
_cell_length_b 8.143739
_cell_length_c 32.410325
_cell_angle_alpha 90.000000
_cell_angle_beta 90.000000
_cell_angle_gamma 90.000000
_cell_volume 3061.865521
_symmetry_space_group_name_H-M "C M C 21"
_symmetry_group_IT_number 36
_symmetry_cell_setting 'orthorhombic'
loop_
_space_group_symop_operation_xyz
x,y,z
-x,-y,1/2+z
x,-y,1/2+z
-x,y,z
1/2+x,1/2+y,z
1/2-x,1/2-y,1/2+z
1/2+x,1/2-y,1/2+z
1/2-x,1/2+y,z
loop_
_atom_site_type_symbol
_atom_site_label
_atom_site_fract_x
_atom_site_fract_y
_atom_site_fract_z
Si Si1 0.130353 0.683148 0.508460
Si Si2 0.198847 0.909091 0.674315
Si Si3 0.625033 0.286588 0.124286
Si Si4 0.870437 0.610760 0.727254
Si Si5 0.698333 0.959016 0.868322
Si Si6 0.375262 0.346259 0.418349
Si Si7 0.370553 0.742598 0.315254
Si Si8 0.868663 0.033609 0.536759
O O1 0.135311 0.769819 0.463666
O O2 0.248320 0.580813 0.513989
O O3 0.000000 0.605244 0.511795
O O4 0.133207 0.836267 0.540203
O O5 0.130964 0.064673 0.657157
O O6 0.285298 0.975507 0.709395
O O7 0.275456 0.837898 0.636917
O O8 0.130555 0.759512 0.694332
O O9 0.500000 0.203800 0.126656
O O10 0.636610 0.369419 0.079717
O O11 0.833876 0.684506 0.771235
O O12 0.000000 0.545753 0.732064
O O13 0.630590 0.804525 0.886151
O O14 0.785091 0.891487 0.833527
O O15 0.774171 0.031947 0.905725
O O16 0.630056 0.107733 0.847942
O O17 0.500000 0.429441 0.415082
O O18 0.500000 0.676900 0.310590
O O19 0.000000 0.070220 0.519139
#
# Coordination Sequence:
#
# PCOD9351536 Si02
#       8
#     8   8   8   8   8   8   8   8
#     4  10  21  37  56  80 109 141 178 221 268 318
#     4  10  20  34  53  76 102 134 172 210 256 306
#     4  10  20  35  54  76 104 136 172 214 259 309
#     4  10  20  34  52  75 103 134 169 210 255 304
#     4  10  20  34  53  76 102 134 172 210 256 306
#     4  10  20  35  54  76 104 136 172 214 259 309
#     4  10  20  34  52  75 103 134 169 210 255 304
#     4  10  21  37  56  80 109 141 178 221 268 318
#
# _framework density 20.902289
#
# number of rings (size 3 to 8) (size 9 to 14) (size 15 to 20)
#    0.000    2.000    0.000    3.750    0.000    0.500 
#    0.000    6.250    0.000   12.000    0.000    0.000 
#    0.000    0.000    0.000    0.000    0.000    0.000 
#
# Total GULP energy -178525.688432 kJ/mol
# GULP energy per Si atom -5578.927763 kJ/mol
# Density = 2.085471 g / cm^3
# Si number density = 20.902289 Si / 1000 Ang^3
#
#
#
# Elastic Constant Matrix: (Units=GPa)
#
#
# Indices 1 2 3 4 5 6 
#
# 1 111.9343 23.9815 18.7710 0.0000 0.0000 0.0000
# 2 23.9815 27.0319 -18.9023 0.0000 0.0000 0.0000
# 3 18.7710 -18.9023 44.8066 0.0000 0.0000 0.0000
# 4 0.0000 0.0000 0.0000 26.8789 0.0000 0.0000
# 5 0.0000 0.0000 0.0000 0.0000 -0.0854 0.0000
# 6 0.0000 0.0000 0.0000 0.0000 0.0000 -6.0193
#
#
#
# Elastic Compliance Matrix: (Units=1/GPa)
#
#
# Indices 1 2 3 4 5 6 
#
# 1 0.019734 -0.033033 -0.022203 0.000000 0.000000 0.000000
# 2 -0.033033 0.107766 0.059301 0.000000 0.000000 0.000000
# 3 -0.022203 0.059301 0.056637 0.000000 0.000000 0.000000
# 4 0.000000 0.000000 0.000000 0.037204 0.000000 0.000000
# 5 0.000000 0.000000 0.000000 0.000000-11.703804 0.000000
# 6 0.000000 0.000000 0.000000 0.000000 0.000000 -0.166132
#
#
# Mechanical properties :
#
#
# Convention : Reuss Voigt Hill
#
# Bulk Modulus (GPa) = 5.20107 25.71923 15.46015
# Shear Modulus (GPa) = -0.43131 14.81635 7.19252
#
# Velocity S-wave (km/s) = -0.45474 2.66529 1.85701
# Velocity P-wave (km/s) = 1.48928 4.66936 3.46561
#
# Compressibility (1/GPa) = 0.19226821
#
# Stress axis : x y z
#
# Youngs Moduli (GPa) = 50.67298 9.27935 17.65636
#
# Poissons Ratio (x) = 0.30653 0.39202
# Poissons Ratio (y) = 1.67389 -1.04705
# Poissons Ratio (z) = 1.12509 -0.55028
#
# Static dielectric constant tensor:
#      x y z
#    x 1.758900 0.000000 0.000000 
#    y 0.000000 1.706290 0.000000 
#    z 0.000000 0.000000 1.743590 
# 
# From -- ./inp_files/17388.got.cif
#   From: 2010.05.17/outbox.cif.g08.bks.cpg/sg36_9_cif.got.tgz:17388.got - 2010.06.03 17:41:39.
