data_PCOD9351114
_publ_section_title
;
Structure prediction by ZEFSAII (Michael W. Deem and Ramdas Pophale) SiO2 
 PCOD9351114
Probable space group: C M C 21
;
_chemical_formula_sum "Si O2"
_cell_formula_units_Z 60
_cell_length_a 26.586431
_cell_length_b 14.082575
_cell_length_c 5.832828
_cell_angle_alpha 90.000000
_cell_angle_beta 90.000000
_cell_angle_gamma 90.000000
_cell_volume 2183.842350
_symmetry_space_group_name_H-M "C M C 21"
_symmetry_group_IT_number 36
_symmetry_cell_setting 'orthorhombic'
loop_
_space_group_symop_operation_xyz
x,y,z
-x,-y,1/2+z
x,-y,1/2+z
-x,y,z
1/2+x,1/2+y,z
1/2-x,1/2-y,1/2+z
1/2+x,1/2-y,1/2+z
1/2-x,1/2+y,z
loop_
_atom_site_type_symbol
_atom_site_label
_atom_site_fract_x
_atom_site_fract_y
_atom_site_fract_z
Si Si1 0.423127 0.806722 0.694510
Si Si2 0.310852 0.261284 0.541598
Si Si3 0.055128 0.900023 0.397358
Si Si4 0.345684 0.404441 0.160547
Si Si5 0.000000 0.450973 0.878323
Si Si6 0.255164 0.593934 0.380474
Si Si7 0.845909 0.542530 0.203309
Si Si8 0.590404 0.288541 0.788596
O O1 0.440550 0.705289 0.789426
O O2 0.452493 0.883765 0.837542
O O3 0.366764 0.849623 0.689649
O O4 0.437587 0.793646 0.426346
O O5 0.316956 0.328665 0.320325
O O6 0.282858 0.328592 0.721775
O O7 0.281198 0.162998 0.528758
O O8 0.368030 0.244156 0.622751
O O9 0.107746 0.947714 0.312061
O O10 0.058836 0.868948 0.661470
O O11 0.000000 0.940541 0.341383
O O12 0.300885 0.456533 0.020747
O O13 0.376054 0.344544 0.972737
O O14 0.000000 0.511399 0.638534
O O15 0.214728 0.538528 0.224810
O O16 0.861669 0.499336 0.453293
#
# Coordination Sequence:
#
# PCOD9351114 Si02
#       8
#     8   8   8   8   4   8   8   8
#     4  11  24  40  59  77 113 163 223 281 317 370
#     4  10  19  33  58  88 112 149 196 263 324 389
#     4  10  20  35  59  90 122 160 201 261 332 392
#     4   9  19  34  52  88 117 150 190 248 316 393
#     4  12  28  44  60  78 104 156 226 286 324 358
#     4  11  21  35  62  85 120 154 207 262 328 395
#     4  12  30  45  61  88 126 178 224 277 323 380
#     4   9  20  32  54  83 111 148 197 253 325 378
#
# _framework density 27.474513000000002
#
# number of rings (size 3 to 8) (size 9 to 14) (size 15 to 20)
#    0.000    1.600    2.000    3.200   10.267    0.533 
#    0.000    0.000    0.000    0.000    0.000    0.000 
#    0.000    1.067    0.000    0.000    0.000    0.000 
#
# Total GULP energy -167567.040066 kJ/mol
# GULP energy per Si atom -5585.568002 kJ/mol
# Density = 2.741198 g / cm^3
# Si number density = 27.474513 Si / 1000 Ang^3
#
#
#
# Elastic Constant Matrix: (Units=GPa)
#
#
# Indices 1 2 3 4 5 6 
#
# 1 178.6997 30.6650 21.1612 0.0000 0.0000 0.0000
# 2 30.6650 100.0161 27.3671 0.0000 0.0000 0.0000
# 3 21.1612 27.3671 88.0350 0.0000 0.0000 0.0000
# 4 0.0000 0.0000 0.0000 31.4267 0.0000 0.0000
# 5 0.0000 0.0000 0.0000 0.0000 8.1173 0.0000
# 6 0.0000 0.0000 0.0000 0.0000 0.0000 35.4026
#
#
#
# Elastic Compliance Matrix: (Units=1/GPa)
#
#
# Indices 1 2 3 4 5 6 
#
# 1 0.005978 -0.001574 -0.000948 0.000000 0.000000 0.000000
# 2 -0.001574 0.011342 -0.003148 0.000000 0.000000 0.000000
# 3 -0.000948 -0.003148 0.012565 0.000000 0.000000 0.000000
# 4 0.000000 0.000000 0.000000 0.031820 0.000000 0.000000
# 5 0.000000 0.000000 0.000000 0.000000 0.123194 0.000000
# 6 0.000000 0.000000 0.000000 0.000000 0.000000 0.028247
#
#
# Mechanical properties :
#
#
# Convention : Reuss Voigt Hill
#
# Bulk Modulus (GPa) = 53.91497 58.34858 56.13177
# Shear Modulus (GPa) = 21.67623 34.15981 27.91802
#
# Velocity S-wave (km/s) = 2.81189 3.52991 3.19116
# Velocity P-wave (km/s) = 5.49623 6.15606 5.83548
#
# Compressibility (1/GPa) = 0.01854772
#
# Stress axis : x y z
#
# Youngs Moduli (GPa) = 167.27309 88.16683 79.58333
#
# Poissons Ratio (x) = 0.13874 0.07543
# Poissons Ratio (y) = 0.26322 0.25050
# Poissons Ratio (z) = 0.15855 0.27752
#
# Static dielectric constant tensor:
#      x y z
#    x 2.166660 0.000000 0.000000 
#    y 0.000000 2.095450 0.000000 
#    z 0.000000 0.000000 2.374090 
# 
# From -- ./inp_files/1774.got.cif
#   From: 2010.05.17/outbox.cif.g08.bks.cpg/sg36_1_cif.got.tgz:1774.got - 2010.06.03 17:41:39.
