data_PCOD9351198
_publ_section_title
;
Structure prediction by ZEFSAII (Michael W. Deem and Ramdas Pophale) SiO2 
 PCOD9351198
Probable space group: C M C 21
;
_chemical_formula_sum "Si O2"
_cell_formula_units_Z 64
_cell_length_a 7.598649
_cell_length_b 20.566823
_cell_length_c 17.638112
_cell_angle_alpha 90.000000
_cell_angle_beta 90.000000
_cell_angle_gamma 90.000000
_cell_volume 2756.485361
_symmetry_space_group_name_H-M "C M C 21"
_symmetry_group_IT_number 36
_symmetry_cell_setting 'orthorhombic'
loop_
_space_group_symop_operation_xyz
x,y,z
-x,-y,1/2+z
x,-y,1/2+z
-x,y,z
1/2+x,1/2+y,z
1/2-x,1/2-y,1/2+z
1/2+x,1/2-y,1/2+z
1/2-x,1/2+y,z
loop_
_atom_site_type_symbol
_atom_site_label
_atom_site_fract_x
_atom_site_fract_y
_atom_site_fract_z
Si Si1 0.798391 0.133867 0.768140
Si Si2 0.714829 0.492374 0.726174
Si Si3 0.714870 0.385584 0.010769
Si Si4 0.201621 0.775805 0.718583
Si Si5 0.286759 0.528534 0.059508
Si Si6 0.705457 0.247400 0.052525
Si Si7 0.214903 0.119019 0.337028
Si Si8 0.205828 0.639325 0.940049
O O1 0.710200 0.201001 0.744218
O O2 0.794665 0.127887 0.859291
O O3 0.000000 0.139727 0.741118
O O4 0.724664 0.066725 0.734389
O O5 0.500000 0.494931 0.727300
O O6 0.765777 0.459718 0.646623
O O7 0.769250 0.447535 0.796070
O O8 0.500000 0.387908 0.014743
O O9 0.770061 0.377536 0.923628
O O10 0.772186 0.455200 0.041142
O O11 0.776389 0.320834 0.053700
O O12 0.282631 0.782714 0.635682
O O13 0.276046 0.821322 0.784788
O O14 0.000000 0.795874 0.708696
O O15 0.500000 0.531341 0.055877
O O16 0.219940 0.578873 0.997377
O O17 0.500000 0.253101 0.033309
O O18 0.780018 0.200750 0.987332
O O19 0.000000 0.120371 0.338953
O O20 0.000000 0.650545 0.922734
#
# Coordination Sequence:
#
# PCOD9351198 Si02
#       8
#     8   8   8   8   8   8   8   8
#     4  11  22  38  61  85 112 149 192 234 278 335
#     4   9  18  33  56  84 109 141 189 234 268 319
#     4   9  17  32  55  78 102 140 188 228 262 315
#     4  11  22  36  57  84 113 143 180 233 290 336
#     4  10  19  34  58  84 109 140 183 231 276 327
#     4  10  21  38  58  79 108 148 191 230 272 331
#     4   9  17  31  52  78 107 140 180 225 272 322
#     4  11  23  38  57  84 118 151 185 231 286 337
#
# _framework density 23.217973000000001
#
# number of rings (size 3 to 8) (size 9 to 14) (size 15 to 20)
#    0.000    2.000    0.000    4.125    0.000    8.000 
#    0.000    3.125    0.000   10.500    0.000    0.000 
#    0.000    0.000    0.000    0.000    0.000    0.000 
#
# Total GULP energy -178929.881060 kJ/mol
# GULP energy per Si atom -5591.558783 kJ/mol
# Density = 2.316513 g / cm^3
# Si number density = 23.217973 Si / 1000 Ang^3
#
#
#
# Elastic Constant Matrix: (Units=GPa)
#
#
# Indices 1 2 3 4 5 6 
#
# 1 49.0576 -5.8587 -12.7566 0.0000 0.0000 0.0000
# 2 -5.8587 67.6328 -12.8027 0.0000 0.0000 0.0000
# 3 -12.7566 -12.8027 65.1625 0.0000 0.0000 0.0000
# 4 0.0000 0.0000 0.0000 22.4535 0.0000 0.0000
# 5 0.0000 0.0000 0.0000 0.0000 16.6469 0.0000
# 6 0.0000 0.0000 0.0000 0.0000 0.0000 8.2049
#
#
#
# Elastic Compliance Matrix: (Units=1/GPa)
#
#
# Indices 1 2 3 4 5 6 
#
# 1 0.021985 0.002824 0.004859 0.000000 0.000000 0.000000
# 2 0.002824 0.015720 0.003641 0.000000 0.000000 0.000000
# 3 0.004859 0.003641 0.017013 0.000000 0.000000 0.000000
# 4 0.000000 0.000000 0.000000 0.044537 0.000000 0.000000
# 5 0.000000 0.000000 0.000000 0.000000 0.060071 0.000000
# 6 0.000000 0.000000 0.000000 0.000000 0.000000 0.121878
#
#
# Mechanical properties :
#
#
# Convention : Reuss Voigt Hill
#
# Bulk Modulus (GPa) = 12.92554 13.22409 13.07482
# Shear Modulus (GPa) = 17.58437 23.67912 20.63174
#
# Velocity S-wave (km/s) = 2.75500 3.19699 2.98419
# Velocity P-wave (km/s) = 3.96222 4.39723 4.18538
#
# Compressibility (1/GPa) = 0.07736621
#
# Stress axis : x y z
#
# Youngs Moduli (GPa) = 45.48576 63.61449 58.77903
#
# Poissons Ratio (x) = -0.17966 -0.28559
# Poissons Ratio (y) = -0.12846 -0.21404
# Poissons Ratio (z) = -0.22101 -0.23164
#
# Static dielectric constant tensor:
#      x y z
#    x 1.884640 0.000000 0.000000 
#    y 0.000000 1.945410 0.000000 
#    z 0.000000 0.000000 1.814070 
# 
# From -- ./inp_files/13780.got.cif
#   From: 2010.05.17/outbox.cif.g08.bks.cpg/sg36_7_cif.got.tgz:13780.got - 2010.06.03 17:41:39.
