data_PCOD9351931
_publ_section_title
;
Structure prediction by ZEFSAII (Michael W. Deem and Ramdas Pophale) SiO2 
 PCOD9351931
Probable space group: C M C 21
;
_chemical_formula_sum "Si O2"
_cell_formula_units_Z 48
_cell_length_a 8.565608
_cell_length_b 31.877534
_cell_length_c 9.459226
_cell_angle_alpha 90.000000
_cell_angle_beta 90.000000
_cell_angle_gamma 90.000000
_cell_volume 2582.846013
_symmetry_space_group_name_H-M "C M C 21"
_symmetry_group_IT_number 36
_symmetry_cell_setting 'orthorhombic'
loop_
_space_group_symop_operation_xyz
x,y,z
-x,-y,1/2+z
x,-y,1/2+z
-x,y,z
1/2+x,1/2+y,z
1/2-x,1/2-y,1/2+z
1/2+x,1/2-y,1/2+z
1/2-x,1/2+y,z
loop_
_atom_site_type_symbol
_atom_site_label
_atom_site_fract_x
_atom_site_fract_y
_atom_site_fract_z
Si Si1 0.185622 0.131308 0.246570
Si Si2 0.811253 0.540098 0.921520
Si Si3 0.188690 0.459162 0.751941
Si Si4 0.687116 0.710797 0.746129
Si Si5 0.812060 0.633689 0.927738
Si Si6 0.312676 0.207780 0.428336
O O1 0.238811 0.085109 0.296477
O O2 0.243954 0.166694 0.353576
O O3 0.000000 0.132853 0.233298
O O4 0.259648 0.138598 0.090918
O O5 0.754426 0.500034 0.835279
O O6 0.759963 0.586942 0.879368
O O7 0.000000 0.540033 0.908107
O O8 0.774836 0.535179 0.086610
O O9 0.000000 0.455907 0.765820
O O10 0.500000 0.710594 0.736877
O O11 0.743229 0.669781 0.830109
O O12 0.735335 0.751640 0.836457
O O13 0.755968 0.712006 0.588962
O O14 0.000000 0.635378 0.923546
O O15 0.500000 0.205229 0.426721
#
# Coordination Sequence:
#
# PCOD9351931 Si02
#       6
#     8   8   8   8   8   8
#     4  11  22  37  57  83 115 149 189 238 287 330
#     4   8  16  30  52  79 106 142 187 230 269 326
#     4   9  17  33  54  77 107 144 187 230 276 331
#     4  11  24  40  60  88 117 145 184 234 282 328
#     4  10  20  37  60  85 114 151 192 230 278 338
#     4  11  24  41  61  84 113 151 189 226 276 339
#
# _framework density 18.584150000000001
#
# number of rings (size 3 to 8) (size 9 to 14) (size 15 to 20)
#    0.000    2.000    0.000    5.000    0.000    6.667 
#    0.000    7.500    0.000    0.000    0.000    0.000 
#    0.000    0.000    0.000    0.000    0.000    0.000 
#
# Total GULP energy -134028.021843 kJ/mol
# GULP energy per Si atom -5584.500910 kJ/mol
# Density = 1.854185 g / cm^3
# Si number density = 18.584150 Si / 1000 Ang^3
#
#
#
# Elastic Constant Matrix: (Units=GPa)
#
#
# Indices 1 2 3 4 5 6 
#
# 1 49.2279 51.8314 33.9663 0.0000 0.0000 0.0000
# 2 51.8314 227.6496 124.2422 0.0000 0.0000 0.0000
# 3 33.9663 124.2422 117.2724 0.0000 0.0000 0.0000
# 4 0.0000 0.0000 0.0000 43.9812 0.0000 0.0000
# 5 0.0000 0.0000 0.0000 0.0000 28.7633 0.0000
# 6 0.0000 0.0000 0.0000 0.0000 0.0000 23.8472
#
#
#
# Elastic Compliance Matrix: (Units=1/GPa)
#
#
# Indices 1 2 3 4 5 6 
#
# 1 0.027192 -0.004487 -0.003122 0.000000 0.000000 0.000000
# 2 -0.004487 0.011155 -0.010518 0.000000 0.000000 0.000000
# 3 -0.003122 -0.010518 0.020574 0.000000 0.000000 0.000000
# 4 0.000000 0.000000 0.000000 0.022737 0.000000 0.000000
# 5 0.000000 0.000000 0.000000 0.000000 0.034766 0.000000
# 6 0.000000 0.000000 0.000000 0.000000 0.000000 0.041934
#
#
# Mechanical properties :
#
#
# Convention : Reuss Voigt Hill
#
# Bulk Modulus (GPa) = 44.11653 90.46995 67.29324
# Shear Modulus (GPa) = 24.73184 31.59234 28.16209
#
# Velocity S-wave (km/s) = 3.65197 4.12753 3.89701
# Velocity P-wave (km/s) = 6.44770 8.45590 7.51915
#
# Compressibility (1/GPa) = 0.02266724
#
# Stress axis : x y z
#
# Youngs Moduli (GPa) = 36.77493 89.64836 48.60419
#
# Poissons Ratio (x) = 0.40229 0.15173
# Poissons Ratio (y) = 0.16503 0.51121
# Poissons Ratio (z) = 0.11480 0.94291
#
# Static dielectric constant tensor:
#      x y z
#    x 1.631810 0.000000 0.000000 
#    y 0.000000 1.643330 0.000000 
#    z 0.000000 0.000000 1.605680 
# 
# From -- ./inp_files/2702.got.cif
#   From: 2010.05.17/outbox.cif.g08.bks.cpg/sg36_2_cif.got.tgz:2702.got - 2010.06.03 17:41:39.
