data_PCOD9351649
_publ_section_title
;
Structure prediction by ZEFSAII (Michael W. Deem and Ramdas Pophale) SiO2 
 PCOD9351649
Probable space group: C M C 21
;
_chemical_formula_sum "Si O2"
_cell_formula_units_Z 60
_cell_length_a 15.463318
_cell_length_b 22.356422
_cell_length_c 7.949038
_cell_angle_alpha 90.000000
_cell_angle_beta 90.000000
_cell_angle_gamma 90.000000
_cell_volume 2748.017911
_symmetry_space_group_name_H-M "C M C 21"
_symmetry_group_IT_number 36
_symmetry_cell_setting 'orthorhombic'
loop_
_space_group_symop_operation_xyz
x,y,z
-x,-y,1/2+z
x,-y,1/2+z
-x,y,z
1/2+x,1/2+y,z
1/2-x,1/2-y,1/2+z
1/2+x,1/2-y,1/2+z
1/2-x,1/2+y,z
loop_
_atom_site_type_symbol
_atom_site_label
_atom_site_fract_x
_atom_site_fract_y
_atom_site_fract_z
Si Si1 0.598279 0.859883 0.468880
Si Si2 0.401559 0.206607 0.328628
Si Si3 0.000000 0.007557 0.334530
Si Si4 0.263355 0.421034 0.577442
Si Si5 0.598546 0.738072 0.314431
Si Si6 0.763425 0.145640 0.438492
Si Si7 0.358449 0.454465 0.088015
Si Si8 0.402003 0.671953 0.955899
O O1 0.500000 0.882032 0.446607
O O2 0.602302 0.823169 0.645315
O O3 0.671596 0.909522 0.488606
O O4 0.617118 0.808356 0.332636
O O5 0.500000 0.200603 0.391190
O O6 0.331369 0.173974 0.443685
O O7 0.382960 0.277566 0.318015
O O8 0.076215 0.046760 0.428983
O O9 0.075924 0.968983 0.238092
O O10 0.261552 0.395636 0.768680
O O11 0.295517 0.488536 0.574332
O O12 0.334418 0.380131 0.483816
O O13 0.500000 0.729384 0.379478
O O14 0.669738 0.699560 0.410224
O O15 0.599899 0.711629 0.126816
O O16 0.800190 0.104241 0.585531
O O17 0.500000 0.647975 0.938225
#
# Coordination Sequence:
#
# PCOD9351649 Si02
#       8
#     8   8   4   8   8   8   8   8
#     4   9  18  35  54  77 105 139 178 223 264 305
#     4   9  18  35  54  77 105 139 178 223 264 305
#     4  10  24  38  60  74 114 138 176 218 260 312
#     4  10  20  35  55  76 107 144 178 214 264 319
#     4   9  18  31  51  76 104 139 174 212 270 324
#     4  10  20  35  55  76 107 144 178 214 264 319
#     4  11  22  40  55  82 106 142 177 214 265 316
#     4   9  18  31  51  76 104 139 174 212 270 324
#
# _framework density 21.833919999999999
#
# number of rings (size 3 to 8) (size 9 to 14) (size 15 to 20)
#    0.000    2.400    1.333    0.800    3.733    0.000 
#    4.800    0.667    0.000    0.000    0.000    0.000 
#    0.000    0.000    0.000    0.000    0.000    0.000 
#
# Total GULP energy -167060.373608 kJ/mol
# GULP energy per Si atom -5568.679120 kJ/mol
# Density = 2.178422 g / cm^3
# Si number density = 21.833920 Si / 1000 Ang^3
#
#
#
# Elastic Constant Matrix: (Units=GPa)
#
#
# Indices 1 2 3 4 5 6 
#
# 1 97.2702 59.5003 25.1061 0.0000 0.0000 0.0000
# 2 59.5003 61.8162 14.8511 0.0000 0.0000 0.0000
# 3 25.1061 14.8511 28.1314 0.0000 0.0000 0.0000
# 4 0.0000 0.0000 0.0000 26.5488 0.0000 0.0000
# 5 0.0000 0.0000 0.0000 0.0000 19.6763 0.0000
# 6 0.0000 0.0000 0.0000 0.0000 0.0000 23.4886
#
#
#
# Elastic Compliance Matrix: (Units=1/GPa)
#
#
# Indices 1 2 3 4 5 6 
#
# 1 0.028376 -0.024313 -0.012490 0.000000 0.000000 0.000000
# 2 -0.024313 0.039358 0.000920 0.000000 0.000000 0.000000
# 3 -0.012490 0.000920 0.046208 0.000000 0.000000 0.000000
# 4 0.000000 0.000000 0.000000 0.037666 0.000000 0.000000
# 5 0.000000 0.000000 0.000000 0.000000 0.050823 0.000000
# 6 0.000000 0.000000 0.000000 0.000000 0.000000 0.042574
#
#
# Mechanical properties :
#
#
# Convention : Reuss Voigt Hill
#
# Bulk Modulus (GPa) = 23.70887 42.90367 33.30627
# Shear Modulus (GPa) = 15.11357 19.79343 17.45350
#
# Velocity S-wave (km/s) = 2.63383 3.01415 2.83039
# Velocity P-wave (km/s) = 4.48684 5.63970 5.09598
#
# Compressibility (1/GPa) = 0.04217831
#
# Stress axis : x y z
#
# Youngs Moduli (GPa) = 35.24051 25.40798 21.64123
#
# Poissons Ratio (x) = 0.61774 0.27029
# Poissons Ratio (y) = 0.85679 -0.01992
# Poissons Ratio (z) = 0.44014 -0.02339
#
# Static dielectric constant tensor:
#      x y z
#    x 1.776790 0.000000 0.000000 
#    y 0.000000 1.756080 0.000000 
#    z 0.000000 0.000000 1.896610 
# 
# From -- ./inp_files/4302.got.cif
#   From: 2010.05.17/outbox.cif.g08.bks.cpg/sg36_3_cif.got.tgz:4302.got - 2010.06.03 17:41:39.
