data_PCOD9351053
_publ_section_title
;
Structure prediction by ZEFSAII (Michael W. Deem and Ramdas Pophale) SiO2 
 PCOD9351053
Probable space group: C M C 21
;
_chemical_formula_sum "Si O2"
_cell_formula_units_Z 64
_cell_length_a 7.513692
_cell_length_b 23.313820
_cell_length_c 16.744678
_cell_angle_alpha 90.000000
_cell_angle_beta 90.000000
_cell_angle_gamma 90.000000
_cell_volume 2933.213182
_symmetry_space_group_name_H-M "C M C 21"
_symmetry_group_IT_number 36
_symmetry_cell_setting 'orthorhombic'
loop_
_space_group_symop_operation_xyz
x,y,z
-x,-y,1/2+z
x,-y,1/2+z
-x,y,z
1/2+x,1/2+y,z
1/2-x,1/2-y,1/2+z
1/2+x,1/2-y,1/2+z
1/2-x,1/2+y,z
loop_
_atom_site_type_symbol
_atom_site_label
_atom_site_fract_x
_atom_site_fract_y
_atom_site_fract_z
Si Si1 0.282639 0.836420 0.594670
Si Si2 0.717883 0.032664 0.122777
Si Si3 0.203246 0.221578 0.657422
Si Si4 0.703083 0.005471 0.797348
Si Si5 0.787707 0.711786 0.922361
Si Si6 0.702176 0.366927 0.278391
Si Si7 0.789403 0.327591 0.988492
Si Si8 0.217787 0.541062 0.467365
O O1 0.500000 0.835205 0.596778
O O2 0.228238 0.901166 0.611069
O O3 0.220467 0.785741 0.653955
O O4 0.229254 0.815582 0.506606
O O5 0.500000 0.030138 0.122362
O O6 0.778880 0.012398 0.210727
O O7 0.775161 0.994004 0.046723
O O8 0.288466 0.171409 0.709045
O O9 0.200245 0.198407 0.567316
O O10 0.000000 0.226810 0.687287
O O11 0.500000 0.983329 0.796692
O O12 0.702731 0.074169 0.798131
O O13 0.780181 0.984304 0.882082
O O14 0.702081 0.675112 0.853236
O O15 0.000000 0.705491 0.916561
O O16 0.743712 0.779282 0.921710
O O17 0.500000 0.383082 0.255764
O O18 0.000000 0.329642 0.003774
O O19 0.729930 0.392163 0.972056
O O20 0.000000 0.538173 0.467577
#
# Coordination Sequence:
#
# PCOD9351053 Si02
#       8
#     8   8   8   8   8   8   8   8
#     4   8  15  30  52  75  98 128 170 217 261 311
#     4   9  16  28  50  77 101 130 172 218 260 307
#     4   9  19  34  52  76 106 139 174 218 273 327
#     4  10  20  34  54  77 101 136 181 222 266 323
#     4  10  20  35  55  77 104 139 178 221 271 324
#     4  11  22  35  52  76 107 139 176 223 272 319
#     4  10  19  33  54  79 107 137 175 221 269 321
#     4   9  18  31  49  77 108 136 172 220 266 316
#
# _framework density 21.819077
#
# number of rings (size 3 to 8) (size 9 to 14) (size 15 to 20)
#    0.000    2.500    0.000    3.375    0.000    5.000 
#    0.000    5.000    0.000    7.500    0.000    0.000 
#    0.000    0.000    0.000    0.000    0.000    0.000 
#
# Total GULP energy -178531.795263 kJ/mol
# GULP energy per Si atom -5579.118602 kJ/mol
# Density = 2.176942 g / cm^3
# Si number density = 21.819077 Si / 1000 Ang^3
#
#
#
# Elastic Constant Matrix: (Units=GPa)
#
#
# Indices 1 2 3 4 5 6 
#
# 1 64.8735 -2.6656 -1.3482 0.0000 0.0000 0.0000
# 2 -2.6656 191.4643 79.3289 0.0000 0.0000 0.0000
# 3 -1.3482 79.3289 123.5387 0.0000 0.0000 0.0000
# 4 0.0000 0.0000 0.0000 38.0789 0.0000 0.0000
# 5 0.0000 0.0000 0.0000 0.0000 0.6641 0.0000
# 6 0.0000 0.0000 0.0000 0.0000 0.0000 24.5066
#
#
#
# Elastic Compliance Matrix: (Units=1/GPa)
#
#
# Indices 1 2 3 4 5 6 
#
# 1 0.015424 0.000198 0.000041 0.000000 0.000000 0.000000
# 2 0.000198 0.007119 -0.004569 0.000000 0.000000 0.000000
# 3 0.000041 -0.004569 0.011029 0.000000 0.000000 0.000000
# 4 0.000000 0.000000 0.000000 0.026261 0.000000 0.000000
# 5 0.000000 0.000000 0.000000 0.000000 1.505702 0.000000
# 6 0.000000 0.000000 0.000000 0.000000 0.000000 0.040805
#
#
# Mechanical properties :
#
#
# Convention : Reuss Voigt Hill
#
# Bulk Modulus (GPa) = 40.14242 58.94519 49.54381
# Shear Modulus (GPa) = 3.08014 32.95402 18.01708
#
# Velocity S-wave (km/s) = 1.18943 3.89051 2.87670
# Velocity P-wave (km/s) = 4.50823 6.87427 5.81290
#
# Compressibility (1/GPa) = 0.02491130
#
# Stress axis : x y z
#
# Youngs Moduli (GPa) = 64.83574 140.47425 90.66965
#
# Poissons Ratio (x) = -0.02775 -0.00376
# Poissons Ratio (y) = -0.01281 0.41428
# Poissons Ratio (z) = -0.00269 0.64184
#
# Static dielectric constant tensor:
#      x y z
#    x 1.858940 0.000000 0.000000 
#    y 0.000000 1.770520 0.000000 
#    z 0.000000 0.000000 1.795520 
# 
# From -- ./inp_files/13778.got.cif
#   From: 2010.05.17/outbox.cif.g08.bks.cpg/sg36_7_cif.got.tgz:13778.got - 2010.06.03 17:41:39.
