data_PCOD9351623
_publ_section_title
;
Structure prediction by ZEFSAII (Michael W. Deem and Ramdas Pophale) SiO2 
 PCOD9351623
Probable space group: C M C 21
;
_chemical_formula_sum "Si O2"
_cell_formula_units_Z 52
_cell_length_a 7.396569
_cell_length_b 14.817595
_cell_length_c 19.063609
_cell_angle_alpha 90.000000
_cell_angle_beta 90.000000
_cell_angle_gamma 90.000000
_cell_volume 2089.359419
_symmetry_space_group_name_H-M "C M C 21"
_symmetry_group_IT_number 36
_symmetry_cell_setting 'orthorhombic'
loop_
_space_group_symop_operation_xyz
x,y,z
-x,-y,1/2+z
x,-y,1/2+z
-x,y,z
1/2+x,1/2+y,z
1/2-x,1/2-y,1/2+z
1/2+x,1/2-y,1/2+z
1/2-x,1/2+y,z
loop_
_atom_site_type_symbol
_atom_site_label
_atom_site_fract_x
_atom_site_fract_y
_atom_site_fract_z
Si Si1 0.207235 0.858568 0.875000
Si Si2 0.794188 0.197108 0.147294
Si Si3 0.000000 0.253031 0.813643
Si Si4 0.704643 0.992150 0.134817
Si Si5 0.717707 0.856866 0.249945
Si Si6 0.718076 0.217875 0.991787
Si Si7 0.219137 0.488412 0.479564
O O1 0.342588 0.834025 0.813927
O O2 0.279540 0.790606 0.935834
O O3 0.218843 0.954379 0.913223
O O4 0.000000 0.839025 0.856952
O O5 0.725396 0.275213 0.197232
O O6 0.000000 0.178625 0.167322
O O7 0.701534 0.100044 0.143805
O O8 0.786119 0.237556 0.069340
O O9 0.160485 0.173487 0.814322
O O10 0.500000 0.956458 0.130636
O O11 0.775392 0.944569 0.205108
O O12 0.784284 0.976311 0.056600
O O13 0.500000 0.858333 0.263831
O O14 0.500000 0.221308 0.992976
O O15 0.773488 0.115802 0.975492
O O16 0.000000 0.491272 0.480946
#
# Coordination Sequence:
#
# PCOD9351623 Si02
#       7
#     8   8   4   8   8   8   8
#     4  11  23  41  63  87 120 158 207 248 297 349
#     4  10  20  34  61  95 126 150 193 246 300 365
#     4  12  26  42  66  78 120 164 214 250 288 350
#     4   9  19  36  62  92 128 154 188 245 307 361
#     4  10  23  42  62  86 122 160 204 245 298 351
#     4   9  20  36  61  92 127 154 188 244 309 361
#     4   9  17  36  62  93 126 158 186 241 310 361
#
# _framework density 24.888010000000001
#
# number of rings (size 3 to 8) (size 9 to 14) (size 15 to 20)
#    0.000    2.154    0.769    2.769    4.308    3.692 
#    0.000    1.538    0.000    0.000    0.000    0.000 
#    0.000    0.000    0.000    0.000    0.000    0.000 
#
# Total GULP energy -144812.971403 kJ/mol
# GULP energy per Si atom -5569.729669 kJ/mol
# Density = 2.483136 g / cm^3
# Si number density = 24.888010 Si / 1000 Ang^3
#
#
#
# Elastic Constant Matrix: (Units=GPa)
#
#
# Indices 1 2 3 4 5 6 
#
# 1 114.8121 -2.7133 -6.1318 0.0000 0.0000 0.0000
# 2 -2.7133 48.0946 4.0369 0.0000 0.0000 0.0000
# 3 -6.1318 4.0369 41.5980 0.0000 0.0000 0.0000
# 4 0.0000 0.0000 0.0000 -12.4757 0.0000 0.0000
# 5 0.0000 0.0000 0.0000 0.0000 37.5282 0.0000
# 6 0.0000 0.0000 0.0000 0.0000 0.0000 20.0155
#
#
#
# Elastic Compliance Matrix: (Units=1/GPa)
#
#
# Indices 1 2 3 4 5 6 
#
# 1 0.008786 0.000390 0.001257 0.000000 0.000000 0.000000
# 2 0.000390 0.020980 -0.001979 0.000000 0.000000 0.000000
# 3 0.001257 -0.001979 0.024417 0.000000 0.000000 0.000000
# 4 0.000000 0.000000 0.000000 -0.080156 0.000000 0.000000
# 5 0.000000 0.000000 0.000000 0.000000 0.026647 0.000000
# 6 0.000000 0.000000 0.000000 0.000000 0.000000 0.049961
#
#
# Mechanical properties :
#
#
# Convention : Reuss Voigt Hill
#
# Bulk Modulus (GPa) = 18.68412 21.65426 20.16919
# Shear Modulus (GPa) = 72.31893 22.96781 47.64337
#
# Velocity S-wave (km/s) = 5.39637 3.04113 4.38003
# Velocity P-wave (km/s) = 6.80818 4.58813 5.80527
#
# Compressibility (1/GPa) = 0.05352138
#
# Stress axis : x y z
#
# Youngs Moduli (GPa) = 113.81417 47.66348 40.95514
#
# Poissons Ratio (x) = -0.01860 -0.05149
# Poissons Ratio (y) = -0.04440 0.08103
# Poissons Ratio (z) = -0.14310 0.09431
#
# Static dielectric constant tensor:
#      x y z
#    x 1.984010 0.000000 0.000000 
#    y 0.000000 1.951250 0.000000 
#    z 0.000000 0.000000 2.230840 
# 
# From -- ./inp_files/15436.got.cif
#   From: 2010.05.17/outbox.cif.g08.bks.cpg/sg36_8_cif.got.tgz:15436.got - 2010.06.03 17:41:39.
