data_PCOD9351974
_publ_section_title
;
Structure prediction by ZEFSAII (Michael W. Deem and Ramdas Pophale) SiO2 
 PCOD9351974
Probable space group: C M C 21
;
_chemical_formula_sum "Si O2"
_cell_formula_units_Z 56
_cell_length_a 16.965809
_cell_length_b 12.276709
_cell_length_c 13.134001
_cell_angle_alpha 90.000000
_cell_angle_beta 90.000000
_cell_angle_gamma 90.000000
_cell_volume 2735.606205
_symmetry_space_group_name_H-M "C M C 21"
_symmetry_group_IT_number 36
_symmetry_cell_setting 'orthorhombic'
loop_
_space_group_symop_operation_xyz
x,y,z
-x,-y,1/2+z
x,-y,1/2+z
-x,y,z
1/2+x,1/2+y,z
1/2-x,1/2-y,1/2+z
1/2+x,1/2-y,1/2+z
1/2-x,1/2+y,z
loop_
_atom_site_type_symbol
_atom_site_label
_atom_site_fract_x
_atom_site_fract_y
_atom_site_fract_z
Si Si1 0.405709 0.331481 0.614790
Si Si2 0.813717 0.949180 0.066318
Si Si3 0.085347 0.558480 0.087054
Si Si4 0.411359 0.709445 0.684134
Si Si5 0.665081 0.877162 0.203048
Si Si6 0.195429 0.502388 0.910145
Si Si7 0.405815 0.218399 0.393698
O O1 0.500000 0.345882 0.634655
O O2 0.356423 0.443303 0.609993
O O3 0.363762 0.246423 0.691484
O O4 0.398013 0.276356 0.502668
O O5 0.872760 0.851705 0.089958
O O6 0.738215 0.908036 0.130497
O O7 0.781615 0.971103 0.952961
O O8 0.089520 0.663209 0.157942
O O9 0.096034 0.452242 0.156191
O O10 0.000000 0.555003 0.035610
O O11 0.152998 0.563127 0.003715
O O12 0.500000 0.667758 0.691160
O O13 0.378085 0.705866 0.799081
O O14 0.688806 0.921184 0.312974
O O15 0.145126 0.391794 0.893602
O O16 0.500000 0.195788 0.379125
#
# Coordination Sequence:
#
# PCOD9351974 Si02
#       7
#     8   8   8   8   8   8   8
#     4  11  24  45  68  97 136 178 224 274 329 402
#     4  11  26  43  64  95 133 179 221 275 337 406
#     4  10  20  37  63  94 126 163 217 277 328 386
#     4  10  22  42  67  93 130 175 222 274 331 400
#     4  11  24  40  65  94 130 171 218 276 338 391
#     4  11  23  39  63  98 132 171 216 282 340 404
#     4  10  20  38  69  97 125 171 224 274 332 401
#
# _framework density 20.470783000000001
#
# number of rings (size 3 to 8) (size 9 to 14) (size 15 to 20)
#    0.000    1.429    4.286    1.286    6.000    1.714 
#    2.571    0.000    0.000    0.000    0.000    0.000 
#    0.000    0.000    0.000    0.000    0.000    0.000 
#
# Total GULP energy -156211.882644 kJ/mol
# GULP energy per Si atom -5578.995809 kJ/mol
# Density = 2.042419 g / cm^3
# Si number density = 20.470783 Si / 1000 Ang^3
#
#
#
# Elastic Constant Matrix: (Units=GPa)
#
#
# Indices 1 2 3 4 5 6 
#
# 1 65.6949 24.0504 -0.0130 0.0000 0.0000 0.0000
# 2 24.0504 69.6927 -21.2075 0.0000 0.0000 0.0000
# 3 -0.0130 -21.2075 58.7001 0.0000 0.0000 0.0000
# 4 0.0000 0.0000 0.0000 24.9249 0.0000 0.0000
# 5 0.0000 0.0000 0.0000 0.0000 9.3446 0.0000
# 6 0.0000 0.0000 0.0000 0.0000 0.0000 39.9723
#
#
#
# Elastic Compliance Matrix: (Units=1/GPa)
#
#
# Indices 1 2 3 4 5 6 
#
# 1 0.017739 -0.006876 -0.002480 0.000000 0.000000 0.000000
# 2 -0.006876 0.018787 0.006786 0.000000 0.000000 0.000000
# 3 -0.002480 0.006786 0.019487 0.000000 0.000000 0.000000
# 4 0.000000 0.000000 0.000000 0.040121 0.000000 0.000000
# 5 0.000000 0.000000 0.000000 0.000000 0.107014 0.000000
# 6 0.000000 0.000000 0.000000 0.000000 0.000000 0.025017
#
#
# Mechanical properties :
#
#
# Convention : Reuss Voigt Hill
#
# Bulk Modulus (GPa) = 19.65780 22.19417 20.92599
# Shear Modulus (GPa) = 19.97904 27.59887 23.78895
#
# Velocity S-wave (km/s) = 3.12745 3.67578 3.41265
# Velocity P-wave (km/s) = 4.76078 5.37406 5.07669
#
# Compressibility (1/GPa) = 0.05087038
#
# Stress axis : x y z
#
# Youngs Moduli (GPa) = 56.37373 53.22952 51.31681
#
# Poissons Ratio (x) = 0.36602 0.12728
# Poissons Ratio (y) = 0.38764 -0.34822
# Poissons Ratio (z) = 0.13983 -0.36120
#
# Static dielectric constant tensor:
#      x y z
#    x 1.819000 0.000000 0.000000 
#    y 0.000000 1.725480 0.000000 
#    z 0.000000 0.000000 1.751960 
# 
# From -- ./inp_files/12165.got.cif
#   From: 2010.05.17/outbox.cif.g08.bks.cpg/sg36_7_cif.got.tgz:12165.got - 2010.06.03 17:41:39.
