data_PCOD9351156
_publ_section_title
;
Structure prediction by ZEFSAII (Michael W. Deem and Ramdas Pophale) SiO2 
 PCOD9351156
Probable space group: C M C 21
;
_chemical_formula_sum "Si O2"
_cell_formula_units_Z 64
_cell_length_a 8.799380
_cell_length_b 20.779423
_cell_length_c 19.881023
_cell_angle_alpha 90.000000
_cell_angle_beta 90.000000
_cell_angle_gamma 90.000000
_cell_volume 3635.166310
_symmetry_space_group_name_H-M "C M C 21"
_symmetry_group_IT_number 36
_symmetry_cell_setting 'orthorhombic'
loop_
_space_group_symop_operation_xyz
x,y,z
-x,-y,1/2+z
x,-y,1/2+z
-x,y,z
1/2+x,1/2+y,z
1/2-x,1/2-y,1/2+z
1/2+x,1/2-y,1/2+z
1/2-x,1/2+y,z
loop_
_atom_site_type_symbol
_atom_site_label
_atom_site_fract_x
_atom_site_fract_y
_atom_site_fract_z
Si Si1 0.817107 0.140308 0.816070
Si Si2 0.818031 0.432572 0.535386
Si Si3 0.817653 0.510201 0.174473
Si Si4 0.182314 0.809881 0.460396
Si Si5 0.681594 0.687560 0.535987
Si Si6 0.182663 0.945288 0.960300
Si Si7 0.318534 0.489481 0.816043
Si Si8 0.182312 0.639577 0.672076
O O1 0.771413 0.179934 0.882250
O O2 0.777915 0.064778 0.828176
O O3 0.741107 0.159786 0.745746
O O4 0.000000 0.144012 0.809084
O O5 0.770006 0.445313 0.612534
O O6 0.738202 0.372184 0.501253
O O7 0.769676 0.496974 0.496406
O O8 0.000000 0.424495 0.532835
O O9 0.756789 0.531262 0.246627
O O10 0.768634 0.435666 0.163223
O O11 0.000000 0.509461 0.175913
O O12 0.251352 0.747371 0.495366
O O13 0.000000 0.807097 0.462074
O O14 0.500000 0.693520 0.540450
O O15 0.717899 0.621982 0.495567
O O16 0.749653 0.679825 0.610625
O O17 0.000000 0.956581 0.965645
O O18 0.222843 0.948608 0.881505
O O19 0.500000 0.487079 0.808023
O O20 0.000000 0.642079 0.670114
#
# Coordination Sequence:
#
# PCOD9351156 Si02
#       8
#     8   8   8   8   8   8   8   8
#     4   9  18  34  56  81 109 145 189 234 281 338
#     4  11  21  35  57  84 114 145 186 234 281 334
#     4   9  19  33  51  82 116 145 183 231 280 333
#     4  11  23  40  59  82 116 153 193 236 286 341
#     4  11  23  38  58  84 116 153 194 237 285 339
#     4  10  20  36  57  83 113 145 185 231 280 335
#     4   9  17  32  54  81 110 143 186 232 280 333
#     4  10  19  34  56  83 114 147 188 233 281 339
#
# _framework density 17.605796999999999
#
# number of rings (size 3 to 8) (size 9 to 14) (size 15 to 20)
#    0.000    2.000    2.500    1.500    0.000    3.500 
#    0.000    1.250    0.000    6.000    0.000    0.000 
#    0.000    0.000    0.000    0.000    0.000    0.000 
#
# Total GULP energy -178603.498179 kJ/mol
# GULP energy per Si atom -5581.359318 kJ/mol
# Density = 1.756573 g / cm^3
# Si number density = 17.605797 Si / 1000 Ang^3
#
#
#
# Elastic Constant Matrix: (Units=GPa)
#
#
# Indices 1 2 3 4 5 6 
#
# 1 34.8335 38.1576 49.8059 0.0000 0.0000 0.0000
# 2 38.1576 82.7911 66.4351 0.0000 0.0000 0.0000
# 3 49.8059 66.4351 182.1366 0.0000 0.0000 0.0000
# 4 0.0000 0.0000 0.0000 27.7118 0.0000 0.0000
# 5 0.0000 0.0000 0.0000 0.0000 31.4022 0.0000
# 6 0.0000 0.0000 0.0000 0.0000 0.0000 24.7295
#
#
#
# Elastic Compliance Matrix: (Units=1/GPa)
#
#
# Indices 1 2 3 4 5 6 
#
# 1 0.069495 -0.023724 -0.010350 0.000000 0.000000 0.000000
# 2 -0.023724 0.025176 -0.002696 0.000000 0.000000 0.000000
# 3 -0.010350 -0.002696 0.009304 0.000000 0.000000 0.000000
# 4 0.000000 0.000000 0.000000 0.036086 0.000000 0.000000
# 5 0.000000 0.000000 0.000000 0.000000 0.031845 0.000000
# 6 0.000000 0.000000 0.000000 0.000000 0.000000 0.040438
#
#
# Mechanical properties :
#
#
# Convention : Reuss Voigt Hill
#
# Bulk Modulus (GPa) = 32.85690 67.61760 50.23725
# Shear Modulus (GPa) = 16.89034 26.45955 21.67494
#
# Velocity S-wave (km/s) = 3.10072 3.88092 3.51255
# Velocity P-wave (km/s) = 5.61448 7.65322 6.71171
#
# Compressibility (1/GPa) = 0.03043500
#
# Stress axis : x y z
#
# Youngs Moduli (GPa) = 14.38955 39.72068 107.48200
#
# Poissons Ratio (x) = 0.94234 1.11245
# Poissons Ratio (y) = 0.34138 0.28972
# Poissons Ratio (z) = 0.14893 0.10707
#
# Static dielectric constant tensor:
#      x y z
#    x 1.594040 0.000000 0.000000 
#    y 0.000000 1.573590 0.000000 
#    z 0.000000 0.000000 1.603280 
# 
# From -- ./inp_files/13885.got.cif
#   From: 2010.05.17/outbox.cif.g08.bks.cpg/sg36_7_cif.got.tgz:13885.got - 2010.06.03 17:41:39.
