data_PCOD9351886
_publ_section_title
;
Structure prediction by ZEFSAII (Michael W. Deem and Ramdas Pophale) SiO2 
 PCOD9351886
Probable space group: C M C 21
;
_chemical_formula_sum "Si O2"
_cell_formula_units_Z 40
_cell_length_a 13.058797
_cell_length_b 7.186961
_cell_length_c 16.364894
_cell_angle_alpha 90.000000
_cell_angle_beta 90.000000
_cell_angle_gamma 90.000000
_cell_volume 1535.895456
_symmetry_space_group_name_H-M "C M C 21"
_symmetry_group_IT_number 36
_symmetry_cell_setting 'orthorhombic'
loop_
_space_group_symop_operation_xyz
x,y,z
-x,-y,1/2+z
x,-y,1/2+z
-x,y,z
1/2+x,1/2+y,z
1/2-x,1/2-y,1/2+z
1/2+x,1/2-y,1/2+z
1/2-x,1/2+y,z
loop_
_atom_site_type_symbol
_atom_site_label
_atom_site_fract_x
_atom_site_fract_y
_atom_site_fract_z
Si Si1 0.180530 0.309347 0.004820
Si Si2 0.388547 0.213137 0.244413
Si Si3 0.336925 0.608755 0.274536
Si Si4 0.389576 0.164436 0.925300
Si Si5 0.158320 0.983159 0.105109
O O1 0.127192 0.116576 0.029999
O O2 0.224007 0.429839 0.082135
O O3 0.290372 0.255835 0.966215
O O4 0.121442 0.446419 0.944973
O O5 0.500000 0.128363 0.256014
O O6 0.377574 0.404281 0.297422
O O7 0.286443 0.105039 0.268395
O O8 0.381429 0.295845 0.150604
O O9 0.380334 0.762689 0.333433
O O10 0.364637 0.624249 0.179875
O O11 0.500000 0.225228 0.958703
#
# Coordination Sequence:
#
# PCOD9351886 Si02
#       5
#     8   8   8   8   8
#     4  10  21  40  61  89 127 155 201 257 295 360
#     4  10  20  36  63  88 113 154 199 244 302 348
#     4  10  20  39  61  89 123 153 202 254 291 353
#     4  11  24  41  62  88 123 166 198 242 313 363
#     4   9  18  38  62  88 120 158 197 255 296 340
#
# _framework density 26.04344
#
# number of rings (size 3 to 8) (size 9 to 14) (size 15 to 20)
#    1.200    0.800    2.000    1.800    0.000    1.600 
#    0.000    8.000    0.000    0.000    0.000    0.000 
#    0.000    0.000    0.000    0.000    0.000    0.000 
#
# Total GULP energy -111389.976277 kJ/mol
# GULP energy per Si atom -5569.498814 kJ/mol
# Density = 2.598416 g / cm^3
# Si number density = 26.043440 Si / 1000 Ang^3
#
#
#
# Elastic Constant Matrix: (Units=GPa)
#
#
# Indices 1 2 3 4 5 6 
#
# 1 155.6418 5.7590 17.3313 0.0000 0.0000 0.0000
# 2 5.7590 75.5470 24.0945 0.0000 0.0000 0.0000
# 3 17.3313 24.0945 54.3336 0.0000 0.0000 0.0000
# 4 0.0000 0.0000 0.0000 28.8973 0.0000 0.0000
# 5 0.0000 0.0000 0.0000 0.0000 4.9747 0.0000
# 6 0.0000 0.0000 0.0000 0.0000 0.0000 -72.4450
#
#
#
# Elastic Compliance Matrix: (Units=1/GPa)
#
#
# Indices 1 2 3 4 5 6 
#
# 1 0.006664 0.000198 -0.002214 0.000000 0.000000 0.000000
# 2 0.000198 0.015423 -0.006903 0.000000 0.000000 0.000000
# 3 -0.002214 -0.006903 0.022172 0.000000 0.000000 0.000000
# 4 0.000000 0.000000 0.000000 0.034605 0.000000 0.000000
# 5 0.000000 0.000000 0.000000 0.000000 0.201016 0.000000
# 6 0.000000 0.000000 0.000000 0.000000 0.000000 -0.013804
#
#
# Mechanical properties :
#
#
# Convention : Reuss Voigt Hill
#
# Bulk Modulus (GPa) = 37.84602 42.21022 40.02812
# Shear Modulus (GPa) = 17.08111 8.17458 12.62784
#
# Velocity S-wave (km/s) = 2.56377 1.77359 2.20438
# Velocity P-wave (km/s) = 4.82984 4.52073 4.67784
#
# Compressibility (1/GPa) = 0.02642286
#
# Stress axis : x y z
#
# Youngs Moduli (GPa) = 150.05622 64.83742 45.10213
#
# Poissons Ratio (x) = -0.01283 0.09983
# Poissons Ratio (y) = -0.02970 0.31132
# Poissons Ratio (z) = 0.33215 0.44755
#
# Static dielectric constant tensor:
#      x y z
#    x 2.002470 0.000000 0.000000 
#    y 0.000000 2.107020 0.000000 
#    z 0.000000 0.000000 2.215590 
# 
# From -- ./inp_files/14154.got.cif
#   From: 2010.05.17/outbox.cif.g08.bks.cpg/sg36_8_cif.got.tgz:14154.got - 2010.06.03 17:41:39.
