data_PCOD9351147
_publ_section_title
;
Structure prediction by ZEFSAII (Michael W. Deem and Ramdas Pophale) SiO2 
 PCOD9351147
Probable space group: C M C 21
;
_chemical_formula_sum "Si O2"
_cell_formula_units_Z 56
_cell_length_a 17.565646
_cell_length_b 17.982091
_cell_length_c 7.334416
_cell_angle_alpha 90.000000
_cell_angle_beta 90.000000
_cell_angle_gamma 90.000000
_cell_volume 2316.700308
_symmetry_space_group_name_H-M "C M C 21"
_symmetry_group_IT_number 36
_symmetry_cell_setting 'orthorhombic'
loop_
_space_group_symop_operation_xyz
x,y,z
-x,-y,1/2+z
x,-y,1/2+z
-x,y,z
1/2+x,1/2+y,z
1/2-x,1/2-y,1/2+z
1/2+x,1/2-y,1/2+z
1/2-x,1/2+y,z
loop_
_atom_site_type_symbol
_atom_site_label
_atom_site_fract_x
_atom_site_fract_y
_atom_site_fract_z
Si Si1 0.836673 0.390872 0.371680
Si Si2 0.665392 0.938020 0.949530
Si Si3 0.000000 0.437365 0.950134
Si Si4 0.000000 0.609303 0.872503
Si Si5 0.088155 0.897242 0.012621
Si Si6 0.811709 0.193077 0.993999
Si Si7 0.414021 0.436201 0.583674
Si Si8 0.275310 0.675475 0.386390
O O1 0.831807 0.473258 0.456287
O O2 0.830237 0.406037 0.154911
O O3 0.919043 0.355546 0.414836
O O4 0.769356 0.341873 0.444761
O O5 0.582114 0.917725 0.867300
O O6 0.738226 0.905103 0.847753
O O7 0.000000 0.405979 0.154839
O O8 0.000000 0.526990 0.960228
O O9 0.084769 0.909287 0.792884
O O10 0.158045 0.838442 0.035865
O O11 0.000000 0.879933 0.069856
O O12 0.113775 0.978545 0.084668
O O13 0.871537 0.126703 0.965174
O O14 0.815064 0.207764 0.209326
O O15 0.800473 0.274889 0.914433
O O16 0.500000 0.441718 0.513235
#
# Coordination Sequence:
#
# PCOD9351147 Si02
#       8
#     8   8   4   4   8   8   8   8
#     4  10  19  34  56  81 109 143 184 227 272 324
#     4  10  19  34  56  81 109 143 184 227 272 324
#     4   8  16  30  50  76 104 136 173 214 259 310
#     4   8  16  30  50  76 104 136 173 214 259 310
#     4   9  19  37  61  86 110 142 185 233 282 334
#     4  11  23  38  55  79 113 149 186 229 282 340
#     4   9  19  37  61  86 110 142 185 233 282 334
#     4  11  23  38  55  79 113 149 186 229 282 340
#
# _framework density 24.172308999999998
#
# number of rings (size 3 to 8) (size 9 to 14) (size 15 to 20)
#    0.000    2.286    0.000    2.571    0.000    5.714 
#    2.571    0.000    0.000    0.000    0.000    0.000 
#    0.000    0.000    0.000    0.000    0.000    0.000 
#
# Total GULP energy -156174.090043 kJ/mol
# GULP energy per Si atom -5577.646073 kJ/mol
# Density = 2.411729 g / cm^3
# Si number density = 24.172309 Si / 1000 Ang^3
#
#
#
# Elastic Constant Matrix: (Units=GPa)
#
#
# Indices 1 2 3 4 5 6 
#
# 1 84.0735 25.3792 -15.7632 0.0000 0.0000 0.0000
# 2 25.3792 59.5347 -3.9540 0.0000 0.0000 0.0000
# 3 -15.7632 -3.9540 32.2672 0.0000 0.0000 0.0000
# 4 0.0000 0.0000 0.0000 29.6550 0.0000 0.0000
# 5 0.0000 0.0000 0.0000 0.0000 21.9781 0.0000
# 6 0.0000 0.0000 0.0000 0.0000 0.0000 24.5606
#
#
#
# Elastic Compliance Matrix: (Units=1/GPa)
#
#
# Indices 1 2 3 4 5 6 
#
# 1 0.014912 -0.005921 0.006559 0.000000 0.000000 0.000000
# 2 -0.005921 0.019286 -0.000529 0.000000 0.000000 0.000000
# 3 0.006559 -0.000529 0.034131 0.000000 0.000000 0.000000
# 4 0.000000 0.000000 0.000000 0.033721 0.000000 0.000000
# 5 0.000000 0.000000 0.000000 0.000000 0.045500 0.000000
# 6 0.000000 0.000000 0.000000 0.000000 0.000000 0.040716
#
#
# Mechanical properties :
#
#
# Convention : Reuss Voigt Hill
#
# Bulk Modulus (GPa) = 14.58889 20.79994 17.69441
# Shear Modulus (GPa) = 23.70840 26.58629 25.14734
#
# Velocity S-wave (km/s) = 3.13518 3.32002 3.22892
# Velocity P-wave (km/s) = 4.37656 4.82910 4.60839
#
# Compressibility (1/GPa) = 0.06854530
#
# Stress axis : x y z
#
# Youngs Moduli (GPa) = 67.06230 51.85142 29.29925
#
# Poissons Ratio (x) = 0.30701 -0.19217
# Poissons Ratio (y) = 0.39708 0.01551
# Poissons Ratio (z) = -0.43986 0.02745
#
# Static dielectric constant tensor:
#      x y z
#    x 1.989920 0.000000 0.000000 
#    y 0.000000 1.940290 0.000000 
#    z 0.000000 0.000000 2.018960 
# 
# From -- ./inp_files/4836.got.cif
#   From: 2010.05.17/outbox.cif.g08.bks.cpg/sg36_3_cif.got.tgz:4836.got - 2010.06.03 17:41:39.
