data_PCOD9351250
_publ_section_title
;
Structure prediction by ZEFSAII (Michael W. Deem and Ramdas Pophale) SiO2 
 PCOD9351250
Probable space group: C M C 21
;
_chemical_formula_sum "Si O2"
_cell_formula_units_Z 64
_cell_length_a 8.130572
_cell_length_b 30.063797
_cell_length_c 12.619464
_cell_angle_alpha 90.000000
_cell_angle_beta 90.000000
_cell_angle_gamma 90.000000
_cell_volume 3084.649613
_symmetry_space_group_name_H-M "C M C 21"
_symmetry_group_IT_number 36
_symmetry_cell_setting 'orthorhombic'
loop_
_space_group_symop_operation_xyz
x,y,z
-x,-y,1/2+z
x,-y,1/2+z
-x,y,z
1/2+x,1/2+y,z
1/2-x,1/2-y,1/2+z
1/2+x,1/2-y,1/2+z
1/2-x,1/2+y,z
loop_
_atom_site_type_symbol
_atom_site_label
_atom_site_fract_x
_atom_site_fract_y
_atom_site_fract_z
Si Si1 0.697805 0.571300 0.897360
Si Si2 0.301935 0.724407 0.182076
Si Si3 0.311906 0.180132 0.625377
Si Si4 0.199145 0.024468 0.457622
Si Si5 0.195539 0.635871 0.073344
Si Si6 0.304978 0.581125 0.659427
Si Si7 0.696956 0.091780 0.292221
Si Si8 0.308242 0.321317 0.900749
O O1 0.500000 0.570163 0.891734
O O2 0.752147 0.526897 0.959352
O O3 0.761670 0.570146 0.776600
O O4 0.743797 0.614754 0.964243
O O5 0.500000 0.726678 0.174604
O O6 0.237998 0.774473 0.171526
O O7 0.247163 0.686463 0.099410
O O8 0.258660 0.705944 0.297429
O O9 0.500000 0.174684 0.661768
O O10 0.221480 0.133739 0.643800
O O11 0.303729 0.188467 0.500040
O O12 0.261014 0.052949 0.558959
O O13 0.257402 0.045346 0.345932
O O14 0.000000 0.026240 0.457948
O O15 0.251609 0.604691 0.173022
O O16 0.000000 0.634725 0.072519
O O17 0.500000 0.572241 0.661128
O O18 0.500000 0.097839 0.297356
O O19 0.785030 0.127600 0.367706
O O20 0.500000 0.312919 0.925837
#
# Coordination Sequence:
#
# PCOD9351250 Si02
#       8
#     8   8   8   8   8   8   8   8
#     4  10  23  40  61  88 122 163 202 245 297 357
#     4   9  21  39  59  84 116 157 204 246 295 358
#     4  11  22  37  59  88 120 155 196 246 303 357
#     4  10  21  37  61  88 115 153 200 246 293 353
#     4  10  22  39  59  87 121 155 197 247 301 356
#     4  10  22  40  59  88 122 154 201 248 295 354
#     4  10  20  35  57  85 114 146 191 248 299 347
#     4  10  19  35  57  82 112 151 197 244 293 350
#
# _framework density 20.747897999999999
#
# number of rings (size 3 to 8) (size 9 to 14) (size 15 to 20)
#    0.000    2.000    1.250    1.500    1.750    5.000 
#    0.000    2.500    0.000    0.000    0.000    0.000 
#    0.000    0.000    0.000    0.000    0.000    0.000 
#
# Total GULP energy -178565.439607 kJ/mol
# GULP energy per Si atom -5580.169988 kJ/mol
# Density = 2.070067 g / cm^3
# Si number density = 20.747898 Si / 1000 Ang^3
#
#
#
# Elastic Constant Matrix: (Units=GPa)
#
#
# Indices 1 2 3 4 5 6 
#
# 1 14.4840 -1.7062 5.6023 0.0000 0.0000 0.0000
# 2 -1.7062 94.4354 34.3374 0.0000 0.0000 0.0000
# 3 5.6023 34.3374 70.7617 0.0000 0.0000 0.0000
# 4 0.0000 0.0000 0.0000 20.2407 0.0000 0.0000
# 5 0.0000 0.0000 0.0000 0.0000 21.3875 0.0000
# 6 0.0000 0.0000 0.0000 0.0000 0.0000 17.6319
#
#
#
# Elastic Compliance Matrix: (Units=1/GPa)
#
#
# Indices 1 2 3 4 5 6 
#
# 1 0.072523 0.004126 -0.007744 0.000000 0.000000 0.000000
# 2 0.004126 0.013093 -0.006680 0.000000 0.000000 0.000000
# 3 -0.007744 -0.006680 0.017987 0.000000 0.000000 0.000000
# 4 0.000000 0.000000 0.000000 0.049405 0.000000 0.000000
# 5 0.000000 0.000000 0.000000 0.000000 0.046756 0.000000
# 6 0.000000 0.000000 0.000000 0.000000 0.000000 0.056716
#
#
# Mechanical properties :
#
#
# Convention : Reuss Voigt Hill
#
# Bulk Modulus (GPa) = 12.04725 28.46091 20.25408
# Shear Modulus (GPa) = 16.40722 21.28186 18.84454
#
# Velocity S-wave (km/s) = 2.81515 3.20619 3.01701
# Velocity P-wave (km/s) = 4.04794 5.23960 4.68184
#
# Compressibility (1/GPa) = 0.08300648
#
# Stress axis : x y z
#
# Youngs Moduli (GPa) = 13.78874 76.37853 55.59720
#
# Poissons Ratio (x) = -0.31515 0.43054
# Poissons Ratio (y) = -0.05689 0.37139
# Poissons Ratio (z) = 0.10678 0.51021
#
# Static dielectric constant tensor:
#      x y z
#    x 1.724360 0.000000 0.000000 
#    y 0.000000 1.764740 0.000000 
#    z 0.000000 0.000000 1.756830 
# 
# From -- ./inp_files/7137.got.cif
#   From: 2010.05.17/outbox.cif.g08.bks.cpg/sg36_4_cif.got.tgz:7137.got - 2010.06.03 17:41:39.
