data_PCOD9351012
_publ_section_title
;
Structure prediction by ZEFSAII (Michael W. Deem and Ramdas Pophale) SiO2 
 PCOD9351012
Probable space group: C M C 21
;
_chemical_formula_sum "Si O2"
_cell_formula_units_Z 64
_cell_length_a 17.355997
_cell_length_b 19.728549
_cell_length_c 9.204829
_cell_angle_alpha 90.000000
_cell_angle_beta 90.000000
_cell_angle_gamma 90.000000
_cell_volume 3151.812954
_symmetry_space_group_name_H-M "C M C 21"
_symmetry_group_IT_number 36
_symmetry_cell_setting 'orthorhombic'
loop_
_space_group_symop_operation_xyz
x,y,z
-x,-y,1/2+z
x,-y,1/2+z
-x,y,z
1/2+x,1/2+y,z
1/2-x,1/2-y,1/2+z
1/2+x,1/2-y,1/2+z
1/2-x,1/2+y,z
loop_
_atom_site_type_symbol
_atom_site_label
_atom_site_fract_x
_atom_site_fract_y
_atom_site_fract_z
Si Si1 0.584131 0.156759 0.599730
Si Si2 0.646704 0.421652 0.870129
Si Si3 0.752595 0.626392 0.610441
Si Si4 0.587047 0.786161 0.784185
Si Si5 0.087193 0.770685 0.824624
Si Si6 0.653260 0.643995 0.886196
Si Si7 0.789439 0.718142 0.047707
Si Si8 0.413282 0.528780 0.084831
O O1 0.500000 0.128417 0.638766
O O2 0.658364 0.114454 0.646514
O O3 0.588991 0.168926 0.428408
O O4 0.587220 0.231651 0.672233
O O5 0.612586 0.348497 0.826617
O O6 0.644588 0.463124 0.720484
O O7 0.724588 0.408449 0.961476
O O8 0.596386 0.461245 0.989952
O O9 0.696200 0.613046 0.745415
O O10 0.744243 0.707731 0.585635
O O11 0.500000 0.790386 0.722514
O O12 0.604441 0.708295 0.830036
O O13 0.658113 0.806222 0.681093
O O14 0.000000 0.766773 0.882262
O O15 0.149023 0.731075 0.920692
O O16 0.720839 0.671457 0.992226
O O17 0.603515 0.589842 0.973148
O O18 0.500000 0.533499 0.143597
#
# Coordination Sequence:
#
# PCOD9351012 Si02
#       8
#     8   8   8   8   8   8   8   8
#     4  10  19  32  55  85 120 154 190 239 306 376
#     4  11  25  40  61  85 119 164 211 260 298 351
#     4  10  21  37  56  86 119 156 202 252 308 366
#     4  10  20  32  49  79 118 156 193 243 306 362
#     4  10  19  35  57  85 117 157 198 244 302 364
#     4  11  21  35  58  82 120 163 205 251 300 357
#     4  10  20  31  53  81 117 153 197 245 306 362
#     4  12  25  42  61  87 120 165 216 254 296 352
#
# _framework density 20.305772999999999
#
# number of rings (size 3 to 8) (size 9 to 14) (size 15 to 20)
#    0.000    1.500    2.500    3.375    1.750    1.000 
#    0.000    5.000    0.000    0.000    0.000    5.250 
#    0.000    0.000    0.000    0.000    0.000    0.000 
#
# Total GULP energy -178696.293727 kJ/mol
# GULP energy per Si atom -5584.259179 kJ/mol
# Density = 2.025956 g / cm^3
# Si number density = 20.305773 Si / 1000 Ang^3
#
#
#
# Elastic Constant Matrix: (Units=GPa)
#
#
# Indices 1 2 3 4 5 6 
#
# 1 74.1643 2.4674 -9.5111 0.0000 0.0000 0.0000
# 2 2.4674 30.9991 1.4577 0.0000 0.0000 0.0000
# 3 -9.5111 1.4577 69.2338 0.0000 0.0000 0.0000
# 4 0.0000 0.0000 0.0000 22.8437 0.0000 0.0000
# 5 0.0000 0.0000 0.0000 0.0000 4.4419 0.0000
# 6 0.0000 0.0000 0.0000 0.0000 0.0000 12.7300
#
#
#
# Elastic Compliance Matrix: (Units=1/GPa)
#
#
# Indices 1 2 3 4 5 6 
#
# 1 0.013769 -0.001186 0.001916 0.000000 0.000000 0.000000
# 2 -0.001186 0.032393 -0.000845 0.000000 0.000000 0.000000
# 3 0.001916 -0.000845 0.014725 0.000000 0.000000 0.000000
# 4 0.000000 0.000000 0.000000 0.043776 0.000000 0.000000
# 5 0.000000 0.000000 0.000000 0.000000 0.225128 0.000000
# 6 0.000000 0.000000 0.000000 0.000000 0.000000 0.078555
#
#
# Mechanical properties :
#
#
# Convention : Reuss Voigt Hill
#
# Bulk Modulus (GPa) = 16.48594 18.13614 17.31104
# Shear Modulus (GPa) = 11.66062 20.00199 15.83131
#
# Velocity S-wave (km/s) = 2.39895 3.14194 2.79524
# Velocity P-wave (km/s) = 3.97615 4.70248 4.35448
#
# Compressibility (1/GPa) = 0.06065774
#
# Stress axis : x y z
#
# Youngs Moduli (GPa) = 72.62793 30.87071 67.91222
#
# Poissons Ratio (x) = 0.03661 -0.13015
# Poissons Ratio (y) = 0.08614 0.05738
# Poissons Ratio (z) = -0.13919 0.02609
#
# Static dielectric constant tensor:
#      x y z
#    x 1.753140 0.000000 0.000000 
#    y 0.000000 1.698940 0.000000 
#    z 0.000000 0.000000 1.763430 
# 
# From -- ./inp_files/4937.got.cif
#   From: 2010.05.17/outbox.cif.g08.bks.cpg/sg36_3_cif.got.tgz:4937.got - 2010.06.03 17:41:39.
