data_PCOD9351661
_publ_section_title
;
Structure prediction by ZEFSAII (Michael W. Deem and Ramdas Pophale) SiO2 
 PCOD9351661
Probable space group: C M C 21
;
_chemical_formula_sum "Si O2"
_cell_formula_units_Z 64
_cell_length_a 22.646293
_cell_length_b 8.379514
_cell_length_c 16.892101
_cell_angle_alpha 90.000000
_cell_angle_beta 90.000000
_cell_angle_gamma 90.000000
_cell_volume 3205.528351
_symmetry_space_group_name_H-M "C M C 21"
_symmetry_group_IT_number 36
_symmetry_cell_setting 'orthorhombic'
loop_
_space_group_symop_operation_xyz
x,y,z
-x,-y,1/2+z
x,-y,1/2+z
-x,y,z
1/2+x,1/2+y,z
1/2-x,1/2-y,1/2+z
1/2+x,1/2-y,1/2+z
1/2-x,1/2+y,z
loop_
_atom_site_type_symbol
_atom_site_label
_atom_site_fract_x
_atom_site_fract_y
_atom_site_fract_z
Si Si1 0.433388 0.272042 0.115120
Si Si2 0.753653 0.908592 0.616571
Si Si3 0.281719 0.853268 0.384127
Si Si4 0.666064 0.814603 0.843725
Si Si5 0.817512 0.144811 0.533907
Si Si6 0.361898 0.996878 0.180790
Si Si7 0.350005 0.677903 0.245487
Si Si8 0.067615 0.101116 0.796617
O O1 0.500000 0.276547 0.084819
O O2 0.385636 0.357802 0.059290
O O3 0.433237 0.342909 0.204210
O O4 0.408399 0.094161 0.128973
O O5 0.787816 0.971517 0.538890
O O6 0.699295 0.026024 0.635080
O O7 0.716918 0.747661 0.601163
O O8 0.803456 0.901622 0.684470
O O9 0.212908 0.826370 0.362124
O O10 0.303728 0.744279 0.456193
O O11 0.311427 0.773369 0.307981
O O12 0.307661 0.032869 0.391380
O O13 0.601912 0.731660 0.850348
O O14 0.659192 0.892314 0.755387
O O15 0.385072 0.822596 0.203563
O O16 0.392493 0.556119 0.289865
O O17 0.000000 0.076872 0.821347
#
# Coordination Sequence:
#
# PCOD9351661 Si02
#       8
#     8   8   8   8   8   8   8   8
#     4   9  19  36  56  78 112 153 193 234 286 343
#     4  11  19  33  53  82 116 147 193 237 297 336
#     4  11  22  35  57  88 120 150 193 239 306 351
#     4  10  20  35  55  82 115 147 184 237 290 345
#     4  11  22  35  55  86 117 154 188 245 289 351
#     4   9  19  31  55  84 108 144 191 238 285 337
#     4  11  20  34  58  86 113 151 191 245 290 349
#     4  10  21  37  59  86 113 150 197 241 285 340
#
# _framework density 19.965508
#
# number of rings (size 3 to 8) (size 9 to 14) (size 15 to 20)
#    0.000    1.750    3.750    1.500    1.750    0.500 
#    0.000    3.125    0.000    0.000    0.000    0.000 
#    0.000    0.000    0.000    0.000    0.000    0.000 
#
# Total GULP energy -178219.165314 kJ/mol
# GULP energy per Si atom -5569.348916 kJ/mol
# Density = 1.992007 g / cm^3
# Si number density = 19.965508 Si / 1000 Ang^3
#
#
#
# Elastic Constant Matrix: (Units=GPa)
#
#
# Indices 1 2 3 4 5 6 
#
# 1 123.8371 25.2746 3.7048 0.0000 0.0000 0.0000
# 2 25.2746 58.0331 -5.4831 0.0000 0.0000 0.0000
# 3 3.7048 -5.4831 13.0250 0.0000 0.0000 0.0000
# 4 0.0000 0.0000 0.0000 20.9286 0.0000 0.0000
# 5 0.0000 0.0000 0.0000 0.0000 13.4864 0.0000
# 6 0.0000 0.0000 0.0000 0.0000 0.0000 21.0603
#
#
#
# Elastic Compliance Matrix: (Units=1/GPa)
#
#
# Indices 1 2 3 4 5 6 
#
# 1 0.009102 -0.004383 -0.004434 0.000000 0.000000 0.000000
# 2 -0.004383 0.020056 0.009690 0.000000 0.000000 0.000000
# 3 -0.004434 0.009690 0.082115 0.000000 0.000000 0.000000
# 4 0.000000 0.000000 0.000000 0.047782 0.000000 0.000000
# 5 0.000000 0.000000 0.000000 0.000000 0.074149 0.000000
# 6 0.000000 0.000000 0.000000 0.000000 0.000000 0.047483
#
#
# Mechanical properties :
#
#
# Convention : Reuss Voigt Hill
#
# Bulk Modulus (GPa) = 8.84814 26.87643 17.86228
# Shear Modulus (GPa) = 15.79206 22.52167 19.15686
#
# Velocity S-wave (km/s) = 2.81546 3.36226 3.10094
# Velocity P-wave (km/s) = 3.87433 5.34450 4.66766
#
# Compressibility (1/GPa) = 0.11301814
#
# Stress axis : x y z
#
# Youngs Moduli (GPa) = 109.86140 49.86037 12.17798
#
# Poissons Ratio (x) = 0.21855 0.05400
# Poissons Ratio (y) = 0.48155 -0.11800
# Poissons Ratio (z) = 0.48715 -0.48313
#
# Static dielectric constant tensor:
#      x y z
#    x 1.698760 0.000000 0.000000 
#    y 0.000000 1.859300 0.000000 
#    z 0.000000 0.000000 1.746190 
# 
# From -- ./inp_files/15034.got.cif
#   From: 2010.05.17/outbox.cif.g08.bks.cpg/sg36_8_cif.got.tgz:15034.got - 2010.06.03 17:41:39.
