data_PCOD9351796
_publ_section_title
;
Structure prediction by ZEFSAII (Michael W. Deem and Ramdas Pophale) SiO2 
 PCOD9351796
Probable space group: C M C 21
;
_chemical_formula_sum "Si O2"
_cell_formula_units_Z 56
_cell_length_a 25.454562
_cell_length_b 20.815048
_cell_length_c 5.358220
_cell_angle_alpha 90.000000
_cell_angle_beta 90.000000
_cell_angle_gamma 90.000000
_cell_volume 2838.988192
_symmetry_space_group_name_H-M "C M C 21"
_symmetry_group_IT_number 36
_symmetry_cell_setting 'orthorhombic'
loop_
_space_group_symop_operation_xyz
x,y,z
-x,-y,1/2+z
x,-y,1/2+z
-x,y,z
1/2+x,1/2+y,z
1/2-x,1/2-y,1/2+z
1/2+x,1/2-y,1/2+z
1/2-x,1/2+y,z
loop_
_atom_site_type_symbol
_atom_site_label
_atom_site_fract_x
_atom_site_fract_y
_atom_site_fract_z
Si Si1 0.386298 0.767860 0.229670
Si Si2 0.281733 0.960617 0.748571
Si Si3 0.109298 0.141132 0.508828
Si Si4 0.802290 0.329290 0.533824
Si Si5 0.809854 0.197552 0.835271
Si Si6 0.500000 0.341795 0.087921
Si Si7 0.000000 0.756727 0.582966
Si Si8 0.344228 0.462299 0.708608
O O1 0.397345 0.716814 0.450737
O O2 0.351689 0.824762 0.346697
O O3 0.443944 0.780029 0.113512
O O4 0.346534 0.729402 0.047336
O O5 0.306443 0.889911 0.716230
O O6 0.218442 0.952367 0.732658
O O7 0.295379 0.004351 0.507403
O O8 0.157593 0.142132 0.696767
O O9 0.053689 0.118744 0.610020
O O10 0.125634 0.103375 0.263437
O O11 0.798332 0.259565 0.663692
O O12 0.745624 0.333481 0.403971
O O13 0.500000 0.290902 0.314273
O O14 0.500000 0.309652 0.809068
O O15 0.358038 0.493909 0.447534
#
# Coordination Sequence:
#
# PCOD9351796 Si02
#       8
#     8   8   8   8   8   4   4   8
#     4  10  21  36  57  85 118 154 187 244 300 369
#     4  10  24  40  58  80 116 161 197 235 280 355
#     4  10  22  36  56  79 110 157 196 246 301 356
#     4  11  23  34  55  91 120 153 194 239 307 361
#     4  11  21  33  55  85 123 151 182 244 305 361
#     4  10  20  36  58  79 108 151 202 242 289 358
#     4  10  20  38  56  85 118 151 196 228 297 368
#     4  10  23  37  55  79 108 154 205 249 289 345
#
# _framework density 19.725338000000001
#
# number of rings (size 3 to 8) (size 9 to 14) (size 15 to 20)
#    0.000    1.714    2.857    0.857   12.000    0.000 
#    0.000    0.714    0.000    0.000    0.000    1.000 
#    0.000    0.000    0.000    0.000    0.000    0.000 
#
# Total GULP energy -156202.904973 kJ/mol
# GULP energy per Si atom -5578.675178 kJ/mol
# Density = 1.968044 g / cm^3
# Si number density = 19.725338 Si / 1000 Ang^3
#
#
#
# Elastic Constant Matrix: (Units=GPa)
#
#
# Indices 1 2 3 4 5 6 
#
# 1 97.6171 17.0926 30.2477 0.0000 0.0000 0.0000
# 2 17.0926 52.1072 26.9356 0.0000 0.0000 0.0000
# 3 30.2477 26.9356 83.7729 0.0000 0.0000 0.0000
# 4 0.0000 0.0000 0.0000 35.4077 0.0000 0.0000
# 5 0.0000 0.0000 0.0000 0.0000 22.9008 0.0000
# 6 0.0000 0.0000 0.0000 0.0000 0.0000 9.0744
#
#
#
# Elastic Compliance Matrix: (Units=1/GPa)
#
#
# Indices 1 2 3 4 5 6 
#
# 1 0.011703 -0.001984 -0.003588 0.000000 0.000000 0.000000
# 2 -0.001984 0.023353 -0.006792 0.000000 0.000000 0.000000
# 3 -0.003588 -0.006792 0.015416 0.000000 0.000000 0.000000
# 4 0.000000 0.000000 0.000000 0.028242 0.000000 0.000000
# 5 0.000000 0.000000 0.000000 0.000000 0.043667 0.000000
# 6 0.000000 0.000000 0.000000 0.000000 0.000000 0.110200
#
#
# Mechanical properties :
#
#
# Convention : Reuss Voigt Hill
#
# Bulk Modulus (GPa) = 38.84377 42.44991 40.64684
# Shear Modulus (GPa) = 18.80460 24.09133 21.44797
#
# Velocity S-wave (km/s) = 3.09094 3.49856 3.30105
# Velocity P-wave (km/s) = 5.69856 6.15525 5.93130
#
# Compressibility (1/GPa) = 0.02574415
#
# Stress axis : x y z
#
# Youngs Moduli (GPa) = 85.44638 42.82052 64.86627
#
# Poissons Ratio (x) = 0.08498 0.23271
# Poissons Ratio (y) = 0.16957 0.44059
# Poissons Ratio (z) = 0.30655 0.29085
#
# Static dielectric constant tensor:
#      x y z
#    x 1.798640 0.000000 0.000000 
#    y 0.000000 1.698770 0.000000 
#    z 0.000000 0.000000 1.772350 
# 
# From -- ./inp_files/1617.got.cif
#   From: 2010.05.17/outbox.cif.g08.bks.cpg/sg36_1_cif.got.tgz:1617.got - 2010.06.03 17:41:39.
