data_PCOD9351412
_publ_section_title
;
Structure prediction by ZEFSAII (Michael W. Deem and Ramdas Pophale) SiO2 
 PCOD9351412
Probable space group: C M C 21
;
_chemical_formula_sum "Si O2"
_cell_formula_units_Z 36
_cell_length_a 24.124275
_cell_length_b 12.286561
_cell_length_c 5.377680
_cell_angle_alpha 90.000000
_cell_angle_beta 90.000000
_cell_angle_gamma 90.000000
_cell_volume 1593.967887
_symmetry_space_group_name_H-M "C M C 21"
_symmetry_group_IT_number 36
_symmetry_cell_setting 'orthorhombic'
loop_
_space_group_symop_operation_xyz
x,y,z
-x,-y,1/2+z
x,-y,1/2+z
-x,y,z
1/2+x,1/2+y,z
1/2-x,1/2-y,1/2+z
1/2+x,1/2-y,1/2+z
1/2-x,1/2+y,z
loop_
_atom_site_type_symbol
_atom_site_label
_atom_site_fract_x
_atom_site_fract_y
_atom_site_fract_z
Si Si1 0.434484 0.877989 0.498170
Si Si2 0.622680 0.429009 0.529557
Si Si3 0.785379 0.256848 0.955240
Si Si4 0.000000 0.063851 0.942413
Si Si5 0.111592 0.375362 0.999549
O O1 0.500000 0.881388 0.460929
O O2 0.418289 0.826330 0.759028
O O3 0.411204 0.001394 0.516289
O O4 0.404705 0.825128 0.263878
O O5 0.628443 0.485431 0.799939
O O6 0.669483 0.338648 0.490398
O O7 0.559446 0.385653 0.505401
O O8 0.754927 0.245259 0.692175
O O9 0.823038 0.365743 0.959809
O O10 0.000000 0.035253 0.648048
#
# Coordination Sequence:
#
# PCOD9351412 Si02
#       5
#     8   8   8   4   8
#     4  10  19  38  64  96 130 157 196 246 313 406
#     4  10  21  43  67  94 119 166 207 257 325 374
#     4  12  26  45  61  92 133 164 219 269 293 364
#     4   8  16  34  64  88 120 144 202 262 308 374
#     4  10  20  37  59  86 127 163 202 248 306 350
#
# _framework density 22.585146000000002
#
# number of rings (size 3 to 8) (size 9 to 14) (size 15 to 20)
#    0.000    1.778    0.000    6.000    0.000    0.000 
#   30.000    0.000    4.889    0.000    0.000    0.000 
#    0.000    0.000    0.000    0.000    0.000    0.000 
#
# Total GULP energy -100510.109551 kJ/mol
# GULP energy per Si atom -5583.894975 kJ/mol
# Density = 2.253374 g / cm^3
# Si number density = 22.585146 Si / 1000 Ang^3
#
#
#
# Elastic Constant Matrix: (Units=GPa)
#
#
# Indices 1 2 3 4 5 6 
#
# 1 94.1714 14.3680 -23.8232 0.0000 0.0000 0.0000
# 2 14.3680 31.4802 6.2294 0.0000 0.0000 0.0000
# 3 -23.8232 6.2294 114.1486 0.0000 0.0000 0.0000
# 4 0.0000 0.0000 0.0000 24.7590 0.0000 0.0000
# 5 0.0000 0.0000 0.0000 0.0000 55.6837 0.0000
# 6 0.0000 0.0000 0.0000 0.0000 0.0000 30.9443
#
#
#
# Elastic Compliance Matrix: (Units=1/GPa)
#
#
# Indices 1 2 3 4 5 6 
#
# 1 0.012298 -0.006188 0.002904 0.000000 0.000000 0.000000
# 2 -0.006188 0.035226 -0.003214 0.000000 0.000000 0.000000
# 3 0.002904 -0.003214 0.009542 0.000000 0.000000 0.000000
# 4 0.000000 0.000000 0.000000 0.040389 0.000000 0.000000
# 5 0.000000 0.000000 0.000000 0.000000 0.017959 0.000000
# 6 0.000000 0.000000 0.000000 0.000000 0.000000 0.032316
#
#
# Mechanical properties :
#
#
# Convention : Reuss Voigt Hill
#
# Bulk Modulus (GPa) = 22.69033 25.92762 24.30898
# Shear Modulus (GPa) = 28.50394 38.47913 33.49154
#
# Velocity S-wave (km/s) = 3.55641 4.13211 3.85502
# Velocity P-wave (km/s) = 5.18965 5.85412 5.53187
#
# Compressibility (1/GPa) = 0.04407164
#
# Stress axis : x y z
#
# Youngs Moduli (GPa) = 81.31606 28.38814 104.79959
#
# Poissons Ratio (x) = 0.17565 -0.30436
# Poissons Ratio (y) = 0.50314 0.33680
# Poissons Ratio (z) = -0.23616 0.09123
#
# Static dielectric constant tensor:
#      x y z
#    x 1.779060 0.000000 0.000000 
#    y 0.000000 1.846950 0.000000 
#    z 0.000000 0.000000 1.895920 
# 
# From -- ./inp_files/1286.got.cif
#   From: 2010.05.17/outbox.cif.g08.bks.cpg/sg36_1_cif.got.tgz:1286.got - 2010.06.03 17:41:39.
