data_PCOD9351163
_publ_section_title
;
Structure prediction by ZEFSAII (Michael W. Deem and Ramdas Pophale) SiO2 
 PCOD9351163
Probable space group: C M C 21
;
_chemical_formula_sum "Si O2"
_cell_formula_units_Z 64
_cell_length_a 8.455335
_cell_length_b 17.179604
_cell_length_c 21.058231
_cell_angle_alpha 90.000000
_cell_angle_beta 90.000000
_cell_angle_gamma 90.000000
_cell_volume 3058.904041
_symmetry_space_group_name_H-M "C M C 21"
_symmetry_group_IT_number 36
_symmetry_cell_setting 'orthorhombic'
loop_
_space_group_symop_operation_xyz
x,y,z
-x,-y,1/2+z
x,-y,1/2+z
-x,y,z
1/2+x,1/2+y,z
1/2-x,1/2-y,1/2+z
1/2+x,1/2-y,1/2+z
1/2-x,1/2+y,z
loop_
_atom_site_type_symbol
_atom_site_label
_atom_site_fract_x
_atom_site_fract_y
_atom_site_fract_z
Si Si1 0.175137 0.368614 0.670510
Si Si2 0.687315 0.735564 0.830280
Si Si3 0.680748 0.406961 0.795343
Si Si4 0.680459 0.034681 0.039798
Si Si5 0.178754 0.747124 0.593174
Si Si6 0.691406 0.574281 0.766011
Si Si7 0.181321 0.908104 0.118990
Si Si8 0.810237 0.681059 0.965015
O O1 0.304420 0.397755 0.719224
O O2 0.174469 0.412080 0.603381
O O3 0.216816 0.281573 0.650331
O O4 0.000000 0.375782 0.699132
O O5 0.500000 0.738155 0.820369
O O6 0.747687 0.824071 0.818250
O O7 0.748110 0.659956 0.789463
O O8 0.729915 0.711868 0.901949
O O9 0.500000 0.408075 0.817162
O O10 0.748591 0.495721 0.803373
O O11 0.500000 0.006394 0.029180
O O12 0.801416 0.970266 0.062700
O O13 0.727243 0.091087 0.982359
O O14 0.192113 0.656225 0.600893
O O15 0.250681 0.771053 0.525805
O O16 0.000000 0.776883 0.597984
O O17 0.500000 0.573795 0.773073
O O18 0.723000 0.565125 0.690569
O O19 0.000000 0.879556 0.120661
O O20 0.000000 0.687229 0.960456
#
# Coordination Sequence:
#
# PCOD9351163 Si02
#       8
#     8   8   8   8   8   8   8   8
#     4  10  19  34  56  85 119 154 192 244 303 361
#     4  11  23  42  64  89 122 167 213 263 315 372
#     4  11  21  38  62  90 122 165 209 256 308 372
#     4   9  19  35  57  83 117 153 191 245 305 359
#     4  11  22  36  58  88 119 156 200 249 306 373
#     4   9  21  39  61  91 128 164 205 250 307 375
#     4  11  20  35  59  90 125 159 198 249 308 369
#     4  10  22  43  63  84 116 158 206 258 308 367
#
# _framework density 20.922525
#
# number of rings (size 3 to 8) (size 9 to 14) (size 15 to 20)
#    0.000    1.750    1.250    4.500    0.000    3.500 
#    2.250    4.375    0.000    0.000    0.000    0.000 
#    0.000    0.000    0.000    0.000    0.000    0.000 
#
# Total GULP energy -178273.599462 kJ/mol
# GULP energy per Si atom -5571.049983 kJ/mol
# Density = 2.087490 g / cm^3
# Si number density = 20.922525 Si / 1000 Ang^3
#
#
#
# Elastic Constant Matrix: (Units=GPa)
#
#
# Indices 1 2 3 4 5 6 
#
# 1 27.5912 14.5137 -13.2187 0.0000 0.0000 0.0000
# 2 14.5137 97.9458 9.1282 0.0000 0.0000 0.0000
# 3 -13.2187 9.1282 32.7792 0.0000 0.0000 0.0000
# 4 0.0000 0.0000 0.0000 22.1179 0.0000 0.0000
# 5 0.0000 0.0000 0.0000 0.0000 23.2724 0.0000
# 6 0.0000 0.0000 0.0000 0.0000 0.0000 25.4094
#
#
#
# Elastic Compliance Matrix: (Units=1/GPa)
#
#
# Indices 1 2 3 4 5 6 
#
# 1 0.053218 -0.010149 0.024287 0.000000 0.000000 0.000000
# 2 -0.010149 0.012417 -0.007551 0.000000 0.000000 0.000000
# 3 0.024287 -0.007551 0.042404 0.000000 0.000000 0.000000
# 4 0.000000 0.000000 0.000000 0.045212 0.000000 0.000000
# 5 0.000000 0.000000 0.000000 0.000000 0.042969 0.000000
# 6 0.000000 0.000000 0.000000 0.000000 0.000000 0.039356
#
#
# Mechanical properties :
#
#
# Convention : Reuss Voigt Hill
#
# Bulk Modulus (GPa) = 8.24987 19.90695 14.07841
# Shear Modulus (GPa) = 19.02534 24.01946 21.52240
#
# Velocity S-wave (km/s) = 3.01877 3.39192 3.21077
# Velocity P-wave (km/s) = 4.01276 4.98753 4.52646
#
# Compressibility (1/GPa) = 0.12121408
#
# Stress axis : x y z
#
# Youngs Moduli (GPa) = 18.79058 80.53227 23.58258
#
# Poissons Ratio (x) = 0.81736 -0.57276
# Poissons Ratio (y) = 0.19071 0.17807
# Poissons Ratio (z) = -0.45637 0.60809
#
# Static dielectric constant tensor:
#      x y z
#    x 1.731980 0.000000 0.000000 
#    y 0.000000 1.860040 0.000000 
#    z 0.000000 0.000000 1.717680 
# 
# From -- ./inp_files/15710.got.cif
#   From: 2010.05.17/outbox.cif.g08.bks.cpg/sg36_8_cif.got.tgz:15710.got - 2010.06.03 17:41:39.
