data_PCOD9351825
_publ_section_title
;
Structure prediction by ZEFSAII (Michael W. Deem and Ramdas Pophale) SiO2 
 PCOD9351825
Probable space group: C M C 21
;
_chemical_formula_sum "Si O2"
_cell_formula_units_Z 64
_cell_length_a 8.129827
_cell_length_b 25.827065
_cell_length_c 15.037919
_cell_angle_alpha 90.000000
_cell_angle_beta 90.000000
_cell_angle_gamma 90.000000
_cell_volume 3157.505392
_symmetry_space_group_name_H-M "C M C 21"
_symmetry_group_IT_number 36
_symmetry_cell_setting 'orthorhombic'
loop_
_space_group_symop_operation_xyz
x,y,z
-x,-y,1/2+z
x,-y,1/2+z
-x,y,z
1/2+x,1/2+y,z
1/2-x,1/2-y,1/2+z
1/2+x,1/2-y,1/2+z
1/2-x,1/2+y,z
loop_
_atom_site_type_symbol
_atom_site_label
_atom_site_fract_x
_atom_site_fract_y
_atom_site_fract_z
Si Si1 0.698093 0.387249 0.267800
Si Si2 0.304028 0.309201 0.915447
Si Si3 0.693245 0.999998 0.551331
Si Si4 0.303055 0.887891 0.563096
Si Si5 0.199897 0.999999 0.755627
Si Si6 0.304028 0.309190 0.415437
Si Si7 0.696943 0.112103 0.563113
Si Si8 0.301905 0.612755 0.267786
O O1 0.500000 0.385613 0.270082
O O2 0.747628 0.445337 0.298669
O O3 0.762967 0.342505 0.331970
O O4 0.749482 0.381459 0.165344
O O5 0.500000 0.309687 0.910324
O O6 0.250035 0.250002 0.915430
O O7 0.237041 0.342505 0.831967
O O8 0.253280 0.340550 0.003078
O O9 0.500000 0.999996 0.528538
O O10 0.763442 0.943557 0.526242
O O11 0.717006 0.999999 0.658486
O O12 0.763442 0.056440 0.526244
O O13 0.500000 0.890689 0.561573
O O14 0.246649 0.840547 0.503073
O O15 0.249532 0.881457 0.665337
O O16 0.247611 0.945333 0.798666
O O17 0.000000 0.000002 0.744493
O O18 0.500000 0.309650 0.410287
O O19 0.500000 0.109293 0.561624
O O20 0.500000 0.614394 0.270040
#
# Coordination Sequence:
#
# PCOD9351825 Si02
#       8
#     8   8   8   8   8   8   8   8
#     4   9  19  36  58  83 111 144 182 226 277 330
#     4  11  24  40  57  79 109 146 191 236 276 325
#     4   8  16  31  52  82 115 145 177 215 267 329
#     4  10  20  36  59  85 115 148 182 224 274 328
#     4   8  14  29  54  82 109 137 175 223 273 327
#     4  11  24  40  57  79 109 146 191 236 276 325
#     4  10  20  36  59  85 115 148 182 224 274 328
#     4   9  19  36  58  83 111 144 182 226 277 330
#
# _framework density 20.269165999999998
#
# number of rings (size 3 to 8) (size 9 to 14) (size 15 to 20)
#    0.000    2.500    0.000    1.500    0.000    5.000 
#    0.000    3.750    0.000    4.500    0.000    0.000 
#    0.000    0.000    0.000    0.000    0.000    0.000 
#
# Total GULP energy -178471.563431 kJ/mol
# GULP energy per Si atom -5577.236357 kJ/mol
# Density = 2.022303 g / cm^3
# Si number density = 20.269166 Si / 1000 Ang^3
#
#
#
# Elastic Constant Matrix: (Units=GPa)
#
#
# Indices 1 2 3 4 5 6 
#
# 1 24.2424 25.1464 6.2039 0.0000 0.0000 0.0000
# 2 25.1464 239.5479 97.8290 0.0000 0.0000 0.0000
# 3 6.2039 97.8290 103.3473 0.0000 0.0000 0.0000
# 4 0.0000 0.0000 0.0000 35.3928 0.0000 0.0000
# 5 0.0000 0.0000 0.0000 0.0000 5.0992 0.0000
# 6 0.0000 0.0000 0.0000 0.0000 0.0000 -48.2197
#
#
#
# Elastic Compliance Matrix: (Units=1/GPa)
#
#
# Indices 1 2 3 4 5 6 
#
# 1 0.046856 -0.006146 0.003005 0.000000 0.000000 0.000000
# 2 -0.006146 0.007612 -0.006836 0.000000 0.000000 0.000000
# 3 0.003005 -0.006836 0.015967 0.000000 0.000000 0.000000
# 4 0.000000 0.000000 0.000000 0.028254 0.000000 0.000000
# 5 0.000000 0.000000 0.000000 0.000000 0.196110 0.000000
# 6 0.000000 0.000000 0.000000 0.000000 0.000000 -0.020738
#
#
# Mechanical properties :
#
#
# Convention : Reuss Voigt Hill
#
# Bulk Modulus (GPa) = 19.80969 69.49957 44.65463
# Shear Modulus (GPa) = 16.08538 14.31835 15.20187
#
# Velocity S-wave (km/s) = 2.82013 2.66072 2.74158
# Velocity P-wave (km/s) = 4.51649 6.61831 5.66572
#
# Compressibility (1/GPa) = 0.05048034
#
# Stress axis : x y z
#
# Youngs Moduli (GPa) = 21.34194 131.37998 62.62973
#
# Poissons Ratio (x) = 0.80745 -0.18820
# Poissons Ratio (y) = 0.13117 0.42815
# Poissons Ratio (z) = -0.06413 0.89813
#
# Static dielectric constant tensor:
#      x y z
#    x 1.719980 0.000000 0.000000 
#    y 0.000000 1.783390 0.000000 
#    z 0.000000 0.000000 1.712640 
# 
# From -- ./inp_files/11086.got.cif
#   From: 2010.05.17/outbox.cif.g08.bks.cpg/sg36_6_cif.got.tgz:11086.got - 2010.06.03 17:41:39.
