data_PCOD9351598
_publ_section_title
;
Structure prediction by ZEFSAII (Michael W. Deem and Ramdas Pophale) SiO2 
 PCOD9351598
Probable space group: C M C 21
;
_chemical_formula_sum "Si O2"
_cell_formula_units_Z 64
_cell_length_a 7.684312
_cell_length_b 21.682499
_cell_length_c 14.541531
_cell_angle_alpha 90.000000
_cell_angle_beta 90.000000
_cell_angle_gamma 90.000000
_cell_volume 2422.838456
_symmetry_space_group_name_H-M "C M C 21"
_symmetry_group_IT_number 36
_symmetry_cell_setting 'orthorhombic'
loop_
_space_group_symop_operation_xyz
x,y,z
-x,-y,1/2+z
x,-y,1/2+z
-x,y,z
1/2+x,1/2+y,z
1/2-x,1/2-y,1/2+z
1/2+x,1/2-y,1/2+z
1/2-x,1/2+y,z
loop_
_atom_site_type_symbol
_atom_site_label
_atom_site_fract_x
_atom_site_fract_y
_atom_site_fract_z
Si Si1 0.206104 0.176137 0.390390
Si Si2 0.291971 0.965609 0.543737
Si Si3 0.289953 0.218221 0.672111
Si Si4 0.701859 0.985297 0.336840
Si Si5 0.701472 0.293479 0.510045
Si Si6 0.698922 0.603295 0.221477
Si Si7 0.789450 0.599974 0.559377
Si Si8 0.706952 0.355173 0.337427
O O1 0.294989 0.230162 0.449516
O O2 0.277866 0.154369 0.291155
O O3 0.228259 0.116534 0.456635
O O4 0.000000 0.191001 0.384256
O O5 0.500000 0.965919 0.535878
O O6 0.223589 0.971513 0.439114
O O7 0.252092 0.912440 0.617232
O O8 0.235013 0.031473 0.586386
O O9 0.500000 0.220778 0.666941
O O10 0.223935 0.274047 0.608653
O O11 0.225389 0.155783 0.622235
O O12 0.242941 0.205327 0.776524
O O13 0.500000 0.003756 0.344305
O O14 0.710645 0.916449 0.294858
O O15 0.787244 0.038545 0.277004
O O16 0.500000 0.310992 0.521990
O O17 0.782295 0.342090 0.439433
O O18 0.500000 0.622302 0.215857
O O19 0.000000 0.601860 0.560096
O O20 0.500000 0.363363 0.341491
#
# Coordination Sequence:
#
# PCOD9351598 Si02
#       8
#     8   8   8   8   8   8   8   8
#     4  10  20  34  56  85 112 142 186 238 290 339
#     4  10  21  36  57  85 117 158 200 236 285 351
#     4   9  18  35  61  88 113 150 197 242 292 348
#     4  11  23  40  62  88 120 161 202 241 291 353
#     4   9  21  41  62  83 113 154 195 240 295 350
#     4  11  23  37  57  88 122 156 193 240 298 353
#     4   9  17  33  56  81 111 148 190 236 282 334
#     4  11  23  40  61  88 120 155 195 245 301 350
#
# _framework density 26.415298
#
# number of rings (size 3 to 8) (size 9 to 14) (size 15 to 20)
#    0.000    2.000    1.250    3.000    0.000    7.000 
#    2.250    0.000    0.000    0.000    0.000    0.000 
#    0.000    0.000    0.000    0.000    0.000    0.000 
#
# Total GULP energy -178935.093072 kJ/mol
# GULP energy per Si atom -5591.721659 kJ/mol
# Density = 2.635518 g / cm^3
# Si number density = 26.415298 Si / 1000 Ang^3
#
#
#
# Elastic Constant Matrix: (Units=GPa)
#
#
# Indices 1 2 3 4 5 6 
#
# 1 62.2467 -9.6533 -4.6470 0.0000 0.0000 0.0000
# 2 -9.6533 106.6316 21.0422 0.0000 0.0000 0.0000
# 3 -4.6470 21.0422 167.7597 0.0000 0.0000 0.0000
# 4 0.0000 0.0000 0.0000 54.2647 0.0000 0.0000
# 5 0.0000 0.0000 0.0000 0.0000 28.3583 0.0000
# 6 0.0000 0.0000 0.0000 0.0000 0.0000 5.8850
#
#
#
# Elastic Compliance Matrix: (Units=1/GPa)
#
#
# Indices 1 2 3 4 5 6 
#
# 1 0.016306 0.001422 0.000273 0.000000 0.000000 0.000000
# 2 0.001422 0.009740 -0.001182 0.000000 0.000000 0.000000
# 3 0.000273 -0.001182 0.006117 0.000000 0.000000 0.000000
# 4 0.000000 0.000000 0.000000 0.018428 0.000000 0.000000
# 5 0.000000 0.000000 0.000000 0.000000 0.035263 0.000000
# 6 0.000000 0.000000 0.000000 0.000000 0.000000 0.169923
#
#
# Mechanical properties :
#
#
# Convention : Reuss Voigt Hill
#
# Bulk Modulus (GPa) = 30.13006 38.90243 34.51625
# Shear Modulus (GPa) = 18.81013 39.69468 29.25240
#
# Velocity S-wave (km/s) = 2.67140 3.88069 3.33138
# Velocity P-wave (km/s) = 4.57671 5.90245 5.28134
#
# Compressibility (1/GPa) = 0.03318944
#
# Stress axis : x y z
#
# Youngs Moduli (GPa) = 61.32683 102.66785 163.48477
#
# Poissons Ratio (x) = -0.14602 -0.04468
# Poissons Ratio (y) = -0.08722 0.19329
# Poissons Ratio (z) = -0.01676 0.12139
#
# Static dielectric constant tensor:
#      x y z
#    x 1.961800 0.000000 0.000000 
#    y 0.000000 2.113830 0.000000 
#    z 0.000000 0.000000 2.161740 
# 
# From -- ./inp_files/10985.got.cif
#   From: 2010.05.17/outbox.cif.g08.bks.cpg/sg36_6_cif.got.tgz:10985.got - 2010.06.03 17:41:39.
