data_PCOD9351445
_publ_section_title
;
Structure prediction by ZEFSAII (Michael W. Deem and Ramdas Pophale) SiO2 
 PCOD9351445
Probable space group: C M C 21
;
_chemical_formula_sum "Si O2"
_cell_formula_units_Z 56
_cell_length_a 21.945572
_cell_length_b 17.715025
_cell_length_c 7.966091
_cell_angle_alpha 90.000000
_cell_angle_beta 90.000000
_cell_angle_gamma 90.000000
_cell_volume 3096.948175
_symmetry_space_group_name_H-M "C M C 21"
_symmetry_group_IT_number 36
_symmetry_cell_setting 'orthorhombic'
loop_
_space_group_symop_operation_xyz
x,y,z
-x,-y,1/2+z
x,-y,1/2+z
-x,y,z
1/2+x,1/2+y,z
1/2-x,1/2-y,1/2+z
1/2+x,1/2-y,1/2+z
1/2-x,1/2+y,z
loop_
_atom_site_type_symbol
_atom_site_label
_atom_site_fract_x
_atom_site_fract_y
_atom_site_fract_z
Si Si1 0.379248 0.194857 0.064850
Si Si2 0.874919 0.625799 0.438491
Si Si3 0.500000 0.949152 0.878824
Si Si4 0.187725 0.827820 0.978581
Si Si5 0.254441 0.884436 0.478794
Si Si6 0.500000 0.886697 0.496709
Si Si7 0.746831 0.959624 0.845024
Si Si8 0.305965 0.250020 0.613997
O O1 0.377725 0.167251 0.257369
O O2 0.320355 0.155531 0.978686
O O3 0.439899 0.163495 0.980821
O O4 0.370526 0.285089 0.053397
O O5 0.938260 0.582500 0.463241
O O6 0.817898 0.567848 0.424370
O O7 0.859152 0.691740 0.570325
O O8 0.500000 0.919782 0.687387
O O9 0.500000 0.039393 0.882450
O O10 0.199546 0.915808 0.945540
O O11 0.192852 0.790240 0.792879
O O12 0.244302 0.798163 0.089588
O O13 0.252127 0.928168 0.656743
O O14 0.203624 0.819165 0.483112
O O15 0.248152 0.950760 0.346468
#
# Coordination Sequence:
#
# PCOD9351445 Si02
#       8
#     8   8   4   8   8   4   8   8
#     4   9  18  31  44  62  89 120 151 182 215 257
#     4   9  18  31  44  62  89 120 151 182 215 257
#     4  10  20  32  46  66  93 122 155 188 217 256
#     4   9  17  29  44  63  86 113 146 182 219 263
#     4   9  17  27  41  63  88 112 141 176 217 261
#     4  10  20  32  46  66  93 122 155 188 217 256
#     4   9  17  27  41  63  88 112 141 176 217 261
#     4   9  17  29  44  63  86 113 146 182 219 263
#
# _framework density 18.082317
#
# number of rings (size 3 to 8) (size 9 to 14) (size 15 to 20)
#    0.000    2.857    0.000    3.429    0.000    6.857 
#    0.000    0.000    0.000    0.000    0.000    1.000 
#    0.000    0.000    0.000    0.000    0.000    0.000 
#
# Total GULP energy -156068.602512 kJ/mol
# GULP energy per Si atom -5573.878661 kJ/mol
# Density = 1.804116 g / cm^3
# Si number density = 18.082317 Si / 1000 Ang^3
#
#
#
# Elastic Constant Matrix: (Units=GPa)
#
#
# Indices 1 2 3 4 5 6 
#
# 1 62.3386 24.6810 5.0119 0.0000 0.0000 0.0000
# 2 24.6810 58.4726 11.5850 0.0000 0.0000 0.0000
# 3 5.0119 11.5850 27.1426 0.0000 0.0000 0.0000
# 4 0.0000 0.0000 0.0000 28.6187 0.0000 0.0000
# 5 0.0000 0.0000 0.0000 0.0000 12.4161 0.0000
# 6 0.0000 0.0000 0.0000 0.0000 0.0000 24.6367
#
#
#
# Elastic Compliance Matrix: (Units=1/GPa)
#
#
# Indices 1 2 3 4 5 6 
#
# 1 0.019260 -0.008111 -0.000095 0.000000 0.000000 0.000000
# 2 -0.008111 0.022098 -0.007934 0.000000 0.000000 0.000000
# 3 -0.000095 -0.007934 0.040246 0.000000 0.000000 0.000000
# 4 0.000000 0.000000 0.000000 0.034942 0.000000 0.000000
# 5 0.000000 0.000000 0.000000 0.000000 0.080541 0.000000
# 6 0.000000 0.000000 0.000000 0.000000 0.000000 0.040590
#
#
# Mechanical properties :
#
#
# Convention : Reuss Voigt Hill
#
# Bulk Modulus (GPa) = 20.27358 25.61217 22.94287
# Shear Modulus (GPa) = 17.45827 20.24604 18.85215
#
# Velocity S-wave (km/s) = 3.11060 3.34976 3.23239
# Velocity P-wave (km/s) = 4.91297 5.39964 5.16205
#
# Compressibility (1/GPa) = 0.04932528
#
# Stress axis : x y z
#
# Youngs Moduli (GPa) = 51.92031 45.25393 24.84699
#
# Poissons Ratio (x) = 0.36705 0.00235
# Poissons Ratio (y) = 0.42112 0.19714
# Poissons Ratio (z) = 0.00491 0.35904
#
# Static dielectric constant tensor:
#      x y z
#    x 1.605510 0.000000 0.000000 
#    y 0.000000 1.659810 0.000000 
#    z 0.000000 0.000000 1.699320 
# 
# From -- ./inp_files/5304.got.cif
#   From: 2010.05.17/outbox.cif.g08.bks.cpg/sg36_3_cif.got.tgz:5304.got - 2010.06.03 17:41:39.
