data_PCOD9351273
_publ_section_title
;
Structure prediction by ZEFSAII (Michael W. Deem and Ramdas Pophale) SiO2 
 PCOD9351273
Probable space group: C M C 21
;
_chemical_formula_sum "Si O2"
_cell_formula_units_Z 64
_cell_length_a 7.882866
_cell_length_b 15.000046
_cell_length_c 23.153882
_cell_angle_alpha 90.000000
_cell_angle_beta 90.000000
_cell_angle_gamma 90.000000
_cell_volume 2737.792634
_symmetry_space_group_name_H-M "C M C 21"
_symmetry_group_IT_number 36
_symmetry_cell_setting 'orthorhombic'
loop_
_space_group_symop_operation_xyz
x,y,z
-x,-y,1/2+z
x,-y,1/2+z
-x,y,z
1/2+x,1/2+y,z
1/2-x,1/2-y,1/2+z
1/2+x,1/2-y,1/2+z
1/2-x,1/2+y,z
loop_
_atom_site_type_symbol
_atom_site_label
_atom_site_fract_x
_atom_site_fract_y
_atom_site_fract_z
Si Si1 0.295958 0.773340 0.433330
Si Si2 0.197389 0.471671 0.836110
Si Si3 0.291459 0.839126 0.307989
Si Si4 0.299433 0.888427 0.079186
Si Si5 0.195687 0.833759 0.753505
Si Si6 0.205376 0.954597 0.650755
Si Si7 0.702954 0.311857 0.557728
Si Si8 0.200145 0.070528 0.455365
O O1 0.500000 0.772192 0.432099
O O2 0.235932 0.808919 0.371990
O O3 0.242083 0.826037 0.490479
O O4 0.237039 0.671824 0.443726
O O5 0.261125 0.558757 0.802202
O O6 0.296186 0.384867 0.814667
O O7 0.215368 0.486632 0.904789
O O8 0.000000 0.457172 0.823599
O O9 0.500000 0.838525 0.307419
O O10 0.230844 0.764576 0.263002
O O11 0.500000 0.882466 0.072159
O O12 0.231482 0.786806 0.076356
O O13 0.262608 0.945714 0.136066
O O14 0.231177 0.941786 0.023161
O O15 0.268901 0.903593 0.707826
O O16 0.000000 0.820250 0.736381
O O17 0.265465 0.889694 0.599083
O O18 0.000000 0.957667 0.652056
O O19 0.500000 0.310218 0.564379
O O20 0.000000 0.064997 0.445435
#
# Coordination Sequence:
#
# PCOD9351273 Si02
#       8
#     8   8   8   8   8   8   8   8
#     4   9  17  33  57  82 111 149 186 224 278 342
#     4  11  22  35  57  89 118 146 189 241 291 337
#     4   9  19  36  57  82 111 149 190 228 284 344
#     4  10  21  37  58  86 119 149 185 237 292 337
#     4  10  21  42  62  78 111 156 196 233 278 343
#     4  10  22  39  61  84 110 151 198 235 277 341
#     4   9  20  37  55  83 115 147 187 233 282 333
#     4  10  19  35  59  84 117 155 191 229 280 345
#
# _framework density 23.376495999999999
#
# number of rings (size 3 to 8) (size 9 to 14) (size 15 to 20)
#    0.000    2.250    1.250    1.125    1.750    3.000 
#    0.000    4.375    0.000    0.000    0.000    0.000 
#    0.000    0.000    0.000    0.000    0.000    0.000 
#
# Total GULP energy -178724.279625 kJ/mol
# GULP energy per Si atom -5585.133738 kJ/mol
# Density = 2.332329 g / cm^3
# Si number density = 23.376496 Si / 1000 Ang^3
#
#
#
# Elastic Constant Matrix: (Units=GPa)
#
#
# Indices 1 2 3 4 5 6 
#
# 1 34.3501 -1.6289 -8.6681 0.0000 0.0000 0.0000
# 2 -1.6289 68.0098 -6.5344 0.0000 0.0000 0.0000
# 3 -8.6681 -6.5344 33.0906 0.0000 0.0000 0.0000
# 4 0.0000 0.0000 0.0000 30.3275 0.0000 0.0000
# 5 0.0000 0.0000 0.0000 0.0000 20.8010 0.0000
# 6 0.0000 0.0000 0.0000 0.0000 0.0000 10.7935
#
#
#
# Elastic Compliance Matrix: (Units=1/GPa)
#
#
# Indices 1 2 3 4 5 6 
#
# 1 0.031336 0.001569 0.008518 0.000000 0.000000 0.000000
# 2 0.001569 0.015067 0.003386 0.000000 0.000000 0.000000
# 3 0.008518 0.003386 0.033120 0.000000 0.000000 0.000000
# 4 0.000000 0.000000 0.000000 0.032973 0.000000 0.000000
# 5 0.000000 0.000000 0.000000 0.000000 0.048074 0.000000
# 6 0.000000 0.000000 0.000000 0.000000 0.000000 0.092648
#
#
# Mechanical properties :
#
#
# Convention : Reuss Voigt Hill
#
# Bulk Modulus (GPa) = 9.39236 11.30976 10.35106
# Shear Modulus (GPa) = 19.10134 22.53655 20.81894
#
# Velocity S-wave (km/s) = 2.86163 3.10831 2.98752
# Velocity P-wave (km/s) = 3.86589 4.21079 4.04202
#
# Compressibility (1/GPa) = 0.10646947
#
# Stress axis : x y z
#
# Youngs Moduli (GPa) = 31.91228 66.37159 30.19317
#
# Poissons Ratio (x) = -0.10413 -0.25719
# Poissons Ratio (y) = -0.05007 -0.10224
# Poissons Ratio (z) = -0.27184 -0.22475
#
# Static dielectric constant tensor:
#      x y z
#    x 1.834800 0.000000 0.000000 
#    y 0.000000 1.911300 0.000000 
#    z 0.000000 0.000000 1.902180 
# 
# From -- ./inp_files/16641.got.cif
#   From: 2010.05.17/outbox.cif.g08.bks.cpg/sg36_9_cif.got.tgz:16641.got - 2010.06.03 17:41:39.
