data_PCOD9351760
_publ_section_title
;
Structure prediction by ZEFSAII (Michael W. Deem and Ramdas Pophale) SiO2 
 PCOD9351760
Probable space group: C M C 21
;
_chemical_formula_sum "Si O2"
_cell_formula_units_Z 40
_cell_length_a 10.687541
_cell_length_b 24.116684
_cell_length_c 7.462274
_cell_angle_alpha 90.000000
_cell_angle_beta 90.000000
_cell_angle_gamma 90.000000
_cell_volume 1923.386565
_symmetry_space_group_name_H-M "C M C 21"
_symmetry_group_IT_number 36
_symmetry_cell_setting 'orthorhombic'
loop_
_space_group_symop_operation_xyz
x,y,z
-x,-y,1/2+z
x,-y,1/2+z
-x,y,z
1/2+x,1/2+y,z
1/2-x,1/2-y,1/2+z
1/2+x,1/2-y,1/2+z
1/2-x,1/2+y,z
loop_
_atom_site_type_symbol
_atom_site_label
_atom_site_fract_x
_atom_site_fract_y
_atom_site_fract_z
Si Si1 0.638286 0.320234 0.616950
Si Si2 0.268086 0.078018 0.209865
Si Si3 0.145549 0.281084 0.349300
Si Si4 0.852395 0.369195 0.061958
Si Si5 0.147603 0.536068 0.832293
O O1 0.500000 0.306802 0.540793
O O2 0.648924 0.386050 0.650692
O O3 0.753787 0.301893 0.492142
O O4 0.648315 0.283524 0.797699
O O5 0.325965 0.120013 0.355251
O O6 0.269764 0.019159 0.311420
O O7 0.340742 0.063793 0.026958
O O8 0.180909 0.312875 0.163915
O O9 0.000000 0.294989 0.397432
O O10 0.806135 0.419979 0.185334
O O11 0.000000 0.372614 0.079842
O O12 0.000000 0.521576 0.803455
#
# Coordination Sequence:
#
# PCOD9351760 Si02
#       5
#     8   8   8   8   8
#     4  11  25  44  66 100 140 176 222 275 337 411
#     4  12  22  37  62  90 136 177 213 275 339 389
#     4  10  22  42  68  98 133 174 226 277 331 402
#     4  10  20  35  61  97 130 165 220 281 333 383
#     4  11  21  34  59  97 130 168 228 282 327 383
#
# _framework density 20.796651000000001
#
# number of rings (size 3 to 8) (size 9 to 14) (size 15 to 20)
#    0.000    1.200    4.000    3.000    0.000    2.400 
#    0.000    2.000    0.000    0.000    0.000    0.000 
#    0.000    0.000    0.000    0.000    0.000    0.000 
#
# Total GULP energy -111421.842083 kJ/mol
# GULP energy per Si atom -5571.092104 kJ/mol
# Density = 2.074932 g / cm^3
# Si number density = 20.796651 Si / 1000 Ang^3
#
#
#
# Elastic Constant Matrix: (Units=GPa)
#
#
# Indices 1 2 3 4 5 6 
#
# 1 96.0623 42.0698 33.7660 0.0000 0.0000 0.0000
# 2 42.0698 103.9400 13.2638 0.0000 0.0000 0.0000
# 3 33.7660 13.2638 90.4454 0.0000 0.0000 0.0000
# 4 0.0000 0.0000 0.0000 32.4122 0.0000 0.0000
# 5 0.0000 0.0000 0.0000 0.0000 23.1846 0.0000
# 6 0.0000 0.0000 0.0000 0.0000 0.0000 22.4244
#
#
#
# Elastic Compliance Matrix: (Units=1/GPa)
#
#
# Indices 1 2 3 4 5 6 
#
# 1 0.014296 -0.005203 -0.004574 0.000000 0.000000 0.000000
# 2 -0.005203 0.011698 0.000227 0.000000 0.000000 0.000000
# 3 -0.004574 0.000227 0.012731 0.000000 0.000000 0.000000
# 4 0.000000 0.000000 0.000000 0.030853 0.000000 0.000000
# 5 0.000000 0.000000 0.000000 0.000000 0.043132 0.000000
# 6 0.000000 0.000000 0.000000 0.000000 0.000000 0.044594
#
#
# Mechanical properties :
#
#
# Convention : Reuss Voigt Hill
#
# Bulk Modulus (GPa) = 50.95629 52.07188 51.51409
# Shear Modulus (GPa) = 27.33055 29.02746 28.17901
#
# Velocity S-wave (km/s) = 3.62910 3.74006 3.68500
# Velocity P-wave (km/s) = 6.48967 6.61390 6.55208
#
# Compressibility (1/GPa) = 0.01962466
#
# Stress axis : x y z
#
# Youngs Moduli (GPa) = 69.94845 85.48633 78.54948
#
# Poissons Ratio (x) = 0.44476 0.35930
# Poissons Ratio (y) = 0.36392 -0.01782
# Poissons Ratio (z) = 0.31996 -0.01939
#
# Static dielectric constant tensor:
#      x y z
#    x 1.715680 0.000000 0.000000 
#    y 0.000000 1.836900 0.000000 
#    z 0.000000 0.000000 1.799870 
# 
# From -- ./inp_files/2426.got.cif
#   From: 2010.05.17/outbox.cif.g08.bks.cpg/sg36_2_cif.got.tgz:2426.got - 2010.06.03 17:41:39.
