data_PCOD9351481
_publ_section_title
;
Structure prediction by ZEFSAII (Michael W. Deem and Ramdas Pophale) SiO2 
 PCOD9351481
Probable space group: C M C 21
;
_chemical_formula_sum "Si O2"
_cell_formula_units_Z 64
_cell_length_a 8.844400
_cell_length_b 20.144152
_cell_length_c 20.922462
_cell_angle_alpha 90.000000
_cell_angle_beta 90.000000
_cell_angle_gamma 90.000000
_cell_volume 3727.607299
_symmetry_space_group_name_H-M "C M C 21"
_symmetry_group_IT_number 36
_symmetry_cell_setting 'orthorhombic'
loop_
_space_group_symop_operation_xyz
x,y,z
-x,-y,1/2+z
x,-y,1/2+z
-x,y,z
1/2+x,1/2+y,z
1/2-x,1/2-y,1/2+z
1/2+x,1/2-y,1/2+z
1/2-x,1/2+y,z
loop_
_atom_site_type_symbol
_atom_site_label
_atom_site_fract_x
_atom_site_fract_y
_atom_site_fract_z
Si Si1 0.181169 0.827463 0.377870
Si Si2 0.817335 0.177664 0.731708
Si Si3 0.817823 0.075653 0.621854
Si Si4 0.317716 0.577741 0.121269
Si Si5 0.680665 0.921730 0.484381
Si Si6 0.818537 0.822775 0.733876
Si Si7 0.817854 0.424333 0.985130
Si Si8 0.182309 0.673178 0.371471
O O1 0.222143 0.843289 0.304228
O O2 0.259276 0.874756 0.428672
O O3 0.220043 0.749762 0.387676
O O4 0.000000 0.833969 0.384299
O O5 0.770343 0.124274 0.678837
O O6 0.745304 0.249494 0.719793
O O7 0.000000 0.184492 0.729911
O O8 0.750651 0.095541 0.553375
O O9 0.000000 0.077776 0.618163
O O10 0.773637 0.998940 0.633918
O O11 0.500000 0.580024 0.116170
O O12 0.271704 0.625882 0.178729
O O13 0.248144 0.597639 0.053247
O O14 0.500000 0.918705 0.487156
O O15 0.725232 0.998850 0.472934
O O16 0.755620 0.842923 0.803289
O O17 0.000000 0.820652 0.736100
O O18 0.770127 0.376420 0.927618
O O19 0.000000 0.421330 0.989512
O O20 0.000000 0.669794 0.364755
#
# Coordination Sequence:
#
# PCOD9351481 Si02
#       8
#     8   8   8   8   8   8   8   8
#     4   9  18  33  52  72  98 133 165 197 243 295
#     4   9  19  35  53  74 101 132 164 200 247 297
#     4   9  18  34  54  74  98 130 168 205 240 288
#     4   9  19  35  52  72 100 132 165 202 245 292
#     4  10  20  33  51  75 101 129 164 206 246 289
#     4  10  20  33  52  77 101 127 164 207 245 288
#     4   9  19  35  52  73 101 131 164 203 249 294
#     4   9  19  36  54  71  98 134 166 200 245 295
#
# _framework density 17.16919
#
# number of rings (size 3 to 8) (size 9 to 14) (size 15 to 20)
#    0.000    2.750    0.000    1.500    0.000    6.500 
#    0.000    5.000    0.000    0.000    0.000    0.000 
#    0.000    0.000    0.000    0.000    0.000    0.000 
#
# Total GULP energy -178458.375120 kJ/mol
# GULP energy per Si atom -5576.824223 kJ/mol
# Density = 1.713011 g / cm^3
# Si number density = 17.169190 Si / 1000 Ang^3
#
#
#
# Elastic Constant Matrix: (Units=GPa)
#
#
# Indices 1 2 3 4 5 6 
#
# 1 16.1389 34.5513 45.8943 0.0000 0.0000 0.0000
# 2 34.5513 101.8586 127.2441 0.0000 0.0000 0.0000
# 3 45.8943 127.2441 192.2689 0.0000 0.0000 0.0000
# 4 0.0000 0.0000 0.0000 42.9904 0.0000 0.0000
# 5 0.0000 0.0000 0.0000 0.0000 30.4243 0.0000
# 6 0.0000 0.0000 0.0000 0.0000 0.0000 23.1794
#
#
#
# Elastic Compliance Matrix: (Units=1/GPa)
#
#
# Indices 1 2 3 4 5 6 
#
# 1 0.238395 -0.056441 -0.019551 0.000000 0.000000 0.000000
# 2 -0.056441 0.070026 -0.032871 0.000000 0.000000 0.000000
# 3 -0.019551 -0.032871 0.031622 0.000000 0.000000 0.000000
# 4 0.000000 0.000000 0.000000 0.023261 0.000000 0.000000
# 5 0.000000 0.000000 0.000000 0.000000 0.032868 0.000000
# 6 0.000000 0.000000 0.000000 0.000000 0.000000 0.043142
#
#
# Mechanical properties :
#
#
# Convention : Reuss Voigt Hill
#
# Bulk Modulus (GPa) = 8.17558 80.62731 44.40144
# Shear Modulus (GPa) = 7.16522 26.15726 16.66124
#
# Velocity S-wave (km/s) = 2.04508 3.90744 3.11853
# Velocity P-wave (km/s) = 3.21692 8.21096 6.23572
#
# Compressibility (1/GPa) = 0.12231547
#
# Stress axis : x y z
#
# Youngs Moduli (GPa) = 4.19472 14.28032 31.62332
#
# Poissons Ratio (x) = 0.80600 0.61828
# Poissons Ratio (y) = 0.23676 1.03950
# Poissons Ratio (z) = 0.08201 0.46941
#
# Static dielectric constant tensor:
#      x y z
#    x 1.577490 0.000000 0.000000 
#    y 0.000000 1.572000 0.000000 
#    z 0.000000 0.000000 1.555970 
# 
# From -- ./inp_files/13800.got.cif
#   From: 2010.05.17/outbox.cif.g08.bks.cpg/sg36_7_cif.got.tgz:13800.got - 2010.06.03 17:41:39.
