data_PCOD9351390
_publ_section_title
;
Structure prediction by ZEFSAII (Michael W. Deem and Ramdas Pophale) SiO2 
 PCOD9351390
Probable space group: C M C 21
;
_chemical_formula_sum "Si O2"
_cell_formula_units_Z 64
_cell_length_a 8.782077
_cell_length_b 31.365899
_cell_length_c 12.314493
_cell_angle_alpha 90.000000
_cell_angle_beta 90.000000
_cell_angle_gamma 90.000000
_cell_volume 3392.122413
_symmetry_space_group_name_H-M "C M C 21"
_symmetry_group_IT_number 36
_symmetry_cell_setting 'orthorhombic'
loop_
_space_group_symop_operation_xyz
x,y,z
-x,-y,1/2+z
x,-y,1/2+z
-x,y,z
1/2+x,1/2+y,z
1/2-x,1/2-y,1/2+z
1/2+x,1/2-y,1/2+z
1/2-x,1/2+y,z
loop_
_atom_site_type_symbol
_atom_site_label
_atom_site_fract_x
_atom_site_fract_y
_atom_site_fract_z
Si Si1 0.323248 0.825372 0.057350
Si Si2 0.678797 0.454712 0.272351
Si Si3 0.675069 0.073595 0.557964
Si Si4 0.317063 0.875107 0.403547
Si Si5 0.314282 0.123457 0.155861
Si Si6 0.181019 0.204645 0.773546
Si Si7 0.314593 0.801163 0.814587
Si Si8 0.683034 0.953128 0.813013
O O1 0.500000 0.811263 0.068189
O O2 0.320506 0.875890 0.076283
O O3 0.221992 0.803766 0.148451
O O4 0.272203 0.816629 0.934717
O O5 0.500000 0.452304 0.291180
O O6 0.717841 0.447858 0.145822
O O7 0.757786 0.416655 0.339779
O O8 0.742243 0.500908 0.302878
O O9 0.500000 0.059036 0.575975
O O10 0.714316 0.064742 0.433281
O O11 0.500000 0.875176 0.399368
O O12 0.267968 0.876363 0.530020
O O13 0.257694 0.832355 0.345075
O O14 0.500000 0.123640 0.157256
O O15 0.263211 0.165360 0.222772
O O16 0.266794 0.081235 0.222455
O O17 0.234788 0.252461 0.800217
O O18 0.000000 0.202310 0.790148
O O19 0.500000 0.801599 0.810234
O O20 0.500000 0.957499 0.803027
#
# Coordination Sequence:
#
# PCOD9351390 Si02
#       8
#     8   8   8   8   8   8   8   8
#     4  10  19  37  64  87 113 153 201 247 290 347
#     4  12  26  41  59  87 126 160 193 242 307 361
#     4  10  20  38  66  90 113 151 203 253 292 347
#     4  11  23  40  62  86 117 158 206 246 288 354
#     4   9  19  38  63  88 114 152 199 248 291 344
#     4  11  23  37  58  89 125 159 193 243 303 351
#     4   9  19  37  60  89 121 153 194 246 301 347
#     4  10  21  40  66  92 115 150 205 251 294 349
#
# _framework density 18.867242999999998
#
# number of rings (size 3 to 8) (size 9 to 14) (size 15 to 20)
#    0.000    1.750    2.500    1.875    3.500    0.500 
#    0.000    1.250    0.000    3.000    0.000    0.000 
#    0.000    0.000    0.000    0.000    0.000    0.000 
#
# Total GULP energy -178699.245456 kJ/mol
# GULP energy per Si atom -5584.351420 kJ/mol
# Density = 1.882430 g / cm^3
# Si number density = 18.867243 Si / 1000 Ang^3
#
#
#
# Elastic Constant Matrix: (Units=GPa)
#
#
# Indices 1 2 3 4 5 6 
#
# 1 37.0691 31.4528 29.3804 0.0000 0.0000 0.0000
# 2 31.4528 116.3719 37.4990 0.0000 0.0000 0.0000
# 3 29.3804 37.4990 97.5813 0.0000 0.0000 0.0000
# 4 0.0000 0.0000 0.0000 31.6676 0.0000 0.0000
# 5 0.0000 0.0000 0.0000 0.0000 10.4355 0.0000
# 6 0.0000 0.0000 0.0000 0.0000 0.0000 21.8630
#
#
#
# Elastic Compliance Matrix: (Units=1/GPa)
#
#
# Indices 1 2 3 4 5 6 
#
# 1 0.041261 -0.008159 -0.009288 0.000000 0.000000 0.000000
# 2 -0.008159 0.011421 -0.001932 0.000000 0.000000 0.000000
# 3 -0.009288 -0.001932 0.013787 0.000000 0.000000 0.000000
# 4 0.000000 0.000000 0.000000 0.031578 0.000000 0.000000
# 5 0.000000 0.000000 0.000000 0.000000 0.095827 0.000000
# 6 0.000000 0.000000 0.000000 0.000000 0.000000 0.045739
#
#
# Mechanical properties :
#
#
# Convention : Reuss Voigt Hill
#
# Bulk Modulus (GPa) = 36.08742 49.74296 42.91519
# Shear Modulus (GPa) = 17.38477 22.97255 20.17866
#
# Velocity S-wave (km/s) = 3.03879 3.49318 3.27388
# Velocity P-wave (km/s) = 5.61078 6.53389 6.08985
#
# Compressibility (1/GPa) = 0.02771049
#
# Stress axis : x y z
#
# Youngs Moduli (GPa) = 24.23607 87.55774 72.53309
#
# Poissons Ratio (x) = 0.71439 0.67366
# Poissons Ratio (y) = 0.19774 0.14016
# Poissons Ratio (z) = 0.22510 0.16919
#
# Static dielectric constant tensor:
#      x y z
#    x 1.643450 0.000000 0.000000 
#    y 0.000000 1.639380 0.000000 
#    z 0.000000 0.000000 1.641690 
# 
# From -- ./inp_files/7112.got.cif
#   From: 2010.05.17/outbox.cif.g08.bks.cpg/sg36_4_cif.got.tgz:7112.got - 2010.06.03 17:41:39.
