data_PCOD9351698
_publ_section_title
;
Structure prediction by ZEFSAII (Michael W. Deem and Ramdas Pophale) SiO2 
 PCOD9351698
Probable space group: C M C 21
;
_chemical_formula_sum "Si O2"
_cell_formula_units_Z 48
_cell_length_a 7.717503
_cell_length_b 29.061197
_cell_length_c 8.179925
_cell_angle_alpha 90.000000
_cell_angle_beta 90.000000
_cell_angle_gamma 90.000000
_cell_volume 1834.592557
_symmetry_space_group_name_H-M "C M C 21"
_symmetry_group_IT_number 36
_symmetry_cell_setting 'orthorhombic'
loop_
_space_group_symop_operation_xyz
x,y,z
-x,-y,1/2+z
x,-y,1/2+z
-x,y,z
1/2+x,1/2+y,z
1/2-x,1/2-y,1/2+z
1/2+x,1/2-y,1/2+z
1/2-x,1/2+y,z
loop_
_atom_site_type_symbol
_atom_site_label
_atom_site_fract_x
_atom_site_fract_y
_atom_site_fract_z
Si Si1 0.202507 0.096514 0.326660
Si Si2 0.802445 0.568728 0.783001
Si Si3 0.296421 0.482397 0.607518
Si Si4 0.703435 0.737304 0.819379
Si Si5 0.790047 0.649889 0.997731
Si Si6 0.202782 0.178984 0.519908
O O1 0.270207 0.047457 0.263236
O O2 0.219377 0.126996 0.161543
O O3 0.278898 0.129721 0.466393
O O4 0.000000 0.089905 0.364688
O O5 0.718898 0.536199 0.646955
O O6 0.000000 0.575326 0.736544
O O7 0.794333 0.538140 0.949310
O O8 0.729258 0.617376 0.845894
O O9 0.500000 0.472356 0.585221
O O10 0.500000 0.745756 0.788605
O O11 0.781237 0.708149 0.668748
O O12 0.728258 0.701364 0.967714
O O13 0.784843 0.785487 0.868781
O O14 0.000000 0.648553 0.003452
O O15 0.000000 0.171835 0.556465
#
# Coordination Sequence:
#
# PCOD9351698 Si02
#       6
#     8   8   8   8   8   8
#     4   9  19  37  59  82 110 144 181 224 273 324
#     4  10  21  37  56  81 114 150 186 228 280 333
#     4  10  20  35  57  84 112 147 190 232 276 328
#     4  11  23  37  56  82 110 142 180 224 273 324
#     4  10  21  37  57  81 110 145 184 225 271 325
#     4  10  22  39  57  80 110 142 179 223 271 326
#
# _framework density 26.163848000000002
#
# number of rings (size 3 to 8) (size 9 to 14) (size 15 to 20)
#    0.000    2.000    0.000    3.000    0.000    8.667 
#    0.000    1.667    0.000    0.000    0.000    0.000 
#    0.000    0.000    0.000    0.000    0.000    0.000 
#
# Total GULP energy -134294.771214 kJ/mol
# GULP energy per Si atom -5595.615467 kJ/mol
# Density = 2.610430 g / cm^3
# Si number density = 26.163848 Si / 1000 Ang^3
#
#
#
# Elastic Constant Matrix: (Units=GPa)
#
#
# Indices 1 2 3 4 5 6 
#
# 1 75.2047 4.3520 6.3211 0.0000 0.0000 0.0000
# 2 4.3520 153.5001 13.4613 0.0000 0.0000 0.0000
# 3 6.3211 13.4613 78.8654 0.0000 0.0000 0.0000
# 4 0.0000 0.0000 0.0000 53.9441 0.0000 0.0000
# 5 0.0000 0.0000 0.0000 0.0000 22.5380 0.0000
# 6 0.0000 0.0000 0.0000 0.0000 0.0000 20.3199
#
#
#
# Elastic Compliance Matrix: (Units=1/GPa)
#
#
# Indices 1 2 3 4 5 6 
#
# 1 0.013400 -0.000290 -0.001024 0.000000 0.000000 0.000000
# 2 -0.000290 0.006620 -0.001107 0.000000 0.000000 0.000000
# 3 -0.001024 -0.001107 0.012951 0.000000 0.000000 0.000000
# 4 0.000000 0.000000 0.000000 0.018538 0.000000 0.000000
# 5 0.000000 0.000000 0.000000 0.000000 0.044370 0.000000
# 6 0.000000 0.000000 0.000000 0.000000 0.000000 0.049213
#
#
# Mechanical properties :
#
#
# Convention : Reuss Voigt Hill
#
# Bulk Modulus (GPa) = 35.55152 39.53768 37.54460
# Shear Modulus (GPa) = 31.38546 38.25610 34.82078
#
# Velocity S-wave (km/s) = 3.46724 3.82799 3.65207
# Velocity P-wave (km/s) = 5.44487 5.88917 5.67137
#
# Compressibility (1/GPa) = 0.02812819
#
# Stress axis : x y z
#
# Youngs Moduli (GPa) = 74.62717 151.05899 77.21508
#
# Poissons Ratio (x) = 0.04382 0.07911
# Poissons Ratio (y) = 0.02165 0.08545
# Poissons Ratio (z) = 0.07646 0.16718
#
# Static dielectric constant tensor:
#      x y z
#    x 1.922300 0.000000 0.000000 
#    y 0.000000 2.021120 0.000000 
#    z 0.000000 0.000000 2.176890 
# 
# From -- ./inp_files/2634.got.cif
#   From: 2010.05.17/outbox.cif.g08.bks.cpg/sg36_2_cif.got.tgz:2634.got - 2010.06.03 17:41:39.
