data_PCOD9351411
_publ_section_title
;
Structure prediction by ZEFSAII (Michael W. Deem and Ramdas Pophale) SiO2 
 PCOD9351411
Probable space group: C M C 21
;
_chemical_formula_sum "Si O2"
_cell_formula_units_Z 48
_cell_length_a 22.903426
_cell_length_b 16.494540
_cell_length_c 5.362253
_cell_angle_alpha 90.000000
_cell_angle_beta 90.000000
_cell_angle_gamma 90.000000
_cell_volume 2025.759855
_symmetry_space_group_name_H-M "C M C 21"
_symmetry_group_IT_number 36
_symmetry_cell_setting 'orthorhombic'
loop_
_space_group_symop_operation_xyz
x,y,z
-x,-y,1/2+z
x,-y,1/2+z
-x,y,z
1/2+x,1/2+y,z
1/2-x,1/2-y,1/2+z
1/2+x,1/2-y,1/2+z
1/2-x,1/2+y,z
loop_
_atom_site_type_symbol
_atom_site_label
_atom_site_fract_x
_atom_site_fract_y
_atom_site_fract_z
Si Si1 0.227799 0.210020 0.505140
Si Si2 0.431015 0.950188 0.331195
Si Si3 0.637770 0.541997 0.992719
Si Si4 0.436710 0.695430 0.916939
Si Si5 0.232778 0.476142 0.010940
Si Si6 0.100491 0.725492 0.918971
O O1 0.263206 0.251060 0.277731
O O2 0.246601 0.116398 0.517193
O O3 0.161453 0.226436 0.427712
O O4 0.500000 0.925092 0.348628
O O5 0.393205 0.870239 0.384828
O O6 0.422871 0.014580 0.554089
O O7 0.617361 0.483082 0.768676
O O8 0.708025 0.531766 0.000973
O O9 0.614620 0.629399 0.919874
O O10 0.500000 0.653834 0.900232
O O11 0.432692 0.742903 0.175614
O O12 0.429729 0.753536 0.680258
O O13 0.200421 0.496542 0.757817
#
# Coordination Sequence:
#
# PCOD9351411 Si02
#       6
#     8   8   8   8   8   8
#     4  12  26  45  68  97 127 171 227 277 326 378
#     4  10  21  39  64  93 126 166 209 257 326 401
#     4  10  20  35  57  87 125 169 208 248 301 368
#     4  12  24  39  66 103 137 172 213 255 315 395
#     4  10  19  38  64  89 121 166 211 255 319 385
#     4  12  24  44  67  93 135 172 214 274 328 383
#
# _framework density 23.69481
#
# number of rings (size 3 to 8) (size 9 to 14) (size 15 to 20)
#    0.000    1.000    0.000    9.500    0.000    2.000 
#    0.000    5.000    0.000    0.000    0.000    0.000 
#    0.000    0.000    0.000    0.000    0.000    0.000 
#
# Total GULP energy -134419.502973 kJ/mol
# GULP energy per Si atom -5600.812624 kJ/mol
# Density = 2.364088 g / cm^3
# Si number density = 23.694810 Si / 1000 Ang^3
#
#
#
# Elastic Constant Matrix: (Units=GPa)
#
#
# Indices 1 2 3 4 5 6 
#
# 1 60.0698 5.1554 4.0517 0.0000 0.0000 0.0000
# 2 5.1554 93.6422 41.3507 0.0000 0.0000 0.0000
# 3 4.0517 41.3507 167.0763 0.0000 0.0000 0.0000
# 4 0.0000 0.0000 0.0000 38.2038 0.0000 0.0000
# 5 0.0000 0.0000 0.0000 0.0000 96.1928 0.0000
# 6 0.0000 0.0000 0.0000 0.0000 0.0000 16.1867
#
#
#
# Elastic Compliance Matrix: (Units=1/GPa)
#
#
# Indices 1 2 3 4 5 6 
#
# 1 0.016732 -0.000833 -0.000200 0.000000 0.000000 0.000000
# 2 -0.000833 0.012031 -0.002957 0.000000 0.000000 0.000000
# 3 -0.000200 -0.002957 0.006722 0.000000 0.000000 0.000000
# 4 0.000000 0.000000 0.000000 0.026175 0.000000 0.000000
# 5 0.000000 0.000000 0.000000 0.000000 0.010396 0.000000
# 6 0.000000 0.000000 0.000000 0.000000 0.000000 0.061779
#
#
# Mechanical properties :
#
#
# Convention : Reuss Voigt Hill
#
# Bulk Modulus (GPa) = 36.35696 46.87823 41.61760
# Shear Modulus (GPa) = 33.11616 48.13201 40.62408
#
# Velocity S-wave (km/s) = 3.74252 4.51192 4.14511
# Velocity P-wave (km/s) = 5.83545 6.85349 6.36486
#
# Compressibility (1/GPa) = 0.02750505
#
# Stress axis : x y z
#
# Youngs Moduli (GPa) = 59.76479 83.12051 148.76381
#
# Poissons Ratio (x) = 0.06924 0.02969
# Poissons Ratio (y) = 0.04979 0.43995
# Poissons Ratio (z) = 0.01193 0.24582
#
# Static dielectric constant tensor:
#      x y z
#    x 1.943940 0.000000 0.000000 
#    y 0.000000 1.847620 0.000000 
#    z 0.000000 0.000000 1.953560 
# 
# From -- ./inp_files/1734.got.cif
#   From: 2010.05.17/outbox.cif.g08.bks.cpg/sg36_1_cif.got.tgz:1734.got - 2010.06.03 17:41:39.
