data_PCOD9351554
_publ_section_title
;
Structure prediction by ZEFSAII (Michael W. Deem and Ramdas Pophale) SiO2 
 PCOD9351554
Probable space group: C M C 21
;
_chemical_formula_sum "Si O2"
_cell_formula_units_Z 48
_cell_length_a 24.164642
_cell_length_b 19.461221
_cell_length_c 5.037242
_cell_angle_alpha 90.000000
_cell_angle_beta 90.000000
_cell_angle_gamma 90.000000
_cell_volume 2368.881115
_symmetry_space_group_name_H-M "C M C 21"
_symmetry_group_IT_number 36
_symmetry_cell_setting 'orthorhombic'
loop_
_space_group_symop_operation_xyz
x,y,z
-x,-y,1/2+z
x,-y,1/2+z
-x,y,z
1/2+x,1/2+y,z
1/2-x,1/2-y,1/2+z
1/2+x,1/2-y,1/2+z
1/2-x,1/2+y,z
loop_
_atom_site_type_symbol
_atom_site_label
_atom_site_fract_x
_atom_site_fract_y
_atom_site_fract_z
Si Si1 0.852879 0.330177 0.797890
Si Si2 0.821878 0.046595 0.894574
Si Si3 0.240770 0.150516 0.558151
Si Si4 0.823796 0.251056 0.278039
Si Si5 0.065832 0.454379 0.900008
Si Si6 0.559661 0.452246 0.281862
O O1 0.794198 0.366291 0.878595
O O2 0.849835 0.297504 0.508766
O O3 0.900067 0.386178 0.837227
O O4 0.856654 0.267541 0.010211
O O5 0.775268 0.095595 0.777690
O O6 0.881766 0.081947 0.844185
O O7 0.818852 0.019048 0.193322
O O8 0.189071 0.175123 0.380695
O O9 0.262824 0.217131 0.718138
O O10 0.078937 0.513803 0.686433
O O11 0.000000 0.440970 0.884103
O O12 0.560495 0.483021 0.985879
O O13 0.500000 0.416894 0.322966
#
# Coordination Sequence:
#
# PCOD9351554 Si02
#       6
#     8   8   8   8   8   8
#     4  10  20  34  54  78 101 134 186 223 261 317
#     4  10  22  31  47  77 104 131 159 206 264 300
#     4  10  21  35  55  74 109 136 176 216 259 333
#     4  10  20  35  54  77  97 142 184 208 267 318
#     4  10  21  37  56  80 112 150 188 229 284 341
#     4   8  14  28  45  62  88 123 157 182 221 289
#
# _framework density 20.262732
#
# number of rings (size 3 to 8) (size 9 to 14) (size 15 to 20)
#    1.000    1.333    1.667    1.000    2.333    1.333 
#    0.000    0.000    0.000    2.000    0.000    2.333 
#    0.000    0.000    0.000    0.000    0.000    0.000 
#
# Total GULP energy -133700.702138 kJ/mol
# GULP energy per Si atom -5570.862589 kJ/mol
# Density = 2.021661 g / cm^3
# Si number density = 20.262732 Si / 1000 Ang^3
#
#
#
# Elastic Constant Matrix: (Units=GPa)
#
#
# Indices 1 2 3 4 5 6 
#
# 1 30.0565 10.5694 -1.3305 0.0000 0.0000 0.0000
# 2 10.5694 41.0869 0.7849 0.0000 0.0000 0.0000
# 3 -1.3305 0.7849 74.5057 0.0000 0.0000 0.0000
# 4 0.0000 0.0000 0.0000 20.8829 0.0000 0.0000
# 5 0.0000 0.0000 0.0000 0.0000 19.2076 0.0000
# 6 0.0000 0.0000 0.0000 0.0000 0.0000 25.5812
#
#
#
# Elastic Compliance Matrix: (Units=1/GPa)
#
#
# Indices 1 2 3 4 5 6 
#
# 1 0.036622 -0.009435 0.000753 0.000000 0.000000 0.000000
# 2 -0.009435 0.026774 -0.000451 0.000000 0.000000 0.000000
# 3 0.000753 -0.000451 0.013440 0.000000 0.000000 0.000000
# 4 0.000000 0.000000 0.000000 0.047886 0.000000 0.000000
# 5 0.000000 0.000000 0.000000 0.000000 0.052063 0.000000
# 6 0.000000 0.000000 0.000000 0.000000 0.000000 0.039091
#
#
# Mechanical properties :
#
#
# Convention : Reuss Voigt Hill
#
# Bulk Modulus (GPa) = 17.07310 18.41072 17.74191
# Shear Modulus (GPa) = 19.71105 22.17604 20.94354
#
# Velocity S-wave (km/s) = 3.12232 3.31180 3.21845
# Velocity P-wave (km/s) = 4.63062 4.87132 4.75249
#
# Compressibility (1/GPa) = 0.05857167
#
# Stress axis : x y z
#
# Youngs Moduli (GPa) = 27.30608 37.34910 74.40480
#
# Poissons Ratio (x) = 0.35239 -0.05606
# Poissons Ratio (y) = 0.25764 0.03352
# Poissons Ratio (z) = -0.02057 0.01683
#
# Static dielectric constant tensor:
#      x y z
#    x 1.761550 0.000000 0.000000 
#    y 0.000000 1.740390 0.000000 
#    z 0.000000 0.000000 1.761680 
# 
# From -- ./inp_files/1357.got.cif
#   From: 2010.05.17/outbox.cif.g08.bks.cpg/sg36_1_cif.got.tgz:1357.got - 2010.06.03 17:41:39.
