data_PCOD9351662
_publ_section_title
;
Structure prediction by ZEFSAII (Michael W. Deem and Ramdas Pophale) SiO2 
 PCOD9351662
Probable space group: C M C 21
;
_chemical_formula_sum "Si O2"
_cell_formula_units_Z 64
_cell_length_a 7.527560
_cell_length_b 22.247105
_cell_length_c 14.457720
_cell_angle_alpha 90.000000
_cell_angle_beta 90.000000
_cell_angle_gamma 90.000000
_cell_volume 2421.182577
_symmetry_space_group_name_H-M "C M C 21"
_symmetry_group_IT_number 36
_symmetry_cell_setting 'orthorhombic'
loop_
_space_group_symop_operation_xyz
x,y,z
-x,-y,1/2+z
x,-y,1/2+z
-x,y,z
1/2+x,1/2+y,z
1/2-x,1/2-y,1/2+z
1/2+x,1/2-y,1/2+z
1/2-x,1/2+y,z
loop_
_atom_site_type_symbol
_atom_site_label
_atom_site_fract_x
_atom_site_fract_y
_atom_site_fract_z
Si Si1 0.704964 0.400072 0.598370
Si Si2 0.786225 0.894782 0.947773
Si Si3 0.285696 0.329596 0.767099
Si Si4 0.296052 0.775153 0.055848
Si Si5 0.290874 0.983021 0.212672
Si Si6 0.206006 0.210433 0.882774
Si Si7 0.290867 0.853701 0.208612
Si Si8 0.284194 0.473560 0.430408
O O1 0.500000 0.384043 0.581367
O O2 0.780935 0.348158 0.665477
O O3 0.705988 0.459984 0.662875
O O4 0.780529 0.421206 0.499573
O O5 0.743857 0.882696 0.839746
O O6 0.703587 0.839335 0.002308
O O7 0.000000 0.889792 0.957391
O O8 0.730257 0.961755 0.973110
O O9 0.500000 0.324564 0.761696
O O10 0.223170 0.270366 0.820008
O O11 0.500000 0.756296 0.072674
O O12 0.215969 0.728337 0.982566
O O13 0.213603 0.797239 0.151867
O O14 0.500000 0.986745 0.192204
O O15 0.215695 0.918144 0.180802
O O16 0.271102 0.977834 0.323786
O O17 0.277524 0.158551 0.817479
O O18 0.000000 0.197384 0.896653
O O19 0.500000 0.855078 0.187881
O O20 0.500000 0.471186 0.430371
#
# Coordination Sequence:
#
# PCOD9351662 Si02
#       8
#     8   8   8   8   8   8   8   8
#     4  10  20  36  59  85 115 153 194 233 280 342
#     4   9  16  29  52  80 109 141 181 228 272 320
#     4   9  17  33  55  78 108 144 180 225 282 335
#     4   9  19  36  58  83 109 141 187 234 280 333
#     4  11  23  37  57  85 119 156 190 234 292 345
#     4  10  21  37  59  86 108 138 188 242 283 329
#     4  10  22  41  59  79 114 155 187 227 287 346
#     4  10  20  35  55  82 116 154 193 231 278 342
#
# _framework density 26.433364000000001
#
# number of rings (size 3 to 8) (size 9 to 14) (size 15 to 20)
#    0.000    2.250    1.250    1.500    0.000    3.500 
#    2.250    0.000    0.000    0.000    0.000    0.000 
#    0.000    0.000    0.000    0.000    0.000    0.000 
#
# Total GULP energy -178921.647398 kJ/mol
# GULP energy per Si atom -5591.301481 kJ/mol
# Density = 2.637320 g / cm^3
# Si number density = 26.433364 Si / 1000 Ang^3
#
#
#
# Elastic Constant Matrix: (Units=GPa)
#
#
# Indices 1 2 3 4 5 6 
#
# 1 70.8366 0.7525 -0.6282 0.0000 0.0000 0.0000
# 2 0.7525 103.6195 33.9441 0.0000 0.0000 0.0000
# 3 -0.6282 33.9441 160.7956 0.0000 0.0000 0.0000
# 4 0.0000 0.0000 0.0000 63.1494 0.0000 0.0000
# 5 0.0000 0.0000 0.0000 0.0000 0.2662 0.0000
# 6 0.0000 0.0000 0.0000 0.0000 0.0000 11.8126
#
#
#
# Elastic Compliance Matrix: (Units=1/GPa)
#
#
# Indices 1 2 3 4 5 6 
#
# 1 0.014119 -0.000130 0.000083 0.000000 0.000000 0.000000
# 2 -0.000130 0.010369 -0.002189 0.000000 0.000000 0.000000
# 3 0.000083 -0.002189 0.006682 0.000000 0.000000 0.000000
# 4 0.000000 0.000000 0.000000 0.015835 0.000000 0.000000
# 5 0.000000 0.000000 0.000000 0.000000 3.757095 0.000000
# 6 0.000000 0.000000 0.000000 0.000000 0.000000 0.084655
#
#
# Mechanical properties :
#
#
# Convention : Reuss Voigt Hill
#
# Bulk Modulus (GPa) = 37.45787 44.82093 41.13940
# Shear Modulus (GPa) = 1.28135 35.12452 18.20293
#
# Velocity S-wave (km/s) = 0.69699 3.64922 2.62703
# Velocity P-wave (km/s) = 3.85346 5.89481 4.97985
#
# Compressibility (1/GPa) = 0.02669666
#
# Stress axis : x y z
#
# Youngs Moduli (GPa) = 70.82603 96.44281 149.66525
#
# Poissons Ratio (x) = 0.01250 -0.01235
# Poissons Ratio (y) = 0.00918 0.32767
# Poissons Ratio (z) = -0.00584 0.21115
#
# Static dielectric constant tensor:
#      x y z
#    x 2.110860 0.000000 0.000000 
#    y 0.000000 2.092260 0.000000 
#    z 0.000000 0.000000 2.133450 
# 
# From -- ./inp_files/10872.got.cif
#   From: 2010.05.17/outbox.cif.g08.bks.cpg/sg36_6_cif.got.tgz:10872.got - 2010.06.03 17:41:39.
