data_PCOD9351018
_publ_section_title
;
Structure prediction by ZEFSAII (Michael W. Deem and Ramdas Pophale) SiO2 
 PCOD9351018
Probable space group: C M C 21
;
_chemical_formula_sum "Si O2"
_cell_formula_units_Z 64
_cell_length_a 8.171468
_cell_length_b 21.512082
_cell_length_c 14.331124
_cell_angle_alpha 90.000000
_cell_angle_beta 90.000000
_cell_angle_gamma 90.000000
_cell_volume 2519.200784
_symmetry_space_group_name_H-M "C M C 21"
_symmetry_group_IT_number 36
_symmetry_cell_setting 'orthorhombic'
loop_
_space_group_symop_operation_xyz
x,y,z
-x,-y,1/2+z
x,-y,1/2+z
-x,y,z
1/2+x,1/2+y,z
1/2-x,1/2-y,1/2+z
1/2+x,1/2-y,1/2+z
1/2-x,1/2+y,z
loop_
_atom_site_type_symbol
_atom_site_label
_atom_site_fract_x
_atom_site_fract_y
_atom_site_fract_z
Si Si1 0.186019 0.487106 0.453460
Si Si2 0.692548 0.100517 0.687021
Si Si3 0.809800 0.898189 0.841289
Si Si4 0.693226 0.275824 0.288913
Si Si5 0.193190 0.032419 0.162809
Si Si6 0.190035 0.706043 0.118595
Si Si7 0.808226 0.143578 0.946562
Si Si8 0.312042 0.822039 0.008346
O O1 0.500000 0.457551 0.648481
O O2 0.295084 0.538679 0.403380
O O3 0.221450 0.475961 0.562960
O O4 0.214765 0.417694 0.414863
O O5 0.500000 0.097615 0.710450
O O6 0.776561 0.158489 0.737266
O O7 0.701209 0.118211 0.576800
O O8 0.778906 0.035816 0.707018
O O9 0.743203 0.917827 0.739120
O O10 0.725943 0.845096 0.904133
O O11 0.000000 0.882519 0.831994
O O12 0.500000 0.263004 0.293418
O O13 0.751661 0.295038 0.391245
O O14 0.763683 0.224011 0.219473
O O15 0.500000 0.992788 0.939402
O O16 0.283426 0.656646 0.055757
O O17 0.203427 0.770259 0.059230
O O18 0.000000 0.688312 0.125160
O O19 0.000000 0.135069 0.928232
O O20 0.500000 0.799296 0.012949
#
# Coordination Sequence:
#
# PCOD9351018 Si02
#       8
#     8   8   8   8   8   8   8   8
#     4  12  25  41  62  91 126 165 204 252 309 366
#     4  10  19  32  56  88 119 152 196 247 297 352
#     4  11  23  39  61  90 123 162 204 250 305 365
#     4   9  20  38  62  89 118 157 204 249 303 362
#     4  11  23  38  58  86 122 163 204 246 302 365
#     4  10  21  40  64  90 119 156 202 256 306 359
#     4  11  23  42  64  89 122 162 205 254 309 366
#     4  10  20  36  59  87 117 153 195 246 301 355
#
# _framework density 25.404882000000001
#
# number of rings (size 3 to 8) (size 9 to 14) (size 15 to 20)
#    0.000    1.500    1.250    4.125    0.000    7.500 
#    2.250    0.000    0.000    0.000    0.000    0.000 
#    0.000    0.000    0.000    0.000    0.000    0.000 
#
# Total GULP energy -179119.567813 kJ/mol
# GULP energy per Si atom -5597.486494 kJ/mol
# Density = 2.534706 g / cm^3
# Si number density = 25.404882 Si / 1000 Ang^3
#
#
#
# Elastic Constant Matrix: (Units=GPa)
#
#
# Indices 1 2 3 4 5 6 
#
# 1 67.6190 -1.4390 2.1115 0.0000 0.0000 0.0000
# 2 -1.4390 83.3787 1.5409 0.0000 0.0000 0.0000
# 3 2.1115 1.5409 135.8834 0.0000 0.0000 0.0000
# 4 0.0000 0.0000 0.0000 49.6686 0.0000 0.0000
# 5 0.0000 0.0000 0.0000 0.0000 29.3197 0.0000
# 6 0.0000 0.0000 0.0000 0.0000 0.0000 29.4291
#
#
#
# Elastic Compliance Matrix: (Units=1/GPa)
#
#
# Indices 1 2 3 4 5 6 
#
# 1 0.014802 0.000260 -0.000233 0.000000 0.000000 0.000000
# 2 0.000260 0.012001 -0.000140 0.000000 0.000000 0.000000
# 3 -0.000233 -0.000140 0.007364 0.000000 0.000000 0.000000
# 4 0.000000 0.000000 0.000000 0.020133 0.000000 0.000000
# 5 0.000000 0.000000 0.000000 0.000000 0.034107 0.000000
# 6 0.000000 0.000000 0.000000 0.000000 0.000000 0.033980
#
#
# Mechanical properties :
#
#
# Convention : Reuss Voigt Hill
#
# Bulk Modulus (GPa) = 29.46383 32.36755 30.91569
# Shear Modulus (GPa) = 37.33388 40.66133 38.99761
#
# Velocity S-wave (km/s) = 3.83764 4.00501 3.92221
# Velocity P-wave (km/s) = 5.59102 5.84424 5.71903
#
# Compressibility (1/GPa) = 0.03393992
#
# Stress axis : x y z
#
# Youngs Moduli (GPa) = 67.56047 83.32955 135.78726
#
# Poissons Ratio (x) = -0.02164 0.03163
# Poissons Ratio (y) = -0.01755 0.01903
# Poissons Ratio (z) = 0.01574 0.01168
#
# Static dielectric constant tensor:
#      x y z
#    x 1.850500 0.000000 0.000000 
#    y 0.000000 2.052460 0.000000 
#    z 0.000000 0.000000 2.098050 
# 
# From -- ./inp_files/10967.got.cif
#   From: 2010.05.17/outbox.cif.g08.bks.cpg/sg36_6_cif.got.tgz:10967.got - 2010.06.03 17:41:39.
