data_PCOD9351660
_publ_section_title
;
Structure prediction by ZEFSAII (Michael W. Deem and Ramdas Pophale) SiO2 
 PCOD9351660
Probable space group: C M C 21
;
_chemical_formula_sum "Si O2"
_cell_formula_units_Z 64
_cell_length_a 8.198326
_cell_length_b 19.160543
_cell_length_c 20.951989
_cell_angle_alpha 90.000000
_cell_angle_beta 90.000000
_cell_angle_gamma 90.000000
_cell_volume 3291.230157
_symmetry_space_group_name_H-M "C M C 21"
_symmetry_group_IT_number 36
_symmetry_cell_setting 'orthorhombic'
loop_
_space_group_symop_operation_xyz
x,y,z
-x,-y,1/2+z
x,-y,1/2+z
-x,y,z
1/2+x,1/2+y,z
1/2-x,1/2-y,1/2+z
1/2+x,1/2-y,1/2+z
1/2-x,1/2+y,z
loop_
_atom_site_type_symbol
_atom_site_label
_atom_site_fract_x
_atom_site_fract_y
_atom_site_fract_z
Si Si1 0.198736 0.795446 0.636790
Si Si2 0.194772 0.544098 0.759288
Si Si3 0.806278 0.459159 0.498879
Si Si4 0.800085 0.297133 0.254393
Si Si5 0.805154 0.196773 0.992357
Si Si6 0.302476 0.048144 0.378144
Si Si7 0.804782 0.207888 0.376983
Si Si8 0.193211 0.954353 0.642194
O O1 0.254035 0.740148 0.689136
O O2 0.248325 0.781336 0.563821
O O3 0.251516 0.874513 0.653133
O O4 0.000000 0.795547 0.637851
O O5 0.257518 0.623323 0.760324
O O6 0.257740 0.496415 0.817370
O O7 0.228867 0.506869 0.692261
O O8 0.000000 0.548557 0.767591
O O9 0.770411 0.379255 0.478900
O O10 0.747360 0.510984 0.443562
O O11 0.728605 0.471005 0.568269
O O12 0.000000 0.467609 0.505790
O O13 0.748732 0.250664 0.314627
O O14 0.000000 0.297858 0.253760
O O15 0.758822 0.252800 0.939589
O O16 0.000000 0.187928 0.993765
O O17 0.500000 0.046216 0.377981
O O18 0.249554 0.127984 0.374241
O O19 0.000000 0.210185 0.377898
O O20 0.000000 0.955416 0.652393
#
# Coordination Sequence:
#
# PCOD9351660 Si02
#       8
#     8   8   8   8   8   8   8   8
#     4   8  16  32  54  77 103 138 176 215 263 319
#     4  10  20  35  56  80 107 143 185 228 277 335
#     4  10  20  37  60  83 110 148 190 230 277 333
#     4   9  18  34  55  78 104 138 182 226 270 325
#     4  10  20  35  56  83 115 147 181 227 280 333
#     4  10  22  38  55  79 112 146 186 237 285 330
#     4  11  22  36  57  82 109 145 187 230 280 340
#     4  10  20  35  55  82 114 145 181 227 278 331
#
# _framework density 19.445616999999999
#
# number of rings (size 3 to 8) (size 9 to 14) (size 15 to 20)
#    0.000    2.250    0.000    3.750    0.000    5.500 
#    0.000    5.000    0.000    6.000    0.000    0.000 
#    0.000    0.000    0.000    0.000    0.000    0.000 
#
# Total GULP energy -178690.128278 kJ/mol
# GULP energy per Si atom -5584.066509 kJ/mol
# Density = 1.940136 g / cm^3
# Si number density = 19.445617 Si / 1000 Ang^3
#
#
#
# Elastic Constant Matrix: (Units=GPa)
#
#
# Indices 1 2 3 4 5 6 
#
# 1 123.9168 226.7505 143.5418 0.0000 0.0000 0.0000
# 2 226.7505 611.7751 399.5981 0.0000 0.0000 0.0000
# 3 143.5418 399.5981 306.8433 0.0000 0.0000 0.0000
# 4 0.0000 0.0000 0.0000 41.3961 0.0000 0.0000
# 5 0.0000 0.0000 0.0000 0.0000 10.3607 0.0000
# 6 0.0000 0.0000 0.0000 0.0000 0.0000 25.0105
#
#
#
# Elastic Compliance Matrix: (Units=1/GPa)
#
#
# Indices 1 2 3 4 5 6 
#
# 1 0.025369 -0.011054 0.002528 0.000000 0.000000 0.000000
# 2 -0.011054 0.015759 -0.015352 0.000000 0.000000 0.000000
# 3 0.002528 -0.015352 0.022069 0.000000 0.000000 0.000000
# 4 0.000000 0.000000 0.000000 0.024157 0.000000 0.000000
# 5 0.000000 0.000000 0.000000 0.000000 0.096519 0.000000
# 6 0.000000 0.000000 0.000000 0.000000 0.000000 0.039983
#
#
# Mechanical properties :
#
#
# Convention : Reuss Voigt Hill
#
# Bulk Modulus (GPa) = 64.76258 286.92398 175.84328
# Shear Modulus (GPa) = 18.06618 33.52978 25.79798
#
# Velocity S-wave (km/s) = 3.05136 4.15696 3.64630
# Velocity P-wave (km/s) = 6.76692 13.07336 10.40922
#
# Compressibility (1/GPa) = 0.01544101
#
# Stress axis : x y z
#
# Youngs Moduli (GPa) = 39.41825 63.45476 45.31155
#
# Poissons Ratio (x) = 0.70142 -0.11453
# Poissons Ratio (y) = 0.43572 0.69563
# Poissons Ratio (z) = -0.09963 0.97416
#
# Static dielectric constant tensor:
#      x y z
#    x 1.686950 0.000000 0.000000 
#    y 0.000000 1.650910 0.000000 
#    z 0.000000 0.000000 1.654990 
# 
# From -- ./inp_files/15741.got.cif
#   From: 2010.05.17/outbox.cif.g08.bks.cpg/sg36_8_cif.got.tgz:15741.got - 2010.06.03 17:41:39.
