data_PCOD9351160
_publ_section_title
;
Structure prediction by ZEFSAII (Michael W. Deem and Ramdas Pophale) SiO2 
 PCOD9351160
Probable space group: C M C 21
;
_chemical_formula_sum "Si O2"
_cell_formula_units_Z 64
_cell_length_a 8.636104
_cell_length_b 23.799431
_cell_length_c 16.495988
_cell_angle_alpha 90.000000
_cell_angle_beta 90.000000
_cell_angle_gamma 90.000000
_cell_volume 3390.492357
_symmetry_space_group_name_H-M "C M C 21"
_symmetry_group_IT_number 36
_symmetry_cell_setting 'orthorhombic'
loop_
_space_group_symop_operation_xyz
x,y,z
-x,-y,1/2+z
x,-y,1/2+z
-x,y,z
1/2+x,1/2+y,z
1/2-x,1/2-y,1/2+z
1/2+x,1/2-y,1/2+z
1/2-x,1/2+y,z
loop_
_atom_site_type_symbol
_atom_site_label
_atom_site_fract_x
_atom_site_fract_y
_atom_site_fract_z
Si Si1 0.188407 0.716938 0.901670
Si Si2 0.185353 0.598623 0.211632
Si Si3 0.682759 0.932048 0.988490
Si Si4 0.680670 0.644594 0.049141
Si Si5 0.683203 0.345168 0.873782
Si Si6 0.826569 0.550827 0.948722
Si Si7 0.311557 0.971435 0.169713
Si Si8 0.675403 0.123002 0.786396
O O1 0.234924 0.781069 0.888135
O O2 0.245109 0.679442 0.824924
O O3 0.000000 0.712893 0.902834
O O4 0.246464 0.689317 0.985798
O O5 0.243715 0.637443 0.137306
O O6 0.239756 0.624476 0.296751
O O7 0.240378 0.533789 0.196587
O O8 0.000000 0.597357 0.210215
O O9 0.500000 0.917914 0.987280
O O10 0.777268 0.880625 0.953947
O O11 0.709625 0.986409 0.932179
O O12 0.721809 0.956394 0.076750
O O13 0.500000 0.655930 0.057323
O O14 0.711516 0.584417 0.005961
O O15 0.500000 0.344316 0.859879
O O16 0.835652 0.583780 0.865449
O O17 0.000000 0.552365 0.987396
O O18 0.500000 0.971625 0.179520
O O19 0.249885 0.918222 0.220947
O O20 0.500000 0.136968 0.757925
#
# Coordination Sequence:
#
# PCOD9351160 Si02
#       8
#     8   8   8   8   8   8   8   8
#     4   9  20  40  60  77 113 160 199 236 290 353
#     4  11  21  38  62  87 117 153 194 240 296 361
#     4  10  19  34  56  83 115 153 195 234 284 354
#     4  11  21  34  58  89 116 145 193 247 291 339
#     4  11  24  40  56  83 120 157 200 250 301 343
#     4   9  16  31  54  80 112 149 188 226 283 354
#     4   9  17  31  56  88 113 139 189 241 281 345
#     4   8  14  28  54  81 102 136 186 236 274 323
#
# _framework density 18.876315000000002
#
# number of rings (size 3 to 8) (size 9 to 14) (size 15 to 20)
#    0.000    2.250    1.250    3.375    0.000    3.500 
#    2.250    0.000    0.000    3.750    0.000    0.000 
#    0.000    0.000    0.000    0.000    0.000    0.000 
#
# Total GULP energy -178329.744065 kJ/mol
# GULP energy per Si atom -5572.804502 kJ/mol
# Density = 1.883335 g / cm^3
# Si number density = 18.876315 Si / 1000 Ang^3
#
#
#
# Elastic Constant Matrix: (Units=GPa)
#
#
# Indices 1 2 3 4 5 6 
#
# 1 33.6801 26.6146 18.9561 0.0000 0.0000 0.0000
# 2 26.6146 155.2440 52.8212 0.0000 0.0000 0.0000
# 3 18.9561 52.8212 66.8513 0.0000 0.0000 0.0000
# 4 0.0000 0.0000 0.0000 24.2709 0.0000 0.0000
# 5 0.0000 0.0000 0.0000 0.0000 21.1635 0.0000
# 6 0.0000 0.0000 0.0000 0.0000 0.0000 19.1866
#
#
#
# Elastic Compliance Matrix: (Units=1/GPa)
#
#
# Indices 1 2 3 4 5 6 
#
# 1 0.036884 -0.003781 -0.007471 0.000000 0.000000 0.000000
# 2 -0.003781 0.009198 -0.006195 0.000000 0.000000 0.000000
# 3 -0.007471 -0.006195 0.021972 0.000000 0.000000 0.000000
# 4 0.000000 0.000000 0.000000 0.041202 0.000000 0.000000
# 5 0.000000 0.000000 0.000000 0.000000 0.047251 0.000000
# 6 0.000000 0.000000 0.000000 0.000000 0.000000 0.052120
#
#
# Mechanical properties :
#
#
# Convention : Reuss Voigt Hill
#
# Bulk Modulus (GPa) = 30.15786 50.28437 40.22111
# Shear Modulus (GPa) = 19.64067 23.41642 21.52855
#
# Velocity S-wave (km/s) = 3.22917 3.52592 3.38080
# Velocity P-wave (km/s) = 5.46942 6.57821 6.04927
#
# Compressibility (1/GPa) = 0.03315885
#
# Stress axis : x y z
#
# Youngs Moduli (GPa) = 27.11197 108.72421 45.51260
#
# Poissons Ratio (x) = 0.41112 0.34002
# Poissons Ratio (y) = 0.10252 0.28195
# Poissons Ratio (z) = 0.20255 0.67355
#
# Static dielectric constant tensor:
#      x y z
#    x 1.658810 0.000000 0.000000 
#    y 0.000000 1.696450 0.000000 
#    z 0.000000 0.000000 1.679300 
# 
# From -- ./inp_files/10909.got.cif
#   From: 2010.05.17/outbox.cif.g08.bks.cpg/sg36_6_cif.got.tgz:10909.got - 2010.06.03 17:41:39.
