data_PCOD9351737
_publ_section_title
;
Structure prediction by ZEFSAII (Michael W. Deem and Ramdas Pophale) SiO2 
 PCOD9351737
Probable space group: C M C 21
;
_chemical_formula_sum "Si O2"
_cell_formula_units_Z 48
_cell_length_a 15.028654
_cell_length_b 16.674565
_cell_length_c 8.258986
_cell_angle_alpha 90.000000
_cell_angle_beta 90.000000
_cell_angle_gamma 90.000000
_cell_volume 2069.671069
_symmetry_space_group_name_H-M "C M C 21"
_symmetry_group_IT_number 36
_symmetry_cell_setting 'orthorhombic'
loop_
_space_group_symop_operation_xyz
x,y,z
-x,-y,1/2+z
x,-y,1/2+z
-x,y,z
1/2+x,1/2+y,z
1/2-x,1/2-y,1/2+z
1/2+x,1/2-y,1/2+z
1/2-x,1/2+y,z
loop_
_atom_site_type_symbol
_atom_site_label
_atom_site_fract_x
_atom_site_fract_y
_atom_site_fract_z
Si Si1 0.603377 0.084112 0.613540
Si Si2 0.107459 0.749493 0.477714
Si Si3 0.296785 0.959741 0.417002
Si Si4 0.170182 0.965633 0.690812
Si Si5 0.108501 0.849241 0.163446
Si Si6 0.899872 0.187028 0.314497
O O1 0.500000 0.084952 0.656151
O O2 0.619583 0.154129 0.483317
O O3 0.630600 0.999974 0.532760
O O4 0.660059 0.094547 0.778452
O O5 0.137648 0.796867 0.318343
O O6 0.143132 0.774933 0.655130
O O7 0.000000 0.765131 0.483252
O O8 0.249997 0.031257 0.318189
O O9 0.214750 0.931879 0.527907
O O10 0.097874 0.906897 0.763981
O O11 0.139360 0.057748 0.669886
O O12 0.000000 0.850591 0.158960
O O13 0.140537 0.810439 0.993690
O O14 0.000000 0.220008 0.328483
#
# Coordination Sequence:
#
# PCOD9351737 Si02
#       6
#     8   8   8   8   8   8
#     4  10  21  43  64  87 115 151 209 272 325 379
#     4   9  20  38  60  88 124 157 204 265 307 357
#     4  10  22  36  62  86 114 158 203 256 326 370
#     4  11  19  37  56  87 132 160 201 256 292 365
#     4  10  20  35  60  93 127 172 209 236 298 369
#     4  10  20  35  58  91 125 170 210 237 293 366
#
# _framework density 23.192091000000001
#
# number of rings (size 3 to 8) (size 9 to 14) (size 15 to 20)
#    0.000    2.000    1.667    2.000    0.000    0.000 
#    6.000    5.000    0.000    0.000    0.000    0.000 
#    0.000    0.000    0.000    0.000    0.000    0.000 
#
# Total GULP energy -133790.951302 kJ/mol
# GULP energy per Si atom -5574.622971 kJ/mol
# Density = 2.313930 g / cm^3
# Si number density = 23.192091 Si / 1000 Ang^3
#
#
#
# Elastic Constant Matrix: (Units=GPa)
#
#
# Indices 1 2 3 4 5 6 
#
# 1 63.7450 11.5083 33.3211 0.0000 0.0000 0.0000
# 2 11.5083 49.8911 36.8341 0.0000 0.0000 0.0000
# 3 33.3211 36.8341 164.0012 0.0000 0.0000 0.0000
# 4 0.0000 0.0000 0.0000 32.3277 0.0000 0.0000
# 5 0.0000 0.0000 0.0000 0.0000 31.9835 0.0000
# 6 0.0000 0.0000 0.0000 0.0000 0.0000 11.7334
#
#
#
# Elastic Compliance Matrix: (Units=1/GPa)
#
#
# Indices 1 2 3 4 5 6 
#
# 1 0.017672 -0.001709 -0.003207 0.000000 0.000000 0.000000
# 2 -0.001709 0.024193 -0.005086 0.000000 0.000000 0.000000
# 3 -0.003207 -0.005086 0.007891 0.000000 0.000000 0.000000
# 4 0.000000 0.000000 0.000000 0.030933 0.000000 0.000000
# 5 0.000000 0.000000 0.000000 0.000000 0.031266 0.000000
# 6 0.000000 0.000000 0.000000 0.000000 0.000000 0.085227
#
#
# Mechanical properties :
#
#
# Convention : Reuss Voigt Hill
#
# Bulk Modulus (GPa) = 33.61051 48.99603 41.30327
# Shear Modulus (GPa) = 22.01626 28.27384 25.14505
#
# Velocity S-wave (km/s) = 3.08441 3.49537 3.29630
# Velocity P-wave (km/s) = 5.21618 6.12064 5.68642
#
# Compressibility (1/GPa) = 0.02975260
#
# Stress axis : x y z
#
# Youngs Moduli (GPa) = 56.58573 41.33397 126.71915
#
# Poissons Ratio (x) = 0.07064 0.40636
# Poissons Ratio (y) = 0.09670 0.64456
# Poissons Ratio (z) = 0.18146 0.21025
#
# Static dielectric constant tensor:
#      x y z
#    x 1.880700 0.000000 0.000000 
#    y 0.000000 1.879200 0.000000 
#    z 0.000000 0.000000 1.939170 
# 
# From -- ./inp_files/4654.got.cif
#   From: 2010.05.17/outbox.cif.g08.bks.cpg/sg36_3_cif.got.tgz:4654.got - 2010.06.03 17:41:39.
