data_PCOD9351508
_publ_section_title
;
Structure prediction by ZEFSAII (Michael W. Deem and Ramdas Pophale) SiO2 
 PCOD9351508
Probable space group: C M C 21
;
_chemical_formula_sum "Si O2"
_cell_formula_units_Z 40
_cell_length_a 8.195804
_cell_length_b 27.314954
_cell_length_c 8.083865
_cell_angle_alpha 90.000000
_cell_angle_beta 90.000000
_cell_angle_gamma 90.000000
_cell_volume 1809.718765
_symmetry_space_group_name_H-M "C M C 21"
_symmetry_group_IT_number 36
_symmetry_cell_setting 'orthorhombic'
loop_
_space_group_symop_operation_xyz
x,y,z
-x,-y,1/2+z
x,-y,1/2+z
-x,y,z
1/2+x,1/2+y,z
1/2-x,1/2-y,1/2+z
1/2+x,1/2-y,1/2+z
1/2-x,1/2+y,z
loop_
_atom_site_type_symbol
_atom_site_label
_atom_site_fract_x
_atom_site_fract_y
_atom_site_fract_z
Si Si1 0.500000 0.474647 0.223261
Si Si2 0.311935 0.080324 0.607781
Si Si3 0.194563 0.679684 0.779261
Si Si4 0.192550 0.730786 0.444483
Si Si5 0.500000 0.576540 0.080877
Si Si6 0.183750 0.137502 0.303899
O O1 0.333351 0.458062 0.131596
O O2 0.500000 0.533223 0.217556
O O3 0.500000 0.449420 0.404126
O O4 0.500000 0.063384 0.628611
O O5 0.275356 0.123070 0.742366
O O6 0.296037 0.106867 0.429191
O O7 0.255878 0.707929 0.614978
O O8 0.268297 0.712567 0.922139
O O9 0.000000 0.684954 0.790731
O O10 0.264673 0.693909 0.306767
O O11 0.000000 0.724311 0.442260
O O12 0.655177 0.610772 0.128342
O O13 0.000000 0.135838 0.377172
#
# Coordination Sequence:
#
# PCOD9351508 Si02
#       6
#     4   8   8   8   4   8
#     4  12  22  44  66  90 126 158 202 262 309 378
#     4  10  21  39  64  91 123 162 207 253 311 370
#     4   9  20  35  51  81 115 156 202 246 293 357
#     4  10  20  33  54  82 120 158 206 250 299 356
#     4  10  24  40  68  92 118 162 210 248 321 376
#     4   9  18  38  61  87 115 161 201 251 306 360
#
# _framework density 22.102882000000001
#
# number of rings (size 3 to 8) (size 9 to 14) (size 15 to 20)
#    0.600    1.600    1.000    3.600    1.400    3.200 
#    0.000    9.000    0.000    0.000    0.000    0.000 
#    0.000    0.000    0.000    0.000    0.000    0.000 
#
# Total GULP energy -111513.751521 kJ/mol
# GULP energy per Si atom -5575.687576 kJ/mol
# Density = 2.205257 g / cm^3
# Si number density = 22.102882 Si / 1000 Ang^3
#
#
#
# Elastic Constant Matrix: (Units=GPa)
#
#
# Indices 1 2 3 4 5 6 
#
# 1 74.5991 31.6037 2.4265 0.0000 0.0000 0.0000
# 2 31.6037 72.1832 0.8538 0.0000 0.0000 0.0000
# 3 2.4265 0.8538 62.0437 0.0000 0.0000 0.0000
# 4 0.0000 0.0000 0.0000 33.3257 0.0000 0.0000
# 5 0.0000 0.0000 0.0000 0.0000 7.2089 0.0000
# 6 0.0000 0.0000 0.0000 0.0000 0.0000 27.9951
#
#
#
# Elastic Compliance Matrix: (Units=1/GPa)
#
#
# Indices 1 2 3 4 5 6 
#
# 1 0.016476 -0.007207 -0.000545 0.000000 0.000000 0.000000
# 2 -0.007207 0.017009 0.000048 0.000000 0.000000 0.000000
# 3 -0.000545 0.000048 0.016138 0.000000 0.000000 0.000000
# 4 0.000000 0.000000 0.000000 0.030007 0.000000 0.000000
# 5 0.000000 0.000000 0.000000 0.000000 0.138717 0.000000
# 6 0.000000 0.000000 0.000000 0.000000 0.000000 0.035720
#
#
# Mechanical properties :
#
#
# Convention : Reuss Voigt Hill
#
# Bulk Modulus (GPa) = 29.22800 30.95491 30.09145
# Shear Modulus (GPa) = 17.80114 25.30208 21.55161
#
# Velocity S-wave (km/s) = 2.84099 3.38707 3.12598
# Velocity P-wave (km/s) = 4.90041 5.41587 5.16457
#
# Compressibility (1/GPa) = 0.03421377
#
# Stress axis : x y z
#
# Youngs Moduli (GPa) = 60.69419 58.79389 61.96430
#
# Poissons Ratio (x) = 0.42374 0.03378
# Poissons Ratio (y) = 0.43744 -0.00296
# Poissons Ratio (z) = 0.03309 -0.00281
#
# Static dielectric constant tensor:
#      x y z
#    x 1.770850 0.000000 0.000000 
#    y 0.000000 1.808330 0.000000 
#    z 0.000000 0.000000 1.906830 
# 
# From -- ./inp_files/2543.got.cif
#   From: 2010.05.17/outbox.cif.g08.bks.cpg/sg36_2_cif.got.tgz:2543.got - 2010.06.03 17:41:39.
