data_PCOD9351423
_publ_section_title
;
Structure prediction by ZEFSAII (Michael W. Deem and Ramdas Pophale) SiO2 
 PCOD9351423
Probable space group: C M C 21
;
_chemical_formula_sum "Si O2"
_cell_formula_units_Z 48
_cell_length_a 8.598772
_cell_length_b 27.997342
_cell_length_c 10.342114
_cell_angle_alpha 90.000000
_cell_angle_beta 90.000000
_cell_angle_gamma 90.000000
_cell_volume 2489.789073
_symmetry_space_group_name_H-M "C M C 21"
_symmetry_group_IT_number 36
_symmetry_cell_setting 'orthorhombic'
loop_
_space_group_symop_operation_xyz
x,y,z
-x,-y,1/2+z
x,-y,1/2+z
-x,y,z
1/2+x,1/2+y,z
1/2-x,1/2-y,1/2+z
1/2+x,1/2-y,1/2+z
1/2-x,1/2+y,z
loop_
_atom_site_type_symbol
_atom_site_label
_atom_site_fract_x
_atom_site_fract_y
_atom_site_fract_z
Si Si1 0.811735 0.928721 0.411590
Si Si2 0.310746 0.390658 0.690989
Si Si3 0.186332 0.791001 0.061085
Si Si4 0.184827 0.606410 0.642812
Si Si5 0.188121 0.960232 0.922625
Si Si6 0.188002 0.216375 0.268110
O O1 0.761571 0.905909 0.547747
O O2 0.742744 0.902269 0.288156
O O3 0.000000 0.926295 0.404429
O O4 0.767004 0.984574 0.409236
O O5 0.500000 0.391314 0.692019
O O6 0.260791 0.428629 0.799665
O O7 0.262518 0.337204 0.728354
O O8 0.249180 0.843845 0.088984
O O9 0.245232 0.754774 0.169501
O O10 0.000000 0.792970 0.063061
O O11 0.235210 0.775196 0.916798
O O12 0.246955 0.564067 0.551433
O O13 0.000000 0.607584 0.639131
O O14 0.000000 0.958421 0.929130
O O15 0.000000 0.218226 0.261993
#
# Coordination Sequence:
#
# PCOD9351423 Si02
#       6
#     8   8   8   8   8   8
#     4  10  21  37  64  95 121 160 208 251 299 360
#     4   9  18  36  61  89 120 154 196 252 304 357
#     4  11  24  43  66  89 120 160 204 251 306 370
#     4  12  25  40  60  90 130 166 202 250 304 361
#     4  10  19  39  66  91 120 158 208 254 302 362
#     4  10  22  41  63  90 123 154 198 256 311 364
#
# _framework density 19.278739999999999
#
# number of rings (size 3 to 8) (size 9 to 14) (size 15 to 20)
#    0.000    1.667    1.667    3.000    2.333    4.667 
#    0.000    0.833    0.000    0.000    0.000    0.000 
#    0.000    0.000    0.000    0.000    0.000    0.000 
#
# Total GULP energy -134153.100686 kJ/mol
# GULP energy per Si atom -5589.712529 kJ/mol
# Density = 1.923486 g / cm^3
# Si number density = 19.278740 Si / 1000 Ang^3
#
#
#
# Elastic Constant Matrix: (Units=GPa)
#
#
# Indices 1 2 3 4 5 6 
#
# 1 26.8892 25.5170 32.0088 0.0000 0.0000 0.0000
# 2 25.5170 75.5952 39.3453 0.0000 0.0000 0.0000
# 3 32.0088 39.3453 153.0443 0.0000 0.0000 0.0000
# 4 0.0000 0.0000 0.0000 43.4966 0.0000 0.0000
# 5 0.0000 0.0000 0.0000 0.0000 18.7486 0.0000
# 6 0.0000 0.0000 0.0000 0.0000 0.0000 20.2429
#
#
#
# Elastic Compliance Matrix: (Units=1/GPa)
#
#
# Indices 1 2 3 4 5 6 
#
# 1 0.063978 -0.016892 -0.009038 0.000000 0.000000 0.000000
# 2 -0.016892 0.019731 -0.001540 0.000000 0.000000 0.000000
# 3 -0.009038 -0.001540 0.008820 0.000000 0.000000 0.000000
# 4 0.000000 0.000000 0.000000 0.022990 0.000000 0.000000
# 5 0.000000 0.000000 0.000000 0.000000 0.053337 0.000000
# 6 0.000000 0.000000 0.000000 0.000000 0.000000 0.049400
#
#
# Mechanical properties :
#
#
# Convention : Reuss Voigt Hill
#
# Bulk Modulus (GPa) = 26.60229 49.91896 38.26063
# Shear Modulus (GPa) = 17.49919 27.07481 22.28700
#
# Velocity S-wave (km/s) = 3.01606 3.75158 3.40375
# Velocity P-wave (km/s) = 5.09486 6.68695 5.94445
#
# Compressibility (1/GPa) = 0.03759075
#
# Stress axis : x y z
#
# Youngs Moduli (GPa) = 15.63026 50.68041 113.37522
#
# Poissons Ratio (x) = 0.85607 1.02473
# Poissons Ratio (y) = 0.26402 0.17458
# Poissons Ratio (z) = 0.14127 0.07804
#
# Static dielectric constant tensor:
#      x y z
#    x 1.654960 0.000000 0.000000 
#    y 0.000000 1.639310 0.000000 
#    z 0.000000 0.000000 1.651220 
# 
# From -- ./inp_files/2659.got.cif
#   From: 2010.05.17/outbox.cif.g08.bks.cpg/sg36_2_cif.got.tgz:2659.got - 2010.06.03 17:41:39.
