data_PCOD9351291
_publ_section_title
;
Structure prediction by ZEFSAII (Michael W. Deem and Ramdas Pophale) SiO2 
 PCOD9351291
Probable space group: C M C 21
;
_chemical_formula_sum "Si O2"
_cell_formula_units_Z 64
_cell_length_a 8.501449
_cell_length_b 23.494980
_cell_length_c 16.673981
_cell_angle_alpha 90.000000
_cell_angle_beta 90.000000
_cell_angle_gamma 90.000000
_cell_volume 3330.483879
_symmetry_space_group_name_H-M "C M C 21"
_symmetry_group_IT_number 36
_symmetry_cell_setting 'orthorhombic'
loop_
_space_group_symop_operation_xyz
x,y,z
-x,-y,1/2+z
x,-y,1/2+z
-x,y,z
1/2+x,1/2+y,z
1/2-x,1/2-y,1/2+z
1/2+x,1/2-y,1/2+z
1/2-x,1/2+y,z
loop_
_atom_site_type_symbol
_atom_site_label
_atom_site_fract_x
_atom_site_fract_y
_atom_site_fract_z
Si Si1 0.316925 0.567406 0.580490
Si Si2 0.822010 0.051212 0.004816
Si Si3 0.312623 0.842644 0.962888
Si Si4 0.810819 0.594929 0.299856
Si Si5 0.809479 0.531906 0.751451
Si Si6 0.180101 0.621286 0.875024
Si Si7 0.311514 0.783148 0.491831
Si Si8 0.316799 0.644456 0.138124
O O1 0.500000 0.580842 0.594854
O O2 0.309298 0.515185 0.518408
O O3 0.230100 0.619976 0.540339
O O4 0.240111 0.543374 0.660921
O O5 0.804265 0.085527 0.087832
O O6 0.000000 0.064631 0.975270
O O7 0.691623 0.074490 0.945384
O O8 0.500000 0.836345 0.956699
O O9 0.255687 0.875853 0.882615
O O10 0.237591 0.780855 0.974130
O O11 0.753685 0.529757 0.284370
O O12 0.764984 0.633323 0.223039
O O13 0.000000 0.591899 0.303744
O O14 0.748129 0.586599 0.801358
O O15 0.000000 0.531535 0.757575
O O16 0.000000 0.635163 0.854278
O O17 0.250510 0.676445 0.919022
O O18 0.500000 0.788419 0.493358
O O19 0.249850 0.808393 0.576439
O O20 0.500000 0.656458 0.151984
#
# Coordination Sequence:
#
# PCOD9351291 Si02
#       8
#     8   8   8   8   8   8   8   8
#     4  11  22  37  56  84 120 156 192 239 294 351
#     4   9  18  32  53  83 116 147 185 231 287 345
#     4  11  24  42  61  85 117 159 204 248 298 352
#     4  10  21  37  60  89 120 154 199 248 297 354
#     4  10  20  36  58  87 120 153 192 240 295 356
#     4   9  19  35  58  85 112 148 192 236 287 345
#     4  10  21  40  62  85 115 153 201 249 296 351
#     4  10  19  35  60  88 118 154 195 241 292 348
#
# _framework density 19.216426999999999
#
# number of rings (size 3 to 8) (size 9 to 14) (size 15 to 20)
#    0.000    2.000    1.250    2.250    0.000    4.500 
#    2.250    0.000    0.000    0.000    0.000    0.000 
#    0.000    0.000    0.000    0.000    0.000    0.000 
#
# Total GULP energy -178430.999965 kJ/mol
# GULP energy per Si atom -5575.968749 kJ/mol
# Density = 1.917269 g / cm^3
# Si number density = 19.216427 Si / 1000 Ang^3
#
#
#
# Elastic Constant Matrix: (Units=GPa)
#
#
# Indices 1 2 3 4 5 6 
#
# 1 13.9071 13.5756 -0.1727 0.0000 0.0000 0.0000
# 2 13.5756 117.4784 51.6888 0.0000 0.0000 0.0000
# 3 -0.1727 51.6888 59.3729 0.0000 0.0000 0.0000
# 4 0.0000 0.0000 0.0000 23.6738 0.0000 0.0000
# 5 0.0000 0.0000 0.0000 0.0000 11.3619 0.0000
# 6 0.0000 0.0000 0.0000 0.0000 0.0000 22.1026
#
#
#
# Elastic Compliance Matrix: (Units=1/GPa)
#
#
# Indices 1 2 3 4 5 6 
#
# 1 0.088439 -0.016748 0.014838 0.000000 0.000000 0.000000
# 2 -0.016748 0.016969 -0.014821 0.000000 0.000000 0.000000
# 3 0.014838 -0.014821 0.029789 0.000000 0.000000 0.000000
# 4 0.000000 0.000000 0.000000 0.042241 0.000000 0.000000
# 5 0.000000 0.000000 0.000000 0.000000 0.088014 0.000000
# 6 0.000000 0.000000 0.000000 0.000000 0.000000 0.045244
#
#
# Mechanical properties :
#
#
# Convention : Reuss Voigt Hill
#
# Bulk Modulus (GPa) = 9.82962 35.66019 22.74490
# Shear Modulus (GPa) = 13.22509 19.80544 16.51526
#
# Velocity S-wave (km/s) = 2.62624 3.21386 2.93479
# Velocity P-wave (km/s) = 3.78451 5.68940 4.83176
#
# Compressibility (1/GPa) = 0.10173331
#
# Stress axis : x y z
#
# Youngs Moduli (GPa) = 11.30725 58.93165 33.56932
#
# Poissons Ratio (x) = 0.98701 -0.49810
# Poissons Ratio (y) = 0.18938 0.49755
# Poissons Ratio (z) = -0.16778 0.87345
#
# Static dielectric constant tensor:
#      x y z
#    x 1.680370 0.000000 0.000000 
#    y 0.000000 1.665340 0.000000 
#    z 0.000000 0.000000 1.687030 
# 
# From -- ./inp_files/10874.got.cif
#   From: 2010.05.17/outbox.cif.g08.bks.cpg/sg36_6_cif.got.tgz:10874.got - 2010.06.03 17:41:39.
