data_PCOD9351370
_publ_section_title
;
Structure prediction by ZEFSAII (Michael W. Deem and Ramdas Pophale) SiO2 
 PCOD9351370
Probable space group: C M C 21
;
_chemical_formula_sum "Si O2"
_cell_formula_units_Z 56
_cell_length_a 30.212382
_cell_length_b 5.514821
_cell_length_c 13.592222
_cell_angle_alpha 90.000000
_cell_angle_beta 90.000000
_cell_angle_gamma 90.000000
_cell_volume 2264.680012
_symmetry_space_group_name_H-M "C M C 21"
_symmetry_group_IT_number 36
_symmetry_cell_setting 'orthorhombic'
loop_
_space_group_symop_operation_xyz
x,y,z
-x,-y,1/2+z
x,-y,1/2+z
-x,y,z
1/2+x,1/2+y,z
1/2-x,1/2-y,1/2+z
1/2+x,1/2-y,1/2+z
1/2-x,1/2+y,z
loop_
_atom_site_type_symbol
_atom_site_label
_atom_site_fract_x
_atom_site_fract_y
_atom_site_fract_z
Si Si1 0.244550 0.856110 0.936130
Si Si2 0.924555 0.158517 0.816785
Si Si3 0.419078 0.016864 0.486579
Si Si4 0.000000 0.855231 0.728943
Si Si5 0.724291 0.149054 0.216901
Si Si6 0.145764 0.182213 0.363094
Si Si7 0.628474 0.004398 0.677720
Si Si8 0.000000 0.345896 0.604370
O O1 0.251094 0.606790 0.992215
O O2 0.276172 0.854720 0.838779
O O3 0.195305 0.843569 0.895324
O O4 0.955620 0.929453 0.789976
O O5 0.909134 0.329489 0.726605
O O6 0.878493 0.072134 0.862689
O O7 0.943250 0.315285 0.906336
O O8 0.457350 0.861952 0.536022
O O9 0.382621 0.858305 0.431199
O O10 0.391968 0.121317 0.579776
O O11 0.000000 0.083603 0.654443
O O12 0.000000 0.588208 0.678143
O O13 0.749539 0.399572 0.194406
O O14 0.675022 0.140281 0.170687
O O15 0.141079 0.286524 0.253953
#
# Coordination Sequence:
#
# PCOD9351370 Si02
#       8
#     8   8   8   4   8   8   8   4
#     4  10  19  37  66  98 135 192 241 296 357 427
#     4  11  25  44  72 106 142 195 243 314 371 466
#     4  11  27  45  71 110 149 187 244 321 371 451
#     4  12  27  49  82 105 138 200 242 294 387 452
#     4  10  19  36  65  96 133 189 240 293 352 431
#     4  11  24  41  72 104 146 194 250 302 377 442
#     4  11  22  43  69 101 143 193 247 299 376 443
#     4  12  27  53  76 107 146 192 240 300 375 452
#
# _framework density 24.727556
#
# number of rings (size 3 to 8) (size 9 to 14) (size 15 to 20)
#    0.000    1.143    4.286    3.000    6.000    1.714 
#    0.000    1.429    0.000    0.000    0.000    0.000 
#    0.000    0.000    0.000    0.000    0.000    0.000 
#
# Total GULP energy -156576.880386 kJ/mol
# GULP energy per Si atom -5592.031442 kJ/mol
# Density = 2.467128 g / cm^3
# Si number density = 24.727556 Si / 1000 Ang^3
#
#
#
# Elastic Constant Matrix: (Units=GPa)
#
#
# Indices 1 2 3 4 5 6 
#
# 1 94.4433 3.4720 10.7316 0.0000 0.0000 0.0000
# 2 3.4720 117.8247 13.9621 0.0000 0.0000 0.0000
# 3 10.7316 13.9621 77.8661 0.0000 0.0000 0.0000
# 4 0.0000 0.0000 0.0000 14.4953 0.0000 0.0000
# 5 0.0000 0.0000 0.0000 0.0000 11.9095 0.0000
# 6 0.0000 0.0000 0.0000 0.0000 0.0000 40.4081
#
#
#
# Elastic Compliance Matrix: (Units=1/GPa)
#
#
# Indices 1 2 3 4 5 6 
#
# 1 0.010759 -0.000144 -0.001457 0.000000 0.000000 0.000000
# 2 -0.000144 0.008673 -0.001535 0.000000 0.000000 0.000000
# 3 -0.001457 -0.001535 0.013319 0.000000 0.000000 0.000000
# 4 0.000000 0.000000 0.000000 0.068988 0.000000 0.000000
# 5 0.000000 0.000000 0.000000 0.000000 0.083967 0.000000
# 6 0.000000 0.000000 0.000000 0.000000 0.000000 0.024748
#
#
# Mechanical properties :
#
#
# Convention : Reuss Voigt Hill
#
# Bulk Modulus (GPa) = 37.76734 38.49617 38.13175
# Shear Modulus (GPa) = 22.16779 30.82714 26.49747
#
# Velocity S-wave (km/s) = 2.99738 3.53465 3.27705
# Velocity P-wave (km/s) = 5.22356 5.67981 5.45646
#
# Compressibility (1/GPa) = 0.02647791
#
# Stress axis : x y z
#
# Youngs Moduli (GPa) = 92.94348 115.29544 75.08269
#
# Poissons Ratio (x) = 0.01665 0.10939
# Poissons Ratio (y) = 0.01342 0.11527
# Poissons Ratio (z) = 0.13541 0.17701
#
# Static dielectric constant tensor:
#      x y z
#    x 1.964120 0.000000 0.000000 
#    y 0.000000 2.008360 0.000000 
#    z 0.000000 0.000000 2.018970 
# 
# From -- ./inp_files/13189.got.cif
#   From: 2010.05.17/outbox.cif.g08.bks.cpg/sg36_7_cif.got.tgz:13189.got - 2010.06.03 17:41:39.
