data_PCOD9351552
_publ_section_title
;
Structure prediction by ZEFSAII (Michael W. Deem and Ramdas Pophale) SiO2 
 PCOD9351552
Probable space group: C M C 21
;
_chemical_formula_sum "Si O2"
_cell_formula_units_Z 56
_cell_length_a 10.953083
_cell_length_b 13.623734
_cell_length_c 19.345937
_cell_angle_alpha 90.000000
_cell_angle_beta 90.000000
_cell_angle_gamma 90.000000
_cell_volume 2886.837269
_symmetry_space_group_name_H-M "C M C 21"
_symmetry_group_IT_number 36
_symmetry_cell_setting 'orthorhombic'
loop_
_space_group_symop_operation_xyz
x,y,z
-x,-y,1/2+z
x,-y,1/2+z
-x,y,z
1/2+x,1/2+y,z
1/2-x,1/2-y,1/2+z
1/2+x,1/2-y,1/2+z
1/2-x,1/2+y,z
loop_
_atom_site_type_symbol
_atom_site_label
_atom_site_fract_x
_atom_site_fract_y
_atom_site_fract_z
Si Si1 0.869666 0.638581 0.280280
Si Si2 0.862667 0.779678 0.861470
Si Si3 0.205878 0.434010 0.332688
Si Si4 0.141946 0.908008 0.196040
Si Si5 0.355759 0.573110 0.086979
Si Si6 0.857893 0.956300 0.949902
Si Si7 0.139615 0.707530 0.123327
O O1 0.747312 0.684382 0.312575
O O2 0.869983 0.525078 0.302587
O O3 0.866122 0.654611 0.198352
O O4 0.000000 0.682777 0.304900
O O5 0.857011 0.662501 0.863394
O O6 0.841462 0.840844 0.932351
O O7 0.000000 0.807329 0.836760
O O8 0.283321 0.400628 0.266075
O O9 0.285429 0.482174 0.393137
O O10 0.169254 0.820071 0.142704
O O11 0.000000 0.897163 0.213375
O O12 0.157710 0.011717 0.157879
O O13 0.500000 0.603946 0.082054
O O14 0.252365 0.656807 0.084124
O O15 0.329628 0.495723 0.025667
O O16 0.000000 0.976747 0.939354
O O17 0.000000 0.702136 0.093844
#
# Coordination Sequence:
#
# PCOD9351552 Si02
#       7
#     8   8   8   8   8   8   8
#     4  10  20  34  53  84 120 147 178 232 288 337
#     4  10  21  36  57  85 113 148 189 234 280 336
#     4  11  19  34  57  87 113 148 187 238 289 336
#     4  10  20  34  57  84 112 148 190 231 287 344
#     4  10  21  40  59  81 112 153 194 233 278 337
#     4   9  21  38  57  81 116 152 190 233 281 340
#     4  10  20  36  56  84 115 148 187 233 288 340
#
# _framework density 19.398391
#
# number of rings (size 3 to 8) (size 9 to 14) (size 15 to 20)
#    0.000    2.000    2.857    0.857    0.000    2.857 
#    0.000    5.714    0.000    0.000    0.000    0.000 
#    0.000    0.000    0.000    0.000    0.000    0.000 
#
# Total GULP energy -155985.577965 kJ/mol
# GULP energy per Si atom -5570.913499 kJ/mol
# Density = 1.935424 g / cm^3
# Si number density = 19.398391 Si / 1000 Ang^3
#
#
#
# Elastic Constant Matrix: (Units=GPa)
#
#
# Indices 1 2 3 4 5 6 
#
# 1 38.6147 27.1191 8.5585 0.0000 0.0000 0.0000
# 2 27.1191 79.9052 -6.5207 0.0000 0.0000 0.0000
# 3 8.5585 -6.5207 27.3115 0.0000 0.0000 0.0000
# 4 0.0000 0.0000 0.0000 13.5099 0.0000 0.0000
# 5 0.0000 0.0000 0.0000 0.0000 23.1760 0.0000
# 6 0.0000 0.0000 0.0000 0.0000 0.0000 18.8993
#
#
#
# Elastic Compliance Matrix: (Units=1/GPa)
#
#
# Indices 1 2 3 4 5 6 
#
# 1 0.039876 -0.014842 -0.016039 0.000000 0.000000 0.000000
# 2 -0.014842 0.018288 0.009017 0.000000 0.000000 0.000000
# 3 -0.016039 0.009017 0.043794 0.000000 0.000000 0.000000
# 4 0.000000 0.000000 0.000000 0.074020 0.000000 0.000000
# 5 0.000000 0.000000 0.000000 0.000000 0.043148 0.000000
# 6 0.000000 0.000000 0.000000 0.000000 0.000000 0.052912
#
#
# Mechanical properties :
#
#
# Convention : Reuss Voigt Hill
#
# Bulk Modulus (GPa) = 17.17359 22.68279 19.92819
# Shear Modulus (GPa) = 14.91757 18.89533 16.90645
#
# Velocity S-wave (km/s) = 2.77611 3.12439 2.95539
# Velocity P-wave (km/s) = 4.37585 4.97336 4.68414
#
# Compressibility (1/GPa) = 0.05822895
#
# Stress axis : x y z
#
# Youngs Moduli (GPa) = 25.07801 54.68053 22.83431
#
# Poissons Ratio (x) = 0.81158 0.36625
# Poissons Ratio (y) = 0.37222 -0.20591
# Poissons Ratio (z) = 0.40223 -0.49308
#
# Static dielectric constant tensor:
#      x y z
#    x 1.681490 0.000000 0.000000 
#    y 0.000000 1.724160 0.000000 
#    z 0.000000 0.000000 1.675700 
# 
# From -- ./inp_files/15483.got.cif
#   From: 2010.05.17/outbox.cif.g08.bks.cpg/sg36_8_cif.got.tgz:15483.got - 2010.06.03 17:41:39.
