data_PCOD9351706
_publ_section_title
;
Structure prediction by ZEFSAII (Michael W. Deem and Ramdas Pophale) SiO2 
 PCOD9351706
Probable space group: C M C 21
;
_chemical_formula_sum "Si O2"
_cell_formula_units_Z 56
_cell_length_a 10.744584
_cell_length_b 23.903159
_cell_length_c 11.198148
_cell_angle_alpha 90.000000
_cell_angle_beta 90.000000
_cell_angle_gamma 90.000000
_cell_volume 2876.014749
_symmetry_space_group_name_H-M "C M C 21"
_symmetry_group_IT_number 36
_symmetry_cell_setting 'orthorhombic'
loop_
_space_group_symop_operation_xyz
x,y,z
-x,-y,1/2+z
x,-y,1/2+z
-x,y,z
1/2+x,1/2+y,z
1/2-x,1/2-y,1/2+z
1/2+x,1/2-y,1/2+z
1/2-x,1/2+y,z
loop_
_atom_site_type_symbol
_atom_site_label
_atom_site_fract_x
_atom_site_fract_y
_atom_site_fract_z
Si Si1 0.644998 0.712219 0.349960
Si Si2 0.647452 0.146977 0.201059
Si Si3 0.641479 0.512397 0.444496
Si Si4 0.724274 0.980238 0.689287
Si Si5 0.852236 0.669692 0.934740
Si Si6 0.364823 0.633071 0.564616
Si Si7 0.862740 0.600112 0.721384
O O1 0.500000 0.707924 0.303756
O O2 0.751475 0.676074 0.286082
O O3 0.688205 0.776436 0.359440
O O4 0.638686 0.687776 0.483811
O O5 0.500000 0.160958 0.221245
O O6 0.660667 0.079702 0.205598
O O7 0.691605 0.165294 0.068978
O O8 0.500000 0.492028 0.443255
O O9 0.693186 0.509248 0.309321
O O10 0.708720 0.483680 0.559195
O O11 0.641700 0.578442 0.479313
O O12 0.637773 0.034818 0.691930
O O13 0.833924 0.613477 0.859266
O O14 0.000000 0.677353 0.946347
O O15 0.500000 0.630030 0.626949
O O16 0.246788 0.628529 0.648203
O O17 0.000000 0.623567 0.695143
#
# Coordination Sequence:
#
# PCOD9351706 Si02
#       7
#     8   8   8   8   8   8   8
#     4  10  21  40  62  84 115 157 199 251 309 361
#     4  11  23  40  63  92 121 160 207 254 307 373
#     4  10  20  35  57  85 122 162 207 252 303 363
#     4  11  21  37  59  91 125 168 203 254 309 368
#     4   9  21  40  61  86 123 161 199 250 312 364
#     4   9  19  36  57  83 112 150 197 247 298 351
#     4  10  21  38  59  87 121 160 197 242 297 362
#
# _framework density 19.471388000000001
#
# number of rings (size 3 to 8) (size 9 to 14) (size 15 to 20)
#    0.000    2.000    1.429    1.714    2.000    1.714 
#    0.000    2.857    0.000    0.000    0.000    0.000 
#    0.000    0.000    0.000    0.000    0.000    0.000 
#
# Total GULP energy -155914.174014 kJ/mol
# GULP energy per Si atom -5568.363358 kJ/mol
# Density = 1.942707 g / cm^3
# Si number density = 19.471388 Si / 1000 Ang^3
#
#
#
# Elastic Constant Matrix: (Units=GPa)
#
#
# Indices 1 2 3 4 5 6 
#
# 1 120.6696 20.8960 59.7210 0.0000 0.0000 0.0000
# 2 20.8960 71.0780 12.5409 0.0000 0.0000 0.0000
# 3 59.7210 12.5409 87.0947 0.0000 0.0000 0.0000
# 4 0.0000 0.0000 0.0000 25.5150 0.0000 0.0000
# 5 0.0000 0.0000 0.0000 0.0000 22.0892 0.0000
# 6 0.0000 0.0000 0.0000 0.0000 0.0000 -1.3727
#
#
#
# Elastic Compliance Matrix: (Units=1/GPa)
#
#
# Indices 1 2 3 4 5 6 
#
# 1 0.012897 -0.002289 -0.008514 0.000000 0.000000 0.000000
# 2 -0.002289 0.014842 -0.000567 0.000000 0.000000 0.000000
# 3 -0.008514 -0.000567 0.017402 0.000000 0.000000 0.000000
# 4 0.000000 0.000000 0.000000 0.039193 0.000000 0.000000
# 5 0.000000 0.000000 0.000000 0.000000 0.045271 0.000000
# 6 0.000000 0.000000 0.000000 0.000000 0.000000 -0.728495
#
#
# Mechanical properties :
#
#
# Convention : Reuss Voigt Hill
#
# Bulk Modulus (GPa) = 44.64380 51.68421 48.16401
# Shear Modulus (GPa) = -8.79225 21.62524 6.41650
#
# Velocity S-wave (km/s) = -2.12727 3.33621 1.81728
# Velocity P-wave (km/s) = 4.11631 6.43752 5.40304
#
# Compressibility (1/GPa) = 0.02239953
#
# Stress axis : x y z
#
# Youngs Moduli (GPa) = 77.53591 67.37548 57.46621
#
# Poissons Ratio (x) = 0.15425 0.48927
# Poissons Ratio (y) = 0.17751 0.03260
# Poissons Ratio (z) = 0.66014 0.03822
#
# Static dielectric constant tensor:
#      x y z
#    x 1.687810 0.000000 0.000000 
#    y 0.000000 1.714450 0.000000 
#    z 0.000000 0.000000 1.688450 
# 
# From -- ./inp_files/7968.got.cif
#   From: 2010.05.17/outbox.cif.g08.bks.cpg/sg36_4_cif.got.tgz:7968.got - 2010.06.03 17:41:39.
