data_PCOD9351109
_publ_section_title
;
Structure prediction by ZEFSAII (Michael W. Deem and Ramdas Pophale) SiO2 
 PCOD9351109
Probable space group: C M C 21
;
_chemical_formula_sum "Si O2"
_cell_formula_units_Z 64
_cell_length_a 9.231032
_cell_length_b 25.533256
_cell_length_c 15.615199
_cell_angle_alpha 90.000000
_cell_angle_beta 90.000000
_cell_angle_gamma 90.000000
_cell_volume 3680.475908
_symmetry_space_group_name_H-M "C M C 21"
_symmetry_group_IT_number 36
_symmetry_cell_setting 'orthorhombic'
loop_
_space_group_symop_operation_xyz
x,y,z
-x,-y,1/2+z
x,-y,1/2+z
-x,y,z
1/2+x,1/2+y,z
1/2-x,1/2-y,1/2+z
1/2+x,1/2-y,1/2+z
1/2-x,1/2+y,z
loop_
_atom_site_type_symbol
_atom_site_label
_atom_site_fract_x
_atom_site_fract_y
_atom_site_fract_z
Si Si1 0.668382 0.745306 0.964100
Si Si2 0.830377 0.993662 0.165461
Si Si3 0.673284 0.022560 0.992105
Si Si4 0.671811 0.626637 0.940765
Si Si5 0.671778 0.345561 0.928922
Si Si6 0.666003 0.829969 0.093956
Si Si7 0.335433 0.376456 0.237556
Si Si8 0.826128 0.953986 0.844469
O O1 0.500000 0.745796 0.936641
O O2 0.718236 0.685867 0.962282
O O3 0.755852 0.789051 0.910325
O O4 0.674723 0.770501 0.059194
O O5 0.791063 0.029623 0.247338
O O6 0.000000 0.003448 0.143573
O O7 0.818958 0.934386 0.199282
O O8 0.732577 0.001590 0.082602
O O9 0.500000 0.020545 0.987766
O O10 0.733880 0.081572 0.983229
O O11 0.742818 0.989324 0.913898
O O12 0.500000 0.620443 0.962150
O O13 0.686094 0.621061 0.838532
O O14 0.500000 0.339772 0.935500
O O15 0.704361 0.393170 0.865344
O O16 0.737505 0.359803 0.022592
O O17 0.500000 0.847024 0.087011
O O18 0.727047 0.839233 0.187162
O O19 0.500000 0.358651 0.221394
O O20 0.000000 0.962775 0.855717
#
# Coordination Sequence:
#
# PCOD9351109 Si02
#       8
#     8   8   8   8   8   8   8   8
#     4   8  18  35  56  80 108 147 187 227 286 341
#     4  10  21  38  58  81 112 153 200 237 280 352
#     4  12  25  37  55  87 121 152 185 238 304 346
#     4  10  20  40  62  80 112 156 199 233 281 354
#     4   9  17  31  56  83 109 142 188 235 278 332
#     4   9  18  32  51  79 112 144 183 228 282 336
#     4  10  19  33  58  85 107 144 196 242 280 330
#     4  10  20  38  60  83 111 152 198 234 279 345
#
# _framework density 17.389054999999999
#
# number of rings (size 3 to 8) (size 9 to 14) (size 15 to 20)
#    0.750    1.500    1.250    2.250    0.000    6.000 
#    0.000    1.250    0.000    4.500    0.000    0.000 
#    0.000    0.000    0.000    0.000    0.000    0.000 
#
# Total GULP energy -178269.512609 kJ/mol
# GULP energy per Si atom -5570.922269 kJ/mol
# Density = 1.734948 g / cm^3
# Si number density = 17.389055 Si / 1000 Ang^3
#
#
#
# Elastic Constant Matrix: (Units=GPa)
#
#
# Indices 1 2 3 4 5 6 
#
# 1 53.9822 27.3843 17.5106 0.0000 0.0000 0.0000
# 2 27.3843 66.0191 1.1484 0.0000 0.0000 0.0000
# 3 17.5106 1.1484 36.4258 0.0000 0.0000 0.0000
# 4 0.0000 0.0000 0.0000 15.8449 0.0000 0.0000
# 5 0.0000 0.0000 0.0000 0.0000 8.7836 0.0000
# 6 0.0000 0.0000 0.0000 0.0000 0.0000 22.9781
#
#
#
# Elastic Compliance Matrix: (Units=1/GPa)
#
#
# Indices 1 2 3 4 5 6 
#
# 1 0.028858 -0.011735 -0.013502 0.000000 0.000000 0.000000
# 2 -0.011735 0.019928 0.005013 0.000000 0.000000 0.000000
# 3 -0.013502 0.005013 0.033786 0.000000 0.000000 0.000000
# 4 0.000000 0.000000 0.000000 0.063112 0.000000 0.000000
# 5 0.000000 0.000000 0.000000 0.000000 0.113849 0.000000
# 6 0.000000 0.000000 0.000000 0.000000 0.000000 0.043520
#
#
# Mechanical properties :
#
#
# Convention : Reuss Voigt Hill
#
# Bulk Modulus (GPa) = 23.74051 27.61263 25.67657
# Shear Modulus (GPa) = 13.98442 16.88024 15.43233
#
# Velocity S-wave (km/s) = 2.83893 3.11905 2.98228
# Velocity P-wave (km/s) = 4.94249 5.37448 5.16301
#
# Compressibility (1/GPa) = 0.04212210
#
# Stress axis : x y z
#
# Youngs Moduli (GPa) = 34.65303 50.18181 29.59812
#
# Poissons Ratio (x) = 0.58888 0.39965
# Poissons Ratio (y) = 0.40665 -0.14838
# Poissons Ratio (z) = 0.46790 -0.25156
#
# Static dielectric constant tensor:
#      x y z
#    x 1.591530 0.000000 0.000000 
#    y 0.000000 1.602540 0.000000 
#    z 0.000000 0.000000 1.580320 
# 
# From -- ./inp_files/10907.got.cif
#   From: 2010.05.17/outbox.cif.g08.bks.cpg/sg36_6_cif.got.tgz:10907.got - 2010.06.03 17:41:39.
