data_PCOD9351588
_publ_section_title
;
Structure prediction by ZEFSAII (Michael W. Deem and Ramdas Pophale) SiO2 
 PCOD9351588
Probable space group: C M C 21
;
_chemical_formula_sum "Si O2"
_cell_formula_units_Z 40
_cell_length_a 19.136293
_cell_length_b 9.579381
_cell_length_c 9.850131
_cell_angle_alpha 90.000000
_cell_angle_beta 90.000000
_cell_angle_gamma 90.000000
_cell_volume 1805.665354
_symmetry_space_group_name_H-M "C M C 21"
_symmetry_group_IT_number 36
_symmetry_cell_setting 'orthorhombic'
loop_
_space_group_symop_operation_xyz
x,y,z
-x,-y,1/2+z
x,-y,1/2+z
-x,y,z
1/2+x,1/2+y,z
1/2-x,1/2-y,1/2+z
1/2+x,1/2-y,1/2+z
1/2-x,1/2+y,z
loop_
_atom_site_type_symbol
_atom_site_label
_atom_site_fract_x
_atom_site_fract_y
_atom_site_fract_z
Si Si1 0.500000 0.681763 0.653841
Si Si2 0.639923 0.579311 0.263851
Si Si3 0.800701 0.326980 0.142685
Si Si4 0.000000 0.014581 0.400619
Si Si5 0.351307 0.260335 0.172368
Si Si6 0.707673 0.955048 0.874079
O O1 0.500000 0.538665 0.562715
O O2 0.500000 0.630680 0.813113
O O3 0.570543 0.767285 0.619830
O O4 0.645452 0.700230 0.151879
O O5 0.570504 0.589326 0.350883
O O6 0.642735 0.425510 0.201845
O O7 0.711074 0.585323 0.351355
O O8 0.726055 0.255180 0.106976
O O9 0.801230 0.403242 0.288850
O O10 0.811298 0.446874 0.031543
O O11 0.338942 0.164426 0.303696
#
# Coordination Sequence:
#
# PCOD9351588 Si02
#       6
#     4   8   8   4   8   8
#     4  10  20  34  55  84 115 146 182 228 280 332
#     4   9  20  35  56  83 113 146 184 227 275 329
#     4  10  21  37  58  84 114 148 187 231 279 331
#     4  10  20  34  55  84 115 146 182 228 280 332
#     4   9  20  35  56  83 113 146 184 227 275 329
#     4  10  21  37  58  84 114 148 187 231 279 331
#
# _framework density 22.1525
#
# number of rings (size 3 to 8) (size 9 to 14) (size 15 to 20)
#    0.000    2.400    0.000    1.200    0.000   22.400 
#    0.000    1.000    0.000    0.000    0.000    0.000 
#    0.000    0.000    0.000    0.000    0.000    0.000 
#
# Total GULP energy -111401.614891 kJ/mol
# GULP energy per Si atom -5570.080745 kJ/mol
# Density = 2.210208 g / cm^3
# Si number density = 22.152500 Si / 1000 Ang^3
#
#
#
# Elastic Constant Matrix: (Units=GPa)
#
#
# Indices 1 2 3 4 5 6 
#
# 1 97.9418 21.1341 -4.0437 0.0000 0.0000 0.0000
# 2 21.1341 84.1839 4.5377 0.0000 0.0000 0.0000
# 3 -4.0437 4.5377 29.4959 0.0000 0.0000 0.0000
# 4 0.0000 0.0000 0.0000 28.8781 0.0000 0.0000
# 5 0.0000 0.0000 0.0000 0.0000 8.7702 0.0000
# 6 0.0000 0.0000 0.0000 0.0000 0.0000 13.6358
#
#
#
# Elastic Compliance Matrix: (Units=1/GPa)
#
#
# Indices 1 2 3 4 5 6 
#
# 1 0.010903 -0.002841 0.001932 0.000000 0.000000 0.000000
# 2 -0.002841 0.012719 -0.002346 0.000000 0.000000 0.000000
# 3 0.001932 -0.002346 0.034529 0.000000 0.000000 0.000000
# 4 0.000000 0.000000 0.000000 0.034628 0.000000 0.000000
# 5 0.000000 0.000000 0.000000 0.000000 0.114022 0.000000
# 6 0.000000 0.000000 0.000000 0.000000 0.000000 0.073336
#
#
# Mechanical properties :
#
#
# Convention : Reuss Voigt Hill
#
# Bulk Modulus (GPa) = 19.36518 28.31976 23.84247
# Shear Modulus (GPa) = 16.45487 22.92305 19.68896
#
# Velocity S-wave (km/s) = 2.72839 3.22030 2.98450
# Velocity P-wave (km/s) = 4.32276 5.16128 4.76052
#
# Compressibility (1/GPa) = 0.05163909
#
# Stress axis : x y z
#
# Youngs Moduli (GPa) = 91.71779 78.62545 28.96131
#
# Poissons Ratio (x) = 0.22340 -0.05595
# Poissons Ratio (y) = 0.26060 0.06795
# Poissons Ratio (z) = -0.17718 0.18447
#
# Static dielectric constant tensor:
#      x y z
#    x 1.864910 0.000000 0.000000 
#    y 0.000000 1.812590 0.000000 
#    z 0.000000 0.000000 1.885850 
# 
# From -- ./inp_files/5105.got.cif
#   From: 2010.05.17/outbox.cif.g08.bks.cpg/sg36_3_cif.got.tgz:5105.got - 2010.06.03 17:41:39.
