data_PCOD9351488
_publ_section_title
;
Structure prediction by ZEFSAII (Michael W. Deem and Ramdas Pophale) SiO2 
 PCOD9351488
Probable space group: C M C 21
;
_chemical_formula_sum "Si O2"
_cell_formula_units_Z 64
_cell_length_a 29.730077
_cell_length_b 13.836894
_cell_length_c 8.218052
_cell_angle_alpha 90.000000
_cell_angle_beta 90.000000
_cell_angle_gamma 90.000000
_cell_volume 3380.675863
_symmetry_space_group_name_H-M "C M C 21"
_symmetry_group_IT_number 36
_symmetry_cell_setting 'orthorhombic'
loop_
_space_group_symop_operation_xyz
x,y,z
-x,-y,1/2+z
x,-y,1/2+z
-x,y,z
1/2+x,1/2+y,z
1/2-x,1/2-y,1/2+z
1/2+x,1/2-y,1/2+z
1/2-x,1/2+y,z
loop_
_atom_site_type_symbol
_atom_site_label
_atom_site_fract_x
_atom_site_fract_y
_atom_site_fract_z
Si Si1 0.283926 0.849573 0.124000
Si Si2 0.638306 0.643562 0.446950
Si Si3 0.172497 0.963402 0.641154
Si Si4 0.806810 0.275910 0.635172
Si Si5 0.853441 0.213213 0.961800
Si Si6 0.272243 0.037906 0.282265
Si Si7 0.550407 0.411536 0.077692
Si Si8 0.551383 0.371251 0.462530
O O1 0.241068 0.779742 0.154342
O O2 0.327333 0.785420 0.082488
O O3 0.289767 0.928986 0.264309
O O4 0.273946 0.912322 0.959209
O O5 0.656375 0.566734 0.581225
O O6 0.642880 0.590219 0.276339
O O7 0.669585 0.736433 0.472434
O O8 0.586309 0.655074 0.487833
O O9 0.169563 0.891522 0.487958
O O10 0.221278 0.967008 0.719697
O O11 0.797502 0.388410 0.661124
O O12 0.840601 0.247446 0.781583
O O13 0.906531 0.199554 0.992264
O O14 0.500000 0.395201 0.016580
O O15 0.552049 0.391711 0.269173
O O16 0.560559 0.524656 0.045227
O O17 0.500000 0.341251 0.505994
#
# Coordination Sequence:
#
# PCOD9351488 Si02
#       8
#     8   8   8   8   8   8   8   8
#     4  11  24  37  55  76 108 144 186 226 270 324
#     4  12  21  33  50  79 105 151 180 215 267 321
#     4  12  21  31  52  75 109 142 185 218 264 317
#     4  11  22  36  54  77 106 143 185 221 263 328
#     4  11  23  37  53  80 110 147 187 224 269 332
#     4  11  23  36  51  77 105 144 178 227 268 313
#     4  10  20  33  51  78 111 144 180 222 268 323
#     4  10  20  35  55  80 112 147 184 227 275 330
#
# _framework density 18.931125000000002
#
# number of rings (size 3 to 8) (size 9 to 14) (size 15 to 20)
#    0.000    1.000    6.250    1.500    1.750    1.000 
#    0.000    0.000    0.000    0.000    0.000    4.375 
#    0.000    0.000    0.000    0.000    0.000    0.000 
#
# Total GULP energy -178891.650909 kJ/mol
# GULP energy per Si atom -5590.364091 kJ/mol
# Density = 1.888804 g / cm^3
# Si number density = 18.931125 Si / 1000 Ang^3
#
#
#
# Elastic Constant Matrix: (Units=GPa)
#
#
# Indices 1 2 3 4 5 6 
#
# 1 125.9339 36.7285 11.5304 0.0000 0.0000 0.0000
# 2 36.7285 55.9059 -6.4391 0.0000 0.0000 0.0000
# 3 11.5304 -6.4391 43.5470 0.0000 0.0000 0.0000
# 4 0.0000 0.0000 0.0000 24.3348 0.0000 0.0000
# 5 0.0000 0.0000 0.0000 0.0000 24.4933 0.0000
# 6 0.0000 0.0000 0.0000 0.0000 0.0000 24.6223
#
#
#
# Elastic Compliance Matrix: (Units=1/GPa)
#
#
# Indices 1 2 3 4 5 6 
#
# 1 0.010417 -0.007285 -0.003835 0.000000 0.000000 0.000000
# 2 -0.007285 0.023292 0.005373 0.000000 0.000000 0.000000
# 3 -0.003835 0.005373 0.024774 0.000000 0.000000 0.000000
# 4 0.000000 0.000000 0.000000 0.041093 0.000000 0.000000
# 5 0.000000 0.000000 0.000000 0.000000 0.040827 0.000000
# 6 0.000000 0.000000 0.000000 0.000000 0.000000 0.040614
#
#
# Mechanical properties :
#
#
# Convention : Reuss Voigt Hill
#
# Bulk Modulus (GPa) = 21.28216 34.33625 27.80921
# Shear Modulus (GPa) = 24.01836 26.92788 25.47312
#
# Velocity S-wave (km/s) = 3.56578 3.77558 3.67218
# Velocity P-wave (km/s) = 5.31219 6.09783 5.71852
#
# Compressibility (1/GPa) = 0.04698771
#
# Stress axis : x y z
#
# Youngs Moduli (GPa) = 96.00133 42.93296 40.36538
#
# Poissons Ratio (x) = 0.31277 0.15481
# Poissons Ratio (y) = 0.69938 -0.21689
# Poissons Ratio (z) = 0.36819 -0.23068
#
# Static dielectric constant tensor:
#      x y z
#    x 1.685170 0.000000 0.000000 
#    y 0.000000 1.660280 0.000000 
#    z 0.000000 0.000000 1.744270 
# 
# From -- ./inp_files/6126.got.cif
#   From: 2010.05.17/outbox.cif.g08.bks.cpg/sg36_4_cif.got.tgz:6126.got - 2010.06.03 17:41:39.
