data_PCOD9351858
_publ_section_title
;
Structure prediction by ZEFSAII (Michael W. Deem and Ramdas Pophale) SiO2 
 PCOD9351858
Probable space group: C M C 21
;
_chemical_formula_sum "Si O2"
_cell_formula_units_Z 52
_cell_length_a 7.355208
_cell_length_b 19.614061
_cell_length_c 15.658880
_cell_angle_alpha 90.000000
_cell_angle_beta 90.000000
_cell_angle_gamma 90.000000
_cell_volume 2259.036127
_symmetry_space_group_name_H-M "C M C 21"
_symmetry_group_IT_number 36
_symmetry_cell_setting 'orthorhombic'
loop_
_space_group_symop_operation_xyz
x,y,z
-x,-y,1/2+z
x,-y,1/2+z
-x,y,z
1/2+x,1/2+y,z
1/2-x,1/2-y,1/2+z
1/2+x,1/2-y,1/2+z
1/2-x,1/2+y,z
loop_
_atom_site_type_symbol
_atom_site_label
_atom_site_fract_x
_atom_site_fract_y
_atom_site_fract_z
Si Si1 0.000000 0.927800 0.873670
Si Si2 0.722934 0.732059 0.296205
Si Si3 0.279920 0.777565 0.484614
Si Si4 0.708908 0.176870 0.641795
Si Si5 0.719315 0.074324 0.507605
Si Si6 0.779683 0.424506 0.546481
Si Si7 0.794504 0.422003 0.743156
O O1 0.159189 0.955830 0.809205
O O2 0.159487 0.893013 0.934542
O O3 0.500000 0.726302 0.294561
O O4 0.778769 0.753153 0.391177
O O5 0.784967 0.787460 0.225888
O O6 0.790667 0.658563 0.265711
O O7 0.500000 0.777117 0.486176
O O8 0.217962 0.730378 0.563084
O O9 0.218644 0.854920 0.503114
O O10 0.500000 0.163392 0.663640
O O11 0.774332 0.107271 0.598122
O O12 0.500000 0.081394 0.496881
O O13 0.776627 0.995136 0.503513
O O14 0.729374 0.426783 0.645780
O O15 0.000000 0.424451 0.544829
O O16 0.000000 0.448122 0.749591
#
# Coordination Sequence:
#
# PCOD9351858 Si02
#       7
#     4   8   8   8   8   8   8
#     4  12  24  40  64  94 128 172 214 276 314 388
#     4  10  20  36  60  96 130 162 213 272 331 389
#     4  10  20  36  64  90 121 165 212 264 323 383
#     4  10  21  37  60  91 127 165 205 269 327 382
#     4  10  23  44  66  93 129 171 220 266 333 400
#     4   9  20  42  66  91 126 174 218 269 330 397
#     4  11  22  39  65  97 129 170 221 269 325 400
#
# _framework density 23.018667000000001
#
# number of rings (size 3 to 8) (size 9 to 14) (size 15 to 20)
#    0.000    1.846    2.308    1.385    3.231    2.462 
#    4.154    0.000    0.000    0.000    0.000    0.000 
#    0.000    0.000    0.000    0.000    0.000    0.000 
#
# Total GULP energy -144791.168747 kJ/mol
# GULP energy per Si atom -5568.891106 kJ/mol
# Density = 2.296628 g / cm^3
# Si number density = 23.018667 Si / 1000 Ang^3
#
#
#
# Elastic Constant Matrix: (Units=GPa)
#
#
# Indices 1 2 3 4 5 6 
#
# 1 114.2468 -9.2636 11.1301 0.0000 0.0000 0.0000
# 2 -9.2636 77.6418 3.0838 0.0000 0.0000 0.0000
# 3 11.1301 3.0838 107.7717 0.0000 0.0000 0.0000
# 4 0.0000 0.0000 0.0000 20.9286 0.0000 0.0000
# 5 0.0000 0.0000 0.0000 0.0000 11.5923 0.0000
# 6 0.0000 0.0000 0.0000 0.0000 0.0000 49.8257
#
#
#
# Elastic Compliance Matrix: (Units=1/GPa)
#
#
# Indices 1 2 3 4 5 6 
#
# 1 0.008935 0.001104 -0.000954 0.000000 0.000000 0.000000
# 2 0.001104 0.013031 -0.000487 0.000000 0.000000 0.000000
# 3 -0.000954 -0.000487 0.009391 0.000000 0.000000 0.000000
# 4 0.000000 0.000000 0.000000 0.047782 0.000000 0.000000
# 5 0.000000 0.000000 0.000000 0.000000 0.086264 0.000000
# 6 0.000000 0.000000 0.000000 0.000000 0.000000 0.020070
#
#
# Mechanical properties :
#
#
# Convention : Reuss Voigt Hill
#
# Bulk Modulus (GPa) = 32.59127 34.39563 33.49345
# Shear Modulus (GPa) = 25.46148 36.11665 30.78907
#
# Velocity S-wave (km/s) = 3.32945 3.96538 3.66125
# Velocity P-wave (km/s) = 5.38235 5.99504 5.69694
#
# Compressibility (1/GPa) = 0.03068306
#
# Stress axis : x y z
#
# Youngs Moduli (GPa) = 111.91340 76.74168 106.48069
#
# Poissons Ratio (x) = -0.08472 0.10162
# Poissons Ratio (y) = -0.12355 0.05184
# Poissons Ratio (z) = 0.10681 0.03736
#
# Static dielectric constant tensor:
#      x y z
#    x 1.867910 0.000000 0.000000 
#    y 0.000000 1.917600 0.000000 
#    z 0.000000 0.000000 1.889620 
# 
# From -- ./inp_files/10529.got.cif
#   From: 2010.05.17/outbox.cif.g08.bks.cpg/sg36_6_cif.got.tgz:10529.got - 2010.06.03 17:41:39.
