data_PCOD9351922
_publ_section_title
;
Structure prediction by ZEFSAII (Michael W. Deem and Ramdas Pophale) SiO2 
 PCOD9351922
Probable space group: C M C 21
;
_chemical_formula_sum "Si O2"
_cell_formula_units_Z 40
_cell_length_a 18.267741
_cell_length_b 9.069768
_cell_length_c 8.681397
_cell_angle_alpha 90.000000
_cell_angle_beta 90.000000
_cell_angle_gamma 90.000000
_cell_volume 1438.370080
_symmetry_space_group_name_H-M "C M C 21"
_symmetry_group_IT_number 36
_symmetry_cell_setting 'orthorhombic'
loop_
_space_group_symop_operation_xyz
x,y,z
-x,-y,1/2+z
x,-y,1/2+z
-x,y,z
1/2+x,1/2+y,z
1/2-x,1/2-y,1/2+z
1/2+x,1/2-y,1/2+z
1/2-x,1/2+y,z
loop_
_atom_site_type_symbol
_atom_site_label
_atom_site_fract_x
_atom_site_fract_y
_atom_site_fract_z
Si Si1 0.742944 0.040563 0.987560
Si Si2 0.607449 0.444293 0.905295
Si Si3 0.500000 0.779854 0.276387
Si Si4 0.607440 0.287750 0.223742
Si Si5 0.783690 0.286318 0.206613
Si Si6 0.000000 0.559425 0.105289
O O1 0.695580 0.140499 0.872489
O O2 0.804066 0.946940 0.893825
O O3 0.792681 0.143940 0.097106
O O4 0.700556 0.922488 0.089194
O O5 0.569884 0.327623 0.790852
O O6 0.583449 0.608666 0.863557
O O7 0.588892 0.386193 0.073420
O O8 0.500000 0.883626 0.429691
O O9 0.500000 0.886147 0.131363
O O10 0.694724 0.272731 0.229444
O O11 0.568296 0.134821 0.193968
#
# Coordination Sequence:
#
# PCOD9351922 Si02
#       6
#     8   8   4   8   8   4
#     4  10  20  37  59  87 120 161 205 251 302 359
#     4   9  19  36  59  86 119 157 198 239 295 364
#     4  10  21  38  60  90 124 156 195 244 296 356
#     4   9  19  36  58  87 117 153 196 243 296 358
#     4  10  20  37  59  86 119 157 203 253 302 359
#     4  10  21  38  58  86 122 152 195 248 298 348
#
# _framework density 27.809256000000001
#
# number of rings (size 3 to 8) (size 9 to 14) (size 15 to 20)
#    0.000    2.400    0.000    1.800    0.000    3.200 
#    0.000   24.000    0.000    0.000    0.000    0.000 
#    0.000    0.000    0.000    0.000    0.000    0.000 
#
# Total GULP energy -111953.314252 kJ/mol
# GULP energy per Si atom -5597.665713 kJ/mol
# Density = 2.774596 g / cm^3
# Si number density = 27.809256 Si / 1000 Ang^3
#
#
#
# Elastic Constant Matrix: (Units=GPa)
#
#
# Indices 1 2 3 4 5 6 
#
# 1 80.4355 -0.0655 -14.8691 0.0000 0.0000 0.0000
# 2 -0.0655 97.6407 8.2153 0.0000 0.0000 0.0000
# 3 -14.8691 8.2153 99.6277 0.0000 0.0000 0.0000
# 4 0.0000 0.0000 0.0000 51.7016 0.0000 0.0000
# 5 0.0000 0.0000 0.0000 0.0000 15.5657 0.0000
# 6 0.0000 0.0000 0.0000 0.0000 0.0000 43.9993
#
#
#
# Elastic Compliance Matrix: (Units=1/GPa)
#
#
# Indices 1 2 3 4 5 6 
#
# 1 0.012787 -0.000153 0.001921 0.000000 0.000000 0.000000
# 2 -0.000153 0.010315 -0.000873 0.000000 0.000000 0.000000
# 3 0.001921 -0.000873 0.010396 0.000000 0.000000 0.000000
# 4 0.000000 0.000000 0.000000 0.019342 0.000000 0.000000
# 5 0.000000 0.000000 0.000000 0.000000 0.064244 0.000000
# 6 0.000000 0.000000 0.000000 0.000000 0.000000 0.022728
#
#
# Mechanical properties :
#
#
# Convention : Reuss Voigt Hill
#
# Bulk Modulus (GPa) = 28.33851 29.36281 28.85066
# Shear Modulus (GPa) = 33.38122 41.21487 37.29804
#
# Velocity S-wave (km/s) = 3.46838 3.85392 3.66623
# Velocity P-wave (km/s) = 5.12367 5.51228 5.32152
#
# Compressibility (1/GPa) = 0.03528767
#
# Stress axis : x y z
#
# Youngs Moduli (GPa) = 78.20244 96.94606 96.18980
#
# Poissons Ratio (x) = 0.01484 -0.18479
# Poissons Ratio (y) = 0.01197 0.08401
# Poissons Ratio (z) = -0.15023 0.08467
#
# Static dielectric constant tensor:
#      x y z
#    x 2.309940 0.000000 0.000000 
#    y 0.000000 2.175970 0.000000 
#    z 0.000000 0.000000 2.242730 
# 
# From -- ./inp_files/5476.got.cif
#   From: 2010.05.17/outbox.cif.g08.bks.cpg/sg36_3_cif.got.tgz:5476.got - 2010.06.03 17:41:39.
