data_PCOD9351869
_publ_section_title
;
Structure prediction by ZEFSAII (Michael W. Deem and Ramdas Pophale) SiO2 
 PCOD9351869
Probable space group: C M C 21
;
_chemical_formula_sum "Si O2"
_cell_formula_units_Z 64
_cell_length_a 8.582564
_cell_length_b 24.926022
_cell_length_c 14.269446
_cell_angle_alpha 90.000000
_cell_angle_beta 90.000000
_cell_angle_gamma 90.000000
_cell_volume 3052.650869
_symmetry_space_group_name_H-M "C M C 21"
_symmetry_group_IT_number 36
_symmetry_cell_setting 'orthorhombic'
loop_
_space_group_symop_operation_xyz
x,y,z
-x,-y,1/2+z
x,-y,1/2+z
-x,y,z
1/2+x,1/2+y,z
1/2-x,1/2-y,1/2+z
1/2+x,1/2-y,1/2+z
1/2-x,1/2+y,z
loop_
_atom_site_type_symbol
_atom_site_label
_atom_site_fract_x
_atom_site_fract_y
_atom_site_fract_z
Si Si1 0.676928 0.773350 0.772040
Si Si2 0.316476 0.117648 0.156983
Si Si3 0.678936 0.164917 0.783414
Si Si4 0.186085 0.823865 0.489765
Si Si5 0.188112 0.466076 0.813585
Si Si6 0.318675 0.561137 0.704150
Si Si7 0.318054 0.793570 0.994962
Si Si8 0.311438 0.085637 0.510816
O O1 0.500000 0.753503 0.757801
O O2 0.698125 0.827497 0.715589
O O3 0.792084 0.725259 0.748057
O O4 0.690360 0.788312 0.881870
O O5 0.500000 0.109059 0.136150
O O6 0.224832 0.129334 0.062288
O O7 0.260932 0.071241 0.226423
O O8 0.500000 0.149343 0.770673
O O9 0.786026 0.122382 0.731843
O O10 0.727592 0.166041 0.892224
O O11 0.242560 0.764904 0.527172
O O12 0.000000 0.820111 0.473904
O O13 0.245661 0.524700 0.785856
O O14 0.000000 0.465123 0.815136
O O15 0.240493 0.441750 0.913251
O O16 0.500000 0.549880 0.697219
O O17 0.239839 0.553450 0.602702
O O18 0.500000 0.795387 0.023063
O O19 0.252562 0.852385 0.018428
O O20 0.500000 0.087842 0.508030
#
# Coordination Sequence:
#
# PCOD9351869 Si02
#       8
#     8   8   8   8   8   8   8   8
#     4   9  17  34  59  90 126 160 195 250 313 367
#     4  10  20  36  61  93 127 164 208 251 303 368
#     4  11  23  41  62  87 121 164 213 260 309 370
#     4  10  21  36  58  91 132 171 207 252 312 370
#     4  10  22  43  69  93 121 164 212 260 306 366
#     4  12  27  44  63  91 126 165 207 261 320 371
#     4   8  15  32  58  87 121 159 198 247 303 359
#     4  10  20  40  68  94 120 157 208 257 306 371
#
# _framework density 20.965382999999999
#
# number of rings (size 3 to 8) (size 9 to 14) (size 15 to 20)
#    0.000    2.000    1.250    3.375    1.750    2.500 
#    0.000    3.750    0.000    0.000    0.000    0.000 
#    0.000    0.000    0.000    0.000    0.000    0.000 
#
# Total GULP energy -178682.369653 kJ/mol
# GULP energy per Si atom -5583.824052 kJ/mol
# Density = 2.091767 g / cm^3
# Si number density = 20.965383 Si / 1000 Ang^3
#
#
#
# Elastic Constant Matrix: (Units=GPa)
#
#
# Indices 1 2 3 4 5 6 
#
# 1 14.6198 3.9436 0.0968 0.0000 0.0000 0.0000
# 2 3.9436 48.5008 16.3626 0.0000 0.0000 0.0000
# 3 0.0968 16.3626 58.8341 0.0000 0.0000 0.0000
# 4 0.0000 0.0000 0.0000 22.6763 0.0000 0.0000
# 5 0.0000 0.0000 0.0000 0.0000 19.5636 0.0000
# 6 0.0000 0.0000 0.0000 0.0000 0.0000 23.5134
#
#
#
# Elastic Compliance Matrix: (Units=1/GPa)
#
#
# Indices 1 2 3 4 5 6 
#
# 1 0.070074 -0.006245 0.001621 0.000000 0.000000 0.000000
# 2 -0.006245 0.023310 -0.006472 0.000000 0.000000 0.000000
# 3 0.001621 -0.006472 0.018794 0.000000 0.000000 0.000000
# 4 0.000000 0.000000 0.000000 0.044099 0.000000 0.000000
# 5 0.000000 0.000000 0.000000 0.000000 0.051115 0.000000
# 6 0.000000 0.000000 0.000000 0.000000 0.000000 0.042529
#
#
# Mechanical properties :
#
#
# Convention : Reuss Voigt Hill
#
# Bulk Modulus (GPa) = 11.11277 18.08452 14.59864
# Shear Modulus (GPa) = 16.55035 19.92077 18.23556
#
# Velocity S-wave (km/s) = 2.81270 3.08583 2.95243
# Velocity P-wave (km/s) = 3.98251 4.61964 4.31286
#
# Compressibility (1/GPa) = 0.08998660
#
# Stress axis : x y z
#
# Youngs Moduli (GPa) = 14.27060 42.90081 53.20749
#
# Poissons Ratio (x) = 0.26790 -0.08627
# Poissons Ratio (y) = 0.08912 0.34438
# Poissons Ratio (z) = -0.02314 0.27767
#
# Static dielectric constant tensor:
#      x y z
#    x 1.715900 0.000000 0.000000 
#    y 0.000000 1.761050 0.000000 
#    z 0.000000 0.000000 1.767160 
# 
# From -- ./inp_files/10887.got.cif
#   From: 2010.05.17/outbox.cif.g08.bks.cpg/sg36_6_cif.got.tgz:10887.got - 2010.06.03 17:41:39.
