data_PCOD9351841
_publ_section_title
;
Structure prediction by ZEFSAII (Michael W. Deem and Ramdas Pophale) SiO2 
 PCOD9351841
Probable space group: C M C 21
;
_chemical_formula_sum "Si O2"
_cell_formula_units_Z 52
_cell_length_a 7.750381
_cell_length_b 23.150006
_cell_length_c 14.939552
_cell_angle_alpha 90.000000
_cell_angle_beta 90.000000
_cell_angle_gamma 90.000000
_cell_volume 2680.474837
_symmetry_space_group_name_H-M "C M C 21"
_symmetry_group_IT_number 36
_symmetry_cell_setting 'orthorhombic'
loop_
_space_group_symop_operation_xyz
x,y,z
-x,-y,1/2+z
x,-y,1/2+z
-x,y,z
1/2+x,1/2+y,z
1/2-x,1/2-y,1/2+z
1/2+x,1/2-y,1/2+z
1/2-x,1/2+y,z
loop_
_atom_site_type_symbol
_atom_site_label
_atom_site_fract_x
_atom_site_fract_y
_atom_site_fract_z
Si Si1 0.500000 0.916814 0.859791
Si Si2 0.193368 0.892113 0.329121
Si Si3 0.500000 0.966838 0.265746
Si Si4 0.797157 0.875776 0.534341
Si Si5 0.208453 0.264371 0.277676
Si Si6 0.198524 0.838002 0.914434
Si Si7 0.500000 0.924931 0.656216
Si Si8 0.707385 0.755658 0.070235
O O1 0.331055 0.890606 0.906068
O O2 0.500000 0.896970 0.755273
O O3 0.500000 0.993034 0.678355
O O4 0.333868 0.926907 0.273934
O O5 0.223862 0.900531 0.434902
O O6 0.212059 0.823893 0.311838
O O7 0.000000 0.910680 0.307034
O O8 0.500000 0.014082 0.346769
O O9 0.669182 0.906182 0.602757
O O10 0.751024 0.807726 0.532275
O O11 0.000000 0.879814 0.559895
O O12 0.252571 0.210370 0.340810
O O13 0.258281 0.256154 0.174222
O O14 0.000000 0.269914 0.281642
O O15 0.000000 0.854674 0.897301
O O16 0.212124 0.805379 0.009382
O O17 0.500000 0.762797 0.065396
#
# Coordination Sequence:
#
# PCOD9351841 Si02
#       8
#     4   8   4   8   8   8   4   8
#     4  10  24  42  62  89 127 178 208 267 329 378
#     4  11  22  40  68  94 127 173 220 271 325 387
#     4  10  25  45  62  92 124 176 229 267 315 381
#     4  10  21  38  63  98 129 162 219 274 317 397
#     4  10  21  36  61  96 132 165 203 267 328 389
#     4  11  22  38  61  95 131 165 205 264 330 397
#     4  10  23  39  66  89 119 180 215 274 314 375
#     4  10  20  36  59  94 135 167 203 262 336 402
#
# _framework density 19.399546000000001
#
# number of rings (size 3 to 8) (size 9 to 14) (size 15 to 20)
#    0.462    1.231    3.077    1.385    2.154    3.692 
#    0.000    3.077    0.000    0.000    0.000    0.000 
#    0.000    0.000    0.000    0.000    0.000    0.000 
#
# Total GULP energy -145197.096253 kJ/mol
# GULP energy per Si atom -5584.503702 kJ/mol
# Density = 1.935539 g / cm^3
# Si number density = 19.399546 Si / 1000 Ang^3
#
#
#
# Elastic Constant Matrix: (Units=GPa)
#
#
# Indices 1 2 3 4 5 6 
#
# 1 66.0698 16.1866 0.2196 0.0000 0.0000 0.0000
# 2 16.1866 33.9847 -20.6776 0.0000 0.0000 0.0000
# 3 0.2196 -20.6776 38.5897 0.0000 0.0000 0.0000
# 4 0.0000 0.0000 0.0000 24.9538 0.0000 0.0000
# 5 0.0000 0.0000 0.0000 0.0000 16.9763 0.0000
# 6 0.0000 0.0000 0.0000 0.0000 0.0000 5.7081
#
#
#
# Elastic Compliance Matrix: (Units=1/GPa)
#
#
# Indices 1 2 3 4 5 6 
#
# 1 0.018361 -0.013070 -0.007108 0.000000 0.000000 0.000000
# 2 -0.013070 0.052962 0.028453 0.000000 0.000000 0.000000
# 3 -0.007108 0.028453 0.041200 0.000000 0.000000 0.000000
# 4 0.000000 0.000000 0.000000 0.040074 0.000000 0.000000
# 5 0.000000 0.000000 0.000000 0.000000 0.058906 0.000000
# 6 0.000000 0.000000 0.000000 0.000000 0.000000 0.175190
#
#
# Mechanical properties :
#
#
# Convention : Reuss Voigt Hill
#
# Bulk Modulus (GPa) = 7.74746 14.45571 11.10159
# Shear Modulus (GPa) = 12.10164 19.05534 15.57849
#
# Velocity S-wave (km/s) = 2.50033 3.13750 2.83686
# Velocity P-wave (km/s) = 3.51252 4.53794 4.05776
#
# Compressibility (1/GPa) = 0.12907452
#
# Stress axis : x y z
#
# Youngs Moduli (GPa) = 54.46273 18.88141 24.27172
#
# Poissons Ratio (x) = 0.24678 0.17252
# Poissons Ratio (y) = 0.71182 -0.69061
# Poissons Ratio (z) = 0.38711 -0.53724
#
# Static dielectric constant tensor:
#      x y z
#    x 1.672690 0.000000 0.000000 
#    y 0.000000 1.648860 0.000000 
#    z 0.000000 0.000000 1.677530 
# 
# From -- ./inp_files/10604.got.cif
#   From: 2010.05.17/outbox.cif.g08.bks.cpg/sg36_6_cif.got.tgz:10604.got - 2010.06.03 17:41:39.
