data_PCOD9351332
_publ_section_title
;
Structure prediction by ZEFSAII (Michael W. Deem and Ramdas Pophale) SiO2 
 PCOD9351332
Probable space group: C M C 21
;
_chemical_formula_sum "Si O2"
_cell_formula_units_Z 64
_cell_length_a 7.884799
_cell_length_b 29.568899
_cell_length_c 12.716397
_cell_angle_alpha 90.000000
_cell_angle_beta 90.000000
_cell_angle_gamma 90.000000
_cell_volume 2964.762157
_symmetry_space_group_name_H-M "C M C 21"
_symmetry_group_IT_number 36
_symmetry_cell_setting 'orthorhombic'
loop_
_space_group_symop_operation_xyz
x,y,z
-x,-y,1/2+z
x,-y,1/2+z
-x,y,z
1/2+x,1/2+y,z
1/2-x,1/2-y,1/2+z
1/2+x,1/2-y,1/2+z
1/2-x,1/2+y,z
loop_
_atom_site_type_symbol
_atom_site_label
_atom_site_fract_x
_atom_site_fract_y
_atom_site_fract_z
Si Si1 0.202697 0.977219 0.633740
Si Si2 0.197621 0.326548 0.103557
Si Si3 0.705544 0.227529 0.400227
Si Si4 0.796017 0.324754 0.337775
Si Si5 0.809195 0.427649 0.841945
Si Si6 0.294373 0.887736 0.516982
Si Si7 0.802527 0.666076 0.218626
Si Si8 0.691752 0.426423 0.064309
O O1 0.273180 0.959352 0.743620
O O2 0.245123 0.938634 0.547794
O O3 0.000000 0.979567 0.639293
O O4 0.266737 0.027530 0.610791
O O5 0.273500 0.319217 0.219602
O O6 0.210198 0.380064 0.083157
O O7 0.000000 0.313232 0.108598
O O8 0.269389 0.299431 0.003206
O O9 0.500000 0.222813 0.397606
O O10 0.753481 0.279736 0.402330
O O11 0.771613 0.206145 0.289828
O O12 0.737236 0.368081 0.405073
O O13 0.000000 0.328797 0.329604
O O14 0.798506 0.376922 0.796883
O O15 0.000000 0.434944 0.880727
O O16 0.688200 0.434053 0.939362
O O17 0.500000 0.886505 0.521066
O O18 0.230407 0.853597 0.609598
O O19 0.000000 0.677376 0.196595
O O20 0.500000 0.419885 0.104004
#
# Coordination Sequence:
#
# PCOD9351332 Si02
#       8
#     8   8   8   8   8   8   8   8
#     4  10  22  38  57  87 123 156 197 248 301 356
#     4  10  22  41  60  84 119 155 200 248 295 356
#     4  10  20  36  58  83 113 151 192 239 297 359
#     4  10  23  39  57  85 120 155 196 251 300 352
#     4  10  19  36  60  84 113 151 197 245 293 350
#     4   9  19  37  58  82 114 153 200 246 295 351
#     4   8  15  31  55  79 104 138 183 239 286 336
#     4  11  23  38  59  88 122 157 195 248 305 354
#
# _framework density 21.586893
#
# number of rings (size 3 to 8) (size 9 to 14) (size 15 to 20)
#    0.000    2.250    1.250    1.875    1.750    4.500 
#    0.000    3.125    0.000    0.000    0.000    0.000 
#    0.000    0.000    0.000    0.000    0.000    0.000 
#
# Total GULP energy -178554.084233 kJ/mol
# GULP energy per Si atom -5579.815132 kJ/mol
# Density = 2.153776 g / cm^3
# Si number density = 21.586893 Si / 1000 Ang^3
#
#
#
# Elastic Constant Matrix: (Units=GPa)
#
#
# Indices 1 2 3 4 5 6 
#
# 1 24.3664 -11.7888 0.2044 0.0000 0.0000 0.0000
# 2 -11.7888 82.0622 29.4186 0.0000 0.0000 0.0000
# 3 0.2044 29.4186 61.2309 0.0000 0.0000 0.0000
# 4 0.0000 0.0000 0.0000 21.0053 0.0000 0.0000
# 5 0.0000 0.0000 0.0000 0.0000 4.6862 0.0000
# 6 0.0000 0.0000 0.0000 0.0000 0.0000 15.6314
#
#
#
# Elastic Compliance Matrix: (Units=1/GPa)
#
#
# Indices 1 2 3 4 5 6 
#
# 1 0.044872 0.007852 -0.003922 0.000000 0.000000 0.000000
# 2 0.007852 0.016096 -0.007759 0.000000 0.000000 0.000000
# 3 -0.003922 -0.007759 0.020073 0.000000 0.000000 0.000000
# 4 0.000000 0.000000 0.000000 0.047607 0.000000 0.000000
# 5 0.000000 0.000000 0.000000 0.000000 0.213394 0.000000
# 6 0.000000 0.000000 0.000000 0.000000 0.000000 0.063974
#
#
# Mechanical properties :
#
#
# Convention : Reuss Voigt Hill
#
# Bulk Modulus (GPa) = 13.62744 22.59199 18.10972
# Shear Modulus (GPa) = 11.41202 18.25292 14.83247
#
# Velocity S-wave (km/s) = 2.30174 2.91100 2.62411
# Velocity P-wave (km/s) = 3.65931 4.66764 4.19389
#
# Compressibility (1/GPa) = 0.07338136
#
# Stress axis : x y z
#
# Youngs Moduli (GPa) = 22.28558 62.12871 49.81873
#
# Poissons Ratio (x) = -0.48786 0.19541
# Poissons Ratio (y) = -0.17499 0.38656
# Poissons Ratio (z) = 0.08742 0.48208
#
# Static dielectric constant tensor:
#      x y z
#    x 1.815440 0.000000 0.000000 
#    y 0.000000 1.765680 0.000000 
#    z 0.000000 0.000000 1.807820 
# 
# From -- ./inp_files/7270.got.cif
#   From: 2010.05.17/outbox.cif.g08.bks.cpg/sg36_4_cif.got.tgz:7270.got - 2010.06.03 17:41:39.
