data_PCOD9351476
_publ_section_title
;
Structure prediction by ZEFSAII (Michael W. Deem and Ramdas Pophale) SiO2 
 PCOD9351476
Probable space group: C M C 21
;
_chemical_formula_sum "Si O2"
_cell_formula_units_Z 48
_cell_length_a 14.759214
_cell_length_b 11.094259
_cell_length_c 14.727584
_cell_angle_alpha 90.000000
_cell_angle_beta 90.000000
_cell_angle_gamma 90.000000
_cell_volume 2411.532053
_symmetry_space_group_name_H-M "C M C 21"
_symmetry_group_IT_number 36
_symmetry_cell_setting 'orthorhombic'
loop_
_space_group_symop_operation_xyz
x,y,z
-x,-y,1/2+z
x,-y,1/2+z
-x,y,z
1/2+x,1/2+y,z
1/2-x,1/2-y,1/2+z
1/2+x,1/2-y,1/2+z
1/2-x,1/2+y,z
loop_
_atom_site_type_symbol
_atom_site_label
_atom_site_fract_x
_atom_site_fract_y
_atom_site_fract_z
Si Si1 0.390571 0.988272 0.041460
Si Si2 0.390571 0.511729 0.041457
Si Si3 0.606323 0.249999 0.437905
Si Si4 0.891801 0.750001 0.046390
Si Si5 0.750002 0.999998 0.702101
Si Si6 0.191247 0.750001 0.249508
O O1 0.500000 0.982032 0.053271
O O2 0.337253 0.985652 0.136444
O O3 0.368911 0.121520 0.001403
O O4 0.358880 0.873289 0.983614
O O5 0.500000 0.517969 0.053266
O O6 0.368911 0.378481 0.001401
O O7 0.337255 0.514350 0.136442
O O8 0.358880 0.626712 0.983611
O O9 0.500000 0.249999 0.456622
O O10 0.620464 0.249997 0.330800
O O11 0.848681 0.750001 0.147170
O O12 0.000000 0.750001 0.057709
O O13 0.756458 0.123847 0.756934
O O14 0.743547 0.876147 0.756932
#
# Coordination Sequence:
#
# PCOD9351476 Si02
#       6
#     8   8   8   8   8   8
#     4   9  18  33  55  80 105 137 177 216 256 309
#     4   9  18  33  55  80 105 137 177 216 256 309
#     4  10  20  34  53  79 109 139 173 217 266 309
#     4   8  15  31  54  75  98 133 174 211 251 306
#     4  10  20  36  56  78 104 140 180 214 256 312
#     4  10  20  33  50  76 107 136 171 216 265 307
#
# _framework density 19.904357999999998
#
# number of rings (size 3 to 8) (size 9 to 14) (size 15 to 20)
#    0.000    2.667    0.000    1.500    0.000    2.667 
#    0.000    1.667    0.000    0.000    0.000   14.000 
#    0.000    0.000    0.000    0.000    0.000    0.000 
#
# Total GULP energy -133623.426485 kJ/mol
# GULP energy per Si atom -5567.642770 kJ/mol
# Density = 1.985906 g / cm^3
# Si number density = 19.904358 Si / 1000 Ang^3
#
#
#
# Elastic Constant Matrix: (Units=GPa)
#
#
# Indices 1 2 3 4 5 6 
#
# 1 56.1340 20.9730 -0.3429 0.0000 0.0000 0.0000
# 2 20.9730 235.9515 39.7768 0.0000 0.0000 0.0000
# 3 -0.3429 39.7768 26.0396 0.0000 0.0000 0.0000
# 4 0.0000 0.0000 0.0000 -16.0371 0.0000 0.0000
# 5 0.0000 0.0000 0.0000 0.0000 12.5577 0.0000
# 6 0.0000 0.0000 0.0000 0.0000 0.0000 9.0357
#
#
#
# Elastic Compliance Matrix: (Units=1/GPa)
#
#
# Indices 1 2 3 4 5 6 
#
# 1 0.018694 -0.002294 0.003750 0.000000 0.000000 0.000000
# 2 -0.002294 0.005990 -0.009180 0.000000 0.000000 0.000000
# 3 0.003750 -0.009180 0.052475 0.000000 0.000000 0.000000
# 4 0.000000 0.000000 0.000000 -0.062355 0.000000 0.000000
# 5 0.000000 0.000000 0.000000 0.000000 0.079632 0.000000
# 6 0.000000 0.000000 0.000000 0.000000 0.000000 0.110672
#
#
# Mechanical properties :
#
#
# Convention : Reuss Voigt Hill
#
# Bulk Modulus (GPa) = 16.20425 48.77100 32.48762
# Shear Modulus (GPa) = 20.73617 18.29248 19.51432
#
# Velocity S-wave (km/s) = 3.23118 3.03482 3.13454
# Velocity P-wave (km/s) = 4.69887 6.06927 5.42750
#
# Compressibility (1/GPa) = 0.06171222
#
# Stress axis : x y z
#
# Youngs Moduli (GPa) = 53.49171 166.95752 19.05685
#
# Poissons Ratio (x) = 0.38299 -0.07147
# Poissons Ratio (y) = 0.12271 0.17493
# Poissons Ratio (z) = -0.20061 1.53259
#
# Static dielectric constant tensor:
#      x y z
#    x 1.771220 0.000000 0.000000 
#    y 0.000000 1.796870 0.000000 
#    z 0.000000 0.000000 1.633410 
# 
# From -- ./inp_files/8865.got.cif
#   From: 2010.05.17/outbox.cif.g08.bks.cpg/sg36_5_cif.got.tgz:8865.got - 2010.06.03 17:41:39.
