data_PCOD9351721
_publ_section_title
;
Structure prediction by ZEFSAII (Michael W. Deem and Ramdas Pophale) SiO2 
 PCOD9351721
Probable space group: C M C 21
;
_chemical_formula_sum "Si O2"
_cell_formula_units_Z 64
_cell_length_a 9.475559
_cell_length_b 22.779187
_cell_length_c 15.887559
_cell_angle_alpha 90.000000
_cell_angle_beta 90.000000
_cell_angle_gamma 90.000000
_cell_volume 3429.258599
_symmetry_space_group_name_H-M "C M C 21"
_symmetry_group_IT_number 36
_symmetry_cell_setting 'orthorhombic'
loop_
_space_group_symop_operation_xyz
x,y,z
-x,-y,1/2+z
x,-y,1/2+z
-x,y,z
1/2+x,1/2+y,z
1/2-x,1/2-y,1/2+z
1/2+x,1/2-y,1/2+z
1/2-x,1/2+y,z
loop_
_atom_site_type_symbol
_atom_site_label
_atom_site_fract_x
_atom_site_fract_y
_atom_site_fract_z
Si Si1 0.161265 0.219865 0.170080
Si Si2 0.668585 0.535236 0.702095
Si Si3 0.160106 0.173888 0.361929
Si Si4 0.831415 0.035236 0.373443
Si Si5 0.834638 0.491609 0.537769
Si Si6 0.160106 0.826112 0.213609
Si Si7 0.663670 0.148834 0.037769
Si Si8 0.161265 0.219865 0.905458
O O1 0.160985 0.197045 0.266031
O O2 0.230222 0.284372 0.166170
O O3 0.256825 0.175946 0.117283
O O4 0.000000 0.220294 0.140723
O O5 0.500000 0.526227 0.688105
O O6 0.705618 0.500000 0.787769
O O7 0.755908 0.513955 0.621528
O O8 0.692457 0.604932 0.712897
O O9 0.192457 0.104932 0.362641
O O10 0.269778 0.215628 0.409369
O O11 0.000000 0.181897 0.394921
O O12 0.000000 0.026227 0.387433
O O13 0.744092 0.013955 0.454009
O O14 0.827360 0.421108 0.537769
O O15 0.000000 0.508822 0.537769
O O16 0.160985 0.802955 0.309508
O O17 0.000000 0.818103 0.180618
O O18 0.500000 0.166027 0.037769
O O19 0.743175 0.175946 0.958256
O O20 0.000000 0.220295 0.934815
#
# Coordination Sequence:
#
# PCOD9351721 Si02
#       8
#     8   8   8   8   8   8   8   8
#     4  10  20  35  58  84 109 142 185 231 277 333
#     4  10  21  39  63  87 115 155 197 237 283 339
#     4   9  19  36  57  83 114 146 182 227 282 336
#     4  10  21  39  63  87 115 155 197 237 283 339
#     4  11  25  40  57  86 119 152 192 239 290 345
#     4   9  19  36  57  83 114 146 182 227 282 336
#     4  11  23  38  55  78 111 146 182 229 286 337
#     4  10  20  35  58  84 109 142 185 231 277 333
#
# _framework density 18.662925999999999
#
# number of rings (size 3 to 8) (size 9 to 14) (size 15 to 20)
#    0.000    2.000    0.000    3.000    0.000    7.500 
#    0.000    1.250    0.000    0.000    0.000    0.000 
#    0.000    0.000    0.000    0.000    0.000    0.000 
#
# Total GULP energy -178664.574989 kJ/mol
# GULP energy per Si atom -5583.267968 kJ/mol
# Density = 1.862045 g / cm^3
# Si number density = 18.662926 Si / 1000 Ang^3
#
#
#
# Elastic Constant Matrix: (Units=GPa)
#
#
# Indices 1 2 3 4 5 6 
#
# 1 142.2355 85.0510 64.4450 0.0000 0.0000 0.0000
# 2 85.0510 123.3364 44.7241 0.0000 0.0000 0.0000
# 3 64.4450 44.7241 84.0917 0.0000 0.0000 0.0000
# 4 0.0000 0.0000 0.0000 28.6590 0.0000 0.0000
# 5 0.0000 0.0000 0.0000 0.0000 60.1352 0.0000
# 6 0.0000 0.0000 0.0000 0.0000 0.0000 21.0781
#
#
#
# Elastic Compliance Matrix: (Units=1/GPa)
#
#
# Indices 1 2 3 4 5 6 
#
# 1 0.014937 -0.007619 -0.007395 0.000000 0.000000 0.000000
# 2 -0.007619 0.013931 -0.001571 0.000000 0.000000 0.000000
# 3 -0.007395 -0.001571 0.018394 0.000000 0.000000 0.000000
# 4 0.000000 0.000000 0.000000 0.034893 0.000000 0.000000
# 5 0.000000 0.000000 0.000000 0.000000 0.016629 0.000000
# 6 0.000000 0.000000 0.000000 0.000000 0.000000 0.047442
#
#
# Mechanical properties :
#
#
# Convention : Reuss Voigt Hill
#
# Bulk Modulus (GPa) = 70.95351 82.01152 76.48252
# Shear Modulus (GPa) = 27.16006 32.33737 29.74872
#
# Velocity S-wave (km/s) = 3.81897 4.16710 3.99683
# Velocity P-wave (km/s) = 7.58598 8.19706 7.89743
#
# Compressibility (1/GPa) = 0.01409374
#
# Stress axis : x y z
#
# Youngs Moduli (GPa) = 66.94852 71.78176 54.36415
#
# Poissons Ratio (x) = 0.54688 0.40203
# Poissons Ratio (y) = 0.51006 0.08538
# Poissons Ratio (z) = 0.49509 0.11274
#
# Static dielectric constant tensor:
#      x y z
#    x 1.634480 0.000000 0.000000 
#    y 0.000000 1.614310 0.000000 
#    z 0.000000 0.000000 1.643400 
# 
# From -- ./inp_files/13776.got.cif
#   From: 2010.05.17/outbox.cif.g08.bks.cpg/sg36_7_cif.got.tgz:13776.got - 2010.06.03 17:41:39.
