data_PCOD9351543
_publ_section_title
;
Structure prediction by ZEFSAII (Michael W. Deem and Ramdas Pophale) SiO2 
 PCOD9351543
Probable space group: C M C 21
;
_chemical_formula_sum "Si O2"
_cell_formula_units_Z 48
_cell_length_a 8.970846
_cell_length_b 18.449290
_cell_length_c 16.621637
_cell_angle_alpha 90.000000
_cell_angle_beta 90.000000
_cell_angle_gamma 90.000000
_cell_volume 2750.976322
_symmetry_space_group_name_H-M "C M C 21"
_symmetry_group_IT_number 36
_symmetry_cell_setting 'orthorhombic'
loop_
_space_group_symop_operation_xyz
x,y,z
-x,-y,1/2+z
x,-y,1/2+z
-x,y,z
1/2+x,1/2+y,z
1/2-x,1/2-y,1/2+z
1/2+x,1/2-y,1/2+z
1/2-x,1/2+y,z
loop_
_atom_site_type_symbol
_atom_site_label
_atom_site_fract_x
_atom_site_fract_y
_atom_site_fract_z
Si Si1 0.829998 0.950001 0.792440
Si Si2 0.325118 0.175318 0.205830
Si Si3 0.320980 0.406839 0.376598
Si Si4 0.328767 0.454601 0.128268
Si Si5 0.322298 0.830076 0.222634
Si Si6 0.823763 0.583952 0.042438
O O1 0.726161 0.882149 0.773625
O O2 0.000000 0.925900 0.807727
O O3 0.783321 0.008351 0.859234
O O4 0.831880 0.998311 0.710855
O O5 0.500000 0.191946 0.214029
O O6 0.229975 0.247963 0.211059
O O7 0.301670 0.135586 0.119966
O O8 0.500000 0.400166 0.370692
O O9 0.245025 0.360066 0.306500
O O10 0.260846 0.387391 0.464136
O O11 0.500000 0.441929 0.103829
O O12 0.246492 0.380921 0.152687
O O13 0.242742 0.505521 0.065982
O O14 0.500000 0.836690 0.223434
O O15 0.000000 0.578879 0.027355
#
# Coordination Sequence:
#
# PCOD9351543 Si02
#       6
#     8   8   8   8   8   8
#     4   8  16  31  51  74  98 129 168 206 247 300
#     4  10  20  34  53  77 106 139 173 212 259 312
#     4  10  20  35  55  78 106 138 173 216 265 313
#     4   9  17  32  53  75 101 133 170 209 252 305
#     4  11  21  34  54  78 106 139 176 217 260 312
#     4  10  20  34  54  80 107 136 174 218 263 310
#
# _framework density 17.448352
#
# number of rings (size 3 to 8) (size 9 to 14) (size 15 to 20)
#    0.000    2.333    0.000    4.500    0.000    6.667 
#    0.000    1.667    0.000   10.000    0.000    0.000 
#    0.000    0.000    0.000    0.000    0.000    0.000 
#
# Total GULP energy -133853.458141 kJ/mol
# GULP energy per Si atom -5577.227423 kJ/mol
# Density = 1.740864 g / cm^3
# Si number density = 17.448352 Si / 1000 Ang^3
#
#
#
# Elastic Constant Matrix: (Units=GPa)
#
#
# Indices 1 2 3 4 5 6 
#
# 1 123.3812 64.0189 34.0867 0.0000 0.0000 0.0000
# 2 64.0189 86.9325 13.3263 0.0000 0.0000 0.0000
# 3 34.0867 13.3263 45.1511 0.0000 0.0000 0.0000
# 4 0.0000 0.0000 0.0000 12.6273 0.0000 0.0000
# 5 0.0000 0.0000 0.0000 0.0000 24.7623 0.0000
# 6 0.0000 0.0000 0.0000 0.0000 0.0000 31.4963
#
#
#
# Elastic Compliance Matrix: (Units=1/GPa)
#
#
# Indices 1 2 3 4 5 6 
#
# 1 0.015982 -0.010390 -0.008999 0.000000 0.000000 0.000000
# 2 -0.010390 0.018803 0.002294 0.000000 0.000000 0.000000
# 3 -0.008999 0.002294 0.028265 0.000000 0.000000 0.000000
# 4 0.000000 0.000000 0.000000 0.079194 0.000000 0.000000
# 5 0.000000 0.000000 0.000000 0.000000 0.040384 0.000000
# 6 0.000000 0.000000 0.000000 0.000000 0.000000 0.031750
#
#
# Mechanical properties :
#
#
# Convention : Reuss Voigt Hill
#
# Bulk Modulus (GPa) = 34.65011 53.14762 43.89887
# Shear Modulus (GPa) = 19.36578 23.37938 21.37258
#
# Velocity S-wave (km/s) = 3.33512 3.66446 3.50366
# Velocity P-wave (km/s) = 5.89343 6.95920 6.44837
#
# Compressibility (1/GPa) = 0.02885993
#
# Stress axis : x y z
#
# Youngs Moduli (GPa) = 62.56896 53.18289 35.37996
#
# Poissons Ratio (x) = 0.55258 0.31839
# Poissons Ratio (y) = 0.65011 -0.08117
# Poissons Ratio (z) = 0.56307 -0.12202
#
# Static dielectric constant tensor:
#      x y z
#    x 1.582240 0.000000 0.000000 
#    y 0.000000 1.582290 0.000000 
#    z 0.000000 0.000000 1.598770 
# 
# From -- ./inp_files/10404.got.cif
#   From: 2010.05.17/outbox.cif.g08.bks.cpg/sg36_6_cif.got.tgz:10404.got - 2010.06.03 17:41:39.
