data_PCOD9351707
_publ_section_title
;
Structure prediction by ZEFSAII (Michael W. Deem and Ramdas Pophale) SiO2 
 PCOD9351707
Probable space group: C M C 21
;
_chemical_formula_sum "Si O2"
_cell_formula_units_Z 64
_cell_length_a 7.921559
_cell_length_b 24.377680
_cell_length_c 15.907321
_cell_angle_alpha 90.000000
_cell_angle_beta 90.000000
_cell_angle_gamma 90.000000
_cell_volume 3071.850516
_symmetry_space_group_name_H-M "C M C 21"
_symmetry_group_IT_number 36
_symmetry_cell_setting 'orthorhombic'
loop_
_space_group_symop_operation_xyz
x,y,z
-x,-y,1/2+z
x,-y,1/2+z
-x,y,z
1/2+x,1/2+y,z
1/2-x,1/2-y,1/2+z
1/2+x,1/2-y,1/2+z
1/2-x,1/2+y,z
loop_
_atom_site_type_symbol
_atom_site_label
_atom_site_fract_x
_atom_site_fract_y
_atom_site_fract_z
Si Si1 0.201066 0.393941 0.027830
Si Si2 0.707336 0.177256 0.368535
Si Si3 0.301401 0.508406 0.962696
Si Si4 0.798393 0.384679 0.701317
Si Si5 0.699251 0.698461 0.860215
Si Si6 0.703847 0.499924 0.270431
Si Si7 0.795929 0.120448 0.712899
Si Si8 0.196617 0.372704 0.517081
O O1 0.245444 0.368311 0.117504
O O2 0.000000 0.399143 0.021181
O O3 0.262656 0.357230 0.949812
O O4 0.275346 0.455033 0.019484
O O5 0.500000 0.176495 0.369581
O O6 0.764769 0.147957 0.282761
O O7 0.766369 0.240082 0.370487
O O8 0.500000 0.521559 0.958549
O O9 0.243139 0.494070 0.867929
O O10 0.212301 0.562973 0.994983
O O11 0.765530 0.448868 0.716658
O O12 0.730908 0.365711 0.610952
O O13 0.000000 0.376962 0.698472
O O14 0.500000 0.704713 0.844029
O O15 0.768895 0.663879 0.781404
O O16 0.719750 0.662801 0.944166
O O17 0.500000 0.500741 0.268123
O O18 0.762484 0.440820 0.237640
O O19 0.000000 0.119728 0.717680
O O20 0.000000 0.357479 0.517414
#
# Coordination Sequence:
#
# PCOD9351707 Si02
#       8
#     8   8   8   8   8   8   8   8
#     4  11  22  37  59  89 119 153 192 237 294 344
#     4   9  20  39  61  82 112 154 197 238 286 345
#     4  11  21  37  60  86 118 155 193 234 285 348
#     4  10  21  38  58  84 116 152 188 229 288 349
#     4  10  21  41  63  81 110 157 201 237 286 345
#     4  10  20  35  57  86 113 146 191 235 283 338
#     4  10  21  38  59  85 114 150 195 239 288 347
#     4  11  23  37  59  91 120 149 189 241 296 342
#
# _framework density 20.834347999999999
#
# number of rings (size 3 to 8) (size 9 to 14) (size 15 to 20)
#    0.000    1.750    2.500    1.875    0.000    5.500 
#    0.000    3.125    0.000    0.000    0.000    0.000 
#    0.000    0.000    0.000    0.000    0.000    0.000 
#
# Total GULP energy -178828.983657 kJ/mol
# GULP energy per Si atom -5588.405739 kJ/mol
# Density = 2.078693 g / cm^3
# Si number density = 20.834348 Si / 1000 Ang^3
#
#
#
# Elastic Constant Matrix: (Units=GPa)
#
#
# Indices 1 2 3 4 5 6 
#
# 1 16.2547 -6.1154 -5.1990 0.0000 0.0000 0.0000
# 2 -6.1154 120.7964 37.6651 0.0000 0.0000 0.0000
# 3 -5.1990 37.6651 120.6822 0.0000 0.0000 0.0000
# 4 0.0000 0.0000 0.0000 2.3476 0.0000 0.0000
# 5 0.0000 0.0000 0.0000 0.0000 19.3918 0.0000
# 6 0.0000 0.0000 0.0000 0.0000 0.0000 14.5095
#
#
#
# Elastic Compliance Matrix: (Units=1/GPa)
#
#
# Indices 1 2 3 4 5 6 
#
# 1 0.063109 0.002600 0.001907 0.000000 0.000000 0.000000
# 2 0.002600 0.009278 -0.002784 0.000000 0.000000 0.000000
# 3 0.001907 -0.002784 0.009237 0.000000 0.000000 0.000000
# 4 0.000000 0.000000 0.000000 0.425967 0.000000 0.000000
# 5 0.000000 0.000000 0.000000 0.000000 0.051568 0.000000
# 6 0.000000 0.000000 0.000000 0.000000 0.000000 0.068920
#
#
# Mechanical properties :
#
#
# Convention : Reuss Voigt Hill
#
# Bulk Modulus (GPa) = 11.75477 34.49274 23.12375
# Shear Modulus (GPa) = 7.65709 22.67529 15.16619
#
# Velocity S-wave (km/s) = 1.91917 3.30261 2.70097
# Velocity P-wave (km/s) = 3.25042 5.57984 4.56617
#
# Compressibility (1/GPa) = 0.08507185
#
# Stress axis : x y z
#
# Youngs Moduli (GPa) = 15.84558 107.78193 108.25818
#
# Poissons Ratio (x) = -0.28026 -0.20647
# Poissons Ratio (y) = -0.04120 0.30135
# Poissons Ratio (z) = -0.03022 0.30003
#
# Static dielectric constant tensor:
#      x y z
#    x 1.764360 0.000000 0.000000 
#    y 0.000000 1.707120 0.000000 
#    z 0.000000 0.000000 1.750060 
# 
# From -- ./inp_files/11030.got.cif
#   From: 2010.05.17/outbox.cif.g08.bks.cpg/sg36_6_cif.got.tgz:11030.got - 2010.06.03 17:41:39.
