data_PCOD9351172
_publ_section_title
;
Structure prediction by ZEFSAII (Michael W. Deem and Ramdas Pophale) SiO2 
 PCOD9351172
Probable space group: C M C 21
;
_chemical_formula_sum "Si O2"
_cell_formula_units_Z 64
_cell_length_a 8.688856
_cell_length_b 21.060041
_cell_length_c 19.771910
_cell_angle_alpha 90.000000
_cell_angle_beta 90.000000
_cell_angle_gamma 90.000000
_cell_volume 3618.015616
_symmetry_space_group_name_H-M "C M C 21"
_symmetry_group_IT_number 36
_symmetry_cell_setting 'orthorhombic'
loop_
_space_group_symop_operation_xyz
x,y,z
-x,-y,1/2+z
x,-y,1/2+z
-x,y,z
1/2+x,1/2+y,z
1/2-x,1/2-y,1/2+z
1/2+x,1/2-y,1/2+z
1/2-x,1/2+y,z
loop_
_atom_site_type_symbol
_atom_site_label
_atom_site_fract_x
_atom_site_fract_y
_atom_site_fract_z
Si Si1 0.815698 0.183600 0.112890
Si Si2 0.314888 0.989434 0.968762
Si Si3 0.816642 0.009485 0.323395
Si Si4 0.813681 0.311651 0.190152
Si Si5 0.315744 0.361105 0.327068
Si Si6 0.315858 0.937405 0.690522
Si Si7 0.183576 0.638897 0.973954
Si Si8 0.812888 0.563483 0.609705
O O1 0.767365 0.247553 0.151794
O O2 0.757905 0.123328 0.155417
O O3 0.000000 0.182956 0.109239
O O4 0.750289 0.177138 0.037188
O O5 0.500000 0.984855 0.960523
O O6 0.233507 0.972640 0.898932
O O7 0.280516 0.063679 0.984441
O O8 0.265794 0.946909 0.032212
O O9 0.769861 0.935151 0.314525
O O10 0.000000 0.013510 0.315754
O O11 0.734965 0.052144 0.267451
O O12 0.748565 0.319800 0.265483
O O13 0.761411 0.372587 0.146306
O O14 0.000000 0.312944 0.194065
O O15 0.500000 0.358401 0.328474
O O16 0.251456 0.343182 0.400844
O O17 0.500000 0.932642 0.685247
O O18 0.265077 0.001306 0.651400
O O19 0.000000 0.645072 0.972480
O O20 0.000000 0.564109 0.609957
#
# Coordination Sequence:
#
# PCOD9351172 Si02
#       8
#     8   8   8   8   8   8   8   8
#     4  11  23  37  55  83 118 150 185 235 287 331
#     4   9  17  32  54  81 107 140 186 233 274 327
#     4  10  20  33  51  83 117 144 178 232 289 331
#     4  10  21  38  58  81 113 152 187 228 279 336
#     4  10  20  34  55  84 114 145 185 234 281 328
#     4  11  20  35  59  82 107 146 189 230 273 332
#     4  10  19  34  57  82 109 147 192 230 273 336
#     4   9  17  33  57  82 105 136 186 230 268 325
#
# _framework density 17.689253999999998
#
# number of rings (size 3 to 8) (size 9 to 14) (size 15 to 20)
#    0.000    2.000    2.500    1.875    0.000    2.500 
#    0.000    1.875    0.000    4.500    0.000    0.000 
#    0.000    0.000    0.000    0.000    0.000    0.000 
#
# Total GULP energy -178630.511729 kJ/mol
# GULP energy per Si atom -5582.203492 kJ/mol
# Density = 1.764899 g / cm^3
# Si number density = 17.689254 Si / 1000 Ang^3
#
#
#
# Elastic Constant Matrix: (Units=GPa)
#
#
# Indices 1 2 3 4 5 6 
#
# 1 32.5724 31.7386 38.9882 0.0000 0.0000 0.0000
# 2 31.7386 111.1531 81.3634 0.0000 0.0000 0.0000
# 3 38.9882 81.3634 169.2320 0.0000 0.0000 0.0000
# 4 0.0000 0.0000 0.0000 28.2408 0.0000 0.0000
# 5 0.0000 0.0000 0.0000 0.0000 30.9395 0.0000
# 6 0.0000 0.0000 0.0000 0.0000 0.0000 19.9515
#
#
#
# Elastic Compliance Matrix: (Units=1/GPa)
#
#
# Indices 1 2 3 4 5 6 
#
# 1 0.047067 -0.008490 -0.006762 0.000000 0.000000 0.000000
# 2 -0.008490 0.015414 -0.005455 0.000000 0.000000 0.000000
# 3 -0.006762 -0.005455 0.010089 0.000000 0.000000 0.000000
# 4 0.000000 0.000000 0.000000 0.035410 0.000000 0.000000
# 5 0.000000 0.000000 0.000000 0.000000 0.032321 0.000000
# 6 0.000000 0.000000 0.000000 0.000000 0.000000 0.050122
#
#
# Mechanical properties :
#
#
# Convention : Reuss Voigt Hill
#
# Bulk Modulus (GPa) = 32.09511 68.57089 50.33300
# Shear Modulus (GPa) = 20.64234 26.55085 23.59659
#
# Velocity S-wave (km/s) = 3.41976 3.87842 3.65629
# Velocity P-wave (km/s) = 5.81173 7.67493 6.80738
#
# Compressibility (1/GPa) = 0.03115740
#
# Stress axis : x y z
#
# Youngs Moduli (GPa) = 21.24630 64.87799 99.11528
#
# Poissons Ratio (x) = 0.55082 0.67018
# Poissons Ratio (y) = 0.18038 0.54063
# Poissons Ratio (z) = 0.14366 0.35388
#
# Static dielectric constant tensor:
#      x y z
#    x 1.594950 0.000000 0.000000 
#    y 0.000000 1.589250 0.000000 
#    z 0.000000 0.000000 1.594220 
# 
# From -- ./inp_files/13871.got.cif
#   From: 2010.05.17/outbox.cif.g08.bks.cpg/sg36_7_cif.got.tgz:13871.got - 2010.06.03 17:41:39.
