data_PCOD9351981
_publ_section_title
;
Structure prediction by ZEFSAII (Michael W. Deem and Ramdas Pophale) SiO2 
 PCOD9351981
Probable space group: C M C 21
;
_chemical_formula_sum "Si O2"
_cell_formula_units_Z 64
_cell_length_a 23.913638
_cell_length_b 5.113669
_cell_length_c 28.650007
_cell_angle_alpha 90.000000
_cell_angle_beta 90.000000
_cell_angle_gamma 90.000000
_cell_volume 3503.507056
_symmetry_space_group_name_H-M "C M C 21"
_symmetry_group_IT_number 36
_symmetry_cell_setting 'orthorhombic'
loop_
_space_group_symop_operation_xyz
x,y,z
-x,-y,1/2+z
x,-y,1/2+z
-x,y,z
1/2+x,1/2+y,z
1/2-x,1/2-y,1/2+z
1/2+x,1/2-y,1/2+z
1/2-x,1/2+y,z
loop_
_atom_site_type_symbol
_atom_site_label
_atom_site_fract_x
_atom_site_fract_y
_atom_site_fract_z
Si Si1 0.562331 0.172129 0.364620
Si Si2 0.370205 0.756077 0.647121
Si Si3 0.284836 0.650519 0.456858
Si Si4 0.709976 0.716866 0.562686
Si Si5 0.786286 0.245323 0.730904
Si Si6 0.627955 0.687874 0.376558
Si Si7 0.618917 0.954254 0.282072
Si Si8 0.067486 0.747258 0.685894
O O1 0.500000 0.253252 0.374941
O O2 0.605136 0.396524 0.378006
O O3 0.570740 0.112984 0.309469
O O4 0.579512 0.898437 0.387788
O O5 0.343150 0.716165 0.596588
O O6 0.316180 0.779496 0.681035
O O7 0.406812 0.514259 0.665834
O O8 0.407852 0.012921 0.654177
O O9 0.267672 0.347524 0.454148
O O10 0.308616 0.704588 0.508511
O O11 0.323550 0.719886 0.413582
O O12 0.751580 0.472222 0.570572
O O13 0.735226 0.450068 0.735473
O O14 0.833361 0.344426 0.766554
O O15 0.642396 0.765809 0.323005
O O16 0.593381 0.807863 0.237502
O O17 0.000000 0.749999 0.687422
#
# Coordination Sequence:
#
# PCOD9351981 Si02
#       8
#     8   8   8   8   8   8   8   8
#     4  10  21  37  57  77 106 146 192 239 275 321
#     4  11  22  38  58  84 115 147 191 235 287 333
#     4  10  21  38  61  88 117 148 186 233 282 345
#     4  10  20  37  64  90 112 149 189 227 285 346
#     4  11  22  34  51  76 115 146 177 220 275 339
#     4  10  22  36  56  84 112 144 191 236 286 329
#     4   9  24  36  55  82 111 152 196 229 279 334
#     4  11  23  38  59  83 113 152 197 241 281 329
#
# _framework density 18.267410000000002
#
# number of rings (size 3 to 8) (size 9 to 14) (size 15 to 20)
#    0.750    1.000    0.000    4.875    5.250    1.000 
#    0.000    0.000    0.000    4.500    0.000    0.000 
#    0.000    0.000    0.000    0.000    0.000    0.000 
#
# Total GULP energy -178456.586840 kJ/mol
# GULP energy per Si atom -5576.768339 kJ/mol
# Density = 1.822583 g / cm^3
# Si number density = 18.267410 Si / 1000 Ang^3
#
#
#
# Elastic Constant Matrix: (Units=GPa)
#
#
# Indices 1 2 3 4 5 6 
#
# 1 64.3358 9.1068 50.8666 0.0000 0.0000 0.0000
# 2 9.1068 84.3997 16.0402 0.0000 0.0000 0.0000
# 3 50.8666 16.0402 90.4622 0.0000 0.0000 0.0000
# 4 0.0000 0.0000 0.0000 15.9752 0.0000 0.0000
# 5 0.0000 0.0000 0.0000 0.0000 19.8551 0.0000
# 6 0.0000 0.0000 0.0000 0.0000 0.0000 23.0229
#
#
#
# Elastic Compliance Matrix: (Units=1/GPa)
#
#
# Indices 1 2 3 4 5 6 
#
# 1 0.027985 -0.000030 -0.015731 0.000000 0.000000 0.000000
# 2 -0.000030 0.012262 -0.002157 0.000000 0.000000 0.000000
# 3 -0.015731 -0.002157 0.020282 0.000000 0.000000 0.000000
# 4 0.000000 0.000000 0.000000 0.062597 0.000000 0.000000
# 5 0.000000 0.000000 0.000000 0.000000 0.050365 0.000000
# 6 0.000000 0.000000 0.000000 0.000000 0.000000 0.043435
#
#
# Mechanical properties :
#
#
# Convention : Reuss Voigt Hill
#
# Bulk Modulus (GPa) = 40.49731 43.46944 41.98337
# Shear Modulus (GPa) = 19.15768 22.64958 20.90363
#
# Velocity S-wave (km/s) = 3.24193 3.52503 3.38644
# Velocity P-wave (km/s) = 6.01920 6.35733 6.19057
#
# Compressibility (1/GPa) = 0.02469300
#
# Stress axis : x y z
#
# Youngs Moduli (GPa) = 35.73351 81.55534 49.30458
#
# Poissons Ratio (x) = 0.00245 0.77559
# Poissons Ratio (y) = 0.00107 0.10636
# Poissons Ratio (z) = 0.56211 0.17594
#
# Static dielectric constant tensor:
#      x y z
#    x 1.604140 0.000000 0.000000 
#    y 0.000000 1.638990 0.000000 
#    z 0.000000 0.000000 1.637010 
# 
# From -- ./inp_files/17268.got.cif
#   From: 2010.05.17/outbox.cif.g08.bks.cpg/sg36_9_cif.got.tgz:17268.got - 2010.06.03 17:41:39.
