data_PCOD9351473
_publ_section_title
;
Structure prediction by ZEFSAII (Michael W. Deem and Ramdas Pophale) SiO2 
 PCOD9351473
Probable space group: C M C 21
;
_chemical_formula_sum "Si O2"
_cell_formula_units_Z 64
_cell_length_a 7.657528
_cell_length_b 29.383142
_cell_length_c 14.637819
_cell_angle_alpha 90.000000
_cell_angle_beta 90.000000
_cell_angle_gamma 90.000000
_cell_volume 3293.541955
_symmetry_space_group_name_H-M "C M C 21"
_symmetry_group_IT_number 36
_symmetry_cell_setting 'orthorhombic'
loop_
_space_group_symop_operation_xyz
x,y,z
-x,-y,1/2+z
x,-y,1/2+z
-x,y,z
1/2+x,1/2+y,z
1/2-x,1/2-y,1/2+z
1/2+x,1/2-y,1/2+z
1/2-x,1/2+y,z
loop_
_atom_site_type_symbol
_atom_site_label
_atom_site_fract_x
_atom_site_fract_y
_atom_site_fract_z
Si Si1 0.785751 0.874683 0.775390
Si Si2 0.209936 0.051951 0.627076
Si Si3 0.789660 0.375007 0.276674
Si Si4 0.290537 0.198903 0.631894
Si Si5 0.205552 0.949905 0.636147
Si Si6 0.210902 0.801962 0.627434
Si Si7 0.793146 0.378251 0.483548
Si Si8 0.289771 0.625791 0.483145
O O1 0.724496 0.918836 0.718747
O O2 0.732119 0.830952 0.715831
O O3 0.725829 0.873900 0.879495
O O4 0.000000 0.875063 0.775335
O O5 0.247789 0.079566 0.719697
O O6 0.276515 0.083498 0.544067
O O7 0.000000 0.049938 0.616915
O O8 0.279360 0.000580 0.627533
O O9 0.724095 0.332548 0.215438
O O10 0.723582 0.376197 0.380332
O O11 0.000000 0.371031 0.280477
O O12 0.500000 0.201427 0.641870
O O13 0.223245 0.250365 0.628615
O O14 0.253062 0.171135 0.539644
O O15 0.221797 0.919517 0.545070
O O16 0.000000 0.955369 0.654907
O O17 0.260327 0.831736 0.539146
O O18 0.000000 0.800745 0.629009
O O19 0.000000 0.385274 0.478734
O O20 0.500000 0.622390 0.479540
#
# Coordination Sequence:
#
# PCOD9351473 Si02
#       8
#     8   8   8   8   8   8   8   8
#     4   8  15  29  48  67  90 122 156 189 229 279
#     4   9  18  31  50  75  98 124 160 199 237 278
#     4   9  19  34  50  70  99 132 162 195 239 290
#     4   9  18  33  50  68  93 125 160 196 238 289
#     4   9  18  33  51  71  97 129 162 197 238 282
#     4   9  18  33  51  69  92 126 163 197 237 285
#     4  10  20  33  50  73  99 128 162 199 241 287
#     4   9  17  30  48  71  96 120 153 196 237 280
#
# _framework density 19.431965999999999
#
# number of rings (size 3 to 8) (size 9 to 14) (size 15 to 20)
#    0.000    3.000    0.000    1.125    0.000    4.000 
#    0.000    7.500    0.000    0.000    0.000    0.000 
#    0.000    0.000    0.000    0.000    0.000    0.000 
#
# Total GULP energy -178435.815860 kJ/mol
# GULP energy per Si atom -5576.119246 kJ/mol
# Density = 1.938774 g / cm^3
# Si number density = 19.431966 Si / 1000 Ang^3
#
#
#
# Elastic Constant Matrix: (Units=GPa)
#
#
# Indices 1 2 3 4 5 6 
#
# 1 29.9811 -3.3031 -8.1973 0.0000 0.0000 0.0000
# 2 -3.3031 202.2920 104.4871 0.0000 0.0000 0.0000
# 3 -8.1973 104.4871 189.4853 0.0000 0.0000 0.0000
# 4 0.0000 0.0000 0.0000 5.0761 0.0000 0.0000
# 5 0.0000 0.0000 0.0000 0.0000 13.2931 0.0000
# 6 0.0000 0.0000 0.0000 0.0000 0.0000 18.5218
#
#
#
# Elastic Compliance Matrix: (Units=1/GPa)
#
#
# Indices 1 2 3 4 5 6 
#
# 1 0.033765 -0.000284 0.001617 0.000000 0.000000 0.000000
# 2 -0.000284 0.006914 -0.003825 0.000000 0.000000 0.000000
# 3 0.001617 -0.003825 0.007457 0.000000 0.000000 0.000000
# 4 0.000000 0.000000 0.000000 0.197001 0.000000 0.000000
# 5 0.000000 0.000000 0.000000 0.000000 0.075227 0.000000
# 6 0.000000 0.000000 0.000000 0.000000 0.000000 0.053990
#
#
# Mechanical properties :
#
#
# Convention : Reuss Voigt Hill
#
# Bulk Modulus (GPa) = 23.17350 67.52574 45.34962
# Shear Modulus (GPa) = 12.69931 29.29634 20.99782
#
# Velocity S-wave (km/s) = 2.55919 3.88704 3.29079
# Velocity P-wave (km/s) = 4.54796 7.41422 6.15039
#
# Compressibility (1/GPa) = 0.04315274
#
# Stress axis : x y z
#
# Youngs Moduli (GPa) = 29.61628 144.62512 134.10811
#
# Poissons Ratio (x) = 0.04108 -0.21690
# Poissons Ratio (y) = 0.00841 0.51297
# Poissons Ratio (z) = -0.04790 0.55320
#
# Static dielectric constant tensor:
#      x y z
#    x 1.730140 0.000000 0.000000 
#    y 0.000000 1.671140 0.000000 
#    z 0.000000 0.000000 1.660690 
# 
# From -- ./inp_files/11197.got.cif
#   From: 2010.05.17/outbox.cif.g08.bks.cpg/sg36_6_cif.got.tgz:11197.got - 2010.06.03 17:41:39.
