data_PCOD9351921
_publ_section_title
;
Structure prediction by ZEFSAII (Michael W. Deem and Ramdas Pophale) SiO2 
 PCOD9351921
Probable space group: C M C 21
;
_chemical_formula_sum "Si O2"
_cell_formula_units_Z 64
_cell_length_a 13.758400
_cell_length_b 27.211545
_cell_length_c 9.321431
_cell_angle_alpha 90.000000
_cell_angle_beta 90.000000
_cell_angle_gamma 90.000000
_cell_volume 3489.825577
_symmetry_space_group_name_H-M "C M C 21"
_symmetry_group_IT_number 36
_symmetry_cell_setting 'orthorhombic'
loop_
_space_group_symop_operation_xyz
x,y,z
-x,-y,1/2+z
x,-y,1/2+z
-x,y,z
1/2+x,1/2+y,z
1/2-x,1/2-y,1/2+z
1/2+x,1/2-y,1/2+z
1/2-x,1/2+y,z
loop_
_atom_site_type_symbol
_atom_site_label
_atom_site_fract_x
_atom_site_fract_y
_atom_site_fract_z
Si Si1 0.265534 0.094498 0.783160
Si Si2 0.769205 0.989150 0.646798
Si Si3 0.188333 0.853542 0.016842
Si Si4 0.886192 0.410603 0.552128
Si Si5 0.112138 0.954989 0.908242
Si Si6 0.390064 0.269573 0.208572
Si Si7 0.267886 0.827756 0.708299
Si Si8 0.886307 0.847210 0.463208
O O1 0.261149 0.128698 0.642865
O O2 0.170541 0.109552 0.877754
O O3 0.261514 0.038754 0.729223
O O4 0.355292 0.102487 0.889313
O O5 0.677336 0.958381 0.593073
O O6 0.831196 0.956843 0.757993
O O7 0.835822 0.007035 0.515656
O O8 0.124454 0.901407 0.979021
O O9 0.241317 0.837779 0.872436
O O10 0.126788 0.809388 0.083518
O O11 0.847099 0.366765 0.651915
O O12 0.000000 0.418500 0.567036
O O13 0.000000 0.967269 0.887952
O O14 0.500000 0.250048 0.201890
O O15 0.312523 0.226397 0.194817
O O16 0.379688 0.300275 0.356580
O O17 0.173734 0.835880 0.606983
O O18 0.000000 0.858320 0.486977
#
# Coordination Sequence:
#
# PCOD9351921 Si02
#       8
#     8   8   8   8   8   8   8   8
#     4   9  21  40  60  81 118 154 199 247 295 362
#     4  11  21  40  56  89 120 155 205 245 293 361
#     4  10  21  38  61  88 125 149 198 253 302 361
#     4  11  23  41  60  82 117 162 204 252 302 352
#     4  11  22  37  60  90 126 161 196 246 306 363
#     4  10  20  37  59  85 118 161 199 240 304 366
#     4  11  21  38  60  89 118 154 201 256 299 358
#     4   9  20  37  59  86 120 158 197 245 308 365
#
# _framework density 18.339026
#
# number of rings (size 3 to 8) (size 9 to 14) (size 15 to 20)
#    0.000    1.750    2.500    1.875    0.000    5.000 
#    0.000    1.250    0.000    6.000    0.000    0.000 
#    0.000    0.000    0.000    0.000    0.000    0.000 
#
# Total GULP energy -178701.816096 kJ/mol
# GULP energy per Si atom -5584.431753 kJ/mol
# Density = 1.829729 g / cm^3
# Si number density = 18.339026 Si / 1000 Ang^3
#
#
#
# Elastic Constant Matrix: (Units=GPa)
#
#
# Indices 1 2 3 4 5 6 
#
# 1 141.6022 40.8265 62.8362 0.0000 0.0000 0.0000
# 2 40.8265 77.7750 27.7974 0.0000 0.0000 0.0000
# 3 62.8362 27.7974 127.1145 0.0000 0.0000 0.0000
# 4 0.0000 0.0000 0.0000 19.0286 0.0000 0.0000
# 5 0.0000 0.0000 0.0000 0.0000 10.0925 0.0000
# 6 0.0000 0.0000 0.0000 0.0000 0.0000 23.7939
#
#
#
# Elastic Compliance Matrix: (Units=1/GPa)
#
#
# Indices 1 2 3 4 5 6 
#
# 1 0.009969 -0.003766 -0.004104 0.000000 0.000000 0.000000
# 2 -0.003766 0.015371 -0.001499 0.000000 0.000000 0.000000
# 3 -0.004104 -0.001499 0.010224 0.000000 0.000000 0.000000
# 4 0.000000 0.000000 0.000000 0.052552 0.000000 0.000000
# 5 0.000000 0.000000 0.000000 0.000000 0.099083 0.000000
# 6 0.000000 0.000000 0.000000 0.000000 0.000000 0.042028
#
#
# Mechanical properties :
#
#
# Convention : Reuss Voigt Hill
#
# Bulk Modulus (GPa) = 59.44164 67.71245 63.57704
# Shear Modulus (GPa) = 19.71803 24.91845 22.31824
#
# Velocity S-wave (km/s) = 3.28257 3.69014 3.49231
# Velocity P-wave (km/s) = 6.84471 7.42691 7.14174
#
# Compressibility (1/GPa) = 0.01682322
#
# Stress axis : x y z
#
# Youngs Moduli (GPa) = 100.30818 65.05958 97.81097
#
# Poissons Ratio (x) = 0.24503 0.40147
# Poissons Ratio (y) = 0.37778 0.14667
# Poissons Ratio (z) = 0.41171 0.09756
#
# Static dielectric constant tensor:
#      x y z
#    x 1.593640 0.000000 0.000000 
#    y 0.000000 1.631490 0.000000 
#    z 0.000000 0.000000 1.637180 
# 
# From -- ./inp_files/3624.got.cif
#   From: 2010.05.17/outbox.cif.g08.bks.cpg/sg36_2_cif.got.tgz:3624.got - 2010.06.03 17:41:39.
