data_PCOD9351023
_publ_section_title
;
Structure prediction by ZEFSAII (Michael W. Deem and Ramdas Pophale) SiO2 
 PCOD9351023
Probable space group: C M C 21
;
_chemical_formula_sum "Si O2"
_cell_formula_units_Z 64
_cell_length_a 7.365373
_cell_length_b 25.784029
_cell_length_c 12.938098
_cell_angle_alpha 90.000000
_cell_angle_beta 90.000000
_cell_angle_gamma 90.000000
_cell_volume 2457.061137
_symmetry_space_group_name_H-M "C M C 21"
_symmetry_group_IT_number 36
_symmetry_cell_setting 'orthorhombic'
loop_
_space_group_symop_operation_xyz
x,y,z
-x,-y,1/2+z
x,-y,1/2+z
-x,y,z
1/2+x,1/2+y,z
1/2-x,1/2-y,1/2+z
1/2+x,1/2-y,1/2+z
1/2-x,1/2+y,z
loop_
_atom_site_type_symbol
_atom_site_label
_atom_site_fract_x
_atom_site_fract_y
_atom_site_fract_z
Si Si1 0.218146 0.576793 0.215080
Si Si2 0.779849 0.453596 0.491817
Si Si3 0.278373 0.037933 0.773113
Si Si4 0.778622 0.569529 0.548551
Si Si5 0.705090 0.177189 0.505810
Si Si6 0.777595 0.791138 0.458689
Si Si7 0.287443 0.311294 0.687856
Si Si8 0.294891 0.302510 0.237865
O O1 0.286005 0.572413 0.096413
O O2 0.277261 0.522898 0.267141
O O3 0.264240 0.634939 0.247909
O O4 0.000000 0.574323 0.216881
O O5 0.716574 0.436500 0.379510
O O6 0.732194 0.514357 0.500846
O O7 0.000000 0.450124 0.494557
O O8 0.500000 0.038080 0.772669
O O9 0.221613 0.065809 0.668228
O O10 0.710573 0.620645 0.491480
O O11 0.000000 0.572320 0.546767
O O12 0.500000 0.175773 0.465046
O O13 0.785773 0.231064 0.466847
O O14 0.698680 0.182312 0.631517
O O15 0.722147 0.815968 0.568109
O O16 0.715415 0.815449 0.350488
O O17 0.000000 0.791477 0.455415
O O18 0.500000 0.299306 0.683151
O O19 0.199051 0.260441 0.735631
O O20 0.500000 0.322159 0.230288
#
# Coordination Sequence:
#
# PCOD9351023 Si02
#       8
#     8   8   8   8   8   8   8   8
#     4   9  17  29  47  72  96 121 160 200 232 274
#     4   8  14  25  42  66  95 123 152 188 226 266
#     4   8  14  25  42  67  97 122 148 189 232 265
#     4   8  14  24  40  62  87 118 152 181 215 266
#     4   9  17  31  49  70  96 124 154 189 234 283
#     4   8  17  32  48  66  91 123 155 188 230 284
#     4  10  20  35  51  69  96 127 157 193 243 293
#     4  10  19  33  51  70  92 120 158 198 234 279
#
# _framework density 26.047377999999998
#
# number of rings (size 3 to 8) (size 9 to 14) (size 15 to 20)
#    0.000    3.250    0.000    3.000    0.000    2.000 
#    0.000   11.250    0.000    3.750    0.000    0.000 
#    0.000    0.000    0.000    0.000    0.000    0.000 
#
# Total GULP energy -178790.611802 kJ/mol
# GULP energy per Si atom -5587.206619 kJ/mol
# Density = 2.598809 g / cm^3
# Si number density = 26.047378 Si / 1000 Ang^3
#
#
#
# Elastic Constant Matrix: (Units=GPa)
#
#
# Indices 1 2 3 4 5 6 
#
# 1 104.6248 -9.5358 -4.9845 0.0000 0.0000 0.0000
# 2 -9.5358 118.5952 -21.3926 0.0000 0.0000 0.0000
# 3 -4.9845 -21.3926 112.9759 0.0000 0.0000 0.0000
# 4 0.0000 0.0000 0.0000 -16.7750 0.0000 0.0000
# 5 0.0000 0.0000 0.0000 0.0000 -3.0083 0.0000
# 6 0.0000 0.0000 0.0000 0.0000 0.0000 3.1844
#
#
#
# Elastic Compliance Matrix: (Units=1/GPa)
#
#
# Indices 1 2 3 4 5 6 
#
# 1 0.009667 0.000884 0.000594 0.000000 0.000000 0.000000
# 2 0.000884 0.008811 0.001707 0.000000 0.000000 0.000000
# 3 0.000594 0.001707 0.009201 0.000000 0.000000 0.000000
# 4 0.000000 0.000000 0.000000 -0.059613 0.000000 0.000000
# 5 0.000000 0.000000 0.000000 0.000000 -0.332413 0.000000
# 6 0.000000 0.000000 0.000000 0.000000 0.000000 0.314027
#
#
# Mechanical properties :
#
#
# Convention : Reuss Voigt Hill
#
# Bulk Modulus (GPa) = 29.36798 29.37446 29.37122
# Shear Modulus (GPa) = -110.27497 21.48748 -44.39374
#
# Velocity S-wave (km/s) = -6.51369 2.87529 -4.13285
# Velocity P-wave (km/s) = 6.72842 4.72492 3.38724
#
# Compressibility (1/GPa) = 0.03405069
#
# Stress axis : x y z
#
# Youngs Moduli (GPa) = 103.44611 113.49254 108.68419
#
# Poissons Ratio (x) = -0.10038 -0.06456
# Poissons Ratio (y) = -0.09149 -0.18557
# Poissons Ratio (z) = -0.06144 -0.19378
#
# Static dielectric constant tensor:
#      x y z
#    x 2.012750 0.000000 0.000000 
#    y 0.000000 2.020350 0.000000 
#    z 0.000000 0.000000 2.038930 
# 
# From -- ./inp_files/11191.got.cif
#   From: 2010.05.17/outbox.cif.g08.bks.cpg/sg36_6_cif.got.tgz:11191.got - 2010.06.03 17:41:39.
