data_PCOD9351299
_publ_section_title
;
Structure prediction by ZEFSAII (Michael W. Deem and Ramdas Pophale) SiO2 
 PCOD9351299
Probable space group: C M C 21
;
_chemical_formula_sum "Si O2"
_cell_formula_units_Z 56
_cell_length_a 14.699641
_cell_length_b 21.047282
_cell_length_c 9.422574
_cell_angle_alpha 90.000000
_cell_angle_beta 90.000000
_cell_angle_gamma 90.000000
_cell_volume 2915.226514
_symmetry_space_group_name_H-M "C M C 21"
_symmetry_group_IT_number 36
_symmetry_cell_setting 'orthorhombic'
loop_
_space_group_symop_operation_xyz
x,y,z
-x,-y,1/2+z
x,-y,1/2+z
-x,y,z
1/2+x,1/2+y,z
1/2-x,1/2-y,1/2+z
1/2+x,1/2-y,1/2+z
1/2-x,1/2+y,z
loop_
_atom_site_type_symbol
_atom_site_label
_atom_site_fract_x
_atom_site_fract_y
_atom_site_fract_z
Si Si1 0.723954 0.584543 0.238990
Si Si2 0.792779 0.226393 0.704016
Si Si3 0.105230 0.345371 0.835568
Si Si4 0.096356 0.257522 0.103892
Si Si5 0.105915 0.141508 0.485478
Si Si6 0.899396 0.035296 0.730981
Si Si7 0.843740 0.863977 0.450643
O O1 0.823278 0.598295 0.304840
O O2 0.652884 0.621970 0.339567
O O3 0.683458 0.513676 0.236074
O O4 0.717150 0.609966 0.078417
O O5 0.855348 0.285567 0.747216
O O6 0.689130 0.246390 0.688203
O O7 0.835099 0.195696 0.562618
O O8 0.792737 0.172827 0.825074
O O9 0.000000 0.359493 0.800786
O O10 0.106361 0.317065 0.995606
O O11 0.000000 0.263848 0.181009
O O12 0.095066 0.192159 0.014739
O O13 0.108212 0.081388 0.594438
O O14 0.000000 0.158983 0.469820
O O15 0.894651 0.078977 0.871470
O O16 0.000000 0.003916 0.725805
#
# Coordination Sequence:
#
# PCOD9351299 Si02
#       7
#     8   8   8   8   8   8   8
#     4  12  21  35  57  85 118 156 199 245 291 351
#     4  10  19  39  58  85 121 158 195 240 300 360
#     4  10  21  37  58  83 117 159 195 236 297 358
#     4  10  19  35  61  89 119 156 194 240 296 359
#     4  10  21  36  58  86 117 155 199 243 297 356
#     4  10  22  39  58  85 122 159 194 244 306 356
#     4  10  22  37  59  87 126 153 193 246 302 356
#
# _framework density 19.209485999999998
#
# number of rings (size 3 to 8) (size 9 to 14) (size 15 to 20)
#    0.000    1.714    2.857    2.143    0.000    6.857 
#    0.000    0.714    0.000    6.857    0.000    0.000 
#    0.000    0.000    0.000    0.000    0.000    0.000 
#
# Total GULP energy -156240.127752 kJ/mol
# GULP energy per Si atom -5580.004563 kJ/mol
# Density = 1.916576 g / cm^3
# Si number density = 19.209486 Si / 1000 Ang^3
#
#
#
# Elastic Constant Matrix: (Units=GPa)
#
#
# Indices 1 2 3 4 5 6 
#
# 1 147.4199 34.3872 13.6034 0.0000 0.0000 0.0000
# 2 34.3872 61.0747 2.7694 0.0000 0.0000 0.0000
# 3 13.6034 2.7694 55.6642 0.0000 0.0000 0.0000
# 4 0.0000 0.0000 0.0000 11.9055 0.0000 0.0000
# 5 0.0000 0.0000 0.0000 0.0000 6.3730 0.0000
# 6 0.0000 0.0000 0.0000 0.0000 0.0000 6.9050
#
#
#
# Elastic Compliance Matrix: (Units=1/GPa)
#
#
# Indices 1 2 3 4 5 6 
#
# 1 0.007972 -0.004410 -0.001729 0.000000 0.000000 0.000000
# 2 -0.004410 0.018850 0.000140 0.000000 0.000000 0.000000
# 3 -0.001729 0.000140 0.018380 0.000000 0.000000 0.000000
# 4 0.000000 0.000000 0.000000 0.083995 0.000000 0.000000
# 5 0.000000 0.000000 0.000000 0.000000 0.156913 0.000000
# 6 0.000000 0.000000 0.000000 0.000000 0.000000 0.144824
#
#
# Mechanical properties :
#
#
# Convention : Reuss Voigt Hill
#
# Bulk Modulus (GPa) = 30.11643 40.63097 35.37370
# Shear Modulus (GPa) = 11.01326 19.26328 15.13827
#
# Velocity S-wave (km/s) = 2.39702 3.17014 2.81029
# Velocity P-wave (km/s) = 4.83455 5.88193 5.38377
#
# Compressibility (1/GPa) = 0.03320447
#
# Stress axis : x y z
#
# Youngs Moduli (GPa) = 125.44684 53.05053 54.40586
#
# Poissons Ratio (x) = 0.23394 0.09405
# Poissons Ratio (y) = 0.55320 -0.00761
# Poissons Ratio (z) = 0.21686 -0.00742
#
# Static dielectric constant tensor:
#      x y z
#    x 1.666270 0.000000 0.000000 
#    y 0.000000 1.693770 0.000000 
#    z 0.000000 0.000000 1.694030 
# 
# From -- ./inp_files/4202.got.cif
#   From: 2010.05.17/outbox.cif.g08.bks.cpg/sg36_3_cif.got.tgz:4202.got - 2010.06.03 17:41:39.
