data_PCOD9351564
_publ_section_title
;
Structure prediction by ZEFSAII (Michael W. Deem and Ramdas Pophale) SiO2 
 PCOD9351564
Probable space group: C M C 21
;
_chemical_formula_sum "Si O2"
_cell_formula_units_Z 48
_cell_length_a 7.431175
_cell_length_b 29.657704
_cell_length_c 8.536644
_cell_angle_alpha 90.000000
_cell_angle_beta 90.000000
_cell_angle_gamma 90.000000
_cell_volume 1881.404532
_symmetry_space_group_name_H-M "C M C 21"
_symmetry_group_IT_number 36
_symmetry_cell_setting 'orthorhombic'
loop_
_space_group_symop_operation_xyz
x,y,z
-x,-y,1/2+z
x,-y,1/2+z
-x,y,z
1/2+x,1/2+y,z
1/2-x,1/2-y,1/2+z
1/2+x,1/2-y,1/2+z
1/2-x,1/2+y,z
loop_
_atom_site_type_symbol
_atom_site_label
_atom_site_fract_x
_atom_site_fract_y
_atom_site_fract_z
Si Si1 0.295479 0.102191 0.781850
Si Si2 0.705650 0.735756 0.278526
Si Si3 0.781593 0.651567 0.089823
Si Si4 0.720499 0.978397 0.082942
Si Si5 0.718480 0.935846 0.757730
Si Si6 0.705497 0.682210 0.576035
O O1 0.500000 0.091535 0.830700
O O2 0.217984 0.055442 0.720261
O O3 0.297603 0.136926 0.636202
O O4 0.217324 0.129689 0.927269
O O5 0.500000 0.747340 0.320749
O O6 0.710380 0.700157 0.136179
O O7 0.784694 0.708411 0.426016
O O8 0.791298 0.781441 0.216829
O O9 0.727361 0.614930 0.220902
O O10 0.000000 0.655599 0.085206
O O11 0.500000 0.977350 0.081973
O O12 0.772437 0.029385 0.120954
O O13 0.780407 0.957426 0.919653
O O14 0.500000 0.935324 0.760821
O O15 0.500000 0.670422 0.538795
#
# Coordination Sequence:
#
# PCOD9351564 Si02
#       6
#     8   8   8   8   8   8
#     4  10  20  34  54  81 111 143 181 223 267 317
#     4  11  24  40  58  81 108 139 177 220 267 321
#     4  10  20  34  54  81 111 143 181 223 267 317
#     4   9  16  27  46  74 108 144 181 222 266 311
#     4   9  16  27  46  74 108 144 181 222 266 311
#     4  11  24  40  58  81 108 139 177 220 267 321
#
# _framework density 25.512854000000001
#
# number of rings (size 3 to 8) (size 9 to 14) (size 15 to 20)
#    0.000    2.000    0.000    4.000    0.000   12.667 
#    0.000    0.000    0.000    1.000    0.000    0.000 
#    0.000    0.000    0.000    0.000    0.000    0.000 
#
# Total GULP energy -134327.300141 kJ/mol
# GULP energy per Si atom -5596.970839 kJ/mol
# Density = 2.545479 g / cm^3
# Si number density = 25.512854 Si / 1000 Ang^3
#
#
#
# Elastic Constant Matrix: (Units=GPa)
#
#
# Indices 1 2 3 4 5 6 
#
# 1 84.8624 -7.2369 -5.3192 0.0000 0.0000 0.0000
# 2 -7.2369 117.5616 -7.9215 0.0000 0.0000 0.0000
# 3 -5.3192 -7.9215 66.9950 0.0000 0.0000 0.0000
# 4 0.0000 0.0000 0.0000 46.9079 0.0000 0.0000
# 5 0.0000 0.0000 0.0000 0.0000 5.1265 0.0000
# 6 0.0000 0.0000 0.0000 0.0000 0.0000 -2.0459
#
#
#
# Elastic Compliance Matrix: (Units=1/GPa)
#
#
# Indices 1 2 3 4 5 6 
#
# 1 0.011918 0.000804 0.001041 0.000000 0.000000 0.000000
# 2 0.000804 0.008629 0.001084 0.000000 0.000000 0.000000
# 3 0.001041 0.001084 0.015137 0.000000 0.000000 0.000000
# 4 0.000000 0.000000 0.000000 0.021318 0.000000 0.000000
# 5 0.000000 0.000000 0.000000 0.000000 0.195066 0.000000
# 6 0.000000 0.000000 0.000000 0.000000 0.000000 -0.488771
#
#
# Mechanical properties :
#
#
# Convention : Reuss Voigt Hill
#
# Bulk Modulus (GPa) = 24.07209 25.38488 24.72849
# Shear Modulus (GPa) = -21.86136 29.32413 3.73138
#
# Velocity S-wave (km/s) = -2.93042 3.39394 1.21067
# Velocity P-wave (km/s) = 1.41211 5.03288 3.41583
#
# Compressibility (1/GPa) = 0.04154188
#
# Stress axis : x y z
#
# Youngs Moduli (GPa) = 83.90961 115.89220 66.06177
#
# Poissons Ratio (x) = -0.09315 -0.06879
# Poissons Ratio (y) = -0.06745 -0.07162
# Poissons Ratio (z) = -0.08737 -0.12564
#
# Static dielectric constant tensor:
#      x y z
#    x 1.977890 0.000000 0.000000 
#    y 0.000000 1.903820 0.000000 
#    z 0.000000 0.000000 2.052800 
# 
# From -- ./inp_files/2656.got.cif
#   From: 2010.05.17/outbox.cif.g08.bks.cpg/sg36_2_cif.got.tgz:2656.got - 2010.06.03 17:41:39.
