data_PCOD9351725
_publ_section_title
;
Structure prediction by ZEFSAII (Michael W. Deem and Ramdas Pophale) SiO2 
 PCOD9351725
Probable space group: C M C 21
;
_chemical_formula_sum "Si O2"
_cell_formula_units_Z 64
_cell_length_a 17.352856
_cell_length_b 8.685453
_cell_length_c 21.218148
_cell_angle_alpha 90.000000
_cell_angle_beta 90.000000
_cell_angle_gamma 90.000000
_cell_volume 3197.944422
_symmetry_space_group_name_H-M "C M C 21"
_symmetry_group_IT_number 36
_symmetry_cell_setting 'orthorhombic'
loop_
_space_group_symop_operation_xyz
x,y,z
-x,-y,1/2+z
x,-y,1/2+z
-x,y,z
1/2+x,1/2+y,z
1/2-x,1/2-y,1/2+z
1/2+x,1/2-y,1/2+z
1/2-x,1/2+y,z
loop_
_atom_site_type_symbol
_atom_site_label
_atom_site_fract_x
_atom_site_fract_y
_atom_site_fract_z
Si Si1 0.181133 0.071058 0.008690
Si Si2 0.651985 0.533223 0.772267
Si Si3 0.588617 0.584026 0.398427
Si Si4 0.588186 0.941998 0.395755
Si Si5 0.178095 0.602770 0.284773
Si Si6 0.149040 0.430834 0.020745
Si Si7 0.339331 0.949712 0.648290
Si Si8 0.666327 0.417431 0.135770
O O1 0.142153 0.986349 0.068839
O O2 0.170361 0.252200 0.016834
O O3 0.143335 0.012536 0.944320
O O4 0.271195 0.025623 0.010542
O O5 0.596977 0.472398 0.826712
O O6 0.732072 0.440640 0.779677
O O7 0.625045 0.523709 0.699448
O O8 0.668882 0.713593 0.784160
O O9 0.500000 0.568598 0.419049
O O10 0.610938 0.763368 0.401544
O O11 0.500000 0.947922 0.373383
O O12 0.642246 0.028953 0.346614
O O13 0.595032 0.020728 0.463680
O O14 0.137144 0.537175 0.221258
O O15 0.117083 0.472956 0.089951
O O16 0.254629 0.026765 0.644760
O O17 0.334859 0.767185 0.634900
#
# Coordination Sequence:
#
# PCOD9351725 Si02
#       8
#     8   8   8   8   8   8   8   8
#     4  11  21  35  58  84 111 142 179 223 268 320
#     4  10  20  35  58  85 112 142 178 221 267 319
#     4  11  24  40  56  76 107 145 184 227 272 319
#     4  11  24  40  56  76 107 145 184 227 272 319
#     4  10  20  35  58  85 112 142 178 221 267 319
#     4  11  21  35  58  84 111 142 179 223 268 320
#     4   9  17  31  53  82 112 140 174 219 268 316
#     4   9  17  31  53  82 112 140 174 219 268 316
#
# _framework density 20.012854999999998
#
# number of rings (size 3 to 8) (size 9 to 14) (size 15 to 20)
#    0.000    1.750    0.000    6.750    0.000    5.000 
#    0.000    1.250    0.000    1.500    0.000    0.000 
#    0.000    0.000    0.000    0.000    0.000    0.000 
#
# Total GULP energy -178682.709273 kJ/mol
# GULP energy per Si atom -5583.834665 kJ/mol
# Density = 1.996731 g / cm^3
# Si number density = 20.012855 Si / 1000 Ang^3
#
#
#
# Elastic Constant Matrix: (Units=GPa)
#
#
# Indices 1 2 3 4 5 6 
#
# 1 12.6225 5.1281 4.9151 0.0000 0.0000 0.0000
# 2 5.1281 68.8741 -2.8229 0.0000 0.0000 0.0000
# 3 4.9151 -2.8229 89.4261 0.0000 0.0000 0.0000
# 4 0.0000 0.0000 0.0000 32.9182 0.0000 0.0000
# 5 0.0000 0.0000 0.0000 0.0000 -5.5246 0.0000
# 6 0.0000 0.0000 0.0000 0.0000 0.0000 6.0725
#
#
#
# Elastic Compliance Matrix: (Units=1/GPa)
#
#
# Indices 1 2 3 4 5 6 
#
# 1 0.083706 -0.006429 -0.004804 0.000000 0.000000 0.000000
# 2 -0.006429 0.015032 0.000828 0.000000 0.000000 0.000000
# 3 -0.004804 0.000828 0.011473 0.000000 0.000000 0.000000
# 4 0.000000 0.000000 0.000000 0.030378 0.000000 0.000000
# 5 0.000000 0.000000 0.000000 0.000000 -0.181009 0.000000
# 6 0.000000 0.000000 0.000000 0.000000 0.000000 0.164678
#
#
# Mechanical properties :
#
#
# Convention : Reuss Voigt Hill
#
# Bulk Modulus (GPa) = 11.18563 20.59593 15.89078
# Shear Modulus (GPa) = 28.59302 17.60671 23.09986
#
# Velocity S-wave (km/s) = 3.78396 2.96931 3.40111
# Velocity P-wave (km/s) = 4.96915 4.69781 4.83538
#
# Compressibility (1/GPa) = 0.08940042
#
# Stress axis : x y z
#
# Youngs Moduli (GPa) = 11.94653 66.52526 87.16437
#
# Poissons Ratio (x) = 0.42772 0.41871
# Poissons Ratio (y) = 0.07681 -0.07216
# Poissons Ratio (z) = 0.05739 -0.05508
#
# Static dielectric constant tensor:
#      x y z
#    x 1.683410 0.000000 0.000000 
#    y 0.000000 1.675310 0.000000 
#    z 0.000000 0.000000 1.751560 
# 
# From -- ./inp_files/16240.got.cif
#   From: 2010.05.17/outbox.cif.g08.bks.cpg/sg36_9_cif.got.tgz:16240.got - 2010.06.03 17:41:39.
