data_PCOD9351862
_publ_section_title
;
Structure prediction by ZEFSAII (Michael W. Deem and Ramdas Pophale) SiO2 
 PCOD9351862
Probable space group: C M C 21
;
_chemical_formula_sum "Si O2"
_cell_formula_units_Z 64
_cell_length_a 16.391441
_cell_length_b 20.094444
_cell_length_c 7.823455
_cell_angle_alpha 90.000000
_cell_angle_beta 90.000000
_cell_angle_gamma 90.000000
_cell_volume 2576.865302
_symmetry_space_group_name_H-M "C M C 21"
_symmetry_group_IT_number 36
_symmetry_cell_setting 'orthorhombic'
loop_
_space_group_symop_operation_xyz
x,y,z
-x,-y,1/2+z
x,-y,1/2+z
-x,y,z
1/2+x,1/2+y,z
1/2-x,1/2-y,1/2+z
1/2+x,1/2-y,1/2+z
1/2-x,1/2+y,z
loop_
_atom_site_type_symbol
_atom_site_label
_atom_site_fract_x
_atom_site_fract_y
_atom_site_fract_z
Si Si1 0.651829 0.528356 0.968870
Si Si2 0.090428 0.098516 0.660456
Si Si3 0.404032 0.644749 0.191744
Si Si4 0.593242 0.837025 0.434878
Si Si5 0.907315 0.581943 0.459378
Si Si6 0.374255 0.218719 0.551312
Si Si7 0.818932 0.210772 0.526523
Si Si8 0.829306 0.535243 0.800950
O O1 0.588506 0.559051 0.836248
O O2 0.737529 0.528415 0.868441
O O3 0.625277 0.455827 0.028720
O O4 0.645611 0.580850 0.124767
O O5 0.150819 0.160706 0.671886
O O6 0.000000 0.121455 0.613567
O O7 0.500000 0.629089 0.222749
O O8 0.402403 0.705150 0.053178
O O9 0.358089 0.676486 0.356521
O O10 0.500000 0.837282 0.488246
O O11 0.598906 0.809104 0.238777
O O12 0.644805 0.784204 0.540841
O O13 0.628559 0.910612 0.423633
O O14 0.905760 0.660730 0.427047
O O15 0.843299 0.564245 0.611511
O O16 0.876788 0.534259 0.310564
O O17 0.000000 0.564561 0.511482
O O18 0.277317 0.216831 0.529066
#
# Coordination Sequence:
#
# PCOD9351862 Si02
#       8
#     8   8   8   8   8   8   8   8
#     4  12  25  42  63  91 125 162 206 257 310 369
#     4  12  24  41  62  90 124 165 208 255 308 370
#     4  11  23  43  65  90 123 166 208 254 311 373
#     4  10  20  39  62  88 121 164 204 246 304 373
#     4  11  22  40  62  88 119 158 199 245 301 367
#     4  10  20  36  61  89 118 155 200 247 298 359
#     4  11  22  38  63  93 123 159 206 257 308 366
#     4  11  22  39  62  89 119 155 199 249 302 359
#
# _framework density 24.836376000000001
#
# number of rings (size 3 to 8) (size 9 to 14) (size 15 to 20)
#    0.000    1.000    0.000   10.500    0.000    2.000 
#    0.000    1.250    0.000    0.000    0.000    0.000 
#    0.000    0.000    0.000    0.000    0.000    0.000 
#
# Total GULP energy -179179.774935 kJ/mol
# GULP energy per Si atom -5599.367967 kJ/mol
# Density = 2.477985 g / cm^3
# Si number density = 24.836376 Si / 1000 Ang^3
#
#
#
# Elastic Constant Matrix: (Units=GPa)
#
#
# Indices 1 2 3 4 5 6 
#
# 1 171.3298 -4.8922 0.1201 0.0000 0.0000 0.0000
# 2 -4.8922 89.8728 -0.3853 0.0000 0.0000 0.0000
# 3 0.1201 -0.3853 62.5412 0.0000 0.0000 0.0000
# 4 0.0000 0.0000 0.0000 27.6142 0.0000 0.0000
# 5 0.0000 0.0000 0.0000 0.0000 -20.6156 0.0000
# 6 0.0000 0.0000 0.0000 0.0000 0.0000 182.8304
#
#
#
# Elastic Compliance Matrix: (Units=1/GPa)
#
#
# Indices 1 2 3 4 5 6 
#
# 1 0.005846 0.000318 -0.000009 0.000000 0.000000 0.000000
# 2 0.000318 0.011144 0.000068 0.000000 0.000000 0.000000
# 3 -0.000009 0.000068 0.015990 0.000000 0.000000 0.000000
# 4 0.000000 0.000000 0.000000 0.036213 0.000000 0.000000
# 5 0.000000 0.000000 0.000000 0.000000 -0.048507 0.000000
# 6 0.000000 0.000000 0.000000 0.000000 0.000000 0.005470
#
#
# Mechanical properties :
#
#
# Convention : Reuss Voigt Hill
#
# Bulk Modulus (GPa) = 29.64362 34.82542 32.23452
# Shear Modulus (GPa) = 136.43744 59.89254 98.16499
#
# Velocity S-wave (km/s) = 7.41982 4.91601 6.29369
# Velocity P-wave (km/s) = 9.23940 6.80260 8.11301
#
# Compressibility (1/GPa) = 0.03373407
#
# Stress axis : x y z
#
# Youngs Moduli (GPa) = 171.06338 89.73074 62.53950
#
# Poissons Ratio (x) = -0.02855 0.00058
# Poissons Ratio (y) = -0.05443 -0.00426
# Poissons Ratio (z) = 0.00158 -0.00611
#
# Static dielectric constant tensor:
#      x y z
#    x 1.963450 0.000000 0.000000 
#    y 0.000000 1.964440 0.000000 
#    z 0.000000 0.000000 2.086960 
# 
# From -- ./inp_files/4349.got.cif
#   From: 2010.05.17/outbox.cif.g08.bks.cpg/sg36_3_cif.got.tgz:4349.got - 2010.06.03 17:41:39.
