data_PCOD9351110
_publ_section_title
;
Structure prediction by ZEFSAII (Michael W. Deem and Ramdas Pophale) SiO2 
 PCOD9351110
Probable space group: C M C 21
;
_chemical_formula_sum "Si O2"
_cell_formula_units_Z 64
_cell_length_a 8.266727
_cell_length_b 29.867081
_cell_length_c 12.794587
_cell_angle_alpha 90.000000
_cell_angle_beta 90.000000
_cell_angle_gamma 90.000000
_cell_volume 3159.021977
_symmetry_space_group_name_H-M "C M C 21"
_symmetry_group_IT_number 36
_symmetry_cell_setting 'orthorhombic'
loop_
_space_group_symop_operation_xyz
x,y,z
-x,-y,1/2+z
x,-y,1/2+z
-x,y,z
1/2+x,1/2+y,z
1/2-x,1/2-y,1/2+z
1/2+x,1/2-y,1/2+z
1/2-x,1/2+y,z
loop_
_atom_site_type_symbol
_atom_site_label
_atom_site_fract_x
_atom_site_fract_y
_atom_site_fract_z
Si Si1 0.810993 0.684332 0.024960
Si Si2 0.194602 0.634515 0.510009
Si Si3 0.697567 0.914922 0.592113
Si Si4 0.198136 0.428622 0.829636
Si Si5 0.188517 0.086751 0.716144
Si Si6 0.193305 0.475075 0.397215
Si Si7 0.817060 0.814639 0.300976
Si Si8 0.814025 0.272790 0.105972
O O1 0.756589 0.636603 0.070212
O O2 0.783638 0.727100 0.097029
O O3 0.000000 0.679525 0.998926
O O4 0.714766 0.695252 0.920220
O O5 0.248993 0.613692 0.400082
O O6 0.240832 0.600367 0.603540
O O7 0.252775 0.684601 0.539414
O O8 0.000000 0.637315 0.509356
O O9 0.500000 0.916762 0.591903
O O10 0.750794 0.927917 0.708924
O O11 0.755399 0.946772 0.497075
O O12 0.252679 0.474116 0.886664
O O13 0.000000 0.428560 0.828786
O O14 0.270910 0.049282 0.787127
O O15 0.203833 0.132450 0.782923
O O16 0.000000 0.075956 0.703899
O O17 0.000000 0.476855 0.409403
O O18 0.696293 0.789812 0.224345
O O19 0.000000 0.803024 0.269849
O O20 0.000000 0.264786 0.075996
#
# Coordination Sequence:
#
# PCOD9351110 Si02
#       8
#     8   8   8   8   8   8   8   8
#     4  11  21  35  57  83 117 154 191 237 292 351
#     4   9  19  36  58  83 112 149 190 237 285 337
#     4   9  19  34  53  86 120 147 186 239 292 341
#     4   9  19  34  57  86 115 147 190 238 287 341
#     4  10  20  34  55  80 110 146 185 236 287 339
#     4  10  19  33  58  85 110 143 189 238 282 339
#     4  10  20  36  56  79 108 146 193 242 291 339
#     4  10  21  36  56  84 116 150 196 241 290 351
#
# _framework density 20.259435
#
# number of rings (size 3 to 8) (size 9 to 14) (size 15 to 20)
#    0.000    2.250    1.250    1.500    1.750    2.500 
#    0.000    3.125    0.000    3.750    0.000    0.000 
#    0.000    0.000    0.000    0.000    0.000    0.000 
#
# Total GULP energy -178509.641483 kJ/mol
# GULP energy per Si atom -5578.426296 kJ/mol
# Density = 2.021332 g / cm^3
# Si number density = 20.259435 Si / 1000 Ang^3
#
#
#
# Elastic Constant Matrix: (Units=GPa)
#
#
# Indices 1 2 3 4 5 6 
#
# 1 9.4963 10.5576 -3.9245 0.0000 0.0000 0.0000
# 2 10.5576 108.3264 49.6821 0.0000 0.0000 0.0000
# 3 -3.9245 49.6821 74.7115 0.0000 0.0000 0.0000
# 4 0.0000 0.0000 0.0000 17.9576 0.0000 0.0000
# 5 0.0000 0.0000 0.0000 0.0000 11.7796 0.0000
# 6 0.0000 0.0000 0.0000 0.0000 0.0000 15.3857
#
#
#
# Elastic Compliance Matrix: (Units=1/GPa)
#
#
# Indices 1 2 3 4 5 6 
#
# 1 0.143117 -0.025030 0.024162 0.000000 0.000000 0.000000
# 2 -0.025030 0.017660 -0.013058 0.000000 0.000000 0.000000
# 3 0.024162 -0.013058 0.023338 0.000000 0.000000 0.000000
# 4 0.000000 0.000000 0.000000 0.055687 0.000000 0.000000
# 5 0.000000 0.000000 0.000000 0.000000 0.084893 0.000000
# 6 0.000000 0.000000 0.000000 0.000000 0.000000 0.064996
#
#
# Mechanical properties :
#
#
# Convention : Reuss Voigt Hill
#
# Bulk Modulus (GPa) = 6.39950 33.90719 20.15334
# Shear Modulus (GPa) = 10.64671 18.10583 14.37627
#
# Velocity S-wave (km/s) = 2.29491 2.99272 2.66674
# Velocity P-wave (km/s) = 3.19183 5.35861 4.41035
#
# Compressibility (1/GPa) = 0.15626226
#
# Stress axis : x y z
#
# Youngs Moduli (GPa) = 6.98731 56.62572 42.84916
#
# Poissons Ratio (x) = 1.41735 -1.03534
# Poissons Ratio (y) = 0.17489 0.55954
# Poissons Ratio (z) = -0.16883 0.73944
#
# Static dielectric constant tensor:
#      x y z
#    x 1.707700 0.000000 0.000000 
#    y 0.000000 1.727740 0.000000 
#    z 0.000000 0.000000 1.724220 
# 
# From -- ./inp_files/7079.got.cif
#   From: 2010.05.17/outbox.cif.g08.bks.cpg/sg36_4_cif.got.tgz:7079.got - 2010.06.03 17:41:39.
