data_PCOD9351978
_publ_section_title
;
Structure prediction by ZEFSAII (Michael W. Deem and Ramdas Pophale) SiO2 
 PCOD9351978
Probable space group: C M C 21
;
_chemical_formula_sum "Si O2"
_cell_formula_units_Z 64
_cell_length_a 18.103251
_cell_length_b 18.240000
_cell_length_c 8.482509
_cell_angle_alpha 90.000000
_cell_angle_beta 90.000000
_cell_angle_gamma 90.000000
_cell_volume 2800.952449
_symmetry_space_group_name_H-M "C M C 21"
_symmetry_group_IT_number 36
_symmetry_cell_setting 'orthorhombic'
loop_
_space_group_symop_operation_xyz
x,y,z
-x,-y,1/2+z
x,-y,1/2+z
-x,y,z
1/2+x,1/2+y,z
1/2-x,1/2-y,1/2+z
1/2+x,1/2-y,1/2+z
1/2-x,1/2+y,z
loop_
_atom_site_type_symbol
_atom_site_label
_atom_site_fract_x
_atom_site_fract_y
_atom_site_fract_z
Si Si1 0.227837 0.405230 0.721220
Si Si2 0.808933 0.805549 0.519420
Si Si3 0.178932 0.357358 0.301241
Si Si4 0.583034 0.105985 0.094156
Si Si5 0.080915 0.258762 0.812980
Si Si6 0.586596 0.292390 0.765799
Si Si7 0.268347 0.453347 0.064201
Si Si8 0.417485 0.378990 0.095208
O O1 0.249148 0.323406 0.661470
O O2 0.140883 0.424145 0.721201
O O3 0.259039 0.460653 0.589846
O O4 0.261102 0.427642 0.885656
O O5 0.756744 0.834502 0.380309
O O6 0.850287 0.736474 0.432862
O O7 0.880672 0.836258 0.614926
O O8 0.124889 0.396081 0.427917
O O9 0.135039 0.282211 0.263650
O O10 0.205067 0.409838 0.160994
O O11 0.500000 0.077214 0.090042
O O12 0.580775 0.189277 0.159495
O O13 0.083506 0.178054 0.739381
O O14 0.000000 0.271938 0.889037
O O15 0.500000 0.276782 0.751320
O O16 0.596218 0.334622 0.931239
O O17 0.350080 0.432985 0.119966
O O18 0.500000 0.411084 0.084792
#
# Coordination Sequence:
#
# PCOD9351978 Si02
#       8
#     8   8   8   8   8   8   8   8
#     4  11  26  44  70  93 128 177 228 282 327 393
#     4  11  23  36  62  98 128 170 218 263 327 386
#     4  11  24  37  67  94 131 175 215 273 331 388
#     4  10  22  44  67  98 135 172 216 271 339 398
#     4  10  20  37  63  97 137 169 208 265 328 396
#     4  11  23  39  60  97 136 170 212 269 337 402
#     4  12  25  48  66  95 130 172 234 279 326 401
#     4  10  21  41  67  94 131 177 213 268 335 392
#
# _framework density 22.84937
#
# number of rings (size 3 to 8) (size 9 to 14) (size 15 to 20)
#    0.000    1.250    3.750    2.250    7.000    0.000 
#    0.000    5.625    0.000    0.000    0.000    0.000 
#    0.000    0.000    0.000    0.000    0.000    0.000 
#
# Total GULP energy -178179.285307 kJ/mol
# GULP energy per Si atom -5568.102666 kJ/mol
# Density = 2.279736 g / cm^3
# Si number density = 22.849370 Si / 1000 Ang^3
#
#
#
# Elastic Constant Matrix: (Units=GPa)
#
#
# Indices 1 2 3 4 5 6 
#
# 1 160.5020 41.2584 15.7058 0.0000 0.0000 0.0000
# 2 41.2584 41.1296 1.5087 0.0000 0.0000 0.0000
# 3 15.7058 1.5087 77.5945 0.0000 0.0000 0.0000
# 4 0.0000 0.0000 0.0000 17.0590 0.0000 0.0000
# 5 0.0000 0.0000 0.0000 0.0000 39.2538 0.0000
# 6 0.0000 0.0000 0.0000 0.0000 0.0000 17.8285
#
#
#
# Elastic Compliance Matrix: (Units=1/GPa)
#
#
# Indices 1 2 3 4 5 6 
#
# 1 0.008582 -0.008552 -0.001571 0.000000 0.000000 0.000000
# 2 -0.008552 0.032852 0.001092 0.000000 0.000000 0.000000
# 3 -0.001571 0.001092 0.013184 0.000000 0.000000 0.000000
# 4 0.000000 0.000000 0.000000 0.058620 0.000000 0.000000
# 5 0.000000 0.000000 0.000000 0.000000 0.025475 0.000000
# 6 0.000000 0.000000 0.000000 0.000000 0.000000 0.056090
#
#
# Mechanical properties :
#
#
# Convention : Reuss Voigt Hill
#
# Bulk Modulus (GPa) = 27.35402 44.01909 35.68656
# Shear Modulus (GPa) = 22.21724 29.54514 25.88119
#
# Velocity S-wave (km/s) = 3.12161 3.59979 3.36919
# Velocity P-wave (km/s) = 4.99901 6.04853 5.54864
#
# Compressibility (1/GPa) = 0.03655770
#
# Stress axis : x y z
#
# Youngs Moduli (GPa) = 116.51673 30.43972 75.84811
#
# Poissons Ratio (x) = 0.26031 0.11915
# Poissons Ratio (y) = 0.99642 -0.08284
# Poissons Ratio (z) = 0.18303 -0.03325
#
# Static dielectric constant tensor:
#      x y z
#    x 1.895140 0.000000 0.000000 
#    y 0.000000 1.907750 0.000000 
#    z 0.000000 0.000000 1.919310 
# 
# From -- ./inp_files/4941.got.cif
#   From: 2010.05.17/outbox.cif.g08.bks.cpg/sg36_3_cif.got.tgz:4941.got - 2010.06.03 17:41:39.
