data_PCOD9351312
_publ_section_title
;
Structure prediction by ZEFSAII (Michael W. Deem and Ramdas Pophale) SiO2 
 PCOD9351312
Probable space group: C M C 21
;
_chemical_formula_sum "Si O2"
_cell_formula_units_Z 64
_cell_length_a 14.250596
_cell_length_b 18.005263
_cell_length_c 12.186868
_cell_angle_alpha 90.000000
_cell_angle_beta 90.000000
_cell_angle_gamma 90.000000
_cell_volume 3126.976409
_symmetry_space_group_name_H-M "C M C 21"
_symmetry_group_IT_number 36
_symmetry_cell_setting 'orthorhombic'
loop_
_space_group_symop_operation_xyz
x,y,z
-x,-y,1/2+z
x,-y,1/2+z
-x,y,z
1/2+x,1/2+y,z
1/2-x,1/2-y,1/2+z
1/2+x,1/2-y,1/2+z
1/2-x,1/2+y,z
loop_
_atom_site_type_symbol
_atom_site_label
_atom_site_fract_x
_atom_site_fract_y
_atom_site_fract_z
Si Si1 0.604330 0.431665 0.373830
Si Si2 0.393969 0.256565 0.845837
Si Si3 0.350382 0.200561 0.613877
Si Si4 0.680897 0.587802 0.413282
Si Si5 0.102874 0.392901 0.909307
Si Si6 0.603624 0.179635 0.174823
Si Si7 0.756003 0.663802 0.000179
Si Si8 0.651263 0.352993 0.151492
O O1 0.500000 0.418555 0.420010
O O2 0.625691 0.518585 0.365719
O O3 0.686248 0.394752 0.446446
O O4 0.609355 0.395267 0.253960
O O5 0.500000 0.263381 0.890747
O O6 0.400385 0.231266 0.720319
O O7 0.340311 0.335269 0.851034
O O8 0.331102 0.198795 0.915136
O O9 0.400695 0.150991 0.523789
O O10 0.306478 0.268183 0.544571
O O11 0.263161 0.154394 0.662677
O O12 0.793133 0.570327 0.412761
O O13 0.641603 0.606115 0.535323
O O14 0.109865 0.338211 0.803834
O O15 0.000000 0.432089 0.896782
O O16 0.500000 0.156590 0.138178
O O17 0.615518 0.267740 0.152740
O O18 0.683064 0.138148 0.104878
#
# Coordination Sequence:
#
# PCOD9351312 Si02
#       8
#     8   8   8   8   8   8   8   8
#     4  12  27  43  63  92 130 174 212 258 322 391
#     4  12  22  38  65  97 125 161 209 267 321 366
#     4  10  20  37  64  96 128 157 207 275 320 356
#     4  11  24  43  62  92 136 169 212 258 318 390
#     4  10  20  38  64  94 126 169 214 259 316 372
#     4  10  19  35  66  98 126 165 213 262 313 371
#     4  11  22  39  62  92 124 160 216 263 307 363
#     4  10  20  39  62  89 129 171 209 256 317 387
#
# _framework density 20.467054999999998
#
# number of rings (size 3 to 8) (size 9 to 14) (size 15 to 20)
#    0.000    1.250    5.000    3.750    0.000    5.500 
#    0.000    1.250    0.000    1.500    0.000    0.000 
#    0.000    0.000    0.000    0.000    0.000    0.000 
#
# Total GULP energy -178538.052623 kJ/mol
# GULP energy per Si atom -5579.314144 kJ/mol
# Density = 2.042047 g / cm^3
# Si number density = 20.467055 Si / 1000 Ang^3
#
#
#
# Elastic Constant Matrix: (Units=GPa)
#
#
# Indices 1 2 3 4 5 6 
#
# 1 137.4958 17.3869 28.2797 0.0000 0.0000 0.0000
# 2 17.3869 31.0436 13.7823 0.0000 0.0000 0.0000
# 3 28.2797 13.7823 90.7225 0.0000 0.0000 0.0000
# 4 0.0000 0.0000 0.0000 11.9578 0.0000 0.0000
# 5 0.0000 0.0000 0.0000 0.0000 36.6858 0.0000
# 6 0.0000 0.0000 0.0000 0.0000 0.0000 9.8770
#
#
#
# Elastic Compliance Matrix: (Units=1/GPa)
#
#
# Indices 1 2 3 4 5 6 
#
# 1 0.008146 -0.003683 -0.001980 0.000000 0.000000 0.000000
# 2 -0.003683 0.036208 -0.004352 0.000000 0.000000 0.000000
# 3 -0.001980 -0.004352 0.012301 0.000000 0.000000 0.000000
# 4 0.000000 0.000000 0.000000 0.083628 0.000000 0.000000
# 5 0.000000 0.000000 0.000000 0.000000 0.027259 0.000000
# 6 0.000000 0.000000 0.000000 0.000000 0.000000 0.101245
#
#
# Mechanical properties :
#
#
# Convention : Reuss Voigt Hill
#
# Bulk Modulus (GPa) = 27.30459 42.01775 34.66117
# Shear Modulus (GPa) = 16.60988 25.02497 20.81742
#
# Velocity S-wave (km/s) = 2.85185 3.50050 3.19269
# Velocity P-wave (km/s) = 4.92075 6.07553 5.52837
#
# Compressibility (1/GPa) = 0.03662388
#
# Stress axis : x y z
#
# Youngs Moduli (GPa) = 122.76110 27.61810 81.29472
#
# Poissons Ratio (x) = 0.10173 0.16093
# Poissons Ratio (y) = 0.45219 0.35383
# Poissons Ratio (z) = 0.24302 0.12021
#
# Static dielectric constant tensor:
#      x y z
#    x 1.728000 0.000000 0.000000 
#    y 0.000000 1.687630 0.000000 
#    z 0.000000 0.000000 1.735230 
# 
# From -- ./inp_files/8630.got.cif
#   From: 2010.05.17/outbox.cif.g08.bks.cpg/sg36_5_cif.got.tgz:8630.got - 2010.06.03 17:41:39.
