data_PCOD9351801
_publ_section_title
;
Structure prediction by ZEFSAII (Michael W. Deem and Ramdas Pophale) SiO2 
 PCOD9351801
Probable space group: C M C 21
;
_chemical_formula_sum "Si O2"
_cell_formula_units_Z 60
_cell_length_a 11.445447
_cell_length_b 8.094563
_cell_length_c 27.854254
_cell_angle_alpha 90.000000
_cell_angle_beta 90.000000
_cell_angle_gamma 90.000000
_cell_volume 2580.582202
_symmetry_space_group_name_H-M "C M C 21"
_symmetry_group_IT_number 36
_symmetry_cell_setting 'orthorhombic'
loop_
_space_group_symop_operation_xyz
x,y,z
-x,-y,1/2+z
x,-y,1/2+z
-x,y,z
1/2+x,1/2+y,z
1/2-x,1/2-y,1/2+z
1/2+x,1/2-y,1/2+z
1/2-x,1/2+y,z
loop_
_atom_site_type_symbol
_atom_site_label
_atom_site_fract_x
_atom_site_fract_y
_atom_site_fract_z
Si Si1 0.631534 0.531101 0.944220
Si Si2 0.368816 0.335433 0.138445
Si Si3 0.374020 0.509095 0.241943
Si Si4 0.298748 0.210568 0.301206
Si Si5 0.500000 0.911466 0.457964
Si Si6 0.324755 0.934008 0.370000
Si Si7 0.678857 0.858041 0.000768
Si Si8 0.134599 0.816685 0.601869
O O1 0.500000 0.473417 0.939888
O O2 0.700244 0.523550 0.894514
O O3 0.635258 0.721555 0.961987
O O4 0.694110 0.416033 0.983694
O O5 0.500000 0.256060 0.134992
O O6 0.364495 0.429124 0.189500
O O7 0.249934 0.231825 0.132559
O O8 0.364953 0.484601 0.099786
O O9 0.500000 0.596901 0.244310
O O10 0.371845 0.359406 0.279893
O O11 0.263108 0.616455 0.257237
O O12 0.363077 0.088976 0.337872
O O13 0.194598 0.288918 0.332579
O O14 0.400782 0.891400 0.415633
O O15 0.398447 0.977941 0.495436
O O16 0.658239 0.770879 0.051189
O O17 0.000000 0.772859 0.617795
#
# Coordination Sequence:
#
# PCOD9351801 Si02
#       8
#     8   8   8   8   4   8   8   8
#     4  11  23  42  61  85 127 168 213 265 314 368
#     4  10  23  42  67  97 129 169 210 269 328 396
#     4  10  22  42  65  90 127 162 204 264 326 375
#     4  10  22  39  59  94 120 159 213 255 306 386
#     4  10  20  36  58  82 126 158 202 250 298 364
#     4  10  22  37  60  90 121 168 211 252 316 363
#     4  11  22  41  62  90 120 171 210 260 317 368
#     4  11  22  40  67  95 128 168 215 264 326 389
#
# _framework density 23.250567
#
# number of rings (size 3 to 8) (size 9 to 14) (size 15 to 20)
#    0.000    1.600    1.333    3.200    1.867    4.267 
#    9.600    0.667    0.000    0.000    0.000    0.000 
#    0.000    0.000    0.000    0.000    0.000    0.000 
#
# Total GULP energy -167076.845620 kJ/mol
# GULP energy per Si atom -5569.228187 kJ/mol
# Density = 2.319765 g / cm^3
# Si number density = 23.250567 Si / 1000 Ang^3
#
#
#
# Elastic Constant Matrix: (Units=GPa)
#
#
# Indices 1 2 3 4 5 6 
#
# 1 167.4043 12.7607 9.3652 0.0000 0.0000 0.0000
# 2 12.7607 31.3315 -10.3856 0.0000 0.0000 0.0000
# 3 9.3652 -10.3856 59.8485 0.0000 0.0000 0.0000
# 4 0.0000 0.0000 0.0000 36.2326 0.0000 0.0000
# 5 0.0000 0.0000 0.0000 0.0000 -8.0688 0.0000
# 6 0.0000 0.0000 0.0000 0.0000 0.0000 -22.2815
#
#
#
# Elastic Compliance Matrix: (Units=1/GPa)
#
#
# Indices 1 2 3 4 5 6 
#
# 1 0.006292 -0.003065 -0.001517 0.000000 0.000000 0.000000
# 2 -0.003065 0.035358 0.006615 0.000000 0.000000 0.000000
# 3 -0.001517 0.006615 0.018094 0.000000 0.000000 0.000000
# 4 0.000000 0.000000 0.000000 0.027599 0.000000 0.000000
# 5 0.000000 0.000000 0.000000 0.000000 -0.123934 0.000000
# 6 0.000000 0.000000 0.000000 0.000000 0.000000 -0.044880
#
#
# Mechanical properties :
#
#
# Convention : Reuss Voigt Hill
#
# Bulk Modulus (GPa) = 15.67122 31.34055 23.50588
# Shear Modulus (GPa) = -77.80049 17.63273 -30.08388
#
# Velocity S-wave (km/s) = -5.79089 2.75685 -3.60098
# Velocity P-wave (km/s) = 6.16099 4.86235 2.67538
#
# Compressibility (1/GPa) = 0.06381126
#
# Stress axis : x y z
#
# Youngs Moduli (GPa) = 158.93041 28.28216 55.26654
#
# Poissons Ratio (x) = 0.08669 0.08381
# Poissons Ratio (y) = 0.48717 -0.36561
# Poissons Ratio (z) = 0.24102 -0.18710
#
# Static dielectric constant tensor:
#      x y z
#    x 1.966100 0.000000 0.000000 
#    y 0.000000 1.962710 0.000000 
#    z 0.000000 0.000000 1.849390 
# 
# From -- ./inp_files/17180.got.cif
#   From: 2010.05.17/outbox.cif.g08.bks.cpg/sg36_9_cif.got.tgz:17180.got - 2010.06.03 17:41:39.
