data_PCOD9351442
_publ_section_title
;
Structure prediction by ZEFSAII (Michael W. Deem and Ramdas Pophale) SiO2 
 PCOD9351442
Probable space group: C M C 21
;
_chemical_formula_sum "Si O2"
_cell_formula_units_Z 64
_cell_length_a 14.418447
_cell_length_b 23.331477
_cell_length_c 8.894534
_cell_angle_alpha 90.000000
_cell_angle_beta 90.000000
_cell_angle_gamma 90.000000
_cell_volume 2992.153832
_symmetry_space_group_name_H-M "C M C 21"
_symmetry_group_IT_number 36
_symmetry_cell_setting 'orthorhombic'
loop_
_space_group_symop_operation_xyz
x,y,z
-x,-y,1/2+z
x,-y,1/2+z
-x,y,z
1/2+x,1/2+y,z
1/2-x,1/2-y,1/2+z
1/2+x,1/2-y,1/2+z
1/2-x,1/2+y,z
loop_
_atom_site_type_symbol
_atom_site_label
_atom_site_fract_x
_atom_site_fract_y
_atom_site_fract_z
Si Si1 0.298626 0.441373 0.727280
Si Si2 0.853309 0.817709 0.078661
Si Si3 0.798626 0.941373 0.087757
Si Si4 0.897982 0.411546 0.585248
Si Si5 0.102018 0.411546 0.229789
Si Si6 0.132197 0.704723 0.238148
Si Si7 0.867803 0.704723 0.576890
Si Si8 0.146691 0.817709 0.736377
O O1 0.335782 0.500000 0.657519
O O2 0.191806 0.434742 0.672136
O O3 0.353957 0.383554 0.682558
O O4 0.298828 0.443452 0.907519
O O5 0.853957 0.883554 0.132480
O O6 0.892904 0.768216 0.183824
O O7 0.743665 0.802478 0.071523
O O8 0.888953 0.814390 0.907519
O O9 0.691806 0.934742 0.142902
O O10 0.885626 0.421044 0.407519
O O11 0.899036 0.343817 0.622644
O O12 0.000000 0.433800 0.630528
O O13 0.100964 0.343817 0.192393
O O14 0.000000 0.433801 0.184509
O O15 0.100228 0.692865 0.407519
O O16 0.243666 0.697522 0.243515
O O17 0.892904 0.768216 0.631214
#
# Coordination Sequence:
#
# PCOD9351442 Si02
#       8
#     8   8   8   8   8   8   8   8
#     4  10  20  32  46  63  85 115 148 182 216 251
#     4   8  15  27  42  61  83 107 136 171 214 259
#     4  10  20  32  46  63  85 115 148 182 216 251
#     4  10  20  32  45  61  84 116 150 182 215 252
#     4  10  20  32  45  61  84 116 150 182 215 252
#     4   9  16  26  43  64  83 106 136 174 218 257
#     4   9  16  26  43  64  83 106 136 174 218 257
#     4   8  15  27  42  61  83 107 136 171 214 259
#
# _framework density 21.389274
#
# number of rings (size 3 to 8) (size 9 to 14) (size 15 to 20)
#    0.000    2.750    0.000    3.750    0.000    9.500 
#    0.000    0.000    0.000    0.000    0.000    0.000 
#    0.000    1.000    0.000    3.250    0.000    4.500 
#
# Total GULP energy -178515.556251 kJ/mol
# GULP energy per Si atom -5578.611133 kJ/mol
# Density = 2.134059 g / cm^3
# Si number density = 21.389274 Si / 1000 Ang^3
#
#
#
# Elastic Constant Matrix: (Units=GPa)
#
#
# Indices 1 2 3 4 5 6 
#
# 1 40.7371 -12.6744 -5.8400 0.0000 0.0000 0.0000
# 2 -12.6744 163.8099 23.8312 0.0000 0.0000 0.0000
# 3 -5.8400 23.8312 38.6169 0.0000 0.0000 0.0000
# 4 0.0000 0.0000 0.0000 34.8226 0.0000 0.0000
# 5 0.0000 0.0000 0.0000 0.0000 -10.2697 0.0000
# 6 0.0000 0.0000 0.0000 0.0000 0.0000 -13.3466
#
#
#
# Elastic Compliance Matrix: (Units=1/GPa)
#
#
# Indices 1 2 3 4 5 6 
#
# 1 0.025444 0.001548 0.002893 0.000000 0.000000 0.000000
# 2 0.001548 0.006801 -0.003963 0.000000 0.000000 0.000000
# 3 0.002893 -0.003963 0.028778 0.000000 0.000000 0.000000
# 4 0.000000 0.000000 0.000000 0.028717 0.000000 0.000000
# 5 0.000000 0.000000 0.000000 0.000000 -0.097374 0.000000
# 6 0.000000 0.000000 0.000000 0.000000 0.000000 -0.074926
#
#
# Mechanical properties :
#
#
# Convention : Reuss Voigt Hill
#
# Bulk Modulus (GPa) = 16.13465 28.19973 22.16719
# Shear Modulus (GPa) = -79.54796 18.09775 -30.72511
#
# Velocity S-wave (km/s) = -6.10502 2.91196 -3.79419
# Velocity P-wave (km/s) = 6.49118 4.95163 2.96789
#
# Compressibility (1/GPa) = 0.06197842
#
# Stress axis : x y z
#
# Youngs Moduli (GPa) = 39.30212 147.03890 34.74828
#
# Poissons Ratio (x) = -0.22759 -0.10051
# Poissons Ratio (y) = -0.06083 0.13770
# Poissons Ratio (z) = -0.11369 0.58270
#
# Static dielectric constant tensor:
#      x y z
#    x 1.840070 0.000000 0.000000 
#    y 0.000000 1.807960 0.000000 
#    z 0.000000 0.000000 1.720390 
# 
# From -- ./inp_files/5395.got.cif
#   From: 2010.05.17/outbox.cif.g08.bks.cpg/sg36_3_cif.got.tgz:5395.got - 2010.06.03 17:41:39.
