data_PCOD9351531
_publ_section_title
;
Structure prediction by ZEFSAII (Michael W. Deem and Ramdas Pophale) SiO2 
 PCOD9351531
Probable space group: C M C 21
;
_chemical_formula_sum "Si O2"
_cell_formula_units_Z 64
_cell_length_a 22.327659
_cell_length_b 11.794315
_cell_length_c 11.776565
_cell_angle_alpha 90.000000
_cell_angle_beta 90.000000
_cell_angle_gamma 90.000000
_cell_volume 3101.234073
_symmetry_space_group_name_H-M "C M C 21"
_symmetry_group_IT_number 36
_symmetry_cell_setting 'orthorhombic'
loop_
_space_group_symop_operation_xyz
x,y,z
-x,-y,1/2+z
x,-y,1/2+z
-x,y,z
1/2+x,1/2+y,z
1/2-x,1/2-y,1/2+z
1/2+x,1/2-y,1/2+z
1/2-x,1/2+y,z
loop_
_atom_site_type_symbol
_atom_site_label
_atom_site_fract_x
_atom_site_fract_y
_atom_site_fract_z
Si Si1 0.651517 0.860434 0.745040
Si Si2 0.330763 0.436433 0.953952
Si Si3 0.235698 0.562634 0.815657
Si Si4 0.635830 0.236167 0.831147
Si Si5 0.649270 0.634725 0.098047
Si Si6 0.930173 0.559239 0.670586
Si Si7 0.070513 0.287899 0.953276
Si Si8 0.240114 0.214083 0.597563
O O1 0.612968 0.802681 0.844866
O O2 0.685205 0.777551 0.658841
O O3 0.701155 0.944719 0.797648
O O4 0.606771 0.945121 0.681301
O O5 0.300767 0.529120 0.867875
O O6 0.377872 0.337109 0.920357
O O7 0.348815 0.504083 0.066819
O O8 0.274975 0.360679 0.990194
O O9 0.189540 0.652918 0.874719
O O10 0.238773 0.625050 0.693790
O O11 0.650174 0.322516 0.726851
O O12 0.590948 0.148094 0.769062
O O13 0.709993 0.696688 0.059869
O O14 0.593265 0.682063 0.027401
O O15 0.920282 0.611821 0.545671
O O16 0.000000 0.538790 0.686100
O O17 0.000000 0.282341 0.924874
#
# Coordination Sequence:
#
# PCOD9351531 Si02
#       8
#     8   8   8   8   8   8   8   8
#     4  11  21  35  57  87 116 146 193 247 299 353
#     4  12  20  32  54  79 114 152 187 234 298 352
#     4  10  20  34  51  76 114 154 186 224 287 359
#     4   9  20  34  52  80 107 143 195 237 279 349
#     4  10  21  36  53  79 115 152 192 237 293 357
#     4   9  20  39  60  81 110 148 193 247 302 357
#     4  10  21  39  62  83 110 156 206 245 291 358
#     4  11  22  35  53  85 120 153 191 241 297 365
#
# _framework density 20.636945999999998
#
# number of rings (size 3 to 8) (size 9 to 14) (size 15 to 20)
#    0.000    1.750    0.000    6.375    0.000    3.000 
#    0.000    0.625    0.000    5.250    0.000    0.000 
#    0.000    0.000    0.000    0.000    0.000    0.000 
#
# Total GULP energy -178178.336627 kJ/mol
# GULP energy per Si atom -5568.073020 kJ/mol
# Density = 2.058998 g / cm^3
# Si number density = 20.636946 Si / 1000 Ang^3
#
#
#
# Elastic Constant Matrix: (Units=GPa)
#
#
# Indices 1 2 3 4 5 6 
#
# 1 35.9809 7.3336 14.4190 0.0000 0.0000 0.0000
# 2 7.3336 77.0586 24.2126 0.0000 0.0000 0.0000
# 3 14.4190 24.2126 34.7999 0.0000 0.0000 0.0000
# 4 0.0000 0.0000 0.0000 35.5003 0.0000 0.0000
# 5 0.0000 0.0000 0.0000 0.0000 15.2530 0.0000
# 6 0.0000 0.0000 0.0000 0.0000 0.0000 18.7006
#
#
#
# Elastic Compliance Matrix: (Units=1/GPa)
#
#
# Indices 1 2 3 4 5 6 
#
# 1 0.033461 0.001500 -0.014908 0.000000 0.000000 0.000000
# 2 0.001500 0.016675 -0.012223 0.000000 0.000000 0.000000
# 3 -0.014908 -0.012223 0.043417 0.000000 0.000000 0.000000
# 4 0.000000 0.000000 0.000000 0.028169 0.000000 0.000000
# 5 0.000000 0.000000 0.000000 0.000000 0.065561 0.000000
# 6 0.000000 0.000000 0.000000 0.000000 0.000000 0.053474
#
#
# Mechanical properties :
#
#
# Convention : Reuss Voigt Hill
#
# Bulk Modulus (GPa) = 23.64593 26.64108 25.14350
# Shear Modulus (GPa) = 16.33362 20.68239 18.50800
#
# Velocity S-wave (km/s) = 2.81637 3.16919 2.99797
# Velocity P-wave (km/s) = 4.69668 5.13119 4.91874
#
# Compressibility (1/GPa) = 0.04229058
#
# Stress axis : x y z
#
# Youngs Moduli (GPa) = 29.88549 59.96951 23.03229
#
# Poissons Ratio (x) = -0.08994 0.34336
# Poissons Ratio (y) = -0.04482 0.28153
# Poissons Ratio (z) = 0.44553 0.73303
#
# Static dielectric constant tensor:
#      x y z
#    x 1.750100 0.000000 0.000000 
#    y 0.000000 1.746350 0.000000 
#    z 0.000000 0.000000 1.819420 
# 
# From -- ./inp_files/9523.got.cif
#   From: 2010.05.17/outbox.cif.g08.bks.cpg/sg36_5_cif.got.tgz:9523.got - 2010.06.03 17:41:39.
