data_PCOD9351396
_publ_section_title
;
Structure prediction by ZEFSAII (Michael W. Deem and Ramdas Pophale) SiO2 
 PCOD9351396
Probable space group: C M C 21
;
_chemical_formula_sum "Si O2"
_cell_formula_units_Z 64
_cell_length_a 8.702883
_cell_length_b 32.450028
_cell_length_c 11.222564
_cell_angle_alpha 90.000000
_cell_angle_beta 90.000000
_cell_angle_gamma 90.000000
_cell_volume 3169.350799
_symmetry_space_group_name_H-M "C M C 21"
_symmetry_group_IT_number 36
_symmetry_cell_setting 'orthorhombic'
loop_
_space_group_symop_operation_xyz
x,y,z
-x,-y,1/2+z
x,-y,1/2+z
-x,y,z
1/2+x,1/2+y,z
1/2-x,1/2-y,1/2+z
1/2+x,1/2-y,1/2+z
1/2-x,1/2+y,z
loop_
_atom_site_type_symbol
_atom_site_label
_atom_site_fract_x
_atom_site_fract_y
_atom_site_fract_z
Si Si1 0.324804 0.071231 0.355180
Si Si2 0.316067 0.865541 0.043079
Si Si3 0.820894 0.075269 0.997264
Si Si4 0.175026 0.641745 0.152644
Si Si5 0.820837 0.078711 0.715553
Si Si6 0.684289 0.275910 0.992020
Si Si7 0.683513 0.272104 0.721813
Si Si8 0.184640 0.491841 0.669340
O O1 0.500000 0.060427 0.391277
O O2 0.252826 0.096588 0.462580
O O3 0.331613 0.106032 0.252403
O O4 0.257708 0.031230 0.290552
O O5 0.500000 0.862456 0.027276
O O6 0.271967 0.881101 0.173598
O O7 0.241293 0.822874 0.005701
O O8 0.752893 0.118601 0.042633
O O9 0.733449 0.037949 0.062012
O O10 0.000000 0.072977 0.031568
O O11 0.806365 0.072936 0.856573
O O12 0.268146 0.680517 0.200622
O O13 0.000000 0.654544 0.126198
O O14 0.000000 0.083767 0.686002
O O15 0.753251 0.036928 0.659787
O O16 0.500000 0.274364 0.994718
O O17 0.747278 0.252266 0.108630
O O18 0.733319 0.260791 0.858321
O O19 0.500000 0.267626 0.717386
O O20 0.000000 0.493640 0.674633
#
# Coordination Sequence:
#
# PCOD9351396 Si02
#       8
#     8   8   8   8   8   8   8   8
#     4   8  17  34  59  89 116 147 192 245 299 355
#     4  11  22  40  65  92 123 163 207 255 313 377
#     4  10  22  40  59  85 123 161 203 255 310 374
#     4  10  19  37  65  92 119 154 199 251 307 369
#     4  11  25  41  57  86 126 165 206 256 314 373
#     4  11  25  44  67  98 133 170 217 270 327 391
#     4  11  24  42  67  99 131 170 216 266 324 390
#     4  10  21  38  61  89 119 156 206 258 308 367
#
# _framework density 20.19341
#
# number of rings (size 3 to 8) (size 9 to 14) (size 15 to 20)
#    0.000    1.750    1.250    3.375    1.750    4.500 
#    0.000    1.250    0.000    0.000    0.000    0.000 
#    0.000    0.000    0.000    0.000    0.000    0.000 
#
# Total GULP energy -178595.701224 kJ/mol
# GULP energy per Si atom -5581.115663 kJ/mol
# Density = 2.014745 g / cm^3
# Si number density = 20.193410 Si / 1000 Ang^3
#
#
#
# Elastic Constant Matrix: (Units=GPa)
#
#
# Indices 1 2 3 4 5 6 
#
# 1 56.4089 18.8127 41.4027 0.0000 0.0000 0.0000
# 2 18.8127 70.2050 52.5414 0.0000 0.0000 0.0000
# 3 41.4027 52.5414 95.5022 0.0000 0.0000 0.0000
# 4 0.0000 0.0000 0.0000 27.8177 0.0000 0.0000
# 5 0.0000 0.0000 0.0000 0.0000 28.0668 0.0000
# 6 0.0000 0.0000 0.0000 0.0000 0.0000 32.6211
#
#
#
# Elastic Compliance Matrix: (Units=1/GPa)
#
#
# Indices 1 2 3 4 5 6 
#
# 1 0.026261 0.002522 -0.012772 0.000000 0.000000 0.000000
# 2 0.002522 0.024456 -0.014548 0.000000 0.000000 0.000000
# 3 -0.012772 -0.014548 0.024012 0.000000 0.000000 0.000000
# 4 0.000000 0.000000 0.000000 0.035948 0.000000 0.000000
# 5 0.000000 0.000000 0.000000 0.000000 0.035629 0.000000
# 6 0.000000 0.000000 0.000000 0.000000 0.000000 0.030655
#
#
# Mechanical properties :
#
#
# Convention : Reuss Voigt Hill
#
# Bulk Modulus (GPa) = 39.79010 49.73662 44.76336
# Shear Modulus (GPa) = 21.28246 24.99174 23.13710
#
# Velocity S-wave (km/s) = 3.24995 3.52180 3.38860
# Velocity P-wave (km/s) = 5.81637 6.42036 6.12581
#
# Compressibility (1/GPa) = 0.02513188
#
# Stress axis : x y z
#
# Youngs Moduli (GPa) = 38.07902 40.89001 41.64655
#
# Poissons Ratio (x) = -0.10310 0.53192
# Poissons Ratio (y) = -0.09602 0.60586
# Poissons Ratio (z) = 0.48635 0.59486
#
# Static dielectric constant tensor:
#      x y z
#    x 1.702460 0.000000 0.000000 
#    y 0.000000 1.684720 0.000000 
#    z 0.000000 0.000000 1.783610 
# 
# From -- ./inp_files/7200.got.cif
#   From: 2010.05.17/outbox.cif.g08.bks.cpg/sg36_4_cif.got.tgz:7200.got - 2010.06.03 17:41:39.
