data_PCOD9351181
_publ_section_title
;
Structure prediction by ZEFSAII (Michael W. Deem and Ramdas Pophale) SiO2 
 PCOD9351181
Probable space group: C M C 21
;
_chemical_formula_sum "Si O2"
_cell_formula_units_Z 64
_cell_length_a 8.837556
_cell_length_b 20.674272
_cell_length_c 20.109910
_cell_angle_alpha 90.000000
_cell_angle_beta 90.000000
_cell_angle_gamma 90.000000
_cell_volume 3674.282391
_symmetry_space_group_name_H-M "C M C 21"
_symmetry_group_IT_number 36
_symmetry_cell_setting 'orthorhombic'
loop_
_space_group_symop_operation_xyz
x,y,z
-x,-y,1/2+z
x,-y,1/2+z
-x,y,z
1/2+x,1/2+y,z
1/2-x,1/2-y,1/2+z
1/2+x,1/2-y,1/2+z
1/2-x,1/2+y,z
loop_
_atom_site_type_symbol
_atom_site_label
_atom_site_fract_x
_atom_site_fract_y
_atom_site_fract_z
Si Si1 0.819280 0.081253 0.579460
Si Si2 0.681033 0.911186 0.699268
Si Si3 0.818416 0.449169 0.548249
Si Si4 0.319474 0.273619 0.710539
Si Si5 0.682617 0.727610 0.570663
Si Si6 0.818842 0.043857 0.731424
Si Si7 0.681391 0.329959 0.311990
Si Si8 0.682508 0.831091 0.457069
O O1 0.772811 0.153155 0.558548
O O2 0.783210 0.071946 0.657825
O O3 0.000000 0.076491 0.572659
O O4 0.745628 0.021120 0.541748
O O5 0.500000 0.904829 0.702141
O O6 0.725473 0.922644 0.621576
O O7 0.758460 0.845801 0.723686
O O8 0.735292 0.975513 0.737130
O O9 0.770355 0.398173 0.492512
O O10 0.000000 0.451933 0.547756
O O11 0.500000 0.272671 0.711423
O O12 0.258721 0.252800 0.637962
O O13 0.254323 0.223379 0.763997
O O14 0.500000 0.729548 0.580842
O O15 0.718315 0.773993 0.509094
O O16 0.776941 0.098788 0.784168
O O17 0.000000 0.033409 0.734147
O O18 0.500000 0.324448 0.307992
O O19 0.738888 0.322217 0.386712
O O20 0.500000 0.832046 0.448584
#
# Coordination Sequence:
#
# PCOD9351181 Si02
#       8
#     8   8   8   8   8   8   8   8
#     4   9  17  31  55  82 109 140 181 229 279 332
#     4  10  19  34  57  84 114 145 182 232 288 337
#     4   9  18  33  54  80 112 145 178 226 282 334
#     4  12  23  35  57  87 116 149 195 243 285 342
#     4  10  19  37  59  82 115 154 191 236 291 338
#     4   9  18  34  55  81 111 144 184 233 280 336
#     4  11  23  40  59  81 116 156 194 236 291 349
#     4  10  21  38  58  81 113 153 195 235 284 344
#
# _framework density 17.418368000000001
#
# number of rings (size 3 to 8) (size 9 to 14) (size 15 to 20)
#    0.000    2.000    2.500    1.875    0.000    3.000 
#    0.000    1.250    0.000    4.500    0.000    0.000 
#    0.000    0.000    0.000    0.000    0.000    0.000 
#
# Total GULP energy -178624.283037 kJ/mol
# GULP energy per Si atom -5582.008845 kJ/mol
# Density = 1.737872 g / cm^3
# Si number density = 17.418368 Si / 1000 Ang^3
#
#
#
# Elastic Constant Matrix: (Units=GPa)
#
#
# Indices 1 2 3 4 5 6 
#
# 1 50.0997 60.8879 49.0021 0.0000 0.0000 0.0000
# 2 60.8879 173.9936 77.6991 0.0000 0.0000 0.0000
# 3 49.0021 77.6991 106.1907 0.0000 0.0000 0.0000
# 4 0.0000 0.0000 0.0000 24.5480 0.0000 0.0000
# 5 0.0000 0.0000 0.0000 0.0000 26.2726 0.0000
# 6 0.0000 0.0000 0.0000 0.0000 0.0000 31.1761
#
#
#
# Elastic Compliance Matrix: (Units=1/GPa)
#
#
# Indices 1 2 3 4 5 6 
#
# 1 0.045172 -0.009653 -0.013781 0.000000 0.000000 0.000000
# 2 -0.009653 0.010600 -0.003301 0.000000 0.000000 0.000000
# 3 -0.013781 -0.003301 0.018192 0.000000 0.000000 0.000000
# 4 0.000000 0.000000 0.000000 0.040737 0.000000 0.000000
# 5 0.000000 0.000000 0.000000 0.000000 0.038062 0.000000
# 6 0.000000 0.000000 0.000000 0.000000 0.000000 0.032076
#
#
# Mechanical properties :
#
#
# Convention : Reuss Voigt Hill
#
# Bulk Modulus (GPa) = 48.80054 78.38467 63.59261
# Shear Modulus (GPa) = 20.39651 25.91232 23.15442
#
# Velocity S-wave (km/s) = 3.42567 3.86118 3.64993
# Velocity P-wave (km/s) = 6.61245 8.06084 7.37230
#
# Compressibility (1/GPa) = 0.02049158
#
# Stress axis : x y z
#
# Youngs Moduli (GPa) = 22.13783 94.34336 54.96946
#
# Poissons Ratio (x) = 0.91072 0.75756
# Poissons Ratio (y) = 0.21370 0.18146
# Poissons Ratio (z) = 0.30509 0.31144
#
# Static dielectric constant tensor:
#      x y z
#    x 1.584040 0.000000 0.000000 
#    y 0.000000 1.595400 0.000000 
#    z 0.000000 0.000000 1.564420 
# 
# From -- ./inp_files/13822.got.cif
#   From: 2010.05.17/outbox.cif.g08.bks.cpg/sg36_7_cif.got.tgz:13822.got - 2010.06.03 17:41:39.
