data_PCOD9351007
_publ_section_title
;
Structure prediction by ZEFSAII (Michael W. Deem and Ramdas Pophale) SiO2 
 PCOD9351007
Probable space group: C M C 21
;
_chemical_formula_sum "Si O2"
_cell_formula_units_Z 64
_cell_length_a 9.394694
_cell_length_b 23.130623
_cell_length_c 16.078965
_cell_angle_alpha 90.000000
_cell_angle_beta 90.000000
_cell_angle_gamma 90.000000
_cell_volume 3494.041501
_symmetry_space_group_name_H-M "C M C 21"
_symmetry_group_IT_number 36
_symmetry_cell_setting 'orthorhombic'
loop_
_space_group_symop_operation_xyz
x,y,z
-x,-y,1/2+z
x,-y,1/2+z
-x,y,z
1/2+x,1/2+y,z
1/2-x,1/2-y,1/2+z
1/2+x,1/2-y,1/2+z
1/2-x,1/2+y,z
loop_
_atom_site_type_symbol
_atom_site_label
_atom_site_fract_x
_atom_site_fract_y
_atom_site_fract_z
Si Si1 0.839589 0.377964 0.116370
Si Si2 0.167491 0.788814 0.009522
Si Si3 0.169645 0.903208 0.672742
Si Si4 0.332452 0.370513 0.856007
Si Si5 0.834615 0.065505 0.918162
Si Si6 0.160110 0.538182 0.458351
Si Si7 0.833903 0.034668 0.725084
Si Si8 0.669641 0.847700 0.516205
O O1 0.757673 0.323369 0.077948
O O2 0.755741 0.413716 0.185362
O O3 0.000000 0.362974 0.142229
O O4 0.847045 0.422897 0.039869
O O5 0.195564 0.720866 0.013573
O O6 0.000000 0.798516 0.026130
O O7 0.194485 0.816462 0.917656
O O8 0.191034 0.865960 0.757509
O O9 0.259076 0.876658 0.597498
O O10 0.000000 0.902219 0.653790
O O11 0.208082 0.970013 0.695348
O O12 0.500000 0.387036 0.866483
O O13 0.232170 0.421268 0.889517
O O14 0.822929 0.042408 0.824232
O O15 0.000000 0.073597 0.937946
O O16 0.762015 0.015827 0.973245
O O17 0.745346 0.122520 0.937479
O O18 0.000000 0.519794 0.435177
O O19 0.000000 0.041571 0.702074
O O20 0.500000 0.857835 0.515737
#
# Coordination Sequence:
#
# PCOD9351007 Si02
#       8
#     8   8   8   8   8   8   8   8
#     4  10  21  35  56  86 114 145 187 233 284 339
#     4   9  20  40  62  80 112 154 195 239 285 341
#     4  10  20  37  61  88 116 150 196 241 288 351
#     4   9  17  35  61  85 109 148 196 237 280 341
#     4  11  22  38  58  81 114 155 193 234 284 346
#     4  10  19  32  54  86 118 145 179 231 291 342
#     4  10  21  37  57  85 117 148 189 234 286 348
#     4  11  24  40  57  85 120 155 195 241 296 344
#
# _framework density 18.316897000000001
#
# number of rings (size 3 to 8) (size 9 to 14) (size 15 to 20)
#    0.000    2.000    1.250    2.250    0.000    6.500 
#    2.250    0.000    0.000    0.000    0.000    0.000 
#    0.000    0.000    0.000    0.000    0.000    0.000 
#
# Total GULP energy -178522.252779 kJ/mol
# GULP energy per Si atom -5578.820399 kJ/mol
# Density = 1.827521 g / cm^3
# Si number density = 18.316897 Si / 1000 Ang^3
#
#
#
# Elastic Constant Matrix: (Units=GPa)
#
#
# Indices 1 2 3 4 5 6 
#
# 1 92.0552 75.2137 39.0563 0.0000 0.0000 0.0000
# 2 75.2137 119.0878 34.2460 0.0000 0.0000 0.0000
# 3 39.0563 34.2460 56.5323 0.0000 0.0000 0.0000
# 4 0.0000 0.0000 0.0000 24.6634 0.0000 0.0000
# 5 0.0000 0.0000 0.0000 0.0000 27.5266 0.0000
# 6 0.0000 0.0000 0.0000 0.0000 0.0000 26.7268
#
#
#
# Elastic Compliance Matrix: (Units=1/GPa)
#
#
# Indices 1 2 3 4 5 6 
#
# 1 0.026284 -0.013779 -0.009812 0.000000 0.000000 0.000000
# 2 -0.013779 0.017392 -0.001016 0.000000 0.000000 0.000000
# 3 -0.009812 -0.001016 0.025083 0.000000 0.000000 0.000000
# 4 0.000000 0.000000 0.000000 0.040546 0.000000 0.000000
# 5 0.000000 0.000000 0.000000 0.000000 0.036329 0.000000
# 6 0.000000 0.000000 0.000000 0.000000 0.000000 0.037416
#
#
# Mechanical properties :
#
#
# Convention : Reuss Voigt Hill
#
# Bulk Modulus (GPa) = 51.16321 62.74525 56.95423
# Shear Modulus (GPa) = 20.93994 23.72731 22.33362
#
# Velocity S-wave (km/s) = 3.38480 3.60304 3.49562
# Velocity P-wave (km/s) = 6.57789 7.18603 6.88867
#
# Compressibility (1/GPa) = 0.01954530
#
# Stress axis : x y z
#
# Youngs Moduli (GPa) = 38.04597 57.49794 39.86720
#
# Poissons Ratio (x) = 0.79226 0.39117
# Poissons Ratio (y) = 0.52423 0.04051
# Poissons Ratio (z) = 0.37330 0.05843
#
# Static dielectric constant tensor:
#      x y z
#    x 1.632730 0.000000 0.000000 
#    y 0.000000 1.623410 0.000000 
#    z 0.000000 0.000000 1.652610 
# 
# From -- ./inp_files/10929.got.cif
#   From: 2010.05.17/outbox.cif.g08.bks.cpg/sg36_6_cif.got.tgz:10929.got - 2010.06.03 17:41:39.
