data_PCOD9351203
_publ_section_title
;
Structure prediction by ZEFSAII (Michael W. Deem and Ramdas Pophale) SiO2 
 PCOD9351203
Probable space group: C M C 21
;
_chemical_formula_sum "Si O2"
_cell_formula_units_Z 64
_cell_length_a 8.831817
_cell_length_b 20.860257
_cell_length_c 19.612810
_cell_angle_alpha 90.000000
_cell_angle_beta 90.000000
_cell_angle_gamma 90.000000
_cell_volume 3613.345896
_symmetry_space_group_name_H-M "C M C 21"
_symmetry_group_IT_number 36
_symmetry_cell_setting 'orthorhombic'
loop_
_space_group_symop_operation_xyz
x,y,z
-x,-y,1/2+z
x,-y,1/2+z
-x,y,z
1/2+x,1/2+y,z
1/2-x,1/2-y,1/2+z
1/2+x,1/2-y,1/2+z
1/2-x,1/2+y,z
loop_
_atom_site_type_symbol
_atom_site_label
_atom_site_fract_x
_atom_site_fract_y
_atom_site_fract_z
Si Si1 0.178575 0.692383 0.912380
Si Si2 0.681376 0.433261 0.911141
Si Si3 0.818690 0.931879 0.480905
Si Si4 0.819453 0.686911 0.491034
Si Si5 0.680635 0.108631 0.272581
Si Si6 0.180780 0.240894 0.622183
Si Si7 0.681127 0.617345 0.127437
Si Si8 0.821055 0.761083 0.279171
O O1 0.234097 0.625226 0.942340
O O2 0.264266 0.749571 0.951534
O O3 0.223616 0.700623 0.833507
O O4 0.000000 0.700078 0.922122
O O5 0.500000 0.426354 0.909476
O O6 0.719386 0.499798 0.948407
O O7 0.752294 0.374398 0.952810
O O8 0.745379 0.429694 0.834517
O O9 0.784571 0.925811 0.561450
O O10 0.000000 0.921974 0.473495
O O11 0.755375 0.694539 0.567227
O O12 0.000000 0.684401 0.490753
O O13 0.500000 0.100319 0.271740
O O14 0.748736 0.093476 0.198441
O O15 0.710300 0.184730 0.285216
O O16 0.250237 0.312018 0.613665
O O17 0.208047 0.221444 0.700564
O O18 0.000000 0.244563 0.611806
O O19 0.500000 0.622845 0.134424
O O20 0.000000 0.770262 0.293321
#
# Coordination Sequence:
#
# PCOD9351203 Si02
#       8
#     8   8   8   8   8   8   8   8
#     4  12  23  35  59  88 116 150 194 239 285 346
#     4  11  23  40  61  86 116 155 201 243 289 352
#     4  10  23  41  60  85 119 155 194 241 295 349
#     4  12  23  37  58  85 119 153 190 240 295 347
#     4  10  20  35  57  85 117 152 191 241 292 347
#     4  10  20  35  57  87 117 150 194 245 294 346
#     4  10  19  34  58  85 115 153 193 238 291 353
#     4   9  19  35  56  83 119 152 187 239 295 342
#
# _framework density 17.712115000000001
#
# number of rings (size 3 to 8) (size 9 to 14) (size 15 to 20)
#    0.000    1.500    2.500    4.500    0.000    4.000 
#    0.000    1.250    0.000    3.000    0.000    0.000 
#    0.000    0.000    0.000    0.000    0.000    0.000 
#
# Total GULP energy -178792.965950 kJ/mol
# GULP energy per Si atom -5587.280186 kJ/mol
# Density = 1.767180 g / cm^3
# Si number density = 17.712115 Si / 1000 Ang^3
#
#
#
# Elastic Constant Matrix: (Units=GPa)
#
#
# Indices 1 2 3 4 5 6 
#
# 1 97.4773 63.2425 80.0913 0.0000 0.0000 0.0000
# 2 63.2425 89.3968 72.3995 0.0000 0.0000 0.0000
# 3 80.0913 72.3995 157.2598 0.0000 0.0000 0.0000
# 4 0.0000 0.0000 0.0000 28.3441 0.0000 0.0000
# 5 0.0000 0.0000 0.0000 0.0000 33.0351 0.0000
# 6 0.0000 0.0000 0.0000 0.0000 0.0000 25.0718
#
#
#
# Elastic Compliance Matrix: (Units=1/GPa)
#
#
# Indices 1 2 3 4 5 6 
#
# 1 0.022581 -0.010621 -0.006611 0.000000 0.000000 0.000000
# 2 -0.010621 0.022832 -0.005102 0.000000 0.000000 0.000000
# 3 -0.006611 -0.005102 0.012075 0.000000 0.000000 0.000000
# 4 0.000000 0.000000 0.000000 0.035281 0.000000 0.000000
# 5 0.000000 0.000000 0.000000 0.000000 0.030271 0.000000
# 6 0.000000 0.000000 0.000000 0.000000 0.000000 0.039885
#
#
# Mechanical properties :
#
#
# Convention : Reuss Voigt Hill
#
# Bulk Modulus (GPa) = 78.00349 86.17785 82.09067
# Shear Modulus (GPa) = 23.59984 25.85025 24.72505
#
# Velocity S-wave (km/s) = 3.65418 3.82444 3.74028
# Velocity P-wave (km/s) = 7.87015 8.26209 8.06850
#
# Compressibility (1/GPa) = 0.01281994
#
# Stress axis : x y z
#
# Youngs Moduli (GPa) = 44.28447 43.79854 82.81788
#
# Poissons Ratio (x) = 0.46518 0.54749
# Poissons Ratio (y) = 0.47034 0.42255
# Poissons Ratio (z) = 0.29276 0.22347
#
# Static dielectric constant tensor:
#      x y z
#    x 1.589040 0.000000 0.000000 
#    y 0.000000 1.566930 0.000000 
#    z 0.000000 0.000000 1.622940 
# 
# From -- ./inp_files/15695.got.cif
#   From: 2010.05.17/outbox.cif.g08.bks.cpg/sg36_8_cif.got.tgz:15695.got - 2010.06.03 17:41:39.
