data_PCOD9351607
_publ_section_title
;
Structure prediction by ZEFSAII (Michael W. Deem and Ramdas Pophale) SiO2 
 PCOD9351607
Probable space group: C M C 21
;
_chemical_formula_sum "Si O2"
_cell_formula_units_Z 56
_cell_length_a 15.883385
_cell_length_b 14.204856
_cell_length_c 10.874268
_cell_angle_alpha 90.000000
_cell_angle_beta 90.000000
_cell_angle_gamma 90.000000
_cell_volume 2453.465360
_symmetry_space_group_name_H-M "C M C 21"
_symmetry_group_IT_number 36
_symmetry_cell_setting 'orthorhombic'
loop_
_space_group_symop_operation_xyz
x,y,z
-x,-y,1/2+z
x,-y,1/2+z
-x,y,z
1/2+x,1/2+y,z
1/2-x,1/2-y,1/2+z
1/2+x,1/2-y,1/2+z
1/2-x,1/2+y,z
loop_
_atom_site_type_symbol
_atom_site_label
_atom_site_fract_x
_atom_site_fract_y
_atom_site_fract_z
Si Si1 0.588794 0.487602 0.582810
Si Si2 0.907440 0.715420 0.362687
Si Si3 0.594658 0.339483 0.803661
Si Si4 0.594389 0.007758 0.316820
Si Si5 0.225861 0.019077 0.398468
Si Si6 0.361468 0.161467 0.639904
Si Si7 0.819752 0.865569 0.206552
O O1 0.500000 0.479136 0.512795
O O2 0.586279 0.413269 0.691787
O O3 0.671114 0.469594 0.502921
O O4 0.601062 0.593783 0.632921
O O5 0.904084 0.618597 0.284890
O O6 0.897123 0.688633 0.506454
O O7 0.841716 0.786788 0.305071
O O8 0.000000 0.758240 0.349949
O O9 0.500000 0.335274 0.861543
O O10 0.675278 0.382282 0.877330
O O11 0.614416 0.239701 0.741522
O O12 0.500000 0.988762 0.367160
O O13 0.609280 0.936578 0.203198
O O14 0.673720 0.007660 0.411789
O O15 0.210786 0.958458 0.277025
O O16 0.260348 0.162560 0.626274
#
# Coordination Sequence:
#
# PCOD9351607 Si02
#       7
#     8   8   8   8   8   8   8
#     4  10  20  36  59  88 123 157 192 244 309 369
#     4  11  22  39  63  87 117 159 204 250 300 357
#     4  10  20  34  57  87 116 152 201 248 294 364
#     4  10  22  39  58  83 115 154 207 258 296 350
#     4  10  20  36  57  84 120 158 193 244 309 363
#     4  11  22  39  62  86 119 162 202 248 303 359
#     4  10  22  37  59  91 122 154 200 250 298 362
#
# _framework density 22.824860000000001
#
# number of rings (size 3 to 8) (size 9 to 14) (size 15 to 20)
#    0.000    1.714    0.000    4.714    0.000    2.857 
#    0.000    4.286    0.000    3.429    0.000    0.000 
#    0.000    0.000    0.000    0.000    0.000    0.000 
#
# Total GULP energy -156062.185048 kJ/mol
# GULP energy per Si atom -5573.649466 kJ/mol
# Density = 2.277291 g / cm^3
# Si number density = 22.824860 Si / 1000 Ang^3
#
#
#
# Elastic Constant Matrix: (Units=GPa)
#
#
# Indices 1 2 3 4 5 6 
#
# 1 181.8614 21.3259 28.0451 0.0000 0.0000 0.0000
# 2 21.3259 83.6304 15.5359 0.0000 0.0000 0.0000
# 3 28.0451 15.5359 52.7657 0.0000 0.0000 0.0000
# 4 0.0000 0.0000 0.0000 24.4691 0.0000 0.0000
# 5 0.0000 0.0000 0.0000 0.0000 -10.9971 0.0000
# 6 0.0000 0.0000 0.0000 0.0000 0.0000 11.7301
#
#
#
# Elastic Compliance Matrix: (Units=1/GPa)
#
#
# Indices 1 2 3 4 5 6 
#
# 1 0.006068 -0.001003 -0.002930 0.000000 0.000000 0.000000
# 2 -0.001003 0.012815 -0.003240 0.000000 0.000000 0.000000
# 3 -0.002930 -0.003240 0.021463 0.000000 0.000000 0.000000
# 4 0.000000 0.000000 0.000000 0.040868 0.000000 0.000000
# 5 0.000000 0.000000 0.000000 0.000000 -0.090933 0.000000
# 6 0.000000 0.000000 0.000000 0.000000 0.000000 0.085251
#
#
# Mechanical properties :
#
#
# Convention : Reuss Voigt Hill
#
# Bulk Modulus (GPa) = 38.46141 49.78572 44.12356
# Shear Modulus (GPa) = 50.73850 21.93046 36.33448
#
# Velocity S-wave (km/s) = 4.71993 3.10306 3.99417
# Velocity P-wave (km/s) = 6.82575 5.89051 6.37530
#
# Compressibility (1/GPa) = 0.02600009
#
# Stress axis : x y z
#
# Youngs Moduli (GPa) = 164.79506 78.03320 46.59203
#
# Poissons Ratio (x) = 0.07828 0.13651
# Poissons Ratio (y) = 0.16531 0.15096
# Poissons Ratio (z) = 0.48283 0.25283
#
# Static dielectric constant tensor:
#      x y z
#    x 2.017750 0.000000 0.000000 
#    y 0.000000 1.864260 0.000000 
#    z 0.000000 0.000000 1.864920 
# 
# From -- ./inp_files/8462.got.cif
#   From: 2010.05.17/outbox.cif.g08.bks.cpg/sg36_5_cif.got.tgz:8462.got - 2010.06.03 17:41:39.
