data_PCOD9351257
_publ_section_title
;
Structure prediction by ZEFSAII (Michael W. Deem and Ramdas Pophale) SiO2 
 PCOD9351257
Probable space group: C M C 21
;
_chemical_formula_sum "Si O2"
_cell_formula_units_Z 64
_cell_length_a 7.730684
_cell_length_b 20.719279
_cell_length_c 20.175250
_cell_angle_alpha 90.000000
_cell_angle_beta 90.000000
_cell_angle_gamma 90.000000
_cell_volume 3231.554501
_symmetry_space_group_name_H-M "C M C 21"
_symmetry_group_IT_number 36
_symmetry_cell_setting 'orthorhombic'
loop_
_space_group_symop_operation_xyz
x,y,z
-x,-y,1/2+z
x,-y,1/2+z
-x,y,z
1/2+x,1/2+y,z
1/2-x,1/2-y,1/2+z
1/2+x,1/2-y,1/2+z
1/2-x,1/2+y,z
loop_
_atom_site_type_symbol
_atom_site_label
_atom_site_fract_x
_atom_site_fract_y
_atom_site_fract_z
Si Si1 0.796712 0.497488 0.659910
Si Si2 0.790523 0.065068 0.942037
Si Si3 0.290971 0.487148 0.305941
Si Si4 0.699996 0.349858 0.671153
Si Si5 0.787827 0.136816 0.316569
Si Si6 0.199742 0.808850 0.954038
Si Si7 0.796894 0.182839 0.030273
Si Si8 0.705183 0.938237 0.026304
O O1 0.772968 0.527942 0.732334
O O2 0.706938 0.427462 0.660658
O O3 0.733693 0.541798 0.599773
O O4 0.000000 0.485017 0.648657
O O5 0.731387 0.057914 0.866051
O O6 0.000000 0.067934 0.940069
O O7 0.724592 0.126433 0.983110
O O8 0.740474 0.000103 0.980454
O O9 0.500000 0.486330 0.303875
O O10 0.238380 0.561287 0.321716
O O11 0.500000 0.329074 0.675770
O O12 0.774366 0.338730 0.744697
O O13 0.778465 0.319151 0.604740
O O14 0.727743 0.175802 0.380795
O O15 0.000000 0.137527 0.316885
O O16 0.000000 0.790612 0.945795
O O17 0.284065 0.750994 0.994320
O O18 0.210748 0.875196 0.994980
O O19 0.000000 0.167112 0.038846
O O20 0.500000 0.926007 0.028844
#
# Coordination Sequence:
#
# PCOD9351257 Si02
#       8
#     8   8   8   8   8   8   8   8
#     4  10  20  32  50  81 114 141 178 228 276 322
#     4  10  19  35  58  82 109 143 183 223 272 332
#     4   9  17  32  54  79 108 141 183 226 268 327
#     4   9  17  33  57  78 103 141 181 223 272 329
#     4   8  15  30  53  79 101 132 179 222 264 320
#     4  11  22  37  56  78 111 148 186 227 271 331
#     4  10  21  36  56  82 111 144 183 227 277 329
#     4  11  22  35  54  81 113 142 179 230 276 322
#
# _framework density 19.804711000000001
#
# number of rings (size 3 to 8) (size 9 to 14) (size 15 to 20)
#    0.000    2.250    2.500    1.875    0.000    3.000 
#    0.000    1.875    0.000    4.500    0.000    0.000 
#    0.000    0.000    0.000    0.000    0.000    0.000 
#
# Total GULP energy -178520.773182 kJ/mol
# GULP energy per Si atom -5578.774162 kJ/mol
# Density = 1.975963 g / cm^3
# Si number density = 19.804711 Si / 1000 Ang^3
#
#
#
# Elastic Constant Matrix: (Units=GPa)
#
#
# Indices 1 2 3 4 5 6 
#
# 1 27.7505 -11.8939 -0.8265 0.0000 0.0000 0.0000
# 2 -11.8939 73.4842 56.7586 0.0000 0.0000 0.0000
# 3 -0.8265 56.7586 198.6139 0.0000 0.0000 0.0000
# 4 0.0000 0.0000 0.0000 26.1726 0.0000 0.0000
# 5 0.0000 0.0000 0.0000 0.0000 15.7934 0.0000
# 6 0.0000 0.0000 0.0000 0.0000 0.0000 17.8743
#
#
#
# Elastic Compliance Matrix: (Units=1/GPa)
#
#
# Indices 1 2 3 4 5 6 
#
# 1 0.039411 0.008023 -0.002129 0.000000 0.000000 0.000000
# 2 0.008023 0.019096 -0.005424 0.000000 0.000000 0.000000
# 3 -0.002129 -0.005424 0.006576 0.000000 0.000000 0.000000
# 4 0.000000 0.000000 0.000000 0.038208 0.000000 0.000000
# 5 0.000000 0.000000 0.000000 0.000000 0.063318 0.000000
# 6 0.000000 0.000000 0.000000 0.000000 0.000000 0.055946
#
#
# Mechanical properties :
#
#
# Convention : Reuss Voigt Hill
#
# Bulk Modulus (GPa) = 15.14597 43.10277 29.12437
# Shear Modulus (GPa) = 20.52361 29.02208 24.77285
#
# Velocity S-wave (km/s) = 3.22265 3.83222 3.54058
# Velocity P-wave (km/s) = 4.63806 6.43369 5.60821
#
# Compressibility (1/GPa) = 0.06602414
#
# Stress axis : x y z
#
# Youngs Moduli (GPa) = 25.37378 52.36615 152.06756
#
# Poissons Ratio (x) = -0.42014 0.32372
# Poissons Ratio (y) = -0.20358 0.82479
# Poissons Ratio (z) = 0.05402 0.28403
#
# Static dielectric constant tensor:
#      x y z
#    x 1.755340 0.000000 0.000000 
#    y 0.000000 1.640700 0.000000 
#    z 0.000000 0.000000 1.745660 
# 
# From -- ./inp_files/15782.got.cif
#   From: 2010.05.17/outbox.cif.g08.bks.cpg/sg36_8_cif.got.tgz:15782.got - 2010.06.03 17:41:39.
