data_PCOD9351908
_publ_section_title
;
Structure prediction by ZEFSAII (Michael W. Deem and Ramdas Pophale) SiO2 
 PCOD9351908
Probable space group: C M C 21
;
_chemical_formula_sum "Si O2"
_cell_formula_units_Z 56
_cell_length_a 14.715773
_cell_length_b 13.745746
_cell_length_c 13.471779
_cell_angle_alpha 90.000000
_cell_angle_beta 90.000000
_cell_angle_gamma 90.000000
_cell_volume 2725.061727
_symmetry_space_group_name_H-M "C M C 21"
_symmetry_group_IT_number 36
_symmetry_cell_setting 'orthorhombic'
loop_
_space_group_symop_operation_xyz
x,y,z
-x,-y,1/2+z
x,-y,1/2+z
-x,y,z
1/2+x,1/2+y,z
1/2-x,1/2-y,1/2+z
1/2+x,1/2-y,1/2+z
1/2-x,1/2+y,z
loop_
_atom_site_type_symbol
_atom_site_label
_atom_site_fract_x
_atom_site_fract_y
_atom_site_fract_z
Si Si1 0.605126 0.664698 0.707450
Si Si2 0.599144 0.334464 0.653053
Si Si3 0.208129 0.465838 0.485976
Si Si4 0.895047 0.634775 0.584786
Si Si5 0.707390 0.136141 0.201230
Si Si6 0.901286 0.030212 0.525526
Si Si7 0.288052 0.926416 0.279887
O O1 0.500000 0.651952 0.739462
O O2 0.637837 0.776094 0.714867
O O3 0.610193 0.625739 0.593689
O O4 0.682753 0.602528 0.763153
O O5 0.500000 0.315924 0.700078
O O6 0.610618 0.250833 0.568708
O O7 0.688906 0.329761 0.718847
O O8 0.595723 0.440413 0.603900
O O9 0.149326 0.562021 0.506933
O O10 0.204637 0.403314 0.587260
O O11 0.310331 0.505921 0.466883
O O12 0.181409 0.403034 0.390917
O O13 0.843440 0.619361 0.689019
O O14 0.000000 0.608397 0.595276
O O15 0.693950 0.041441 0.267442
O O16 0.000000 0.032968 0.474447
#
# Coordination Sequence:
#
# PCOD9351908 Si02
#       7
#     8   8   8   8   8   8   8
#     4  11  21  39  64  90 122 162 202 251 314 368
#     4   9  15  30  59  83 108 157 206 239 294 362
#     4  10  21  38  60  87 121 162 203 252 309 364
#     4  10  20  37  59  82 117 157 201 252 302 357
#     4  10  20  39  59  85 125 160 197 252 313 361
#     4   9  17  34  60  86 115 154 199 246 299 362
#     4  11  22  39  61  91 120 162 206 254 301 372
#
# _framework density 20.549994000000002
#
# number of rings (size 3 to 8) (size 9 to 14) (size 15 to 20)
#    0.000    2.000    5.714    0.000    0.000    3.429 
#    7.714    0.000    0.000    3.429    0.000    0.000 
#    0.000    0.000    0.000    0.000    0.000    0.000 
#
# Total GULP energy -155982.569551 kJ/mol
# GULP energy per Si atom -5570.806055 kJ/mol
# Density = 2.050322 g / cm^3
# Si number density = 20.549994 Si / 1000 Ang^3
#
#
#
# Elastic Constant Matrix: (Units=GPa)
#
#
# Indices 1 2 3 4 5 6 
#
# 1 100.4531 17.5803 7.1830 0.0000 0.0000 0.0000
# 2 17.5803 88.9139 -3.7830 0.0000 0.0000 0.0000
# 3 7.1830 -3.7830 57.8203 0.0000 0.0000 0.0000
# 4 0.0000 0.0000 0.0000 2.9525 0.0000 0.0000
# 5 0.0000 0.0000 0.0000 0.0000 2.9801 0.0000
# 6 0.0000 0.0000 0.0000 0.0000 0.0000 26.3255
#
#
#
# Elastic Compliance Matrix: (Units=1/GPa)
#
#
# Indices 1 2 3 4 5 6 
#
# 1 0.010429 -0.002123 -0.001434 0.000000 0.000000 0.000000
# 2 -0.002123 0.011710 0.001030 0.000000 0.000000 0.000000
# 3 -0.001434 0.001030 0.017541 0.000000 0.000000 0.000000
# 4 0.000000 0.000000 0.000000 0.338690 0.000000 0.000000
# 5 0.000000 0.000000 0.000000 0.000000 0.335555 0.000000
# 6 0.000000 0.000000 0.000000 0.000000 0.000000 0.037986
#
#
# Mechanical properties :
#
#
# Convention : Reuss Voigt Hill
#
# Bulk Modulus (GPa) = 28.88111 32.12755 30.50433
# Shear Modulus (GPa) = 6.50611 21.53210 14.01911
#
# Velocity S-wave (km/s) = 1.78125 3.24047 2.61472
# Velocity P-wave (km/s) = 4.27961 5.44689 4.89815
#
# Compressibility (1/GPa) = 0.03462470
#
# Stress axis : x y z
#
# Youngs Moduli (GPa) = 95.88617 85.39391 57.01074
#
# Poissons Ratio (x) = 0.18130 0.08178
# Poissons Ratio (y) = 0.20358 -0.05872
# Poissons Ratio (z) = 0.13755 -0.08795
#
# Static dielectric constant tensor:
#      x y z
#    x 1.769630 0.000000 0.000000 
#    y 0.000000 1.770630 0.000000 
#    z 0.000000 0.000000 1.771640 
# 
# From -- ./inp_files/12238.got.cif
#   From: 2010.05.17/outbox.cif.g08.bks.cpg/sg36_7_cif.got.tgz:12238.got - 2010.06.03 17:41:39.
