data_PCOD9351211
_publ_section_title
;
Structure prediction by ZEFSAII (Michael W. Deem and Ramdas Pophale) SiO2 
 PCOD9351211
Probable space group: C M C 21
;
_chemical_formula_sum "Si O2"
_cell_formula_units_Z 52
_cell_length_a 19.309049
_cell_length_b 8.124854
_cell_length_c 13.989025
_cell_angle_alpha 90.000000
_cell_angle_beta 90.000000
_cell_angle_gamma 90.000000
_cell_volume 2194.643063
_symmetry_space_group_name_H-M "C M C 21"
_symmetry_group_IT_number 36
_symmetry_cell_setting 'orthorhombic'
loop_
_space_group_symop_operation_xyz
x,y,z
-x,-y,1/2+z
x,-y,1/2+z
-x,y,z
1/2+x,1/2+y,z
1/2-x,1/2-y,1/2+z
1/2+x,1/2-y,1/2+z
1/2-x,1/2+y,z
loop_
_atom_site_type_symbol
_atom_site_label
_atom_site_fract_x
_atom_site_fract_y
_atom_site_fract_z
Si Si1 0.276900 0.758121 0.717830
Si Si2 0.375243 0.914235 0.561281
Si Si3 0.719685 0.102375 0.427016
Si Si4 0.855634 0.065677 0.977768
Si Si5 0.101190 0.961947 0.273034
Si Si6 0.500000 0.719797 0.628192
Si Si7 0.381476 0.746592 0.156940
O O1 0.280222 0.866736 0.814249
O O2 0.320115 0.593500 0.745145
O O3 0.198704 0.726508 0.685377
O O4 0.316405 0.848039 0.632497
O O5 0.335331 0.967841 0.464876
O O6 0.405965 0.081190 0.612688
O O7 0.437700 0.786374 0.556842
O O8 0.690171 0.269869 0.468963
O O9 0.796643 0.071560 0.467239
O O10 0.904882 0.060258 0.886383
O O11 0.891793 0.100917 0.077745
O O12 0.057915 0.837279 0.209116
O O13 0.086560 0.151860 0.247069
#
# Coordination Sequence:
#
# PCOD9351211 Si02
#       7
#     8   8   8   8   8   4   8
#     4  10  19  34  58  92 127 158 193 265 335 381
#     4  10  22  38  59  88 122 170 211 259 312 391
#     4  10  20  33  55  91 125 155 199 260 327 375
#     4  10  21  34  57  92 127 161 196 264 323 381
#     4  10  22  39  60  88 124 172 209 260 314 379
#     4  10  24  46  62  78 128 176 226 252 310 388
#     4  11  20  34  62  94 122 155 212 266 327 372
#
# _framework density 23.694057999999998
#
# number of rings (size 3 to 8) (size 9 to 14) (size 15 to 20)
#    0.000    1.846    3.077    0.923    4.308    0.615 
#    0.000   13.077    0.000    0.000    0.000    0.000 
#    0.000    0.000    0.000    0.000    0.000    0.000 
#
# Total GULP energy -144742.681849 kJ/mol
# GULP energy per Si atom -5567.026225 kJ/mol
# Density = 2.364013 g / cm^3
# Si number density = 23.694058 Si / 1000 Ang^3
#
#
#
# Elastic Constant Matrix: (Units=GPa)
#
#
# Indices 1 2 3 4 5 6 
#
# 1 48.6831 -4.7246 6.0062 0.0000 0.0000 0.0000
# 2 -4.7246 49.0359 -2.1782 0.0000 0.0000 0.0000
# 3 6.0062 -2.1782 77.8658 0.0000 0.0000 0.0000
# 4 0.0000 0.0000 0.0000 32.0599 0.0000 0.0000
# 5 0.0000 0.0000 0.0000 0.0000 30.6877 0.0000
# 6 0.0000 0.0000 0.0000 0.0000 0.0000 62.2480
#
#
#
# Elastic Compliance Matrix: (Units=1/GPa)
#
#
# Indices 1 2 3 4 5 6 
#
# 1 0.020922 0.001947 -0.001559 0.000000 0.000000 0.000000
# 2 0.001947 0.020600 0.000426 0.000000 0.000000 0.000000
# 3 -0.001559 0.000426 0.012975 0.000000 0.000000 0.000000
# 4 0.000000 0.000000 0.000000 0.031192 0.000000 0.000000
# 5 0.000000 0.000000 0.000000 0.000000 0.032586 0.000000
# 6 0.000000 0.000000 0.000000 0.000000 0.000000 0.016065
#
#
# Mechanical properties :
#
#
# Convention : Reuss Voigt Hill
#
# Bulk Modulus (GPa) = 17.81789 19.31019 18.56404
# Shear Modulus (GPa) = 33.02058 36.76456 34.89257
#
# Velocity S-wave (km/s) = 3.73718 3.94335 3.84165
# Velocity P-wave (km/s) = 5.11452 5.37596 5.24686
#
# Compressibility (1/GPa) = 0.05612338
#
# Stress axis : x y z
#
# Youngs Moduli (GPa) = 47.79590 48.54439 77.07245
#
# Poissons Ratio (x) = -0.09450 0.12019
# Poissons Ratio (y) = -0.09304 -0.03284
# Poissons Ratio (z) = 0.07453 -0.02068
#
# Static dielectric constant tensor:
#      x y z
#    x 1.826620 0.000000 0.000000 
#    y 0.000000 2.013640 0.000000 
#    z 0.000000 0.000000 1.944520 
# 
# From -- ./inp_files/12801.got.cif
#   From: 2010.05.17/outbox.cif.g08.bks.cpg/sg36_7_cif.got.tgz:12801.got - 2010.06.03 17:41:39.
