data_PCOD9351511
_publ_section_title
;
Structure prediction by ZEFSAII (Michael W. Deem and Ramdas Pophale) SiO2 
 PCOD9351511
Probable space group: C M C 21
;
_chemical_formula_sum "Si O2"
_cell_formula_units_Z 48
_cell_length_a 12.579935
_cell_length_b 24.201938
_cell_length_c 7.597590
_cell_angle_alpha 90.000000
_cell_angle_beta 90.000000
_cell_angle_gamma 90.000000
_cell_volume 2313.153187
_symmetry_space_group_name_H-M "C M C 21"
_symmetry_group_IT_number 36
_symmetry_cell_setting 'orthorhombic'
loop_
_space_group_symop_operation_xyz
x,y,z
-x,-y,1/2+z
x,-y,1/2+z
-x,y,z
1/2+x,1/2+y,z
1/2-x,1/2-y,1/2+z
1/2+x,1/2-y,1/2+z
1/2-x,1/2+y,z
loop_
_atom_site_type_symbol
_atom_site_label
_atom_site_fract_x
_atom_site_fract_y
_atom_site_fract_z
Si Si1 0.240462 0.893681 0.817230
Si Si2 0.500000 0.409672 0.763041
Si Si3 0.710669 0.428531 0.185605
Si Si4 0.622949 0.092761 0.976737
Si Si5 0.384812 0.220169 0.855404
Si Si6 0.216578 0.191667 0.580177
Si Si7 0.500000 0.480917 0.122735
O O1 0.311325 0.913168 0.656808
O O2 0.242930 0.936693 0.980704
O O3 0.116610 0.882150 0.764049
O O4 0.277134 0.837369 0.914808
O O5 0.500000 0.453555 0.605486
O O6 0.500000 0.444721 0.945838
O O7 0.808020 0.433433 0.318576
O O8 0.675128 0.363383 0.180453
O O9 0.608778 0.465375 0.221907
O O10 0.500000 0.074212 0.985384
O O11 0.621314 0.158686 0.935932
O O12 0.500000 0.227116 0.772483
O O13 0.295155 0.223160 0.708254
O O14 0.367321 0.266335 0.002262
#
# Coordination Sequence:
#
# PCOD9351511 Si02
#       7
#     8   4   8   8   8   8   4
#     4   9  20  36  56  81 116 146 185 238 295 349
#     4  10  22  36  62  96 112 152 182 241 307 370
#     4   8  20  35  55  81 119 144 180 240 289 352
#     4  10  20  35  54  82 107 156 203 226 275 332
#     4  10  20  33  55  76 110 154 192 244 270 336
#     4   9  19  35  52  78 115 143 194 230 295 324
#     4  10  20  38  60  94 116 146 184 237 311 364
#
# _framework density 20.750895
#
# number of rings (size 3 to 8) (size 9 to 14) (size 15 to 20)
#    1.000    1.667    0.000    1.000    4.667    1.333 
#    0.000    0.833    1.833    1.000    0.000    0.000 
#    0.000    0.000    0.000    0.000    0.000    0.000 
#
# Total GULP energy -133643.774468 kJ/mol
# GULP energy per Si atom -5568.490603 kJ/mol
# Density = 2.070367 g / cm^3
# Si number density = 20.750895 Si / 1000 Ang^3
#
#
#
# Elastic Constant Matrix: (Units=GPa)
#
#
# Indices 1 2 3 4 5 6 
#
# 1 108.8314 7.7249 69.7521 0.0000 0.0000 0.0000
# 2 7.7249 26.4117 1.1823 0.0000 0.0000 0.0000
# 3 69.7521 1.1823 87.6965 0.0000 0.0000 0.0000
# 4 0.0000 0.0000 0.0000 19.8456 0.0000 0.0000
# 5 0.0000 0.0000 0.0000 0.0000 21.3282 0.0000
# 6 0.0000 0.0000 0.0000 0.0000 0.0000 19.4786
#
#
#
# Elastic Compliance Matrix: (Units=1/GPa)
#
#
# Indices 1 2 3 4 5 6 
#
# 1 0.019377 -0.004980 -0.015345 0.000000 0.000000 0.000000
# 2 -0.004980 0.039165 0.003433 0.000000 0.000000 0.000000
# 3 -0.015345 0.003433 0.023562 0.000000 0.000000 0.000000
# 4 0.000000 0.000000 0.000000 0.050389 0.000000 0.000000
# 5 0.000000 0.000000 0.000000 0.000000 0.046886 0.000000
# 6 0.000000 0.000000 0.000000 0.000000 0.000000 0.051338
#
#
# Mechanical properties :
#
#
# Convention : Reuss Voigt Hill
#
# Bulk Modulus (GPa) = 20.69552 42.25090 31.47321
# Shear Modulus (GPa) = 17.81847 21.74915 19.78381
#
# Velocity S-wave (km/s) = 2.93351 3.24096 3.09106
# Velocity P-wave (km/s) = 4.63346 5.86603 5.28579
#
# Compressibility (1/GPa) = 0.04831964
#
# Stress axis : x y z
#
# Youngs Moduli (GPa) = 51.60803 25.53301 42.44182
#
# Poissons Ratio (x) = 0.12716 0.65126
# Poissons Ratio (y) = 0.25703 -0.14572
# Poissons Ratio (z) = 0.79192 -0.08766
#
# Static dielectric constant tensor:
#      x y z
#    x 1.705730 0.000000 0.000000 
#    y 0.000000 1.788270 0.000000 
#    z 0.000000 0.000000 1.773540 
# 
# From -- ./inp_files/3506.got.cif
#   From: 2010.05.17/outbox.cif.g08.bks.cpg/sg36_2_cif.got.tgz:3506.got - 2010.06.03 17:41:39.
