data_PCOD9351525
_publ_section_title
;
Structure prediction by ZEFSAII (Michael W. Deem and Ramdas Pophale) SiO2 
 PCOD9351525
Probable space group: C M C 21
;
_chemical_formula_sum "Si O2"
_cell_formula_units_Z 64
_cell_length_a 14.297438
_cell_length_b 18.716790
_cell_length_c 13.773795
_cell_angle_alpha 90.000000
_cell_angle_beta 90.000000
_cell_angle_gamma 90.000000
_cell_volume 3685.897081
_symmetry_space_group_name_H-M "C M C 21"
_symmetry_group_IT_number 36
_symmetry_cell_setting 'orthorhombic'
loop_
_space_group_symop_operation_xyz
x,y,z
-x,-y,1/2+z
x,-y,1/2+z
-x,y,z
1/2+x,1/2+y,z
1/2-x,1/2-y,1/2+z
1/2+x,1/2-y,1/2+z
1/2-x,1/2+y,z
loop_
_atom_site_type_symbol
_atom_site_label
_atom_site_fract_x
_atom_site_fract_y
_atom_site_fract_z
Si Si1 0.893939 0.459430 0.771390
Si Si2 0.606782 0.904090 0.130034
Si Si3 0.886417 0.747388 0.987483
Si Si4 0.209607 0.511049 0.470994
Si Si5 0.108844 0.088023 0.432187
Si Si6 0.395689 0.372030 0.708617
Si Si7 0.107505 0.708571 0.774563
Si Si8 0.797073 0.624147 0.105215
O O1 0.896382 0.527567 0.700410
O O2 0.832344 0.480188 0.863889
O O3 0.852049 0.397346 0.703549
O O4 0.000000 0.443003 0.802113
O O5 0.500000 0.884764 0.102539
O O6 0.652564 0.842311 0.195054
O O7 0.662692 0.927455 0.036284
O O8 0.870192 0.832743 0.976698
O O9 0.855717 0.713974 0.883465
O O10 0.000000 0.738550 0.997470
O O11 0.831959 0.701061 0.067372
O O12 0.319339 0.529116 0.469467
O O13 0.185254 0.435748 0.522005
O O14 0.119942 0.093108 0.314886
O O15 0.000000 0.073094 0.452234
O O16 0.500000 0.392439 0.674485
O O17 0.396020 0.287910 0.732959
O O18 0.311477 0.383175 0.634760
O O19 0.000000 0.682132 0.784989
#
# Coordination Sequence:
#
# PCOD9351525 Si02
#       8
#     8   8   8   8   8   8   8   8
#     4  10  20  34  49  73 111 140 165 209 262 315
#     4   9  18  30  48  75 104 134 164 201 253 315
#     4   9  18  33  55  80 103 136 175 214 258 307
#     4  11  21  32  50  78 104 136 175 208 262 312
#     4   9  19  37  56  73 100 137 180 219 255 306
#     4   9  18  34  53  73  99 133 175 218 257 298
#     4   8  15  30  51  74  99 130 168 206 249 302
#     4  11  21  32  53  82 106 134 177 217 261 315
#
# _framework density 17.363479999999999
#
# number of rings (size 3 to 8) (size 9 to 14) (size 15 to 20)
#    0.000    2.500    1.250    3.000    1.750    3.000 
#    0.000    0.000    0.000    0.000    0.000    0.000 
#    0.000    0.000    0.000    0.000    0.000    0.000 
#
# Total GULP energy -178190.760960 kJ/mol
# GULP energy per Si atom -5568.461280 kJ/mol
# Density = 1.732396 g / cm^3
# Si number density = 17.363480 Si / 1000 Ang^3
#
#
#
# Elastic Constant Matrix: (Units=GPa)
#
#
# Indices 1 2 3 4 5 6 
#
# 1 75.8394 7.8464 23.4011 0.0000 0.0000 0.0000
# 2 7.8464 13.4213 8.2332 0.0000 0.0000 0.0000
# 3 23.4011 8.2332 60.2111 0.0000 0.0000 0.0000
# 4 0.0000 0.0000 0.0000 16.1909 0.0000 0.0000
# 5 0.0000 0.0000 0.0000 0.0000 24.7290 0.0000
# 6 0.0000 0.0000 0.0000 0.0000 0.0000 22.2887
#
#
#
# Elastic Compliance Matrix: (Units=1/GPa)
#
#
# Indices 1 2 3 4 5 6 
#
# 1 0.015387 -0.005815 -0.005185 0.000000 0.000000 0.000000
# 2 -0.005815 0.083528 -0.009162 0.000000 0.000000 0.000000
# 3 -0.005185 -0.009162 0.019876 0.000000 0.000000 0.000000
# 4 0.000000 0.000000 0.000000 0.061763 0.000000 0.000000
# 5 0.000000 0.000000 0.000000 0.000000 0.040438 0.000000
# 6 0.000000 0.000000 0.000000 0.000000 0.000000 0.044866
#
#
# Mechanical properties :
#
#
# Convention : Reuss Voigt Hill
#
# Bulk Modulus (GPa) = 12.74402 25.38147 19.06274
# Shear Modulus (GPa) = 15.04489 19.97444 17.50967
#
# Velocity S-wave (km/s) = 2.94678 3.39539 3.17901
# Velocity P-wave (km/s) = 4.35126 5.47915 4.94745
#
# Compressibility (1/GPa) = 0.07846818
#
# Stress axis : x y z
#
# Youngs Moduli (GPa) = 64.98863 11.97201 50.31141
#
# Poissons Ratio (x) = 0.06962 0.26087
# Poissons Ratio (y) = 0.37791 0.46093
# Poissons Ratio (z) = 0.33698 0.10968
#
# Static dielectric constant tensor:
#      x y z
#    x 1.624910 0.000000 0.000000 
#    y 0.000000 1.591620 0.000000 
#    z 0.000000 0.000000 1.590560 
# 
# From -- ./inp_files/8027.got.cif
#   From: 2010.05.17/outbox.cif.g08.bks.cpg/sg36_5_cif.got.tgz:8027.got - 2010.06.03 17:41:39.
