data_PCOD9351207
_publ_section_title
;
Structure prediction by ZEFSAII (Michael W. Deem and Ramdas Pophale) SiO2 
 PCOD9351207
Probable space group: C M C 21
;
_chemical_formula_sum "Si O2"
_cell_formula_units_Z 48
_cell_length_a 13.448956
_cell_length_b 19.930499
_cell_length_c 6.996854
_cell_angle_alpha 90.000000
_cell_angle_beta 90.000000
_cell_angle_gamma 90.000000
_cell_volume 1875.467561
_symmetry_space_group_name_H-M "C M C 21"
_symmetry_group_IT_number 36
_symmetry_cell_setting 'orthorhombic'
loop_
_space_group_symop_operation_xyz
x,y,z
-x,-y,1/2+z
x,-y,1/2+z
-x,y,z
1/2+x,1/2+y,z
1/2-x,1/2-y,1/2+z
1/2+x,1/2-y,1/2+z
1/2-x,1/2+y,z
loop_
_atom_site_type_symbol
_atom_site_label
_atom_site_fract_x
_atom_site_fract_y
_atom_site_fract_z
Si Si1 0.886984 0.722460 0.545400
Si Si2 0.820913 0.578376 0.640827
Si Si3 0.110928 0.436679 0.568532
Si Si4 0.391272 0.255671 0.090319
Si Si5 0.887100 0.903777 0.216818
Si Si6 0.723238 0.655806 0.080851
O O1 0.826929 0.654144 0.568860
O O2 0.884159 0.741131 0.320162
O O3 0.852162 0.788297 0.664677
O O4 0.000000 0.706771 0.592576
O O5 0.881099 0.516920 0.554792
O O6 0.705655 0.554222 0.638822
O O7 0.866552 0.584646 0.852673
O O8 0.203311 0.399584 0.676035
O O9 0.000000 0.418203 0.635425
O O10 0.500000 0.232996 0.026122
O O11 0.388784 0.336004 0.089788
O O12 0.304153 0.210689 0.004242
O O13 0.845051 0.882145 0.425542
O O14 0.000000 0.930154 0.224971
#
# Coordination Sequence:
#
# PCOD9351207 Si02
#       6
#     8   8   8   8   8   8
#     4  10  20  36  60  86 119 164 209 255 309 367
#     4  11  23  42  62  89 124 165 211 252 310 375
#     4  11  24  39  59  91 128 164 202 257 312 369
#     4   9  17  31  56  88 119 155 199 250 305 361
#     4   9  19  38  61  85 117 160 206 257 310 357
#     4  10  19  34  58  89 119 156 205 253 308 365
#
# _framework density 25.593619
#
# number of rings (size 3 to 8) (size 9 to 14) (size 15 to 20)
#    0.000    2.000    1.667    3.500    2.333    0.000 
#    0.000    4.167    0.000    2.000    0.000    0.000 
#    0.000    0.000    0.000    0.000    0.000    0.000 
#
# Total GULP energy -133892.970731 kJ/mol
# GULP energy per Si atom -5578.873780 kJ/mol
# Density = 2.553537 g / cm^3
# Si number density = 25.593619 Si / 1000 Ang^3
#
#
#
# Elastic Constant Matrix: (Units=GPa)
#
#
# Indices 1 2 3 4 5 6 
#
# 1 214.9304 11.2522 -9.4057 0.0000 0.0000 0.0000
# 2 11.2522 88.8500 0.0585 0.0000 0.0000 0.0000
# 3 -9.4057 0.0585 54.3629 0.0000 0.0000 0.0000
# 4 0.0000 0.0000 0.0000 18.8692 0.0000 0.0000
# 5 0.0000 0.0000 0.0000 0.0000 20.7064 0.0000
# 6 0.0000 0.0000 0.0000 0.0000 0.0000 37.4915
#
#
#
# Elastic Compliance Matrix: (Units=1/GPa)
#
#
# Indices 1 2 3 4 5 6 
#
# 1 0.004720 -0.000598 0.000817 0.000000 0.000000 0.000000
# 2 -0.000598 0.011331 -0.000116 0.000000 0.000000 0.000000
# 3 0.000817 -0.000116 0.018536 0.000000 0.000000 0.000000
# 4 0.000000 0.000000 0.000000 0.052996 0.000000 0.000000
# 5 0.000000 0.000000 0.000000 0.000000 0.048294 0.000000
# 6 0.000000 0.000000 0.000000 0.000000 0.000000 0.026673
#
#
# Mechanical properties :
#
#
# Convention : Reuss Voigt Hill
#
# Bulk Modulus (GPa) = 28.74101 40.21703 34.47902
# Shear Modulus (GPa) = 28.74530 39.16265 33.95398
#
# Velocity S-wave (km/s) = 3.35497 3.91599 3.64628
# Velocity P-wave (km/s) = 5.12464 6.01618 5.58821
#
# Compressibility (1/GPa) = 0.03479349
#
# Stress axis : x y z
#
# Youngs Moduli (GPa) = 211.87551 88.25532 53.94790
#
# Poissons Ratio (x) = 0.05280 -0.04409
# Poissons Ratio (y) = 0.12676 0.00624
# Poissons Ratio (z) = -0.17315 0.01021
#
# Static dielectric constant tensor:
#      x y z
#    x 2.051540 0.000000 0.000000 
#    y 0.000000 1.996470 0.000000 
#    z 0.000000 0.000000 2.126980 
# 
# From -- ./inp_files/7703.got.cif
#   From: 2010.05.17/outbox.cif.g08.bks.cpg/sg36_4_cif.got.tgz:7703.got - 2010.06.03 17:41:39.
