data_PCOD9351269
_publ_section_title
;
Structure prediction by ZEFSAII (Michael W. Deem and Ramdas Pophale) SiO2 
 PCOD9351269
Probable space group: C M C 21
;
_chemical_formula_sum "Si O2"
_cell_formula_units_Z 64
_cell_length_a 9.091908
_cell_length_b 23.178802
_cell_length_c 16.510274
_cell_angle_alpha 90.000000
_cell_angle_beta 90.000000
_cell_angle_gamma 90.000000
_cell_volume 3479.367471
_symmetry_space_group_name_H-M "C M C 21"
_symmetry_group_IT_number 36
_symmetry_cell_setting 'orthorhombic'
loop_
_space_group_symop_operation_xyz
x,y,z
-x,-y,1/2+z
x,-y,1/2+z
-x,y,z
1/2+x,1/2+y,z
1/2-x,1/2-y,1/2+z
1/2+x,1/2-y,1/2+z
1/2-x,1/2+y,z
loop_
_atom_site_type_symbol
_atom_site_label
_atom_site_fract_x
_atom_site_fract_y
_atom_site_fract_z
Si Si1 0.830586 0.356038 0.938870
Si Si2 0.670787 0.662547 0.141858
Si Si3 0.330185 0.216104 0.601906
Si Si4 0.178554 0.511680 0.454528
Si Si5 0.678330 0.958434 0.280633
Si Si6 0.677393 0.040057 0.127871
Si Si7 0.825627 0.834445 0.255942
Si Si8 0.670687 0.274589 0.815608
O O1 0.778993 0.421393 0.949511
O O2 0.730807 0.319259 0.880115
O O3 0.000000 0.357464 0.908282
O O4 0.830237 0.323576 0.024020
O O5 0.500000 0.646842 0.129523
O O6 0.707992 0.717021 0.084086
O O7 0.765657 0.605274 0.135863
O O8 0.686353 0.692608 0.229606
O O9 0.500000 0.216621 0.634129
O O10 0.223262 0.188890 0.667900
O O11 0.222329 0.481877 0.369768
O O12 0.228136 0.484756 0.540338
O O13 0.000000 0.509709 0.456656
O O14 0.500000 0.954199 0.278637
O O15 0.748471 0.895743 0.268974
O O16 0.721770 0.000859 0.205775
O O17 0.500000 0.040089 0.127729
O O18 0.763025 0.784390 0.314360
O O19 0.000000 0.839312 0.263023
O O20 0.500000 0.261114 0.828292
#
# Coordination Sequence:
#
# PCOD9351269 Si02
#       8
#     8   8   8   8   8   8   8   8
#     4  10  19  35  59  83 109 141 182 227 271 327
#     4   9  19  35  53  76 108 144 178 216 271 328
#     4   9  19  36  57  81 112 146 176 220 282 334
#     4   9  19  34  54  82 110 142 186 228 271 332
#     4  10  20  36  56  77 109 148 181 224 283 332
#     4  10  20  35  57  81 107 145 188 227 270 326
#     4  11  22  36  56  81 107 140 187 230 270 329
#     4  10  21  37  56  79 110 144 178 224 282 334
#
# _framework density 18.394148999999999
#
# number of rings (size 3 to 8) (size 9 to 14) (size 15 to 20)
#    0.000    2.250    0.000    3.750    0.000    7.500 
#    0.000    4.375    0.000    0.000    0.000    0.000 
#    0.000    0.000    0.000    0.000    0.000    0.000 
#
# Total GULP energy -178470.040332 kJ/mol
# GULP energy per Si atom -5577.188760 kJ/mol
# Density = 1.835228 g / cm^3
# Si number density = 18.394149 Si / 1000 Ang^3
#
#
#
# Elastic Constant Matrix: (Units=GPa)
#
#
# Indices 1 2 3 4 5 6 
#
# 1 47.4540 47.1553 31.9246 0.0000 0.0000 0.0000
# 2 47.1553 169.0812 61.4657 0.0000 0.0000 0.0000
# 3 31.9246 61.4657 87.1186 0.0000 0.0000 0.0000
# 4 0.0000 0.0000 0.0000 25.8738 0.0000 0.0000
# 5 0.0000 0.0000 0.0000 0.0000 17.8365 0.0000
# 6 0.0000 0.0000 0.0000 0.0000 0.0000 31.2888
#
#
#
# Elastic Compliance Matrix: (Units=1/GPa)
#
#
# Indices 1 2 3 4 5 6 
#
# 1 0.032332 -0.006335 -0.007379 0.000000 0.000000 0.000000
# 2 -0.006335 0.009196 -0.004167 0.000000 0.000000 0.000000
# 3 -0.007379 -0.004167 0.017122 0.000000 0.000000 0.000000
# 4 0.000000 0.000000 0.000000 0.038649 0.000000 0.000000
# 5 0.000000 0.000000 0.000000 0.000000 0.056065 0.000000
# 6 0.000000 0.000000 0.000000 0.000000 0.000000 0.031960
#
#
# Mechanical properties :
#
#
# Convention : Reuss Voigt Hill
#
# Bulk Modulus (GPa) = 43.68738 64.97166 54.32952
# Shear Modulus (GPa) = 21.86141 25.87370 23.86756
#
# Velocity S-wave (km/s) = 3.45120 3.75457 3.60608
# Velocity P-wave (km/s) = 6.29947 7.36168 6.85119
#
# Compressibility (1/GPa) = 0.02288991
#
# Stress axis : x y z
#
# Youngs Moduli (GPa) = 30.92929 108.74668 58.40385
#
# Poissons Ratio (x) = 0.68888 0.43094
# Poissons Ratio (y) = 0.19593 0.24334
# Poissons Ratio (z) = 0.22821 0.45310
#
# Static dielectric constant tensor:
#      x y z
#    x 1.630610 0.000000 0.000000 
#    y 0.000000 1.614090 0.000000 
#    z 0.000000 0.000000 1.663790 
# 
# From -- ./inp_files/11115.got.cif
#   From: 2010.05.17/outbox.cif.g08.bks.cpg/sg36_6_cif.got.tgz:11115.got - 2010.06.03 17:41:39.
