data_PCOD9351118
_publ_section_title
;
Structure prediction by ZEFSAII (Michael W. Deem and Ramdas Pophale) SiO2 
 PCOD9351118
Probable space group: C M C 21
;
_chemical_formula_sum "Si O2"
_cell_formula_units_Z 56
_cell_length_a 15.848394
_cell_length_b 36.878625
_cell_length_c 5.024526
_cell_angle_alpha 90.000000
_cell_angle_beta 90.000000
_cell_angle_gamma 90.000000
_cell_volume 2936.669533
_symmetry_space_group_name_H-M "C M C 21"
_symmetry_group_IT_number 36
_symmetry_cell_setting 'orthorhombic'
loop_
_space_group_symop_operation_xyz
x,y,z
-x,-y,1/2+z
x,-y,1/2+z
-x,y,z
1/2+x,1/2+y,z
1/2-x,1/2-y,1/2+z
1/2+x,1/2-y,1/2+z
1/2-x,1/2+y,z
loop_
_atom_site_type_symbol
_atom_site_label
_atom_site_fract_x
_atom_site_fract_y
_atom_site_fract_z
Si Si1 0.094322 0.024275 0.329090
Si Si2 0.097765 0.473581 0.667597
Si Si3 0.756139 0.798464 0.290792
Si Si4 0.242581 0.922279 0.653308
Si Si5 0.500000 0.640710 0.585205
Si Si6 0.306318 0.379239 0.143743
Si Si7 0.339510 0.731500 0.284399
Si Si8 0.000000 0.810336 0.587858
O O1 0.169380 0.050417 0.249501
O O2 0.000000 0.040216 0.289779
O O3 0.100330 0.010056 0.629915
O O4 0.109896 0.498799 0.410824
O O5 0.167421 0.442139 0.673049
O O6 0.000000 0.460557 0.672103
O O7 0.768882 0.840565 0.235258
O O8 0.672969 0.774299 0.233676
O O9 0.771792 0.789489 0.599488
O O10 0.823683 0.779558 0.089505
O O11 0.223298 0.908949 0.356673
O O12 0.231148 0.888984 0.856433
O O13 0.590839 0.621744 0.633793
O O14 0.500000 0.654777 0.282549
O O15 0.500000 0.674678 0.789798
O O16 0.422413 0.714244 0.168303
#
# Coordination Sequence:
#
# PCOD9351118 Si02
#       8
#     8   8   8   8   4   8   8   4
#     4  10  21  37  54  76 111 152 192 232 270 320
#     4  10  21  41  70  97 115 141 194 258 303 340
#     4  10  20  37  52  81 106 149 186 238 288 343
#     4  12  24  37  61  87 120 158 195 230 291 358
#     4  12  24  36  54  84 122 155 206 244 278 335
#     4  12  24  37  55  84 123 163 190 234 287 355
#     4  10  19  33  59  77 107 138 195 244 292 331
#     4  12  18  36  58  86 104 147 200 262 292 323
#
# _framework density 19.069220999999999
#
# number of rings (size 3 to 8) (size 9 to 14) (size 15 to 20)
#    0.000    1.143    2.857    4.286    2.000    0.000 
#    0.000    0.000    3.143    0.000    0.000    0.000 
#    0.000    0.000    0.000    0.000    0.000    0.000 
#
# Total GULP energy -156229.778839 kJ/mol
# GULP energy per Si atom -5579.634959 kJ/mol
# Density = 1.902582 g / cm^3
# Si number density = 19.069221 Si / 1000 Ang^3
#
#
#
# Elastic Constant Matrix: (Units=GPa)
#
#
# Indices 1 2 3 4 5 6 
#
# 1 95.7618 46.6881 3.8398 0.0000 0.0000 0.0000
# 2 46.6881 60.3390 -3.4758 0.0000 0.0000 0.0000
# 3 3.8398 -3.4758 74.0419 0.0000 0.0000 0.0000
# 4 0.0000 0.0000 0.0000 23.6584 0.0000 0.0000
# 5 0.0000 0.0000 0.0000 0.0000 27.8278 0.0000
# 6 0.0000 0.0000 0.0000 0.0000 0.0000 33.9443
#
#
#
# Elastic Compliance Matrix: (Units=1/GPa)
#
#
# Indices 1 2 3 4 5 6 
#
# 1 0.016932 -0.013188 -0.001497 0.000000 0.000000 0.000000
# 2 -0.013188 0.026889 0.001946 0.000000 0.000000 0.000000
# 3 -0.001497 0.001946 0.013675 0.000000 0.000000 0.000000
# 4 0.000000 0.000000 0.000000 0.042268 0.000000 0.000000
# 5 0.000000 0.000000 0.000000 0.000000 0.035935 0.000000
# 6 0.000000 0.000000 0.000000 0.000000 0.000000 0.029460
#
#
# Mechanical properties :
#
#
# Convention : Reuss Voigt Hill
#
# Bulk Modulus (GPa) = 31.23149 36.02743 33.62946
# Shear Modulus (GPa) = 24.83723 29.29215 27.06469
#
# Velocity S-wave (km/s) = 3.61290 3.92356 3.77143
# Velocity P-wave (km/s) = 5.81529 6.28170 6.05299
#
# Compressibility (1/GPa) = 0.03201897
#
# Stress axis : x y z
#
# Youngs Moduli (GPa) = 59.05887 37.18934 73.12677
#
# Poissons Ratio (x) = 0.49045 0.10949
# Poissons Ratio (y) = 0.77886 -0.14232
# Poissons Ratio (z) = 0.08842 -0.07238
#
# Static dielectric constant tensor:
#      x y z
#    x 1.665890 0.000000 0.000000 
#    y 0.000000 1.679840 0.000000 
#    z 0.000000 0.000000 1.655580 
# 
# From -- ./inp_files/962.got.cif
#   From: 2010.05.17/outbox.cif.g08.bks.cpg/sg36_1_cif.got.tgz:962.got - 2010.06.03 17:41:39.
