data_PCOD9351015
_publ_section_title
;
Structure prediction by ZEFSAII (Michael W. Deem and Ramdas Pophale) SiO2 
 PCOD9351015
Probable space group: C M C 21
;
_chemical_formula_sum "Si O2"
_cell_formula_units_Z 56
_cell_length_a 26.392030
_cell_length_b 5.417660
_cell_length_c 17.586150
_cell_angle_alpha 90.000000
_cell_angle_beta 90.000000
_cell_angle_gamma 90.000000
_cell_volume 2514.521281
_symmetry_space_group_name_H-M "C M C 21"
_symmetry_group_IT_number 36
_symmetry_cell_setting 'orthorhombic'
loop_
_space_group_symop_operation_xyz
x,y,z
-x,-y,1/2+z
x,-y,1/2+z
-x,y,z
1/2+x,1/2+y,z
1/2-x,1/2-y,1/2+z
1/2+x,1/2-y,1/2+z
1/2-x,1/2+y,z
loop_
_atom_site_type_symbol
_atom_site_label
_atom_site_fract_x
_atom_site_fract_y
_atom_site_fract_z
Si Si1 0.442357 0.278698 0.186430
Si Si2 0.313192 0.927878 0.030049
Si Si3 0.609756 0.955996 0.821466
Si Si4 0.723449 0.859720 0.860643
Si Si5 0.264161 0.429468 0.175237
Si Si6 0.941647 0.959859 0.839769
Si Si7 0.860272 0.927905 0.077961
O O1 0.500000 0.195833 0.175703
O O2 0.410238 0.076826 0.234458
O O3 0.442853 0.501302 0.247971
O O4 0.415014 0.364343 0.110456
O O5 0.272316 0.928829 0.099656
O O6 0.340280 0.194157 0.029971
O O7 0.351081 0.697282 0.043186
O O8 0.285340 0.880778 0.951944
O O9 0.669714 0.940821 0.825206
O O10 0.586261 0.713821 0.863553
O O11 0.588103 0.209159 0.855335
O O12 0.735043 0.572445 0.847383
O O13 0.250121 0.179294 0.215987
O O14 0.322108 0.429029 0.150796
O O15 0.000000 0.951013 0.865913
#
# Coordination Sequence:
#
# PCOD9351015 Si02
#       7
#     8   8   8   8   8   8   8
#     4   9  21  38  62  86 116 157 198 247 305 363
#     4  10  20  35  56  82 112 149 194 233 287 351
#     4  10  21  37  59  90 118 153 207 250 300 354
#     4  12  23  39  63  86 120 163 204 247 294 361
#     4   8  14  27  44  68  99 129 170 209 254 318
#     4   9  18  36  61  85 111 150 200 245 294 358
#     4  10  19  32  56  85 111 147 191 235 286 353
#
# _framework density 22.270638999999999
#
# number of rings (size 3 to 8) (size 9 to 14) (size 15 to 20)
#    0.857    1.429    0.000    5.143    2.000    0.000 
#    0.000    4.286    0.000    6.857    0.000    0.000 
#    0.000    0.000    0.000    0.000    0.000    0.000 
#
# Total GULP energy -156309.919365 kJ/mol
# GULP energy per Si atom -5582.497120 kJ/mol
# Density = 2.221995 g / cm^3
# Si number density = 22.270639 Si / 1000 Ang^3
#
#
#
# Elastic Constant Matrix: (Units=GPa)
#
#
# Indices 1 2 3 4 5 6 
#
# 1 83.8150 4.1507 -8.9576 0.0000 0.0000 0.0000
# 2 4.1507 125.7158 -5.6238 0.0000 0.0000 0.0000
# 3 -8.9576 -5.6238 35.2631 0.0000 0.0000 0.0000
# 4 0.0000 0.0000 0.0000 17.1494 0.0000 0.0000
# 5 0.0000 0.0000 0.0000 0.0000 24.1321 0.0000
# 6 0.0000 0.0000 0.0000 0.0000 0.0000 26.4994
#
#
#
# Elastic Compliance Matrix: (Units=1/GPa)
#
#
# Indices 1 2 3 4 5 6 
#
# 1 0.012273 -0.000268 0.003075 0.000000 0.000000 0.000000
# 2 -0.000268 0.008017 0.001211 0.000000 0.000000 0.000000
# 3 0.003075 0.001211 0.029332 0.000000 0.000000 0.000000
# 4 0.000000 0.000000 0.000000 0.058311 0.000000 0.000000
# 5 0.000000 0.000000 0.000000 0.000000 0.041439 0.000000
# 6 0.000000 0.000000 0.000000 0.000000 0.000000 0.037737
#
#
# Mechanical properties :
#
#
# Convention : Reuss Voigt Hill
#
# Bulk Modulus (GPa) = 17.34347 24.88139 21.11243
# Shear Modulus (GPa) = 25.21521 30.57115 27.89318
#
# Velocity S-wave (km/s) = 3.36849 3.70903 3.54286
# Velocity P-wave (km/s) = 4.78889 5.43499 5.12214
#
# Compressibility (1/GPa) = 0.05765859
#
# Stress axis : x y z
#
# Youngs Moduli (GPa) = 81.48016 124.72807 34.09197
#
# Poissons Ratio (x) = 0.03338 -0.10483
# Poissons Ratio (y) = 0.02181 -0.04127
# Poissons Ratio (z) = -0.25054 -0.15100
#
# Static dielectric constant tensor:
#      x y z
#    x 1.779790 0.000000 0.000000 
#    y 0.000000 1.849590 0.000000 
#    z 0.000000 0.000000 1.874370 
# 
# From -- ./inp_files/16325.got.cif
#   From: 2010.05.17/outbox.cif.g08.bks.cpg/sg36_9_cif.got.tgz:16325.got - 2010.06.03 17:41:39.
