data_PCOD9351854
_publ_section_title
;
Structure prediction by ZEFSAII (Michael W. Deem and Ramdas Pophale) SiO2 
 PCOD9351854
Probable space group: C M C 21
;
_chemical_formula_sum "Si O2"
_cell_formula_units_Z 64
_cell_length_a 16.902129
_cell_length_b 21.810786
_cell_length_c 8.707022
_cell_angle_alpha 90.000000
_cell_angle_beta 90.000000
_cell_angle_gamma 90.000000
_cell_volume 3209.832503
_symmetry_space_group_name_H-M "C M C 21"
_symmetry_group_IT_number 36
_symmetry_cell_setting 'orthorhombic'
loop_
_space_group_symop_operation_xyz
x,y,z
-x,-y,1/2+z
x,-y,1/2+z
-x,y,z
1/2+x,1/2+y,z
1/2-x,1/2-y,1/2+z
1/2+x,1/2-y,1/2+z
1/2-x,1/2+y,z
loop_
_atom_site_type_symbol
_atom_site_label
_atom_site_fract_x
_atom_site_fract_y
_atom_site_fract_z
Si Si1 0.328045 0.018343 0.346740
Si Si2 0.279235 0.817817 0.282632
Si Si3 0.410228 0.485001 0.934440
Si Si4 0.585016 0.109144 0.864107
Si Si5 0.088421 0.369238 0.717710
Si Si6 0.592024 0.405187 0.629303
Si Si7 0.269045 0.440166 0.128823
Si Si8 0.256211 0.315960 0.646827
O O1 0.391935 0.061030 0.264687
O O2 0.297991 0.052825 0.497456
O O3 0.365721 0.952774 0.381428
O O4 0.253917 0.996773 0.241697
O O5 0.368950 0.841468 0.265118
O O6 0.231959 0.874422 0.208766
O O7 0.269168 0.752779 0.204814
O O8 0.260900 0.815497 0.464160
O O9 0.500000 0.476930 0.988653
O O10 0.392282 0.556850 0.970666
O O11 0.350017 0.448908 0.040692
O O12 0.407517 0.455944 0.765481
O O13 0.500000 0.094562 0.798591
O O14 0.579023 0.134839 0.035083
O O15 0.176242 0.338428 0.737508
O O16 0.000000 0.351157 0.781236
O O17 0.500000 0.380921 0.624577
O O18 0.664292 0.358064 0.663427
#
# Coordination Sequence:
#
# PCOD9351854 Si02
#       8
#     8   8   8   8   8   8   8   8
#     4  11  20  35  61  91 125 158 200 248 316 384
#     4  10  26  41  65  88 119 168 216 257 303 367
#     4  10  21  37  60  94 126 159 200 255 318 377
#     4   9  19  38  59  91 125 157 198 251 306 369
#     4  10  20  36  60  89 122 161 200 254 312 364
#     4  10  23  40  66  95 128 163 204 259 317 373
#     4  11  22  37  61  94 120 167 205 253 315 374
#     4  11  24  46  63  88 123 169 214 263 303 366
#
# _framework density 19.938735000000001
#
# number of rings (size 3 to 8) (size 9 to 14) (size 15 to 20)
#    0.000    1.750    1.250    2.625    8.750    0.500 
#    0.000    1.875    0.000    0.000    0.000    0.000 
#    0.000    0.000    0.000    0.000    0.000    0.000 
#
# Total GULP energy -178217.126194 kJ/mol
# GULP energy per Si atom -5569.285194 kJ/mol
# Density = 1.989335 g / cm^3
# Si number density = 19.938735 Si / 1000 Ang^3
#
#
#
# Elastic Constant Matrix: (Units=GPa)
#
#
# Indices 1 2 3 4 5 6 
#
# 1 143.7765 56.8349 18.8974 0.0000 0.0000 0.0000
# 2 56.8349 96.6193 31.1767 0.0000 0.0000 0.0000
# 3 18.8974 31.1767 52.2963 0.0000 0.0000 0.0000
# 4 0.0000 0.0000 0.0000 36.2354 0.0000 0.0000
# 5 0.0000 0.0000 0.0000 0.0000 17.0468 0.0000
# 6 0.0000 0.0000 0.0000 0.0000 0.0000 -2.8593
#
#
#
# Elastic Compliance Matrix: (Units=1/GPa)
#
#
# Indices 1 2 3 4 5 6 
#
# 1 0.009063 -0.005293 -0.000120 0.000000 0.000000 0.000000
# 2 -0.005293 0.015906 -0.007570 0.000000 0.000000 0.000000
# 3 -0.000120 -0.007570 0.023678 0.000000 0.000000 0.000000
# 4 0.000000 0.000000 0.000000 0.027597 0.000000 0.000000
# 5 0.000000 0.000000 0.000000 0.000000 0.058662 0.000000
# 6 0.000000 0.000000 0.000000 0.000000 0.000000 -0.349731
#
#
# Mechanical properties :
#
#
# Convention : Reuss Voigt Hill
#
# Bulk Modulus (GPa) = 44.08701 56.27889 50.18295
# Shear Modulus (GPa) = -27.57861 22.47011 -2.55425
#
# Velocity S-wave (km/s) = -3.72313 3.36066 -1.13306
# Velocity P-wave (km/s) = 1.91754 6.58376 4.84886
#
# Compressibility (1/GPa) = 0.02268242
#
# Stress axis : x y z
#
# Youngs Moduli (GPa) = 110.33675 62.87011 42.23350
#
# Poissons Ratio (x) = 0.33275 0.00506
# Poissons Ratio (y) = 0.58397 0.31970
# Poissons Ratio (z) = 0.01321 0.47592
#
# Static dielectric constant tensor:
#      x y z
#    x 1.811760 0.000000 0.000000 
#    y 0.000000 1.678140 0.000000 
#    z 0.000000 0.000000 1.756600 
# 
# From -- ./inp_files/4915.got.cif
#   From: 2010.05.17/outbox.cif.g08.bks.cpg/sg36_3_cif.got.tgz:4915.got - 2010.06.03 17:41:39.
