data_PCOD9351560
_publ_section_title
;
Structure prediction by ZEFSAII (Michael W. Deem and Ramdas Pophale) SiO2 
 PCOD9351560
Probable space group: C M C 21
;
_chemical_formula_sum "Si O2"
_cell_formula_units_Z 64
_cell_length_a 14.258616
_cell_length_b 17.323941
_cell_length_c 13.624601
_cell_angle_alpha 90.000000
_cell_angle_beta 90.000000
_cell_angle_gamma 90.000000
_cell_volume 3365.486570
_symmetry_space_group_name_H-M "C M C 21"
_symmetry_group_IT_number 36
_symmetry_cell_setting 'orthorhombic'
loop_
_space_group_symop_operation_xyz
x,y,z
-x,-y,1/2+z
x,-y,1/2+z
-x,y,z
1/2+x,1/2+y,z
1/2-x,1/2-y,1/2+z
1/2+x,1/2-y,1/2+z
1/2-x,1/2+y,z
loop_
_atom_site_type_symbol
_atom_site_label
_atom_site_fract_x
_atom_site_fract_y
_atom_site_fract_z
Si Si1 0.107211 0.934293 0.474040
Si Si2 0.193755 0.454644 0.547387
Si Si3 0.610601 0.265189 0.513011
Si Si4 0.700308 0.110264 0.446482
Si Si5 0.888441 0.464928 0.757733
Si Si6 0.612444 0.127961 0.856748
Si Si7 0.112627 0.778350 0.735875
Si Si8 0.392964 0.587995 0.379376
O O1 0.192838 0.953472 0.546538
O O2 0.120662 0.844296 0.452765
O O3 0.000000 0.942287 0.513322
O O4 0.115401 0.994847 0.384085
O O5 0.164927 0.541780 0.516692
O O6 0.147488 0.440065 0.651413
O O7 0.160217 0.397949 0.459296
O O8 0.500000 0.249451 0.519277
O O9 0.658670 0.192455 0.466635
O O10 0.647607 0.275318 0.624462
O O11 0.669117 0.081126 0.339645
O O12 0.812606 0.114667 0.453266
O O13 0.872663 0.555985 0.782005
O O14 0.000000 0.451187 0.767876
O O15 0.500000 0.133628 0.873968
O O16 0.645526 0.208177 0.806534
O O17 0.127285 0.862715 0.782466
O O18 0.000000 0.768305 0.730962
O O19 0.500000 0.606215 0.407878
#
# Coordination Sequence:
#
# PCOD9351560 Si02
#       8
#     8   8   8   8   8   8   8   8
#     4   9  20  37  55  77 108 146 190 236 278 329
#     4  10  20  34  54  80 111 152 190 223 284 342
#     4  10  20  35  58  85 111 145 189 235 284 336
#     4  10  21  35  56  86 115 147 189 239 285 335
#     4  10  20  34  54  82 118 152 184 229 288 346
#     4   9  18  32  52  82 114 144 182 229 280 340
#     4   9  18  32  55  83 107 142 190 233 274 329
#     4   9  19  37  57  79 110 148 191 236 280 331
#
# _framework density 19.016566999999998
#
# number of rings (size 3 to 8) (size 9 to 14) (size 15 to 20)
#    0.000    2.500    0.000    1.500    3.500    2.500 
#    0.000    0.000    0.000    1.500    0.000    7.000 
#    0.000    0.000    0.000    0.000    0.000    0.000 
#
# Total GULP energy -178232.362964 kJ/mol
# GULP energy per Si atom -5569.761343 kJ/mol
# Density = 1.897328 g / cm^3
# Si number density = 19.016567 Si / 1000 Ang^3
#
#
#
# Elastic Constant Matrix: (Units=GPa)
#
#
# Indices 1 2 3 4 5 6 
#
# 1 70.7040 45.0028 18.9185 0.0000 0.0000 0.0000
# 2 45.0028 142.0911 51.9264 0.0000 0.0000 0.0000
# 3 18.9185 51.9264 70.0074 0.0000 0.0000 0.0000
# 4 0.0000 0.0000 0.0000 11.6396 0.0000 0.0000
# 5 0.0000 0.0000 0.0000 0.0000 10.0469 0.0000
# 6 0.0000 0.0000 0.0000 0.0000 0.0000 18.8277
#
#
#
# Elastic Compliance Matrix: (Units=1/GPa)
#
#
# Indices 1 2 3 4 5 6 
#
# 1 0.017752 -0.005308 -0.000860 0.000000 0.000000 0.000000
# 2 -0.005308 0.011242 -0.006904 0.000000 0.000000 0.000000
# 3 -0.000860 -0.006904 0.019638 0.000000 0.000000 0.000000
# 4 0.000000 0.000000 0.000000 0.085913 0.000000 0.000000
# 5 0.000000 0.000000 0.000000 0.000000 0.099533 0.000000
# 6 0.000000 0.000000 0.000000 0.000000 0.000000 0.053113
#
#
# Mechanical properties :
#
#
# Convention : Reuss Voigt Hill
#
# Bulk Modulus (GPa) = 44.46969 57.16641 50.81805
# Shear Modulus (GPa) = 15.58451 19.23318 17.40884
#
# Velocity S-wave (km/s) = 2.86584 3.18369 3.02893
# Velocity P-wave (km/s) = 5.86397 6.60614 6.24609
#
# Compressibility (1/GPa) = 0.02248723
#
# Stress axis : x y z
#
# Youngs Moduli (GPa) = 56.33100 88.95247 50.92289
#
# Poissons Ratio (x) = 0.47217 0.04380
# Poissons Ratio (y) = 0.29901 0.35157
# Poissons Ratio (z) = 0.04845 0.61413
#
# Static dielectric constant tensor:
#      x y z
#    x 1.694990 0.000000 0.000000 
#    y 0.000000 1.683420 0.000000 
#    z 0.000000 0.000000 1.649960 
# 
# From -- ./inp_files/8649.got.cif
#   From: 2010.05.17/outbox.cif.g08.bks.cpg/sg36_5_cif.got.tgz:8649.got - 2010.06.03 17:41:39.
