data_PCOD9351407
_publ_section_title
;
Structure prediction by ZEFSAII (Michael W. Deem and Ramdas Pophale) SiO2 
 PCOD9351407
Probable space group: C M C 21
;
_chemical_formula_sum "Si O2"
_cell_formula_units_Z 64
_cell_length_a 7.415116
_cell_length_b 19.989029
_cell_length_c 16.684305
_cell_angle_alpha 90.000000
_cell_angle_beta 90.000000
_cell_angle_gamma 90.000000
_cell_volume 2472.963850
_symmetry_space_group_name_H-M "C M C 21"
_symmetry_group_IT_number 36
_symmetry_cell_setting 'orthorhombic'
loop_
_space_group_symop_operation_xyz
x,y,z
-x,-y,1/2+z
x,-y,1/2+z
-x,y,z
1/2+x,1/2+y,z
1/2-x,1/2-y,1/2+z
1/2+x,1/2-y,1/2+z
1/2-x,1/2+y,z
loop_
_atom_site_type_symbol
_atom_site_label
_atom_site_fract_x
_atom_site_fract_y
_atom_site_fract_z
Si Si1 0.785721 0.590104 0.701650
Si Si2 0.706221 0.664362 0.537383
Si Si3 0.279411 0.805935 0.796045
Si Si4 0.711606 0.786814 0.621840
Si Si5 0.216721 0.906941 0.521680
Si Si6 0.781032 0.961000 0.952177
Si Si7 0.283301 0.672624 0.865312
Si Si8 0.291579 0.043435 0.275498
O O1 0.706465 0.625714 0.623250
O O2 0.756337 0.633093 0.782806
O O3 0.714805 0.514575 0.718784
O O4 0.000000 0.586179 0.688900
O O5 0.500000 0.673969 0.511270
O O6 0.791690 0.736004 0.556864
O O7 0.789232 0.612325 0.474851
O O8 0.500000 0.808740 0.799523
O O9 0.220493 0.775553 0.710579
O O10 0.221120 0.750024 0.859523
O O11 0.213297 0.882327 0.790249
O O12 0.500000 0.771498 0.624666
O O13 0.730676 0.863547 0.597695
O O14 0.283777 0.866615 0.443342
O O15 0.000000 0.907480 0.519393
O O16 0.277272 0.983202 0.515914
O O17 0.718187 0.985095 0.865738
O O18 0.000000 0.959152 0.951587
O O19 0.500000 0.674055 0.871199
O O20 0.500000 0.052593 0.252018
#
# Coordination Sequence:
#
# PCOD9351407 Si02
#       8
#     8   8   8   8   8   8   8   8
#     4  11  22  36  58  87 113 143 187 238 282 331
#     4  10  22  40  60  82 113 155 193 228 282 344
#     4   9  19  37  59  82 109 148 191 229 281 341
#     4  10  21  38  60  82 112 152 190 230 279 340
#     4  10  22  37  57  85 115 149 189 234 283 336
#     4  10  22  40  59  83 115 151 192 232 278 341
#     4  10  19  38  63  80 108 153 191 227 281 342
#     4  10  22  38  58  85 115 145 187 238 286 335
#
# _framework density 25.879878999999999
#
# number of rings (size 3 to 8) (size 9 to 14) (size 15 to 20)
#    0.000    2.000    2.500    0.375    3.500    2.500 
#    0.000    1.250    0.000    0.000    0.000    0.000 
#    0.000    0.000    0.000    0.000    0.000    0.000 
#
# Total GULP energy -178946.646591 kJ/mol
# GULP energy per Si atom -5592.082706 kJ/mol
# Density = 2.582098 g / cm^3
# Si number density = 25.879879 Si / 1000 Ang^3
#
#
#
# Elastic Constant Matrix: (Units=GPa)
#
#
# Indices 1 2 3 4 5 6 
#
# 1 100.7456 7.2013 -7.1942 0.0000 0.0000 0.0000
# 2 7.2013 128.6306 -15.1254 0.0000 0.0000 0.0000
# 3 -7.1942 -15.1254 51.6249 0.0000 0.0000 0.0000
# 4 0.0000 0.0000 0.0000 49.9010 0.0000 0.0000
# 5 0.0000 0.0000 0.0000 0.0000 11.0125 0.0000
# 6 0.0000 0.0000 0.0000 0.0000 0.0000 9.5307
#
#
#
# Elastic Compliance Matrix: (Units=1/GPa)
#
#
# Indices 1 2 3 4 5 6 
#
# 1 0.010047 -0.000412 0.001279 0.000000 0.000000 0.000000
# 2 -0.000412 0.008068 0.002307 0.000000 0.000000 0.000000
# 3 0.001279 0.002307 0.020225 0.000000 0.000000 0.000000
# 4 0.000000 0.000000 0.000000 0.020040 0.000000 0.000000
# 5 0.000000 0.000000 0.000000 0.000000 0.090806 0.000000
# 6 0.000000 0.000000 0.000000 0.000000 0.000000 0.104924
#
#
# Mechanical properties :
#
#
# Convention : Reuss Voigt Hill
#
# Bulk Modulus (GPa) = 22.37759 27.86273 25.12016
# Shear Modulus (GPa) = 19.03621 33.83014 26.43317
#
# Velocity S-wave (km/s) = 2.71506 3.61944 3.19937
# Velocity P-wave (km/s) = 4.30049 5.31570 4.83482
#
# Compressibility (1/GPa) = 0.04468757
#
# Stress axis : x y z
#
# Youngs Moduli (GPa) = 99.53418 123.93892 49.44485
#
# Poissons Ratio (x) = 0.05107 -0.06326
# Poissons Ratio (y) = 0.04101 -0.11405
# Poissons Ratio (z) = -0.12734 -0.28587
#
# Static dielectric constant tensor:
#      x y z
#    x 1.989990 0.000000 0.000000 
#    y 0.000000 2.080460 0.000000 
#    z 0.000000 0.000000 2.019170 
# 
# From -- ./inp_files/13864.got.cif
#   From: 2010.05.17/outbox.cif.g08.bks.cpg/sg36_7_cif.got.tgz:13864.got - 2010.06.03 17:41:39.
