data_PCOD9351119
_publ_section_title
;
Structure prediction by ZEFSAII (Michael W. Deem and Ramdas Pophale) SiO2 
 PCOD9351119
Probable space group: C M C 21
;
_chemical_formula_sum "Si O2"
_cell_formula_units_Z 64
_cell_length_a 8.289781
_cell_length_b 15.165956
_cell_length_c 24.008469
_cell_angle_alpha 90.000000
_cell_angle_beta 90.000000
_cell_angle_gamma 90.000000
_cell_volume 3018.403637
_symmetry_space_group_name_H-M "C M C 21"
_symmetry_group_IT_number 36
_symmetry_cell_setting 'orthorhombic'
loop_
_space_group_symop_operation_xyz
x,y,z
-x,-y,1/2+z
x,-y,1/2+z
-x,y,z
1/2+x,1/2+y,z
1/2-x,1/2-y,1/2+z
1/2+x,1/2-y,1/2+z
1/2-x,1/2+y,z
loop_
_atom_site_type_symbol
_atom_site_label
_atom_site_fract_x
_atom_site_fract_y
_atom_site_fract_z
Si Si1 0.811041 0.884579 0.536180
Si Si2 0.194698 0.688236 0.850158
Si Si3 0.809164 0.008406 0.370690
Si Si4 0.806267 0.963462 0.748074
Si Si5 0.697341 0.321896 0.657698
Si Si6 0.812004 0.234537 0.462214
Si Si7 0.693600 0.160036 0.725806
Si Si8 0.315856 0.942685 0.991137
O O1 0.753584 0.852794 0.596606
O O2 0.716747 0.829604 0.489509
O O3 0.000000 0.863633 0.530101
O O4 0.787566 0.988317 0.526429
O O5 0.281042 0.596246 0.863954
O O6 0.240891 0.757913 0.897623
O O7 0.228232 0.706875 0.785495
O O8 0.000000 0.675903 0.855216
O O9 0.721034 0.038836 0.426161
O O10 0.000000 0.026610 0.377074
O O11 0.749069 0.047738 0.311859
O O12 0.764904 0.062343 0.728306
O O13 0.000000 0.956214 0.750728
O O14 0.747010 0.891795 0.704149
O O15 0.500000 0.322636 0.658331
O O16 0.749043 0.224526 0.676775
O O17 0.721720 0.160287 0.497382
O O18 0.000000 0.211835 0.462889
O O19 0.500000 0.150824 0.722323
O O20 0.500000 0.961218 0.004179
#
# Coordination Sequence:
#
# PCOD9351119 Si02
#       8
#     8   8   8   8   8   8   8   8
#     4  11  23  42  63  87 120 159 202 249 296 350
#     4   9  18  33  58  86 120 155 189 235 294 357
#     4  10  19  33  59  88 121 156 193 242 299 354
#     4   9  19  36  58  86 119 154 192 238 290 347
#     4   9  20  38  62  86 114 155 197 237 288 351
#     4  11  23  39  61  90 119 157 199 244 299 357
#     4   9  18  35  58  85 117 152 189 234 289 350
#     4  12  25  40  59  86 120 160 203 249 299 354
#
# _framework density 21.203261000000001
#
# number of rings (size 3 to 8) (size 9 to 14) (size 15 to 20)
#    0.000    2.000    1.250    2.250    1.750    2.000 
#    0.000    5.625    0.000    0.000    0.000    0.000 
#    0.000    0.000    0.000    0.000    0.000    0.000 
#
# Total GULP energy -178741.003949 kJ/mol
# GULP energy per Si atom -5585.656373 kJ/mol
# Density = 2.115500 g / cm^3
# Si number density = 21.203261 Si / 1000 Ang^3
#
#
#
# Elastic Constant Matrix: (Units=GPa)
#
#
# Indices 1 2 3 4 5 6 
#
# 1 13.6580 -4.1994 4.1692 0.0000 0.0000 0.0000
# 2 -4.1994 35.5620 -14.2353 0.0000 0.0000 0.0000
# 3 4.1692 -14.2353 32.4129 0.0000 0.0000 0.0000
# 4 0.0000 0.0000 0.0000 25.4604 0.0000 0.0000
# 5 0.0000 0.0000 0.0000 0.0000 16.5177 0.0000
# 6 0.0000 0.0000 0.0000 0.0000 0.0000 22.0643
#
#
#
# Elastic Compliance Matrix: (Units=1/GPa)
#
#
# Indices 1 2 3 4 5 6 
#
# 1 0.077337 0.006249 -0.007203 0.000000 0.000000 0.000000
# 2 0.006249 0.034623 0.014402 0.000000 0.000000 0.000000
# 3 -0.007203 0.014402 0.038104 0.000000 0.000000 0.000000
# 4 0.000000 0.000000 0.000000 0.039277 0.000000 0.000000
# 5 0.000000 0.000000 0.000000 0.000000 0.060541 0.000000
# 6 0.000000 0.000000 0.000000 0.000000 0.000000 0.045322
#
#
# Mechanical properties :
#
#
# Convention : Reuss Voigt Hill
#
# Bulk Modulus (GPa) = 5.65098 5.90020 5.77559
# Shear Modulus (GPa) = 15.27676 19.20172 17.23924
#
# Velocity S-wave (km/s) = 2.68711 3.01259 2.85449
# Velocity P-wave (km/s) = 3.50690 3.85871 3.68700
#
# Compressibility (1/GPa) = 0.17696030
#
# Stress axis : x y z
#
# Youngs Moduli (GPa) = 12.93035 28.88256 26.24417
#
# Poissons Ratio (x) = -0.18049 0.18904
# Poissons Ratio (y) = -0.08080 -0.37797
# Poissons Ratio (z) = 0.09314 -0.41597
#
# Static dielectric constant tensor:
#      x y z
#    x 1.726860 0.000000 0.000000 
#    y 0.000000 1.765680 0.000000 
#    z 0.000000 0.000000 1.768970 
# 
# From -- ./inp_files/16554.got.cif
#   From: 2010.05.17/outbox.cif.g08.bks.cpg/sg36_9_cif.got.tgz:16554.got - 2010.06.03 17:41:39.
