data_PCOD9351949
_publ_section_title
;
Structure prediction by ZEFSAII (Michael W. Deem and Ramdas Pophale) SiO2 
 PCOD9351949
Probable space group: C M C 21
;
_chemical_formula_sum "Si O2"
_cell_formula_units_Z 56
_cell_length_a 10.614462
_cell_length_b 13.924317
_cell_length_c 18.428246
_cell_angle_alpha 90.000000
_cell_angle_beta 90.000000
_cell_angle_gamma 90.000000
_cell_volume 2723.678794
_symmetry_space_group_name_H-M "C M C 21"
_symmetry_group_IT_number 36
_symmetry_cell_setting 'orthorhombic'
loop_
_space_group_symop_operation_xyz
x,y,z
-x,-y,1/2+z
x,-y,1/2+z
-x,y,z
1/2+x,1/2+y,z
1/2-x,1/2-y,1/2+z
1/2+x,1/2-y,1/2+z
1/2-x,1/2+y,z
loop_
_atom_site_type_symbol
_atom_site_label
_atom_site_fract_x
_atom_site_fract_y
_atom_site_fract_z
Si Si1 0.636880 0.615709 0.526890
Si Si2 0.749537 0.737506 0.646992
Si Si3 0.135386 0.550454 0.705211
Si Si4 0.356142 0.071608 0.421848
Si Si5 0.141571 0.634148 0.866749
Si Si6 0.646160 0.769865 0.809764
Si Si7 0.641538 0.559363 0.136072
O O1 0.500000 0.623683 0.491210
O O2 0.651747 0.697112 0.588393
O O3 0.753194 0.618946 0.472991
O O4 0.642712 0.513225 0.568323
O O5 0.843414 0.647813 0.659179
O O6 0.688476 0.759695 0.725971
O O7 0.819245 0.832231 0.619699
O O8 0.134163 0.586266 0.787200
O O9 0.253527 0.483541 0.689399
O O10 0.000000 0.505143 0.687297
O O11 0.500000 0.087206 0.446976
O O12 0.347573 0.123129 0.343173
O O13 0.334320 0.957285 0.417898
O O14 0.256109 0.707930 0.858334
O O15 0.000000 0.673722 0.882143
O O16 0.500000 0.738101 0.816106
O O17 0.500000 0.557246 0.167025
#
# Coordination Sequence:
#
# PCOD9351949 Si02
#       7
#     8   8   8   8   8   8   8
#     4  10  23  40  57  83 117 152 194 244 292 345
#     4  10  20  37  61  87 117 150 191 240 293 347
#     4   9  18  33  55  83 114 144 179 226 279 336
#     4  10  22  40  59  81 115 157 196 237 291 353
#     4   9  19  36  56  81 113 148 186 229 280 339
#     4  10  21  38  62  90 116 149 194 243 293 343
#     4  10  21  36  56  81 110 146 188 231 280 337
#
# _framework density 20.560428000000002
#
# number of rings (size 3 to 8) (size 9 to 14) (size 15 to 20)
#    0.000    2.286    0.000    1.714    0.000   11.429 
#    0.000    5.714    0.000    0.000    0.000    0.000 
#    0.000    0.000    0.000    0.000    0.000    0.000 
#
# Total GULP energy -156178.218299 kJ/mol
# GULP energy per Si atom -5577.793511 kJ/mol
# Density = 2.051363 g / cm^3
# Si number density = 20.560428 Si / 1000 Ang^3
#
#
#
# Elastic Constant Matrix: (Units=GPa)
#
#
# Indices 1 2 3 4 5 6 
#
# 1 162.6901 56.0973 33.5498 0.0000 0.0000 0.0000
# 2 56.0973 99.9599 10.6157 0.0000 0.0000 0.0000
# 3 33.5498 10.6157 40.6515 0.0000 0.0000 0.0000
# 4 0.0000 0.0000 0.0000 17.1157 0.0000 0.0000
# 5 0.0000 0.0000 0.0000 0.0000 19.1216 0.0000
# 6 0.0000 0.0000 0.0000 0.0000 0.0000 8.6528
#
#
#
# Elastic Compliance Matrix: (Units=1/GPa)
#
#
# Indices 1 2 3 4 5 6 
#
# 1 0.008933 -0.004351 -0.006236 0.000000 0.000000 0.000000
# 2 -0.004351 0.012408 0.000350 0.000000 0.000000 0.000000
# 3 -0.006236 0.000350 0.029655 0.000000 0.000000 0.000000
# 4 0.000000 0.000000 0.000000 0.058426 0.000000 0.000000
# 5 0.000000 0.000000 0.000000 0.000000 0.052297 0.000000
# 6 0.000000 0.000000 0.000000 0.000000 0.000000 0.115570
#
#
# Mechanical properties :
#
#
# Convention : Reuss Voigt Hill
#
# Bulk Modulus (GPa) = 32.76249 55.98079 44.37164
# Shear Modulus (GPa) = 16.23717 22.51394 19.37556
#
# Velocity S-wave (km/s) = 2.81326 3.31269 3.07314
# Velocity P-wave (km/s) = 5.14994 6.47444 5.84980
#
# Compressibility (1/GPa) = 0.03052271
#
# Stress axis : x y z
#
# Youngs Moduli (GPa) = 111.94593 80.59005 33.72168
#
# Poissons Ratio (x) = 0.35063 0.21029
# Poissons Ratio (y) = 0.48706 -0.01182
# Poissons Ratio (z) = 0.69811 -0.02824
#
# Static dielectric constant tensor:
#      x y z
#    x 1.736950 0.000000 0.000000 
#    y 0.000000 1.737420 0.000000 
#    z 0.000000 0.000000 1.733510 
# 
# From -- ./inp_files/15480.got.cif
#   From: 2010.05.17/outbox.cif.g08.bks.cpg/sg36_8_cif.got.tgz:15480.got - 2010.06.03 17:41:39.
