data_PCOD9351591
_publ_section_title
;
Structure prediction by ZEFSAII (Michael W. Deem and Ramdas Pophale) SiO2 
 PCOD9351591
Probable space group: C M C 21
;
_chemical_formula_sum "Si O2"
_cell_formula_units_Z 64
_cell_length_a 33.474569
_cell_length_b 10.992757
_cell_length_c 8.730888
_cell_angle_alpha 90.000000
_cell_angle_beta 90.000000
_cell_angle_gamma 90.000000
_cell_volume 3212.772982
_symmetry_space_group_name_H-M "C M C 21"
_symmetry_group_IT_number 36
_symmetry_cell_setting 'orthorhombic'
loop_
_space_group_symop_operation_xyz
x,y,z
-x,-y,1/2+z
x,-y,1/2+z
-x,y,z
1/2+x,1/2+y,z
1/2-x,1/2-y,1/2+z
1/2+x,1/2-y,1/2+z
1/2-x,1/2+y,z
loop_
_atom_site_type_symbol
_atom_site_label
_atom_site_fract_x
_atom_site_fract_y
_atom_site_fract_z
Si Si1 0.624766 0.143559 0.724960
Si Si2 0.316144 0.680396 0.098796
Si Si3 0.682885 0.087619 0.219212
Si Si4 0.730366 0.098544 0.532625
Si Si5 0.454374 0.183054 0.133495
Si Si6 0.184237 0.960510 0.912290
Si Si7 0.870627 0.223587 0.551694
Si Si8 0.455431 0.949348 0.306807
O O1 0.643776 0.239288 0.608788
O O2 0.578313 0.118091 0.710079
O O3 0.648954 0.017644 0.718246
O O4 0.630748 0.198781 0.894021
O O5 0.316726 0.584425 0.238119
O O6 0.281617 0.780773 0.126236
O O7 0.312236 0.603400 0.944643
O O8 0.702230 0.104893 0.383957
O O9 0.661128 0.207170 0.158375
O O10 0.717742 0.026068 0.116721
O O11 0.776007 0.097101 0.485549
O O12 0.500000 0.233933 0.136152
O O13 0.415729 0.269315 0.116708
O O14 0.449401 0.092684 0.277693
O O15 0.452420 0.096243 0.981690
O O16 0.145848 0.907026 0.000937
O O17 0.500000 0.920952 0.252633
#
# Coordination Sequence:
#
# PCOD9351591 Si02
#       8
#     8   8   8   8   8   8   8   8
#     4   9  18  36  54  80 115 143 188 226 280 344
#     4  10  25  41  57  81 107 152 189 244 281 334
#     4  11  20  36  55  85 108 150 184 229 288 339
#     4  11  25  37  60  79 114 146 191 238 289 339
#     4   9  17  30  51  81 114 144 179 224 284 341
#     4  11  25  41  57  77 112 147 204 236 284 335
#     4  10  20  34  56  79 112 149 184 231 279 336
#     4   9  16  27  49  80 114 145 174 222 281 346
#
# _framework density 19.920487999999999
#
# number of rings (size 3 to 8) (size 9 to 14) (size 15 to 20)
#    0.000    2.000    2.500    0.750    5.250    0.000 
#    0.000    0.000    0.000    0.750    0.000    0.000 
#    0.000    0.000    0.000    0.000    0.000    0.000 
#
# Total GULP energy -178594.205612 kJ/mol
# GULP energy per Si atom -5581.068925 kJ/mol
# Density = 1.987515 g / cm^3
# Si number density = 19.920488 Si / 1000 Ang^3
#
#
#
# Elastic Constant Matrix: (Units=GPa)
#
#
# Indices 1 2 3 4 5 6 
#
# 1 84.9195 12.3475 20.6418 0.0000 0.0000 0.0000
# 2 12.3475 40.0907 11.6900 0.0000 0.0000 0.0000
# 3 20.6418 11.6900 38.5737 0.0000 0.0000 0.0000
# 4 0.0000 0.0000 0.0000 27.1477 0.0000 0.0000
# 5 0.0000 0.0000 0.0000 0.0000 13.5457 0.0000
# 6 0.0000 0.0000 0.0000 0.0000 0.0000 23.8392
#
#
#
# Elastic Compliance Matrix: (Units=1/GPa)
#
#
# Indices 1 2 3 4 5 6 
#
# 1 0.013725 -0.002288 -0.006651 0.000000 0.000000 0.000000
# 2 -0.002288 0.027743 -0.007183 0.000000 0.000000 0.000000
# 3 -0.006651 -0.007183 0.031661 0.000000 0.000000 0.000000
# 4 0.000000 0.000000 0.000000 0.036836 0.000000 0.000000
# 5 0.000000 0.000000 0.000000 0.000000 0.073824 0.000000
# 6 0.000000 0.000000 0.000000 0.000000 0.000000 0.041948
#
#
# Mechanical properties :
#
#
# Convention : Reuss Voigt Hill
#
# Bulk Modulus (GPa) = 24.45969 28.10471 26.28220
# Shear Modulus (GPa) = 18.40882 20.83349 19.62116
#
# Velocity S-wave (km/s) = 3.04322 3.23744 3.14183
# Velocity P-wave (km/s) = 4.96524 5.30224 5.13651
#
# Compressibility (1/GPa) = 0.04088359
#
# Stress axis : x y z
#
# Youngs Moduli (GPa) = 72.85810 36.04565 31.58491
#
# Poissons Ratio (x) = 0.08246 0.21009
# Poissons Ratio (y) = 0.16668 0.22688
# Poissons Ratio (z) = 0.48461 0.25893
#
# Static dielectric constant tensor:
#      x y z
#    x 1.715430 0.000000 0.000000 
#    y 0.000000 1.708560 0.000000 
#    z 0.000000 0.000000 1.738480 
# 
# From -- ./inp_files/6078.got.cif
#   From: 2010.05.17/outbox.cif.g08.bks.cpg/sg36_4_cif.got.tgz:6078.got - 2010.06.03 17:41:39.
