data_PCOD9351972
_publ_section_title
;
Structure prediction by ZEFSAII (Michael W. Deem and Ramdas Pophale) SiO2 
 PCOD9351972
Probable space group: C M C 21
;
_chemical_formula_sum "Si O2"
_cell_formula_units_Z 64
_cell_length_a 9.103462
_cell_length_b 32.717374
_cell_length_c 10.574445
_cell_angle_alpha 90.000000
_cell_angle_beta 90.000000
_cell_angle_gamma 90.000000
_cell_volume 3149.507196
_symmetry_space_group_name_H-M "C M C 21"
_symmetry_group_IT_number 36
_symmetry_cell_setting 'orthorhombic'
loop_
_space_group_symop_operation_xyz
x,y,z
-x,-y,1/2+z
x,-y,1/2+z
-x,y,z
1/2+x,1/2+y,z
1/2-x,1/2-y,1/2+z
1/2+x,1/2-y,1/2+z
1/2-x,1/2+y,z
loop_
_atom_site_type_symbol
_atom_site_label
_atom_site_fract_x
_atom_site_fract_y
_atom_site_fract_z
Si Si1 0.828424 0.960864 0.944260
Si Si2 0.324237 0.259785 0.687509
Si Si3 0.330584 0.167388 0.328166
Si Si4 0.677993 0.710157 0.911103
Si Si5 0.671886 0.373382 0.051294
Si Si6 0.839260 0.576146 0.231013
Si Si7 0.329145 0.622377 0.846017
Si Si8 0.665339 0.953937 0.447551
O O1 0.789971 0.947058 0.802182
O O2 0.000000 0.967455 0.964708
O O3 0.743698 0.002759 0.964268
O O4 0.783036 0.920645 0.024249
O O5 0.500000 0.254756 0.691670
O O6 0.272637 0.301693 0.754094
O O7 0.281710 0.264271 0.538265
O O8 0.247921 0.227210 0.781442
O O9 0.500000 0.182032 0.333228
O O10 0.269209 0.156751 0.467138
O O11 0.326684 0.124000 0.257281
O O12 0.500000 0.711111 0.900147
O O13 0.722038 0.662276 0.923971
O O14 0.500000 0.369919 0.012221
O O15 0.681557 0.365420 0.199179
O O16 0.000000 0.563168 0.283714
O O17 0.838050 0.566388 0.085132
O O18 0.500000 0.615313 0.877362
O O19 0.246628 0.579846 0.864170
O O20 0.500000 0.960282 0.400695
#
# Coordination Sequence:
#
# PCOD9351972 Si02
#       8
#     8   8   8   8   8   8   8   8
#     4  10  21  36  56  84 117 154 200 249 300 363
#     4  11  24  41  65  95 129 167 211 259 315 379
#     4  10  20  37  63  90 120 157 202 250 305 370
#     4  10  24  44  65  95 131 168 213 264 320 380
#     4   9  20  38  60  89 122 160 206 254 310 370
#     4   9  20  38  57  81 113 151 194 243 299 361
#     4  10  22  41  63  88 123 162 207 258 314 373
#     4  11  23  37  57  84 117 155 199 247 305 368
#
# _framework density 20.320639
#
# number of rings (size 3 to 8) (size 9 to 14) (size 15 to 20)
#    0.000    2.000    0.000    2.250    3.500    4.000 
#    0.000    0.000    0.000    0.000    0.000    0.000 
#    0.000    0.000    0.000    0.000    0.000    0.000 
#
# Total GULP energy -178589.680434 kJ/mol
# GULP energy per Si atom -5580.927514 kJ/mol
# Density = 2.027439 g / cm^3
# Si number density = 20.320639 Si / 1000 Ang^3
#
#
#
# Elastic Constant Matrix: (Units=GPa)
#
#
# Indices 1 2 3 4 5 6 
#
# 1 41.6775 19.0424 16.1018 0.0000 0.0000 0.0000
# 2 19.0424 52.2624 9.4369 0.0000 0.0000 0.0000
# 3 16.1018 9.4369 48.0308 0.0000 0.0000 0.0000
# 4 0.0000 0.0000 0.0000 4.8903 0.0000 0.0000
# 5 0.0000 0.0000 0.0000 0.0000 27.4952 0.0000
# 6 0.0000 0.0000 0.0000 0.0000 0.0000 14.7228
#
#
#
# Elastic Compliance Matrix: (Units=1/GPa)
#
#
# Indices 1 2 3 4 5 6 
#
# 1 0.031972 -0.010071 -0.008739 0.000000 0.000000 0.000000
# 2 -0.010071 0.023011 -0.001145 0.000000 0.000000 0.000000
# 3 -0.008739 -0.001145 0.023975 0.000000 0.000000 0.000000
# 4 0.000000 0.000000 0.000000 0.204487 0.000000 0.000000
# 5 0.000000 0.000000 0.000000 0.000000 0.036370 0.000000
# 6 0.000000 0.000000 0.000000 0.000000 0.000000 0.067922
#
#
# Mechanical properties :
#
#
# Convention : Reuss Voigt Hill
#
# Bulk Modulus (GPa) = 25.61074 25.68145 25.64609
# Shear Modulus (GPa) = 11.34656 15.91429 13.63043
#
# Velocity S-wave (km/s) = 2.36556 2.80153 2.59273
# Velocity P-wave (km/s) = 4.48239 4.80940 4.64877
#
# Compressibility (1/GPa) = 0.03904612
#
# Stress axis : x y z
#
# Youngs Moduli (GPa) = 31.27765 43.45840 41.71065
#
# Poissons Ratio (x) = 0.43768 0.36453
# Poissons Ratio (y) = 0.31500 0.04775
# Poissons Ratio (z) = 0.27335 0.04975
#
# Static dielectric constant tensor:
#      x y z
#    x 1.722890 0.000000 0.000000 
#    y 0.000000 1.745000 0.000000 
#    z 0.000000 0.000000 1.710770 
# 
# From -- ./inp_files/7252.got.cif
#   From: 2010.05.17/outbox.cif.g08.bks.cpg/sg36_4_cif.got.tgz:7252.got - 2010.06.03 17:41:39.
