data_PCOD9351962
_publ_section_title
;
Structure prediction by ZEFSAII (Michael W. Deem and Ramdas Pophale) SiO2 
 PCOD9351962
Probable space group: C M C 21
;
_chemical_formula_sum "Si O2"
_cell_formula_units_Z 64
_cell_length_a 8.809944
_cell_length_b 29.850040
_cell_length_c 12.344483
_cell_angle_alpha 90.000000
_cell_angle_beta 90.000000
_cell_angle_gamma 90.000000
_cell_volume 3246.317338
_symmetry_space_group_name_H-M "C M C 21"
_symmetry_group_IT_number 36
_symmetry_cell_setting 'orthorhombic'
loop_
_space_group_symop_operation_xyz
x,y,z
-x,-y,1/2+z
x,-y,1/2+z
-x,y,z
1/2+x,1/2+y,z
1/2-x,1/2-y,1/2+z
1/2+x,1/2-y,1/2+z
1/2-x,1/2+y,z
loop_
_atom_site_type_symbol
_atom_site_label
_atom_site_fract_x
_atom_site_fract_y
_atom_site_fract_z
Si Si1 0.315940 0.082779 0.388270
Si Si2 0.680994 0.566826 0.617842
Si Si3 0.183315 0.630772 0.784812
Si Si4 0.822668 0.084464 0.994525
Si Si5 0.323633 0.816456 0.847263
Si Si6 0.318145 0.975634 0.675047
Si Si7 0.171263 0.335217 0.598509
Si Si8 0.325753 0.777116 0.387075
O O1 0.500000 0.081952 0.397232
O O2 0.242372 0.062581 0.495628
O O3 0.264021 0.134710 0.381745
O O4 0.278837 0.056098 0.277650
O O5 0.500000 0.568365 0.619911
O O6 0.750995 0.610824 0.674546
O O7 0.742278 0.524108 0.684238
O O8 0.234263 0.681777 0.812464
O O9 0.000000 0.630008 0.785016
O O10 0.243342 0.599172 0.882563
O O11 0.742442 0.045616 0.062989
O O12 0.795129 0.127884 0.070357
O O13 0.000000 0.075292 0.977835
O O14 0.500000 0.815884 0.878085
O O15 0.312062 0.816295 0.717296
O O16 0.251433 0.770740 0.886799
O O17 0.500000 0.979771 0.671254
O O18 0.178326 0.297659 0.507266
O O19 0.000000 0.356204 0.591757
O O20 0.500000 0.770437 0.354448
#
# Coordination Sequence:
#
# PCOD9351962 Si02
#       8
#     8   8   8   8   8   8   8   8
#     4  10  23  44  67  92 124 168 215 254 311 389
#     4  12  27  43  63  95 133 165 208 269 323 369
#     4  10  22  43  65  87 124 171 215 253 308 385
#     4  11  21  35  61  94 122 151 200 266 317 359
#     4  10  20  37  62  89 121 160 210 261 309 374
#     4  11  23  43  68  90 122 168 213 251 308 385
#     4   9  18  37  57  80 115 161 209 253 307 375
#     4   9  20  36  59  89 121 160 210 261 315 374
#
# _framework density 19.714645999999998
#
# number of rings (size 3 to 8) (size 9 to 14) (size 15 to 20)
#    0.000    1.750    1.250    3.750    1.750    5.500 
#    0.000    2.500    0.000    0.000    0.000    0.000 
#    0.000    0.000    0.000    0.000    0.000    0.000 
#
# Total GULP energy -178655.062449 kJ/mol
# GULP energy per Si atom -5582.970702 kJ/mol
# Density = 1.966977 g / cm^3
# Si number density = 19.714646 Si / 1000 Ang^3
#
#
#
# Elastic Constant Matrix: (Units=GPa)
#
#
# Indices 1 2 3 4 5 6 
#
# 1 66.2200 32.3633 24.8891 0.0000 0.0000 0.0000
# 2 32.3633 111.3682 23.9743 0.0000 0.0000 0.0000
# 3 24.8891 23.9743 48.9293 0.0000 0.0000 0.0000
# 4 0.0000 0.0000 0.0000 1.2464 0.0000 0.0000
# 5 0.0000 0.0000 0.0000 0.0000 14.1612 0.0000
# 6 0.0000 0.0000 0.0000 0.0000 0.0000 34.0670
#
#
#
# Elastic Compliance Matrix: (Units=1/GPa)
#
#
# Indices 1 2 3 4 5 6 
#
# 1 0.020212 -0.004092 -0.008276 0.000000 0.000000 0.000000
# 2 -0.004092 0.010866 -0.003243 0.000000 0.000000 0.000000
# 3 -0.008276 -0.003243 0.026237 0.000000 0.000000 0.000000
# 4 0.000000 0.000000 0.000000 0.802321 0.000000 0.000000
# 5 0.000000 0.000000 0.000000 0.000000 0.070615 0.000000
# 6 0.000000 0.000000 0.000000 0.000000 0.000000 0.029354
#
#
# Mechanical properties :
#
#
# Convention : Reuss Voigt Hill
#
# Bulk Modulus (GPa) = 38.32499 43.21899 40.77199
# Shear Modulus (GPa) = 5.00238 19.58097 12.29168
#
# Velocity S-wave (km/s) = 1.59465 3.15496 2.49967
# Velocity P-wave (km/s) = 4.78253 5.93646 5.39046
#
# Compressibility (1/GPa) = 0.02609263
#
# Stress axis : x y z
#
# Youngs Moduli (GPa) = 49.47655 92.02686 38.11478
#
# Poissons Ratio (x) = 0.37656 0.31545
# Poissons Ratio (y) = 0.20245 0.12360
# Poissons Ratio (z) = 0.40948 0.29844
#
# Static dielectric constant tensor:
#      x y z
#    x 1.684390 0.000000 0.000000 
#    y 0.000000 1.716270 0.000000 
#    z 0.000000 0.000000 1.690190 
# 
# From -- ./inp_files/7272.got.cif
#   From: 2010.05.17/outbox.cif.g08.bks.cpg/sg36_4_cif.got.tgz:7272.got - 2010.06.03 17:41:39.
