data_PCOD9351700
_publ_section_title
;
Structure prediction by ZEFSAII (Michael W. Deem and Ramdas Pophale) SiO2 
 PCOD9351700
Probable space group: C M C 21
;
_chemical_formula_sum "Si O2"
_cell_formula_units_Z 64
_cell_length_a 8.870813
_cell_length_b 20.488543
_cell_length_c 20.199908
_cell_angle_alpha 90.000000
_cell_angle_beta 90.000000
_cell_angle_gamma 90.000000
_cell_volume 3671.333958
_symmetry_space_group_name_H-M "C M C 21"
_symmetry_group_IT_number 36
_symmetry_cell_setting 'orthorhombic'
loop_
_space_group_symop_operation_xyz
x,y,z
-x,-y,1/2+z
x,-y,1/2+z
-x,y,z
1/2+x,1/2+y,z
1/2-x,1/2-y,1/2+z
1/2+x,1/2-y,1/2+z
1/2-x,1/2+y,z
loop_
_atom_site_type_symbol
_atom_site_label
_atom_site_fract_x
_atom_site_fract_y
_atom_site_fract_z
Si Si1 0.681239 0.723461 0.349480
Si Si2 0.679743 0.772747 0.201429
Si Si3 0.179550 0.910330 0.219928
Si Si4 0.819051 0.661478 0.950434
Si Si5 0.820343 0.953862 0.370247
Si Si6 0.679653 0.913409 0.832571
Si Si7 0.680155 0.166833 0.104056
Si Si8 0.680760 0.444375 0.689328
O O1 0.500000 0.714383 0.351804
O O2 0.720185 0.748688 0.275698
O O3 0.723265 0.778357 0.402829
O O4 0.761788 0.654810 0.361145
O O5 0.500000 0.768029 0.194890
O O6 0.733127 0.847245 0.195190
O O7 0.757094 0.725728 0.148405
O O8 0.214220 0.923413 0.297535
O O9 0.000000 0.899005 0.214530
O O10 0.215540 0.978622 0.183778
O O11 0.738542 0.596623 0.924240
O O12 0.000000 0.652663 0.944387
O O13 0.783536 0.675228 0.026784
O O14 0.000000 0.962596 0.373910
O O15 0.740323 0.023915 0.372225
O O16 0.500000 0.914625 0.828566
O O17 0.749813 0.920305 0.758889
O O18 0.500000 0.163498 0.111354
O O19 0.752927 0.100587 0.132209
O O20 0.500000 0.437342 0.693194
#
# Coordination Sequence:
#
# PCOD9351700 Si02
#       8
#     8   8   8   8   8   8   8   8
#     4  10  20  36  57  83 115 149 189 237 285 336
#     4  11  21  34  58  85 114 149 187 236 285 336
#     4   9  19  34  55  83 113 141 181 232 279 329
#     4  10  22  40  59  82 114 152 192 235 286 344
#     4  10  20  35  57  84 114 147 184 232 284 339
#     4  11  21  33  56  86 115 145 185 236 283 332
#     4  11  23  38  58  83 115 153 191 234 286 344
#     4  10  20  36  56  82 114 148 187 232 282 338
#
# _framework density 17.432355999999999
#
# number of rings (size 3 to 8) (size 9 to 14) (size 15 to 20)
#    0.000    1.750    2.500    3.375    0.000    4.500 
#    0.000    1.250    0.000    1.500    0.000    0.000 
#    0.000    0.000    0.000    0.000    0.000    0.000 
#
# Total GULP energy -178720.543930 kJ/mol
# GULP energy per Si atom -5585.016998 kJ/mol
# Density = 1.739268 g / cm^3
# Si number density = 17.432356 Si / 1000 Ang^3
#
#
#
# Elastic Constant Matrix: (Units=GPa)
#
#
# Indices 1 2 3 4 5 6 
#
# 1 63.1902 67.8013 54.5456 0.0000 0.0000 0.0000
# 2 67.8013 156.0590 76.2345 0.0000 0.0000 0.0000
# 3 54.5456 76.2345 106.6984 0.0000 0.0000 0.0000
# 4 0.0000 0.0000 0.0000 25.9443 0.0000 0.0000
# 5 0.0000 0.0000 0.0000 0.0000 22.3364 0.0000
# 6 0.0000 0.0000 0.0000 0.0000 0.0000 36.0101
#
#
#
# Elastic Compliance Matrix: (Units=1/GPa)
#
#
# Indices 1 2 3 4 5 6 
#
# 1 0.036867 -0.010462 -0.011372 0.000000 0.000000 0.000000
# 2 -0.010462 0.012812 -0.003806 0.000000 0.000000 0.000000
# 3 -0.011372 -0.003806 0.017905 0.000000 0.000000 0.000000
# 4 0.000000 0.000000 0.000000 0.038544 0.000000 0.000000
# 5 0.000000 0.000000 0.000000 0.000000 0.044770 0.000000
# 6 0.000000 0.000000 0.000000 0.000000 0.000000 0.027770
#
#
# Mechanical properties :
#
#
# Convention : Reuss Voigt Hill
#
# Bulk Modulus (GPa) = 61.33257 80.34558 70.83908
# Shear Modulus (GPa) = 21.24201 25.34925 23.29563
#
# Velocity S-wave (km/s) = 3.49455 3.81747 3.65957
# Velocity P-wave (km/s) = 7.17928 8.10066 7.65385
#
# Compressibility (1/GPa) = 0.01630455
#
# Stress axis : x y z
#
# Youngs Moduli (GPa) = 27.12461 78.04972 55.85061
#
# Poissons Ratio (x) = 0.81656 0.63512
# Poissons Ratio (y) = 0.28378 0.21256
# Poissons Ratio (z) = 0.30846 0.29705
#
# Static dielectric constant tensor:
#      x y z
#    x 1.580330 0.000000 0.000000 
#    y 0.000000 1.585030 0.000000 
#    z 0.000000 0.000000 1.574400 
# 
# From -- ./inp_files/13807.got.cif
#   From: 2010.05.17/outbox.cif.g08.bks.cpg/sg36_7_cif.got.tgz:13807.got - 2010.06.03 17:41:39.
