data_PCOD9351610
_publ_section_title
;
Structure prediction by ZEFSAII (Michael W. Deem and Ramdas Pophale) SiO2 
 PCOD9351610
Probable space group: C M C 21
;
_chemical_formula_sum "Si O2"
_cell_formula_units_Z 52
_cell_length_a 21.718120
_cell_length_b 18.827020
_cell_length_c 5.049475
_cell_angle_alpha 90.000000
_cell_angle_beta 90.000000
_cell_angle_gamma 90.000000
_cell_volume 2064.667106
_symmetry_space_group_name_H-M "C M C 21"
_symmetry_group_IT_number 36
_symmetry_cell_setting 'orthorhombic'
loop_
_space_group_symop_operation_xyz
x,y,z
-x,-y,1/2+z
x,-y,1/2+z
-x,y,z
1/2+x,1/2+y,z
1/2-x,1/2-y,1/2+z
1/2+x,1/2-y,1/2+z
1/2-x,1/2+y,z
loop_
_atom_site_type_symbol
_atom_site_label
_atom_site_fract_x
_atom_site_fract_y
_atom_site_fract_z
Si Si1 0.634537 0.667264 0.366170
Si Si2 0.926094 0.547075 0.677985
Si Si3 0.000000 0.292507 0.800228
Si Si4 0.863173 0.050271 0.757122
Si Si5 0.500000 0.455719 0.201887
Si Si6 0.121957 0.667656 0.034415
Si Si7 0.000000 0.806545 0.798618
Si Si8 0.748155 0.700639 0.068856
O O1 0.662922 0.616670 0.591481
O O2 0.628252 0.749142 0.459598
O O3 0.564680 0.653042 0.271770
O O4 0.683019 0.664813 0.128314
O O5 0.910793 0.485894 0.894395
O O6 0.893719 0.617588 0.786769
O O7 0.000000 0.559109 0.688143
O O8 0.937346 0.335003 0.729589
O O9 0.000000 0.227189 0.592547
O O10 0.000000 0.258523 0.089591
O O11 0.853332 0.014534 0.043522
O O12 0.934445 0.076511 0.761331
O O13 0.500000 0.477785 0.898605
O O14 0.191817 0.652242 0.125097
O O15 0.750508 0.765145 0.279903
#
# Coordination Sequence:
#
# PCOD9351610 Si02
#       8
#     8   8   4   8   4   8   4   8
#     4  10  22  40  62  91 121 162 208 262 306 364
#     4  10  22  40  62  92 129 165 200 256 325 387
#     4  10  20  34  57  90 116 145 193 254 295 348
#     4  10  21  36  55  80 115 155 194 242 298 350
#     4   8  15  30  49  70 102 144 180 216 275 336
#     4  10  21  41  64  92 122 163 208 256 310 384
#     4  10  21  34  56  88 118 145 199 254 296 344
#     4  10  22  39  60  88 124 161 201 256 320 371
#
# _framework density 25.185659000000001
#
# number of rings (size 3 to 8) (size 9 to 14) (size 15 to 20)
#    0.000    2.154    0.769    1.385    0.000    9.846 
#    0.000    6.154    0.000    0.000    0.000    0.000 
#    0.000    0.000    0.000    0.000    0.000    0.000 
#
# Total GULP energy -145248.947432 kJ/mol
# GULP energy per Si atom -5586.497978 kJ/mol
# Density = 2.512834 g / cm^3
# Si number density = 25.185659 Si / 1000 Ang^3
#
#
#
# Elastic Constant Matrix: (Units=GPa)
#
#
# Indices 1 2 3 4 5 6 
#
# 1 132.0375 2.8066 12.1392 0.0000 0.0000 0.0000
# 2 2.8066 98.5148 35.3900 0.0000 0.0000 0.0000
# 3 12.1392 35.3900 84.6964 0.0000 0.0000 0.0000
# 4 0.0000 0.0000 0.0000 41.3655 0.0000 0.0000
# 5 0.0000 0.0000 0.0000 0.0000 9.2152 0.0000
# 6 0.0000 0.0000 0.0000 0.0000 0.0000 9.7644
#
#
#
# Elastic Compliance Matrix: (Units=1/GPa)
#
#
# Indices 1 2 3 4 5 6 
#
# 1 0.007678 0.000208 -0.001187 0.000000 0.000000 0.000000
# 2 0.000208 0.011949 -0.005023 0.000000 0.000000 0.000000
# 3 -0.001187 -0.005023 0.014076 0.000000 0.000000 0.000000
# 4 0.000000 0.000000 0.000000 0.024175 0.000000 0.000000
# 5 0.000000 0.000000 0.000000 0.000000 0.108516 0.000000
# 6 0.000000 0.000000 0.000000 0.000000 0.000000 0.102412
#
#
# Mechanical properties :
#
#
# Convention : Reuss Voigt Hill
#
# Bulk Modulus (GPa) = 46.08548 46.21336 46.14942
# Shear Modulus (GPa) = 17.35846 29.72989 23.54418
#
# Velocity S-wave (km/s) = 2.62815 3.43946 3.06081
# Velocity P-wave (km/s) = 5.24858 5.84484 5.55471
#
# Compressibility (1/GPa) = 0.02169881
#
# Stress axis : x y z
#
# Youngs Moduli (GPa) = 130.23630 83.68785 71.04417
#
# Poissons Ratio (x) = -0.01739 0.08435
# Poissons Ratio (y) = -0.02706 0.35683
# Poissons Ratio (z) = 0.15463 0.42034
#
# Static dielectric constant tensor:
#      x y z
#    x 2.074630 0.000000 0.000000 
#    y 0.000000 2.078410 0.000000 
#    z 0.000000 0.000000 2.012370 
# 
# From -- ./inp_files/1393.got.cif
#   From: 2010.05.17/outbox.cif.g08.bks.cpg/sg36_1_cif.got.tgz:1393.got - 2010.06.03 17:41:39.
