data_PCOD9351814
_publ_section_title
;
Structure prediction by ZEFSAII (Michael W. Deem and Ramdas Pophale) SiO2 
 PCOD9351814
Probable space group: C M C 21
;
_chemical_formula_sum "Si O2"
_cell_formula_units_Z 64
_cell_length_a 7.755598
_cell_length_b 33.461930
_cell_length_c 10.944824
_cell_angle_alpha 90.000000
_cell_angle_beta 90.000000
_cell_angle_gamma 90.000000
_cell_volume 2840.370926
_symmetry_space_group_name_H-M "C M C 21"
_symmetry_group_IT_number 36
_symmetry_cell_setting 'orthorhombic'
loop_
_space_group_symop_operation_xyz
x,y,z
-x,-y,1/2+z
x,-y,1/2+z
-x,y,z
1/2+x,1/2+y,z
1/2-x,1/2-y,1/2+z
1/2+x,1/2-y,1/2+z
1/2-x,1/2+y,z
loop_
_atom_site_type_symbol
_atom_site_label
_atom_site_fract_x
_atom_site_fract_y
_atom_site_fract_z
Si Si1 0.702026 0.960180 0.959770
Si Si2 0.295126 0.261809 0.679615
Si Si3 0.194096 0.165898 0.334552
Si Si4 0.701424 0.715127 0.914014
Si Si5 0.795267 0.379669 0.074041
Si Si6 0.800223 0.588723 0.212652
Si Si7 0.209207 0.631360 0.840004
Si Si8 0.709740 0.950157 0.459555
O O1 0.500000 0.964770 0.997164
O O2 0.705557 0.941530 0.825315
O O3 0.776561 0.004618 0.951906
O O4 0.776449 0.923953 0.041743
O O5 0.500000 0.268426 0.663279
O O6 0.220309 0.298885 0.757869
O O7 0.229595 0.262887 0.538251
O O8 0.278218 0.226878 0.780908
O O9 0.273321 0.150078 0.460397
O O10 0.194680 0.127476 0.247374
O O11 0.000000 0.178417 0.364691
O O12 0.500000 0.724499 0.904061
O O13 0.725495 0.667240 0.925041
O O14 0.730162 0.362436 0.200928
O O15 0.000000 0.385187 0.088510
O O16 0.000000 0.601554 0.197965
O O17 0.746396 0.566134 0.092669
O O18 0.264342 0.586195 0.872795
O O19 0.000000 0.632899 0.847756
O O20 0.500000 0.952403 0.446226
#
# Coordination Sequence:
#
# PCOD9351814 Si02
#       8
#     8   8   8   8   8   8   8   8
#     4   8  15  27  46  77 110 142 187 237 280 330
#     4  10  24  44  64  91 122 153 196 247 298 355
#     4  10  20  36  59  81 109 146 186 233 287 348
#     4  11  25  43  65  91 121 158 199 244 300 361
#     4   9  19  34  54  83 118 152 190 241 291 342
#     4   9  17  30  50  77 107 139 183 231 277 338
#     4  10  21  36  56  84 121 157 194 243 297 350
#     4   9  17  28  50  80 110 147 187 232 286 336
#
# _framework density 22.532267000000001
#
# number of rings (size 3 to 8) (size 9 to 14) (size 15 to 20)
#    0.000    2.500    0.000    2.250    3.500    2.500 
#    0.000    0.000    0.000    6.000    0.000    0.000 
#    0.000    0.000    0.000    0.000    0.000    0.000 
#
# Total GULP energy -178375.133112 kJ/mol
# GULP energy per Si atom -5574.222910 kJ/mol
# Density = 2.248098 g / cm^3
# Si number density = 22.532267 Si / 1000 Ang^3
#
#
#
# Elastic Constant Matrix: (Units=GPa)
#
#
# Indices 1 2 3 4 5 6 
#
# 1 27.6606 -0.2981 11.0323 0.0000 0.0000 0.0000
# 2 -0.2981 84.2305 39.2365 0.0000 0.0000 0.0000
# 3 11.0323 39.2365 88.0125 0.0000 0.0000 0.0000
# 4 0.0000 0.0000 0.0000 -24.2659 0.0000 0.0000
# 5 0.0000 0.0000 0.0000 0.0000 6.8822 0.0000
# 6 0.0000 0.0000 0.0000 0.0000 0.0000 7.4746
#
#
#
# Elastic Compliance Matrix: (Units=1/GPa)
#
#
# Indices 1 2 3 4 5 6 
#
# 1 0.038655 0.003021 -0.006192 0.000000 0.000000 0.000000
# 2 0.003021 0.015220 -0.007164 0.000000 0.000000 0.000000
# 3 -0.006192 -0.007164 0.015332 0.000000 0.000000 0.000000
# 4 0.000000 0.000000 0.000000 -0.041210 0.000000 0.000000
# 5 0.000000 0.000000 0.000000 0.000000 0.145303 0.000000
# 6 0.000000 0.000000 0.000000 0.000000 0.000000 0.133786
#
#
# Mechanical properties :
#
#
# Convention : Reuss Voigt Hill
#
# Bulk Modulus (GPa) = 20.60282 33.31611 26.95947
# Shear Modulus (GPa) = 14.53766 8.01371 11.27568
#
# Velocity S-wave (km/s) = 2.54282 1.88793 2.23944
# Velocity P-wave (km/s) = 4.21720 4.42385 4.32176
#
# Compressibility (1/GPa) = 0.04853704
#
# Stress axis : x y z
#
# Youngs Moduli (GPa) = 25.86998 65.70323 65.22348
#
# Poissons Ratio (x) = -0.19851 0.40388
# Poissons Ratio (y) = -0.07816 0.46725
# Poissons Ratio (z) = 0.16019 0.47069
#
# Static dielectric constant tensor:
#      x y z
#    x 1.864480 0.000000 0.000000 
#    y 0.000000 1.879130 0.000000 
#    z 0.000000 0.000000 1.853820 
# 
# From -- ./inp_files/7255.got.cif
#   From: 2010.05.17/outbox.cif.g08.bks.cpg/sg36_4_cif.got.tgz:7255.got - 2010.06.03 17:41:39.
