data_PCOD9351789
_publ_section_title
;
Structure prediction by ZEFSAII (Michael W. Deem and Ramdas Pophale) SiO2 
 PCOD9351789
Probable space group: C M C 21
;
_chemical_formula_sum "Si O2"
_cell_formula_units_Z 64
_cell_length_a 7.813136
_cell_length_b 25.387705
_cell_length_c 14.558322
_cell_angle_alpha 90.000000
_cell_angle_beta 90.000000
_cell_angle_gamma 90.000000
_cell_volume 2887.753694
_symmetry_space_group_name_H-M "C M C 21"
_symmetry_group_IT_number 36
_symmetry_cell_setting 'orthorhombic'
loop_
_space_group_symop_operation_xyz
x,y,z
-x,-y,1/2+z
x,-y,1/2+z
-x,y,z
1/2+x,1/2+y,z
1/2-x,1/2-y,1/2+z
1/2+x,1/2-y,1/2+z
1/2-x,1/2+y,z
loop_
_atom_site_type_symbol
_atom_site_label
_atom_site_fract_x
_atom_site_fract_y
_atom_site_fract_z
Si Si1 0.803561 0.778447 0.773830
Si Si2 0.305975 0.119142 0.181492
Si Si3 0.707646 0.163260 0.800751
Si Si4 0.706763 0.822154 0.511431
Si Si5 0.302701 0.461501 0.830093
Si Si6 0.299346 0.554809 0.710951
Si Si7 0.300800 0.791605 0.979862
Si Si8 0.207934 0.090725 0.518194
O O1 0.693552 0.823778 0.729177
O O2 0.742341 0.719153 0.757234
O O3 0.800947 0.786870 0.884028
O O4 0.000000 0.783945 0.742369
O O5 0.500000 0.098779 0.173994
O O6 0.204294 0.081227 0.248652
O O7 0.232490 0.133118 0.081706
O O8 0.500000 0.160843 0.797547
O O9 0.760161 0.165621 0.907509
O O10 0.782222 0.113014 0.751351
O O11 0.500000 0.822685 0.515139
O O12 0.763119 0.762422 0.534256
O O13 0.500000 0.473726 0.853645
O O14 0.222788 0.513476 0.783798
O O15 0.229276 0.435153 0.922547
O O16 0.500000 0.540741 0.702193
O O17 0.230191 0.558378 0.607201
O O18 0.500000 0.791217 0.956168
O O19 0.260423 0.847916 0.024379
O O20 0.000000 0.090725 0.517834
#
# Coordination Sequence:
#
# PCOD9351789 Si02
#       8
#     8   8   8   8   8   8   8   8
#     4  10  20  36  57  83 121 161 193 240 308 358
#     4  11  22  36  59  90 119 155 204 249 294 357
#     4   9  20  39  59  82 118 159 194 240 305 360
#     4   9  21  39  57  84 125 165 196 241 311 362
#     4  10  22  41  62  84 118 162 202 245 302 361
#     4  10  23  40  61  89 116 155 208 251 298 358
#     4  11  21  34  57  89 119 153 206 248 289 357
#     4  10  21  39  60  83 118 158 193 246 311 355
#
# _framework density 22.162555000000001
#
# number of rings (size 3 to 8) (size 9 to 14) (size 15 to 20)
#    0.000    2.000    1.250    2.625    1.750    5.500 
#    0.000    1.250    0.000    0.000    0.000    0.000 
#    0.000    0.000    0.000    0.000    0.000    0.000 
#
# Total GULP energy -178710.453870 kJ/mol
# GULP energy per Si atom -5584.701683 kJ/mol
# Density = 2.211211 g / cm^3
# Si number density = 22.162555 Si / 1000 Ang^3
#
#
#
# Elastic Constant Matrix: (Units=GPa)
#
#
# Indices 1 2 3 4 5 6 
#
# 1 42.3575 -0.3999 -0.0031 0.0000 0.0000 0.0000
# 2 -0.3999 84.4456 25.6465 0.0000 0.0000 0.0000
# 3 -0.0031 25.6465 69.5134 0.0000 0.0000 0.0000
# 4 0.0000 0.0000 0.0000 22.7814 0.0000 0.0000
# 5 0.0000 0.0000 0.0000 0.0000 12.5770 0.0000
# 6 0.0000 0.0000 0.0000 0.0000 0.0000 8.0370
#
#
#
# Elastic Compliance Matrix: (Units=1/GPa)
#
#
# Indices 1 2 3 4 5 6 
#
# 1 0.023610 0.000126 -0.000045 0.000000 0.000000 0.000000
# 2 0.000126 0.013337 -0.004921 0.000000 0.000000 0.000000
# 3 -0.000045 -0.004921 0.016201 0.000000 0.000000 0.000000
# 4 0.000000 0.000000 0.000000 0.043896 0.000000 0.000000
# 5 0.000000 0.000000 0.000000 0.000000 0.079510 0.000000
# 6 0.000000 0.000000 0.000000 0.000000 0.000000 0.124424
#
#
# Mechanical properties :
#
#
# Convention : Reuss Voigt Hill
#
# Bulk Modulus (GPa) = 23.00583 27.42262 25.21422
# Shear Modulus (GPa) = 15.37764 20.08395 17.73079
#
# Velocity S-wave (km/s) = 2.63697 3.01360 2.83156
# Velocity P-wave (km/s) = 4.43560 4.95069 4.70020
#
# Compressibility (1/GPa) = 0.04346724
#
# Stress axis : x y z
#
# Youngs Moduli (GPa) = 42.35537 74.97981 61.72414
#
# Poissons Ratio (x) = -0.00941 0.00279
# Poissons Ratio (y) = -0.00532 0.30372
# Poissons Ratio (z) = 0.00192 0.36894
#
# Static dielectric constant tensor:
#      x y z
#    x 1.802190 0.000000 0.000000 
#    y 0.000000 1.794300 0.000000 
#    z 0.000000 0.000000 1.856220 
# 
# From -- ./inp_files/10889.got.cif
#   From: 2010.05.17/outbox.cif.g08.bks.cpg/sg36_6_cif.got.tgz:10889.got - 2010.06.03 17:41:39.
