data_PCOD9351274
_publ_section_title
;
Structure prediction by ZEFSAII (Michael W. Deem and Ramdas Pophale) SiO2 
 PCOD9351274
Probable space group: C M C 21
;
_chemical_formula_sum "Si O2"
_cell_formula_units_Z 64
_cell_length_a 7.828701
_cell_length_b 23.696715
_cell_length_c 16.654039
_cell_angle_alpha 90.000000
_cell_angle_beta 90.000000
_cell_angle_gamma 90.000000
_cell_volume 3089.565658
_symmetry_space_group_name_H-M "C M C 21"
_symmetry_group_IT_number 36
_symmetry_cell_setting 'orthorhombic'
loop_
_space_group_symop_operation_xyz
x,y,z
-x,-y,1/2+z
x,-y,1/2+z
-x,y,z
1/2+x,1/2+y,z
1/2-x,1/2-y,1/2+z
1/2+x,1/2-y,1/2+z
1/2-x,1/2+y,z
loop_
_atom_site_type_symbol
_atom_site_label
_atom_site_fract_x
_atom_site_fract_y
_atom_site_fract_z
Si Si1 0.793324 0.594870 0.625000
Si Si2 0.793767 0.637826 0.795174
Si Si3 0.290071 0.968916 0.675169
Si Si4 0.309085 0.125682 0.060872
Si Si5 0.302011 0.947128 0.856523
Si Si6 0.702914 0.346468 0.956733
Si Si7 0.209402 0.717805 0.940167
Si Si8 0.809991 0.053575 0.925772
O O1 0.737821 0.631990 0.702815
O O2 0.736240 0.529581 0.638996
O O3 0.739716 0.623832 0.542076
O O4 0.000000 0.593194 0.625094
O O5 0.738292 0.688158 0.855762
O O6 0.732537 0.581413 0.840364
O O7 0.000000 0.638409 0.794761
O O8 0.500000 0.968198 0.671128
O O9 0.226655 0.913058 0.628847
O O10 0.240177 0.960522 0.767395
O O11 0.500000 0.141814 0.088134
O O12 0.231311 0.179640 0.015764
O O13 0.317964 0.080772 0.988156
O O14 0.500000 0.963857 0.860149
O O15 0.282165 0.883787 0.885921
O O16 0.205563 0.987187 0.918624
O O17 0.500000 0.345820 0.945156
O O18 0.764080 0.281968 0.951299
O O19 0.000000 0.715552 0.941370
O O20 0.000000 0.070093 0.950219
#
# Coordination Sequence:
#
# PCOD9351274 Si02
#       8
#     8   8   8   8   8   8   8   8
#     4  10  19  35  59  86 110 141 189 239 284 336
#     4   9  17  35  61  82 105 149 196 229 266 332
#     4   9  18  33  57  85 106 130 182 237 275 326
#     4   9  17  34  59  81 104 146 188 226 269 331
#     4  11  21  37  56  78 109 149 188 229 276 336
#     4  11  23  38  53  80 117 153 189 233 288 336
#     4   8  17  35  57  77 107 150 192 225 272 335
#     4  11  20  31  52  85 116 142 172 224 288 336
#
# _framework density 20.714886
#
# number of rings (size 3 to 8) (size 9 to 14) (size 15 to 20)
#    0.000    2.250    1.250    3.375    0.000    1.500 
#    2.250    6.250    0.000    0.000    0.000    0.000 
#    0.000    0.000    0.000    0.000    0.000    0.000 
#
# Total GULP energy -178433.516555 kJ/mol
# GULP energy per Si atom -5576.047392 kJ/mol
# Density = 2.066774 g / cm^3
# Si number density = 20.714886 Si / 1000 Ang^3
#
#
#
# Elastic Constant Matrix: (Units=GPa)
#
#
# Indices 1 2 3 4 5 6 
#
# 1 34.5272 0.0078 4.7977 0.0000 0.0000 0.0000
# 2 0.0078 149.3174 45.7470 0.0000 0.0000 0.0000
# 3 4.7977 45.7470 72.1826 0.0000 0.0000 0.0000
# 4 0.0000 0.0000 0.0000 28.1276 0.0000 0.0000
# 5 0.0000 0.0000 0.0000 0.0000 -5.8585 0.0000
# 6 0.0000 0.0000 0.0000 0.0000 0.0000 15.2623
#
#
#
# Elastic Compliance Matrix: (Units=1/GPa)
#
#
# Indices 1 2 3 4 5 6 
#
# 1 0.029298 0.000738 -0.002415 0.000000 0.000000 0.000000
# 2 0.000738 0.008329 -0.005328 0.000000 0.000000 0.000000
# 3 -0.002415 -0.005328 0.017391 0.000000 0.000000 0.000000
# 4 0.000000 0.000000 0.000000 0.035552 0.000000 0.000000
# 5 0.000000 0.000000 0.000000 0.000000 -0.170693 0.000000
# 6 0.000000 0.000000 0.000000 0.000000 0.000000 0.065521
#
#
# Mechanical properties :
#
#
# Convention : Reuss Voigt Hill
#
# Bulk Modulus (GPa) = 24.38501 39.68138 32.03320
# Shear Modulus (GPa) = 382.33321 21.20461 201.76891
#
# Velocity S-wave (km/s) = 13.60037 3.20291 9.88000
# Velocity P-wave (km/s) = 16.07557 5.73374 12.06855
#
# Compressibility (1/GPa) = 0.04100879
#
# Stress axis : x y z
#
# Youngs Moduli (GPa) = 34.13184 120.05552 57.50090
#
# Poissons Ratio (x) = -0.08866 0.13889
# Poissons Ratio (y) = -0.02521 0.30637
# Poissons Ratio (z) = 0.08244 0.63966
#
# Static dielectric constant tensor:
#      x y z
#    x 1.783900 0.000000 0.000000 
#    y 0.000000 1.735220 0.000000 
#    z 0.000000 0.000000 1.783350 
# 
# From -- ./inp_files/14101.got.cif
#   From: 2010.05.17/outbox.cif.g08.bks.cpg/sg36_8_cif.got.tgz:14101.got - 2010.06.03 17:41:39.
