data_PCOD9351002
_publ_section_title
;
Structure prediction by ZEFSAII (Michael W. Deem and Ramdas Pophale) SiO2 
 PCOD9351002
Probable space group: C M C 21
;
_chemical_formula_sum "Si O2"
_cell_formula_units_Z 64
_cell_length_a 7.430674
_cell_length_b 14.911353
_cell_length_c 22.267381
_cell_angle_alpha 90.000000
_cell_angle_beta 90.000000
_cell_angle_gamma 90.000000
_cell_volume 2467.257057
_symmetry_space_group_name_H-M "C M C 21"
_symmetry_group_IT_number 36
_symmetry_cell_setting 'orthorhombic'
loop_
_space_group_symop_operation_xyz
x,y,z
-x,-y,1/2+z
x,-y,1/2+z
-x,y,z
1/2+x,1/2+y,z
1/2-x,1/2-y,1/2+z
1/2+x,1/2-y,1/2+z
1/2-x,1/2+y,z
loop_
_atom_site_type_symbol
_atom_site_label
_atom_site_fract_x
_atom_site_fract_y
_atom_site_fract_z
Si Si1 0.286126 0.226421 0.871500
Si Si2 0.720192 0.961032 0.784663
Si Si3 0.287000 0.854618 0.245774
Si Si4 0.285157 0.664612 0.002346
Si Si5 0.795464 0.469004 0.600831
Si Si6 0.278604 0.135974 0.537130
Si Si7 0.202417 0.423750 0.909874
Si Si8 0.715598 0.822615 0.692132
O O1 0.500000 0.241649 0.866092
O O2 0.218271 0.184051 0.809508
O O3 0.257591 0.168308 0.931739
O O4 0.195336 0.321252 0.885745
O O5 0.500000 0.958113 0.787547
O O6 0.777330 0.043344 0.742350
O O7 0.784749 0.973899 0.852764
O O8 0.777425 0.868519 0.754299
O O9 0.500000 0.862090 0.252403
O O10 0.260186 0.781690 0.194061
O O11 0.500000 0.658891 0.008651
O O12 0.225327 0.759727 0.032704
O O13 0.200386 0.581655 0.036895
O O14 0.719103 0.568069 0.589356
O O15 0.712964 0.391170 0.642280
O O16 0.000000 0.483923 0.623041
O O17 0.500000 0.135983 0.536613
O O18 0.214144 0.089779 0.474937
O O19 0.000000 0.458670 0.918388
O O20 0.500000 0.825356 0.688896
#
# Coordination Sequence:
#
# PCOD9351002 Si02
#       8
#     8   8   8   8   8   8   8   8
#     4  10  19  32  54  83 117 147 177 225 281 330
#     4   9  18  33  55  80 106 143 187 225 267 326
#     4  10  21  35  56  84 111 146 188 228 273 324
#     4  10  21  37  57  83 111 146 184 226 276 327
#     4  10  21  37  58  81 106 143 186 228 276 330
#     4   8  17  33  55  80 106 140 181 221 265 323
#     4   9  16  31  56  79 108 144 181 225 271 324
#     4  10  21  38  57  78 109 145 182 228 279 328
#
# _framework density 25.93974
#
# number of rings (size 3 to 8) (size 9 to 14) (size 15 to 20)
#    0.000    2.500    1.250    1.500    1.750    2.000 
#    0.000    6.875    0.000    0.000    0.000    0.000 
#    0.000    0.000    0.000    0.000    0.000    0.000 
#
# Total GULP energy -178792.775842 kJ/mol
# GULP energy per Si atom -5587.274245 kJ/mol
# Density = 2.588070 g / cm^3
# Si number density = 25.939740 Si / 1000 Ang^3
#
#
#
# Elastic Constant Matrix: (Units=GPa)
#
#
# Indices 1 2 3 4 5 6 
#
# 1 96.8306 -5.6463 -6.3229 0.0000 0.0000 0.0000
# 2 -5.6463 125.4379 30.5934 0.0000 0.0000 0.0000
# 3 -6.3229 30.5934 49.0805 0.0000 0.0000 0.0000
# 4 0.0000 0.0000 0.0000 49.4192 0.0000 0.0000
# 5 0.0000 0.0000 0.0000 0.0000 8.3035 0.0000
# 6 0.0000 0.0000 0.0000 0.0000 0.0000 9.9959
#
#
#
# Elastic Compliance Matrix: (Units=1/GPa)
#
#
# Indices 1 2 3 4 5 6 
#
# 1 0.010418 0.000167 0.001238 0.000000 0.000000 0.000000
# 2 0.000167 0.009404 -0.005840 0.000000 0.000000 0.000000
# 3 0.001238 -0.005840 0.024175 0.000000 0.000000 0.000000
# 4 0.000000 0.000000 0.000000 0.020235 0.000000 0.000000
# 5 0.000000 0.000000 0.000000 0.000000 0.120431 0.000000
# 6 0.000000 0.000000 0.000000 0.000000 0.000000 0.100041
#
#
# Mechanical properties :
#
#
# Convention : Reuss Voigt Hill
#
# Bulk Modulus (GPa) = 28.46898 34.28859 31.37878
# Shear Modulus (GPa) = 16.37829 30.39207 23.38518
#
# Velocity S-wave (km/s) = 2.51549 3.42664 3.00579
# Velocity P-wave (km/s) = 4.40860 5.37616 4.91624
#
# Compressibility (1/GPa) = 0.03512596
#
# Stress axis : x y z
#
# Youngs Moduli (GPa) = 95.98868 106.33784 41.36572
#
# Poissons Ratio (x) = -0.01776 -0.05121
# Poissons Ratio (y) = -0.01603 0.24159
# Poissons Ratio (z) = -0.11884 0.62104
#
# Static dielectric constant tensor:
#      x y z
#    x 2.017580 0.000000 0.000000 
#    y 0.000000 2.014290 0.000000 
#    z 0.000000 0.000000 2.096990 
# 
# From -- ./inp_files/16562.got.cif
#   From: 2010.05.17/outbox.cif.g08.bks.cpg/sg36_9_cif.got.tgz:16562.got - 2010.06.03 17:41:39.
