data_PCOD9351647
_publ_section_title
;
Structure prediction by ZEFSAII (Michael W. Deem and Ramdas Pophale) SiO2 
 PCOD9351647
Probable space group: C M C 21
;
_chemical_formula_sum "Si O2"
_cell_formula_units_Z 56
_cell_length_a 13.642113
_cell_length_b 21.956394
_cell_length_c 10.368242
_cell_angle_alpha 90.000000
_cell_angle_beta 90.000000
_cell_angle_gamma 90.000000
_cell_volume 3105.616199
_symmetry_space_group_name_H-M "C M C 21"
_symmetry_group_IT_number 36
_symmetry_cell_setting 'orthorhombic'
loop_
_space_group_symop_operation_xyz
x,y,z
-x,-y,1/2+z
x,-y,1/2+z
-x,y,z
1/2+x,1/2+y,z
1/2-x,1/2-y,1/2+z
1/2+x,1/2-y,1/2+z
1/2-x,1/2+y,z
loop_
_atom_site_type_symbol
_atom_site_label
_atom_site_fract_x
_atom_site_fract_y
_atom_site_fract_z
Si Si1 0.885629 0.254394 0.760170
Si Si2 0.711388 0.366807 0.173254
Si Si3 0.604403 0.431614 0.554618
Si Si4 0.116979 0.109252 0.406335
Si Si5 0.390105 0.204016 0.553757
Si Si6 0.701386 0.321962 0.671932
Si Si7 0.840718 0.986559 0.289624
O O1 0.837778 0.186660 0.759159
O O2 0.811469 0.295626 0.675984
O O3 0.000000 0.251671 0.719531
O O4 0.882087 0.284458 0.901205
O O5 0.810246 0.341718 0.110141
O O6 0.727788 0.431444 0.242749
O O7 0.636753 0.376791 0.054447
O O8 0.500000 0.400661 0.581122
O O9 0.687963 0.383130 0.588193
O O10 0.612657 0.487410 0.656604
O O11 0.604309 0.453671 0.408128
O O12 0.158454 0.161731 0.313230
O O13 0.000000 0.098214 0.385628
O O14 0.180833 0.050466 0.361366
O O15 0.500000 0.184365 0.584358
O O16 0.365828 0.269128 0.615343
#
# Coordination Sequence:
#
# PCOD9351647 Si02
#       7
#     8   8   8   8   8   8   8
#     4  10  21  36  58  83 112 150 194 241 294 348
#     4  11  22  36  57  86 118 150 194 239 291 345
#     4  11  21  34  56  84 117 153 189 232 288 353
#     4  11  21  34  53  83 117 150 185 237 292 344
#     4  10  20  38  60  81 111 153 197 239 291 350
#     4  10  20  35  54  81 113 146 191 232 290 344
#     4  11  22  35  55  84 118 152 191 232 289 348
#
# _framework density 18.031846999999999
#
# number of rings (size 3 to 8) (size 9 to 14) (size 15 to 20)
#    0.000    1.429    2.857    4.714    0.000    4.000 
#    0.000    0.000    0.000    4.286    0.000    0.000 
#    0.000    0.000    0.000    0.000    0.000    0.000 
#
# Total GULP energy -155871.143574 kJ/mol
# GULP energy per Si atom -5566.826556 kJ/mol
# Density = 1.799081 g / cm^3
# Si number density = 18.031847 Si / 1000 Ang^3
#
#
#
# Elastic Constant Matrix: (Units=GPa)
#
#
# Indices 1 2 3 4 5 6 
#
# 1 97.7664 43.1228 14.9375 0.0000 0.0000 0.0000
# 2 43.1228 84.1049 13.8544 0.0000 0.0000 0.0000
# 3 14.9375 13.8544 54.5617 0.0000 0.0000 0.0000
# 4 0.0000 0.0000 0.0000 32.7591 0.0000 0.0000
# 5 0.0000 0.0000 0.0000 0.0000 9.6072 0.0000
# 6 0.0000 0.0000 0.0000 0.0000 0.0000 10.1179
#
#
#
# Elastic Compliance Matrix: (Units=1/GPa)
#
#
# Indices 1 2 3 4 5 6 
#
# 1 0.013426 -0.006552 -0.002012 0.000000 0.000000 0.000000
# 2 -0.006552 0.015607 -0.002169 0.000000 0.000000 0.000000
# 3 -0.002012 -0.002169 0.019429 0.000000 0.000000 0.000000
# 4 0.000000 0.000000 0.000000 0.030526 0.000000 0.000000
# 5 0.000000 0.000000 0.000000 0.000000 0.104088 0.000000
# 6 0.000000 0.000000 0.000000 0.000000 0.000000 0.098835
#
#
# Mechanical properties :
#
#
# Convention : Reuss Voigt Hill
#
# Bulk Modulus (GPa) = 37.04313 42.25139 39.64726
# Shear Modulus (GPa) = 16.00632 21.46474 18.73553
#
# Velocity S-wave (km/s) = 2.98261 3.45393 3.22689
# Velocity P-wave (km/s) = 5.69641 6.27603 5.99323
#
# Compressibility (1/GPa) = 0.02699556
#
# Stress axis : x y z
#
# Youngs Moduli (GPa) = 74.48235 64.07458 51.46833
#
# Poissons Ratio (x) = 0.41985 0.10355
# Poissons Ratio (y) = 0.48804 0.11164
# Poissons Ratio (z) = 0.14985 0.13898
#
# Static dielectric constant tensor:
#      x y z
#    x 1.630830 0.000000 0.000000 
#    y 0.000000 1.634190 0.000000 
#    z 0.000000 0.000000 1.665690 
# 
# From -- ./inp_files/7849.got.cif
#   From: 2010.05.17/outbox.cif.g08.bks.cpg/sg36_4_cif.got.tgz:7849.got - 2010.06.03 17:41:39.
