data_PCOD9351474
_publ_section_title
;
Structure prediction by ZEFSAII (Michael W. Deem and Ramdas Pophale) SiO2 
 PCOD9351474
Probable space group: C M C 21
;
_chemical_formula_sum "Si O2"
_cell_formula_units_Z 64
_cell_length_a 9.144225
_cell_length_b 25.892507
_cell_length_c 13.057037
_cell_angle_alpha 90.000000
_cell_angle_beta 90.000000
_cell_angle_gamma 90.000000
_cell_volume 3091.474302
_symmetry_space_group_name_H-M "C M C 21"
_symmetry_group_IT_number 36
_symmetry_cell_setting 'orthorhombic'
loop_
_space_group_symop_operation_xyz
x,y,z
-x,-y,1/2+z
x,-y,1/2+z
-x,y,z
1/2+x,1/2+y,z
1/2-x,1/2-y,1/2+z
1/2+x,1/2-y,1/2+z
1/2-x,1/2+y,z
loop_
_atom_site_type_symbol
_atom_site_label
_atom_site_fract_x
_atom_site_fract_y
_atom_site_fract_z
Si Si1 0.176109 0.786102 0.569620
Si Si2 0.825868 0.326841 0.001202
Si Si3 0.328822 0.545272 0.044749
Si Si4 0.672871 0.295815 0.793776
Si Si5 0.671691 0.180185 0.865710
Si Si6 0.323984 0.466655 0.768303
Si Si7 0.326407 0.069444 0.836011
Si Si8 0.169935 0.926335 0.988943
O O1 0.219576 0.725601 0.559453
O O2 0.221316 0.808756 0.678993
O O3 0.239492 0.814188 0.470749
O O4 0.000000 0.788055 0.566452
O O5 0.763539 0.319556 0.886267
O O6 0.761967 0.380921 0.039232
O O7 0.000000 0.328795 0.001381
O O8 0.500000 0.559322 0.025846
O O9 0.287001 0.559510 0.160397
O O10 0.227170 0.565269 0.954181
O O11 0.320469 0.482735 0.039228
O O12 0.500000 0.308681 0.805653
O O13 0.687583 0.233671 0.805347
O O14 0.500000 0.175353 0.891617
O O15 0.711684 0.128139 0.805582
O O16 0.500000 0.472144 0.771020
O O17 0.254660 0.523392 0.778043
O O18 0.281876 0.435924 0.870786
O O19 0.500000 0.061705 0.827896
O O20 0.000000 0.910967 0.988399
#
# Coordination Sequence:
#
# PCOD9351474 Si02
#       8
#     8   8   8   8   8   8   8   8
#     4   9  19  34  52  73  96 128 169 206 241 288
#     4  10  20  33  50  75 103 128 161 205 248 290
#     4   9  19  36  55  74  99 133 172 210 246 291
#     4   9  18  35  54  70  96 133 167 200 243 293
#     4   9  19  34  51  73 102 132 161 200 249 297
#     4   9  19  36  55  74  99 133 172 210 246 291
#     4  10  20  33  51  77 105 132 164 204 254 304
#     4   9  18  33  52  74 100 131 166 201 245 298
#
# _framework density 20.702096000000001
#
# number of rings (size 3 to 8) (size 9 to 14) (size 15 to 20)
#    0.000    2.750    0.000    1.500    0.000    6.500 
#    0.000    5.000    0.000    0.000    0.000    0.000 
#    0.000    0.000    0.000    0.000    0.000    0.000 
#
# Total GULP energy -178606.588728 kJ/mol
# GULP energy per Si atom -5581.455898 kJ/mol
# Density = 2.065498 g / cm^3
# Si number density = 20.702096 Si / 1000 Ang^3
#
#
#
# Elastic Constant Matrix: (Units=GPa)
#
#
# Indices 1 2 3 4 5 6 
#
# 1 7.9123 10.5569 -2.2431 0.0000 0.0000 0.0000
# 2 10.5569 68.5360 -25.5529 0.0000 0.0000 0.0000
# 3 -2.2431 -25.5529 66.0186 0.0000 0.0000 0.0000
# 4 0.0000 0.0000 0.0000 -7.3482 0.0000 0.0000
# 5 0.0000 0.0000 0.0000 0.0000 18.7977 0.0000
# 6 0.0000 0.0000 0.0000 0.0000 0.0000 26.4499
#
#
#
# Elastic Compliance Matrix: (Units=1/GPa)
#
#
# Indices 1 2 3 4 5 6 
#
# 1 0.160374 -0.026495 -0.004806 0.000000 0.000000 0.000000
# 2 -0.026495 0.021429 0.007394 0.000000 0.000000 0.000000
# 3 -0.004806 0.007394 0.017846 0.000000 0.000000 0.000000
# 4 0.000000 0.000000 0.000000 -0.136087 0.000000 0.000000
# 5 0.000000 0.000000 0.000000 0.000000 0.053198 0.000000
# 6 0.000000 0.000000 0.000000 0.000000 0.000000 0.037807
#
#
# Mechanical properties :
#
#
# Convention : Reuss Voigt Hill
#
# Bulk Modulus (GPa) = 6.58612 11.99874 9.29243
# Shear Modulus (GPa) = 19.76338 18.22694 18.99516
#
# Velocity S-wave (km/s) = 3.09310 2.97044 3.03239
# Velocity P-wave (km/s) = 3.99308 4.19204 4.09377
#
# Compressibility (1/GPa) = 0.15183449
#
# Stress axis : x y z
#
# Youngs Moduli (GPa) = 6.23541 46.66620 56.03553
#
# Poissons Ratio (x) = 1.23643 0.26931
# Poissons Ratio (y) = 0.16521 -0.41432
# Poissons Ratio (z) = 0.02997 -0.34505
#
# Static dielectric constant tensor:
#      x y z
#    x 1.685260 0.000000 0.000000 
#    y 0.000000 1.783500 0.000000 
#    z 0.000000 0.000000 1.742060 
# 
# From -- ./inp_files/11203.got.cif
#   From: 2010.05.17/outbox.cif.g08.bks.cpg/sg36_6_cif.got.tgz:11203.got - 2010.06.03 17:41:39.
