data_PCOD9351212
_publ_section_title
;
Structure prediction by ZEFSAII (Michael W. Deem and Ramdas Pophale) SiO2 
 PCOD9351212
Probable space group: C M C 21
;
_chemical_formula_sum "Si O2"
_cell_formula_units_Z 48
_cell_length_a 7.859968
_cell_length_b 21.410681
_cell_length_c 15.851312
_cell_angle_alpha 90.000000
_cell_angle_beta 90.000000
_cell_angle_gamma 90.000000
_cell_volume 2667.573983
_symmetry_space_group_name_H-M "C M C 21"
_symmetry_group_IT_number 36
_symmetry_cell_setting 'orthorhombic'
loop_
_space_group_symop_operation_xyz
x,y,z
-x,-y,1/2+z
x,-y,1/2+z
-x,y,z
1/2+x,1/2+y,z
1/2-x,1/2-y,1/2+z
1/2+x,1/2-y,1/2+z
1/2-x,1/2+y,z
loop_
_atom_site_type_symbol
_atom_site_label
_atom_site_fract_x
_atom_site_fract_y
_atom_site_fract_z
Si Si1 0.194735 0.556578 0.766680
Si Si2 0.500000 0.264933 0.644550
Si Si3 0.694098 0.746824 0.878306
Si Si4 0.192291 0.814546 0.190163
Si Si5 0.500000 0.398884 0.567002
Si Si6 0.500000 0.327678 0.831730
Si Si7 0.808135 0.382697 0.452574
Si Si8 0.000000 0.960118 0.750063
O O1 0.249374 0.614532 0.707253
O O2 0.198647 0.583947 0.861674
O O3 0.332634 0.502249 0.761083
O O4 0.000000 0.537840 0.748115
O O5 0.667867 0.222654 0.636898
O O6 0.500000 0.324847 0.585937
O O7 0.500000 0.293263 0.739967
O O8 0.500000 0.764099 0.900001
O O9 0.690387 0.718327 0.782859
O O10 0.830703 0.802353 0.877563
O O11 0.760109 0.689439 0.934742
O O12 0.000000 0.812245 0.156826
O O13 0.668175 0.412030 0.513241
O O14 0.500000 0.433532 0.655453
O O15 0.500000 0.401011 0.812948
O O16 0.000000 0.386812 0.485697
#
# Coordination Sequence:
#
# PCOD9351212 Si02
#       8
#     8   4   8   8   4   4   8   4
#     4  10  19  34  59  84 105 142 203 247 263 312
#     4   9  18  31  47  75 111 134 163 215 278 330
#     4   9  15  27  52  80 100 125 169 222 272 314
#     4   9  15  27  52  80  99 125 173 229 266 299
#     4  11  23  35  51  81 122 150 170 224 301 362
#     4   9  18  31  47  77 110 134 164 218 280 324
#     4  10  19  34  59  84 104 138 191 241 279 329
#     4  11  23  35  51  83 121 152 183 229 291 342
#
# _framework density 17.993877000000001
#
# number of rings (size 3 to 8) (size 9 to 14) (size 15 to 20)
#    0.000    2.333    3.333    0.500    0.000    2.000 
#    0.000    3.333    0.000    4.000    0.000    0.000 
#    0.000    0.000    0.000    0.000    0.000    0.000 
#
# Total GULP energy -133861.243136 kJ/mol
# GULP energy per Si atom -5577.551797 kJ/mol
# Density = 1.795292 g / cm^3
# Si number density = 17.993877 Si / 1000 Ang^3
#
#
#
# Elastic Constant Matrix: (Units=GPa)
#
#
# Indices 1 2 3 4 5 6 
#
# 1 203.7002 73.0367 24.7432 0.0000 0.0000 0.0000
# 2 73.0367 106.5228 5.3578 0.0000 0.0000 0.0000
# 3 24.7432 5.3578 20.9523 0.0000 0.0000 0.0000
# 4 0.0000 0.0000 0.0000 11.4283 0.0000 0.0000
# 5 0.0000 0.0000 0.0000 0.0000 12.0122 0.0000
# 6 0.0000 0.0000 0.0000 0.0000 0.0000 27.5711
#
#
#
# Elastic Compliance Matrix: (Units=1/GPa)
#
#
# Indices 1 2 3 4 5 6 
#
# 1 0.007567 -0.004800 -0.007708 0.000000 0.000000 0.000000
# 2 -0.004800 0.012555 0.002458 0.000000 0.000000 0.000000
# 3 -0.007708 0.002458 0.056202 0.000000 0.000000 0.000000
# 4 0.000000 0.000000 0.000000 0.087502 0.000000 0.000000
# 5 0.000000 0.000000 0.000000 0.000000 0.083249 0.000000
# 6 0.000000 0.000000 0.000000 0.000000 0.000000 0.036270
#
#
# Mechanical properties :
#
#
# Convention : Reuss Voigt Hill
#
# Bulk Modulus (GPa) = 17.78626 59.71675 38.75150
# Shear Modulus (GPa) = 15.51898 25.40481 20.46190
#
# Velocity S-wave (km/s) = 2.93995 3.76155 3.37584
# Velocity P-wave (km/s) = 4.62931 7.21976 6.06446
#
# Compressibility (1/GPa) = 0.05622318
#
# Stress axis : x y z
#
# Youngs Moduli (GPa) = 132.15932 79.64750 17.79307
#
# Poissons Ratio (x) = 0.38233 0.13715
# Poissons Ratio (y) = 0.63441 -0.04374
# Poissons Ratio (z) = 1.01870 -0.19579
#
# Static dielectric constant tensor:
#      x y z
#    x 1.625910 0.000000 0.000000 
#    y 0.000000 1.589770 0.000000 
#    z 0.000000 0.000000 1.625740 
# 
# From -- ./inp_files/10496.got.cif
#   From: 2010.05.17/outbox.cif.g08.bks.cpg/sg36_6_cif.got.tgz:10496.got - 2010.06.03 17:41:39.
