data_PCOD9351048
_publ_section_title
;
Structure prediction by ZEFSAII (Michael W. Deem and Ramdas Pophale) SiO2 
 PCOD9351048
Probable space group: C M C 21
;
_chemical_formula_sum "Si O2"
_cell_formula_units_Z 48
_cell_length_a 7.716244
_cell_length_b 15.788408
_cell_length_c 19.501736
_cell_angle_alpha 90.000000
_cell_angle_beta 90.000000
_cell_angle_gamma 90.000000
_cell_volume 2375.842058
_symmetry_space_group_name_H-M "C M C 21"
_symmetry_group_IT_number 36
_symmetry_cell_setting 'orthorhombic'
loop_
_space_group_symop_operation_xyz
x,y,z
-x,-y,1/2+z
x,-y,1/2+z
-x,y,z
1/2+x,1/2+y,z
1/2-x,1/2-y,1/2+z
1/2+x,1/2-y,1/2+z
1/2-x,1/2+y,z
loop_
_atom_site_type_symbol
_atom_site_label
_atom_site_fract_x
_atom_site_fract_y
_atom_site_fract_z
Si Si1 0.796075 0.909311 0.129060
Si Si2 0.209228 0.902397 0.639714
Si Si3 0.290852 0.407405 0.795300
Si Si4 0.212636 0.749979 0.885804
Si Si5 0.294801 0.100617 0.786064
Si Si6 0.707890 0.252803 0.041860
O O1 0.780245 0.888567 0.209751
O O2 0.721720 0.835013 0.082106
O O3 0.000000 0.914508 0.113173
O O4 0.724243 0.004103 0.119577
O O5 0.268244 0.885261 0.717845
O O6 0.257661 0.829822 0.587129
O O7 0.000000 0.906269 0.642225
O O8 0.500000 0.405629 0.795096
O O9 0.231966 0.336962 0.849004
O O10 0.238733 0.504190 0.809324
O O11 0.269629 0.670238 0.839858
O O12 0.000000 0.748916 0.886159
O O13 0.272545 0.745304 0.964172
O O14 0.500000 0.112381 0.778966
O O15 0.500000 0.261694 0.037612
#
# Coordination Sequence:
#
# PCOD9351048 Si02
#       6
#     8   8   8   8   8   8
#     4   9  19  35  53  73  99 132 168 203 243 296
#     4   9  18  33  52  75 100 127 163 207 251 290
#     4   9  18  35  56  74  97 132 170 204 243 296
#     4   9  19  34  51  73 103 136 164 198 250 300
#     4  10  19  33  54  77 100 127 164 210 252 289
#     4  10  20  34  52  74 101 134 169 202 241 295
#
# _framework density 20.203363
#
# number of rings (size 3 to 8) (size 9 to 14) (size 15 to 20)
#    0.000    2.667    0.000    2.500    0.000    6.000 
#    0.000    5.833    0.000    0.000    0.000    0.000 
#    0.000    0.000    0.000    0.000    0.000    0.000 
#
# Total GULP energy -133941.864286 kJ/mol
# GULP energy per Si atom -5580.911012 kJ/mol
# Density = 2.015738 g / cm^3
# Si number density = 20.203363 Si / 1000 Ang^3
#
#
#
# Elastic Constant Matrix: (Units=GPa)
#
#
# Indices 1 2 3 4 5 6 
#
# 1 26.0936 -10.4215 -13.4566 0.0000 0.0000 0.0000
# 2 -10.4215 100.8002 60.8271 0.0000 0.0000 0.0000
# 3 -13.4566 60.8271 66.1656 0.0000 0.0000 0.0000
# 4 0.0000 0.0000 0.0000 -18.4956 0.0000 0.0000
# 5 0.0000 0.0000 0.0000 0.0000 17.3245 0.0000
# 6 0.0000 0.0000 0.0000 0.0000 0.0000 -35.1241
#
#
#
# Elastic Compliance Matrix: (Units=1/GPa)
#
#
# Indices 1 2 3 4 5 6 
#
# 1 0.042970 -0.001866 0.010455 0.000000 0.000000 0.000000
# 2 -0.001866 0.022362 -0.020938 0.000000 0.000000 0.000000
# 3 0.010455 -0.020938 0.036488 0.000000 0.000000 0.000000
# 4 0.000000 0.000000 0.000000 -0.054067 0.000000 0.000000
# 5 0.000000 0.000000 0.000000 0.000000 0.057722 0.000000
# 6 0.000000 0.000000 0.000000 0.000000 0.000000 -0.028471
#
#
# Mechanical properties :
#
#
# Convention : Reuss Voigt Hill
#
# Bulk Modulus (GPa) = 12.96646 29.66193 21.31419
# Shear Modulus (GPa) = 39.24340 3.14833 21.19586
#
# Velocity S-wave (km/s) = 4.41207 1.24968 3.24253
# Velocity P-wave (km/s) = 5.69096 4.09827 4.95897
#
# Compressibility (1/GPa) = 0.07712207
#
# Stress axis : x y z
#
# Youngs Moduli (GPa) = 23.27218 44.71820 27.40617
#
# Poissons Ratio (x) = 0.08346 -0.28653
# Poissons Ratio (y) = 0.04343 0.57382
# Poissons Ratio (z) = -0.24331 0.93629
#
# Static dielectric constant tensor:
#      x y z
#    x 1.749760 0.000000 0.000000 
#    y 0.000000 1.707820 0.000000 
#    z 0.000000 0.000000 1.687200 
# 
# From -- ./inp_files/10397.got.cif
#   From: 2010.05.17/outbox.cif.g08.bks.cpg/sg36_6_cif.got.tgz:10397.got - 2010.06.03 17:41:39.
