data_PCOD9351776
_publ_section_title
;
Structure prediction by ZEFSAII (Michael W. Deem and Ramdas Pophale) SiO2 
 PCOD9351776
Probable space group: C M C 21
;
_chemical_formula_sum "Si O2"
_cell_formula_units_Z 64
_cell_length_a 7.695676
_cell_length_b 27.708142
_cell_length_c 13.531478
_cell_angle_alpha 90.000000
_cell_angle_beta 90.000000
_cell_angle_gamma 90.000000
_cell_volume 2885.356071
_symmetry_space_group_name_H-M "C M C 21"
_symmetry_group_IT_number 36
_symmetry_cell_setting 'orthorhombic'
loop_
_space_group_symop_operation_xyz
x,y,z
-x,-y,1/2+z
x,-y,1/2+z
-x,y,z
1/2+x,1/2+y,z
1/2-x,1/2-y,1/2+z
1/2+x,1/2-y,1/2+z
1/2-x,1/2+y,z
loop_
_atom_site_type_symbol
_atom_site_label
_atom_site_fract_x
_atom_site_fract_y
_atom_site_fract_z
Si Si1 0.713416 0.551420 0.111850
Si Si2 0.213164 0.910209 0.825803
Si Si3 0.288395 0.302437 0.782645
Si Si4 0.300622 0.380144 0.435117
Si Si5 0.801327 0.727453 0.935819
Si Si6 0.710388 0.769863 0.128973
Si Si7 0.704638 0.552412 0.538641
Si Si8 0.204276 0.627399 0.708918
O O1 0.500000 0.552816 0.114272
O O2 0.766879 0.563153 0.224470
O O3 0.773634 0.498693 0.077389
O O4 0.772614 0.589770 0.028031
O O5 0.271666 0.854805 0.813045
O O6 0.000000 0.910309 0.827288
O O7 0.274014 0.931027 0.931288
O O8 0.500000 0.302961 0.791264
O O9 0.221881 0.258314 0.848071
O O10 0.245604 0.282317 0.675360
O O11 0.500000 0.395142 0.428435
O O12 0.288708 0.323066 0.456574
O O13 0.231621 0.386968 0.323301
O O14 0.000000 0.714457 0.910293
O O15 0.795283 0.766266 0.022993
O O16 0.500000 0.771469 0.120822
O O17 0.766191 0.817697 0.187769
O O18 0.500000 0.544826 0.522500
O O19 0.722073 0.591751 0.625654
O O20 0.000000 0.627566 0.691704
#
# Coordination Sequence:
#
# PCOD9351776 Si02
#       8
#     8   8   8   8   8   8   8   8
#     4   9  20  36  60  90 117 152 201 254 305 355
#     4   9  17  32  56  85 117 150 194 248 298 354
#     4   9  17  32  52  75 110 153 189 226 286 348
#     4  11  22  38  62  91 122 161 208 250 297 366
#     4  11  21  35  56  86 120 155 196 244 299 351
#     4  10  20  36  56  79 114 159 201 237 285 352
#     4  10  21  37  62  91 115 150 201 255 305 363
#     4  11  23  40  60  87 125 164 200 252 311 359
#
# _framework density 22.180972000000001
#
# number of rings (size 3 to 8) (size 9 to 14) (size 15 to 20)
#    0.000    2.000    1.250    2.625    1.750    4.000 
#    0.000    1.250    0.000    5.250    0.000    0.000 
#    0.000    0.000    0.000    0.000    0.000    0.000 
#
# Total GULP energy -178521.059110 kJ/mol
# GULP energy per Si atom -5578.783097 kJ/mol
# Density = 2.213049 g / cm^3
# Si number density = 22.180972 Si / 1000 Ang^3
#
#
#
# Elastic Constant Matrix: (Units=GPa)
#
#
# Indices 1 2 3 4 5 6 
#
# 1 27.1202 -1.5746 -6.7769 0.0000 0.0000 0.0000
# 2 -1.5746 145.1230 75.2265 0.0000 0.0000 0.0000
# 3 -6.7769 75.2265 153.0982 0.0000 0.0000 0.0000
# 4 0.0000 0.0000 0.0000 31.7961 0.0000 0.0000
# 5 0.0000 0.0000 0.0000 0.0000 9.0381 0.0000
# 6 0.0000 0.0000 0.0000 0.0000 0.0000 12.3953
#
#
#
# Elastic Compliance Matrix: (Units=1/GPa)
#
#
# Indices 1 2 3 4 5 6 
#
# 1 0.037325 -0.000606 0.001950 0.000000 0.000000 0.000000
# 2 -0.000606 0.009255 -0.004575 0.000000 0.000000 0.000000
# 3 0.001950 -0.004575 0.008866 0.000000 0.000000 0.000000
# 4 0.000000 0.000000 0.000000 0.031450 0.000000 0.000000
# 5 0.000000 0.000000 0.000000 0.000000 0.110642 0.000000
# 6 0.000000 0.000000 0.000000 0.000000 0.000000 0.080676
#
#
# Mechanical properties :
#
#
# Convention : Reuss Voigt Hill
#
# Bulk Modulus (GPa) = 20.41428 51.01015 35.71222
# Shear Modulus (GPa) = 16.61106 27.87700 22.24403
#
# Velocity S-wave (km/s) = 2.73955 3.54898 3.17021
# Velocity P-wave (km/s) = 4.38524 6.31196 5.43467
#
# Compressibility (1/GPa) = 0.04898532
#
# Stress axis : x y z
#
# Youngs Moduli (GPa) = 26.79169 108.04473 112.79254
#
# Poissons Ratio (x) = 0.06545 -0.21993
# Poissons Ratio (y) = 0.01623 0.51598
# Poissons Ratio (z) = -0.05224 0.49426
#
# Static dielectric constant tensor:
#      x y z
#    x 1.820960 0.000000 0.000000 
#    y 0.000000 1.784740 0.000000 
#    z 0.000000 0.000000 1.848640 
# 
# From -- ./inp_files/7184.got.cif
#   From: 2010.05.17/outbox.cif.g08.bks.cpg/sg36_4_cif.got.tgz:7184.got - 2010.06.03 17:41:39.
