data_PCOD9351520
_publ_section_title
;
Structure prediction by ZEFSAII (Michael W. Deem and Ramdas Pophale) SiO2 
 PCOD9351520
Probable space group: C M C 21
;
_chemical_formula_sum "Si O2"
_cell_formula_units_Z 44
_cell_length_a 15.180326
_cell_length_b 17.827769
_cell_length_c 8.250622
_cell_angle_alpha 90.000000
_cell_angle_beta 90.000000
_cell_angle_gamma 90.000000
_cell_volume 2232.876931
_symmetry_space_group_name_H-M "C M C 21"
_symmetry_group_IT_number 36
_symmetry_cell_setting 'orthorhombic'
loop_
_space_group_symop_operation_xyz
x,y,z
-x,-y,1/2+z
x,-y,1/2+z
-x,y,z
1/2+x,1/2+y,z
1/2-x,1/2-y,1/2+z
1/2+x,1/2-y,1/2+z
1/2-x,1/2+y,z
loop_
_atom_site_type_symbol
_atom_site_label
_atom_site_fract_x
_atom_site_fract_y
_atom_site_fract_z
Si Si1 0.330757 0.682398 0.232390
Si Si2 0.809207 0.674708 0.506489
Si Si3 0.000000 0.225820 0.728324
Si Si4 0.500000 0.833526 0.033196
Si Si5 0.500000 0.757100 0.378409
Si Si6 0.103502 0.046068 0.029803
Si Si7 0.348432 0.396129 0.194057
O O1 0.241674 0.681469 0.336731
O O2 0.323761 0.743049 0.086987
O O3 0.411384 0.709662 0.345585
O O4 0.357604 0.601660 0.164496
O O5 0.903594 0.633705 0.497323
O O6 0.743790 0.631508 0.626145
O O7 0.000000 0.264451 0.903530
O O8 0.000000 0.279100 0.568078
O O9 0.085102 0.173055 0.712967
O O10 0.500000 0.814089 0.225574
O O11 0.000000 0.063628 0.005288
O O12 0.112427 0.959745 0.077119
O O13 0.155874 0.064730 0.867760
#
# Coordination Sequence:
#
# PCOD9351520 Si02
#       7
#     8   8   4   4   4   8   8
#     4  11  21  37  60  88 128 167 211 258 327 386
#     4  11  23  39  59  89 123 173 217 271 309 381
#     4  12  20  37  61  94 126 171 200 258 326 401
#     4  10  24  42  59  87 128 168 227 277 303 360
#     4  10  20  33  60  87 128 161 203 251 323 385
#     4  12  23  39  62  96 135 168 198 264 346 410
#     4  12  24  37  61  92 133 169 211 254 332 408
#
# _framework density 19.705518000000001
#
# number of rings (size 3 to 8) (size 9 to 14) (size 15 to 20)
#    0.000    0.727    4.545    5.455    0.000    0.000 
#    0.000    0.000    0.000    4.364    0.000    0.000 
#    0.000    0.000    0.000    0.000    0.000    0.000 
#
# Total GULP energy -122882.150905 kJ/mol
# GULP energy per Si atom -5585.552314 kJ/mol
# Density = 1.966067 g / cm^3
# Si number density = 19.705518 Si / 1000 Ang^3
#
#
#
# Elastic Constant Matrix: (Units=GPa)
#
#
# Indices 1 2 3 4 5 6 
#
# 1 139.5336 10.9829 6.9888 0.0000 0.0000 0.0000
# 2 10.9829 41.0166 9.2313 0.0000 0.0000 0.0000
# 3 6.9888 9.2313 63.8162 0.0000 0.0000 0.0000
# 4 0.0000 0.0000 0.0000 20.0022 0.0000 0.0000
# 5 0.0000 0.0000 0.0000 0.0000 39.3504 0.0000
# 6 0.0000 0.0000 0.0000 0.0000 0.0000 12.7502
#
#
#
# Elastic Compliance Matrix: (Units=1/GPa)
#
#
# Indices 1 2 3 4 5 6 
#
# 1 0.007339 -0.001844 -0.000537 0.000000 0.000000 0.000000
# 2 -0.001844 0.025664 -0.003510 0.000000 0.000000 0.000000
# 3 -0.000537 -0.003510 0.016237 0.000000 0.000000 0.000000
# 4 0.000000 0.000000 0.000000 0.049995 0.000000 0.000000
# 5 0.000000 0.000000 0.000000 0.000000 0.025413 0.000000
# 6 0.000000 0.000000 0.000000 0.000000 0.000000 0.078430
#
#
# Mechanical properties :
#
#
# Convention : Reuss Voigt Hill
#
# Bulk Modulus (GPa) = 26.69773 33.19693 29.94733
# Shear Modulus (GPa) = 21.99291 28.89810 25.44551
#
# Velocity S-wave (km/s) = 3.34440 3.83364 3.59735
# Velocity P-wave (km/s) = 5.33771 6.03977 5.69956
#
# Compressibility (1/GPa) = 0.03745637
#
# Stress axis : x y z
#
# Youngs Moduli (GPa) = 136.26225 38.96464 61.58920
#
# Poissons Ratio (x) = 0.07186 0.03307
# Poissons Ratio (y) = 0.25130 0.21621
# Poissons Ratio (z) = 0.07316 0.13678
#
# Static dielectric constant tensor:
#      x y z
#    x 1.697710 0.000000 0.000000 
#    y 0.000000 1.668590 0.000000 
#    z 0.000000 0.000000 1.740160 
# 
# From -- ./inp_files/3957.got.cif
#   From: 2010.05.17/outbox.cif.g08.bks.cpg/sg36_2_cif.got.tgz:3957.got - 2010.06.03 17:41:39.
