data_PCOD9351226
_publ_section_title
;
Structure prediction by ZEFSAII (Michael W. Deem and Ramdas Pophale) SiO2 
 PCOD9351226
Probable space group: C M C 21
;
_chemical_formula_sum "Si O2"
_cell_formula_units_Z 64
_cell_length_a 7.883669
_cell_length_b 32.682036
_cell_length_c 11.496152
_cell_angle_alpha 90.000000
_cell_angle_beta 90.000000
_cell_angle_gamma 90.000000
_cell_volume 2962.033618
_symmetry_space_group_name_H-M "C M C 21"
_symmetry_group_IT_number 36
_symmetry_cell_setting 'orthorhombic'
loop_
_space_group_symop_operation_xyz
x,y,z
-x,-y,1/2+z
x,-y,1/2+z
-x,y,z
1/2+x,1/2+y,z
1/2-x,1/2-y,1/2+z
1/2+x,1/2-y,1/2+z
1/2-x,1/2+y,z
loop_
_atom_site_type_symbol
_atom_site_label
_atom_site_fract_x
_atom_site_fract_y
_atom_site_fract_z
Si Si1 0.805620 0.634536 0.125000
Si Si2 0.191925 0.926638 0.811720
Si Si3 0.296866 0.777460 0.696811
Si Si4 0.198316 0.638438 0.491318
Si Si5 0.293367 0.419319 0.180392
Si Si6 0.207095 0.988043 0.999311
Si Si7 0.296037 0.233093 0.454865
Si Si8 0.799515 0.075461 0.940745
O O1 0.792185 0.596213 0.211874
O O2 0.732008 0.675626 0.182409
O O3 0.000000 0.643461 0.099604
O O4 0.724600 0.617600 0.008151
O O5 0.000000 0.934191 0.769154
O O6 0.193607 0.892636 0.913618
O O7 0.256561 0.967202 0.876030
O O8 0.500000 0.779227 0.711854
O O9 0.264555 0.756337 0.571601
O O10 0.235344 0.758084 0.820828
O O11 0.225096 0.621706 0.620521
O O12 0.245261 0.685245 0.474145
O O13 0.000000 0.634025 0.457384
O O14 0.500000 0.418034 0.178967
O O15 0.237432 0.458104 0.102485
O O16 0.230824 0.423097 0.311046
O O17 0.000000 0.986596 0.001274
O O18 0.266017 0.034643 0.005080
O O19 0.500000 0.237944 0.456089
O O20 0.000000 0.068827 0.930707
#
# Coordination Sequence:
#
# PCOD9351226 Si02
#       8
#     8   8   8   8   8   8   8   8
#     4  11  23  40  58  82 121 158 190 239 303 359
#     4  10  19  34  61  88 109 144 196 239 278 340
#     4  10  23  43  63  87 123 160 200 252 308 366
#     4  10  19  36  60  83 115 151 184 233 295 351
#     4   9  19  35  54  82 116 149 197 248 288 345
#     4   8  17  33  56  83 110 146 192 244 291 333
#     4  10  22  41  63  90 121 156 200 251 306 366
#     4  10  21  36  57  83 115 154 199 248 293 344
#
# _framework density 21.606779
#
# number of rings (size 3 to 8) (size 9 to 14) (size 15 to 20)
#    0.000    2.250    1.250    1.875    1.750    4.000 
#    0.000    8.125    0.000    0.000    0.000    0.000 
#    0.000    0.000    0.000    0.000    0.000    0.000 
#
# Total GULP energy -178426.975926 kJ/mol
# GULP energy per Si atom -5575.842998 kJ/mol
# Density = 2.155760 g / cm^3
# Si number density = 21.606779 Si / 1000 Ang^3
#
#
#
# Elastic Constant Matrix: (Units=GPa)
#
#
# Indices 1 2 3 4 5 6 
#
# 1 21.0195 6.6034 4.1697 0.0000 0.0000 0.0000
# 2 6.6034 61.0649 44.8832 0.0000 0.0000 0.0000
# 3 4.1697 44.8832 143.2084 0.0000 0.0000 0.0000
# 4 0.0000 0.0000 0.0000 24.1408 0.0000 0.0000
# 5 0.0000 0.0000 0.0000 0.0000 21.9481 0.0000
# 6 0.0000 0.0000 0.0000 0.0000 0.0000 39.4060
#
#
#
# Elastic Compliance Matrix: (Units=1/GPa)
#
#
# Indices 1 2 3 4 5 6 
#
# 1 0.049258 -0.005551 0.000306 0.000000 0.000000 0.000000
# 2 -0.005551 0.021903 -0.006703 0.000000 0.000000 0.000000
# 3 0.000306 -0.006703 0.009075 0.000000 0.000000 0.000000
# 4 0.000000 0.000000 0.000000 0.041424 0.000000 0.000000
# 5 0.000000 0.000000 0.000000 0.000000 0.045562 0.000000
# 6 0.000000 0.000000 0.000000 0.000000 0.000000 0.025377
#
#
# Mechanical properties :
#
#
# Convention : Reuss Voigt Hill
#
# Bulk Modulus (GPa) = 17.74979 37.40059 27.57519
# Shear Modulus (GPa) = 21.25167 28.40809 24.82988
#
# Velocity S-wave (km/s) = 3.13959 3.62992 3.39362
# Velocity P-wave (km/s) = 4.62336 5.90895 5.30524
#
# Compressibility (1/GPa) = 0.05633870
#
# Stress axis : x y z
#
# Youngs Moduli (GPa) = 20.30117 45.65558 110.19580
#
# Poissons Ratio (x) = 0.25345 -0.03368
# Poissons Ratio (y) = 0.11270 0.73865
# Poissons Ratio (z) = -0.00620 0.30603
#
# Static dielectric constant tensor:
#      x y z
#    x 1.781480 0.000000 0.000000 
#    y 0.000000 1.772670 0.000000 
#    z 0.000000 0.000000 1.840450 
# 
# From -- ./inp_files/7258.got.cif
#   From: 2010.05.17/outbox.cif.g08.bks.cpg/sg36_4_cif.got.tgz:7258.got - 2010.06.03 17:41:39.
