data_PCOD9351360
_publ_section_title
;
Structure prediction by ZEFSAII (Michael W. Deem and Ramdas Pophale) SiO2 
 PCOD9351360
Probable space group: C M C 21
;
_chemical_formula_sum "Si O2"
_cell_formula_units_Z 64
_cell_length_a 8.293633
_cell_length_b 15.724843
_cell_length_c 24.014930
_cell_angle_alpha 90.000000
_cell_angle_beta 90.000000
_cell_angle_gamma 90.000000
_cell_volume 3131.932956
_symmetry_space_group_name_H-M "C M C 21"
_symmetry_group_IT_number 36
_symmetry_cell_setting 'orthorhombic'
loop_
_space_group_symop_operation_xyz
x,y,z
-x,-y,1/2+z
x,-y,1/2+z
-x,y,z
1/2+x,1/2+y,z
1/2-x,1/2-y,1/2+z
1/2+x,1/2-y,1/2+z
1/2-x,1/2+y,z
loop_
_atom_site_type_symbol
_atom_site_label
_atom_site_fract_x
_atom_site_fract_y
_atom_site_fract_z
Si Si1 0.690713 0.854337 0.334890
Si Si2 0.190292 0.148230 0.592442
Si Si3 0.696860 0.665344 0.340540
Si Si4 0.814696 0.483048 0.532870
Si Si5 0.690215 0.504242 0.410538
Si Si6 0.194587 0.096589 0.716210
Si Si7 0.303847 0.602844 0.219487
Si Si8 0.189246 0.828004 0.602065
O O1 0.500000 0.863759 0.345237
O O2 0.744794 0.761136 0.354874
O O3 0.781776 0.930368 0.365463
O O4 0.723307 0.860068 0.268980
O O5 0.240881 0.135807 0.656919
O O6 0.226428 0.245193 0.576905
O O7 0.000000 0.131384 0.589171
O O8 0.275777 0.076779 0.555892
O O9 0.500000 0.663614 0.339445
O O10 0.748684 0.592612 0.383320
O O11 0.751504 0.641186 0.278109
O O12 0.777776 0.481920 0.467557
O O13 0.712744 0.412466 0.565665
O O14 0.000000 0.462531 0.543521
O O15 0.500000 0.512293 0.422132
O O16 0.000000 0.102727 0.722340
O O17 0.238489 0.996670 0.716064
O O18 0.500000 0.606389 0.218804
O O19 0.246798 0.651196 0.164256
O O20 0.000000 0.808880 0.606156
#
# Coordination Sequence:
#
# PCOD9351360 Si02
#       8
#     8   8   8   8   8   8   8   8
#     4  11  22  37  60  94 126 156 201 258 309 365
#     4  11  23  41  64  94 129 167 209 258 313 374
#     4   9  19  36  61  88 119 158 197 240 300 364
#     4  12  26  44  64  90 124 162 211 268 318 375
#     4  11  23  43  66  85 115 164 211 254 312 378
#     4  10  19  36  62  90 124 165 204 245 304 375
#     4   9  16  33  61  90 121 159 201 244 301 370
#     4  11  22  40  66  95 126 165 208 257 315 377
#
# _framework density 20.434664000000001
#
# number of rings (size 3 to 8) (size 9 to 14) (size 15 to 20)
#    0.000    1.500    2.500    3.375    0.000    3.000 
#    0.000    6.250    0.000    0.000    0.000    0.000 
#    0.000    0.000    0.000    0.000    0.000    0.000 
#
# Total GULP energy -178900.629364 kJ/mol
# GULP energy per Si atom -5590.644668 kJ/mol
# Density = 2.038815 g / cm^3
# Si number density = 20.434664 Si / 1000 Ang^3
#
#
#
# Elastic Constant Matrix: (Units=GPa)
#
#
# Indices 1 2 3 4 5 6 
#
# 1 22.6583 -4.6906 -2.6759 0.0000 0.0000 0.0000
# 2 -4.6906 75.8493 -21.3429 0.0000 0.0000 0.0000
# 3 -2.6759 -21.3429 42.2363 0.0000 0.0000 0.0000
# 4 0.0000 0.0000 0.0000 0.1956 0.0000 0.0000
# 5 0.0000 0.0000 0.0000 0.0000 2.7612 0.0000
# 6 0.0000 0.0000 0.0000 0.0000 0.0000 21.1225
#
#
#
# Elastic Compliance Matrix: (Units=1/GPa)
#
#
# Indices 1 2 3 4 5 6 
#
# 1 0.045605 0.004235 0.005030 0.000000 0.000000 0.000000
# 2 0.004235 0.015763 0.008234 0.000000 0.000000 0.000000
# 3 0.005030 0.008234 0.028156 0.000000 0.000000 0.000000
# 4 0.000000 0.000000 0.000000 5.111234 0.000000 0.000000
# 5 0.000000 0.000000 0.000000 0.000000 0.362158 0.000000
# 6 0.000000 0.000000 0.000000 0.000000 0.000000 0.047343
#
#
# Mechanical properties :
#
#
# Convention : Reuss Voigt Hill
#
# Bulk Modulus (GPa) = 8.03082 9.25836 8.64459
# Shear Modulus (GPa) = 0.89019 16.11277 8.50148
#
# Velocity S-wave (km/s) = 0.66074 2.81107 2.04190
# Velocity P-wave (km/s) = 2.12618 3.88288 3.13028
#
# Compressibility (1/GPa) = 0.12452022
#
# Stress axis : x y z
#
# Youngs Moduli (GPa) = 21.92760 63.44061 35.51691
#
# Poissons Ratio (x) = -0.26870 -0.17863
# Poissons Ratio (y) = -0.09287 -0.29243
# Poissons Ratio (z) = -0.11029 -0.52235
#
# Static dielectric constant tensor:
#      x y z
#    x 1.696530 0.000000 0.000000 
#    y 0.000000 1.713130 0.000000 
#    z 0.000000 0.000000 1.699880 
# 
# From -- ./inp_files/16591.got.cif
#   From: 2010.05.17/outbox.cif.g08.bks.cpg/sg36_9_cif.got.tgz:16591.got - 2010.06.03 17:41:39.
