data_PCOD9351728
_publ_section_title
;
Structure prediction by ZEFSAII (Michael W. Deem and Ramdas Pophale) SiO2 
 PCOD9351728
Probable space group: C M C 21
;
_chemical_formula_sum "Si O2"
_cell_formula_units_Z 64
_cell_length_a 9.131739
_cell_length_b 29.032919
_cell_length_c 12.538798
_cell_angle_alpha 90.000000
_cell_angle_beta 90.000000
_cell_angle_gamma 90.000000
_cell_volume 3324.299150
_symmetry_space_group_name_H-M "C M C 21"
_symmetry_group_IT_number 36
_symmetry_cell_setting 'orthorhombic'
loop_
_space_group_symop_operation_xyz
x,y,z
-x,-y,1/2+z
x,-y,1/2+z
-x,y,z
1/2+x,1/2+y,z
1/2-x,1/2-y,1/2+z
1/2+x,1/2-y,1/2+z
1/2-x,1/2+y,z
loop_
_atom_site_type_symbol
_atom_site_label
_atom_site_fract_x
_atom_site_fract_y
_atom_site_fract_z
Si Si1 0.332762 0.345969 0.976360
Si Si2 0.172838 0.578653 0.607060
Si Si3 0.325607 0.773001 0.840151
Si Si4 0.325063 0.836867 0.639555
Si Si5 0.672902 0.987955 0.904989
Si Si6 0.167994 0.086609 0.269372
Si Si7 0.674435 0.426508 0.328774
Si Si8 0.674617 0.674281 0.915884
O O1 0.500000 0.339112 0.012196
O O2 0.259340 0.299422 0.934208
O O3 0.334902 0.379438 0.872506
O O4 0.238891 0.373420 0.063102
O O5 0.193324 0.541105 0.513324
O O6 0.258320 0.564754 0.712634
O O7 0.000000 0.582943 0.627439
O O8 0.500000 0.779291 0.856704
O O9 0.289624 0.798249 0.729084
O O10 0.292551 0.718962 0.844366
O O11 0.500000 0.842283 0.636069
O O12 0.250507 0.884325 0.679065
O O13 0.260995 0.822847 0.526276
O O14 0.500000 0.993035 0.886200
O O15 0.745649 0.957996 0.810140
O O16 0.751664 0.036949 0.907686
O O17 0.000000 0.076162 0.240241
O O18 0.500000 0.432403 0.328226
O O19 0.709244 0.374139 0.360783
O O20 0.500000 0.674649 0.937880
#
# Coordination Sequence:
#
# PCOD9351728 Si02
#       8
#     8   8   8   8   8   8   8   8
#     4   9  17  31  55  86 114 141 182 232 279 333
#     4  10  21  38  60  85 115 151 189 233 286 340
#     4   9  19  37  58  81 112 150 192 237 285 338
#     4  10  20  35  58  86 115 149 190 237 288 339
#     4  10  21  38  60  85 113 147 190 237 284 339
#     4   9  17  32  56  84 113 145 183 229 279 333
#     4  11  24  40  58  82 115 153 192 236 284 336
#     4  10  23  41  57  79 115 154 192 235 283 338
#
# _framework density 19.252179999999999
#
# number of rings (size 3 to 8) (size 9 to 14) (size 15 to 20)
#    0.000    2.250    0.000    2.250    0.000    8.500 
#    0.000    3.750    0.000    0.000    0.000    0.000 
#    0.000    0.000    0.000    0.000    0.000    0.000 
#
# Total GULP energy -178699.419416 kJ/mol
# GULP energy per Si atom -5584.356857 kJ/mol
# Density = 1.920836 g / cm^3
# Si number density = 19.252180 Si / 1000 Ang^3
#
#
#
# Elastic Constant Matrix: (Units=GPa)
#
#
# Indices 1 2 3 4 5 6 
#
# 1 91.0959 70.8197 45.1800 0.0000 0.0000 0.0000
# 2 70.8197 127.0418 27.8626 0.0000 0.0000 0.0000
# 3 45.1800 27.8626 55.4995 0.0000 0.0000 0.0000
# 4 0.0000 0.0000 0.0000 14.7724 0.0000 0.0000
# 5 0.0000 0.0000 0.0000 0.0000 30.9825 0.0000
# 6 0.0000 0.0000 0.0000 0.0000 0.0000 30.0834
#
#
#
# Elastic Compliance Matrix: (Units=1/GPa)
#
#
# Indices 1 2 3 4 5 6 
#
# 1 0.029569 -0.012590 -0.017750 0.000000 0.000000 0.000000
# 2 -0.012590 0.014206 0.003117 0.000000 0.000000 0.000000
# 3 -0.017750 0.003117 0.030903 0.000000 0.000000 0.000000
# 4 0.000000 0.000000 0.000000 0.067694 0.000000 0.000000
# 5 0.000000 0.000000 0.000000 0.000000 0.032276 0.000000
# 6 0.000000 0.000000 0.000000 0.000000 0.000000 0.033241
#
#
# Mechanical properties :
#
#
# Convention : Reuss Voigt Hill
#
# Bulk Modulus (GPa) = 49.42738 62.37354 55.90046
# Shear Modulus (GPa) = 18.58196 23.81932 21.20064
#
# Velocity S-wave (km/s) = 3.11012 3.52124 3.32204
# Velocity P-wave (km/s) = 6.21502 7.00005 6.61918
#
# Compressibility (1/GPa) = 0.02023170
#
# Stress axis : x y z
#
# Youngs Moduli (GPa) = 33.81970 70.39185 32.35954
#
# Poissons Ratio (x) = 0.88625 0.57438
# Poissons Ratio (y) = 0.42580 -0.10087
# Poissons Ratio (z) = 0.60030 -0.21943
#
# Static dielectric constant tensor:
#      x y z
#    x 1.643920 0.000000 0.000000 
#    y 0.000000 1.675540 0.000000 
#    z 0.000000 0.000000 1.669860 
# 
# From -- ./inp_files/7148.got.cif
#   From: 2010.05.17/outbox.cif.g08.bks.cpg/sg36_4_cif.got.tgz:7148.got - 2010.06.03 17:41:39.
