data_PCOD9351545
_publ_section_title
;
Structure prediction by ZEFSAII (Michael W. Deem and Ramdas Pophale) SiO2 
 PCOD9351545
Probable space group: C M C 21
;
_chemical_formula_sum "Si O2"
_cell_formula_units_Z 64
_cell_length_a 8.053513
_cell_length_b 25.638667
_cell_length_c 13.085484
_cell_angle_alpha 90.000000
_cell_angle_beta 90.000000
_cell_angle_gamma 90.000000
_cell_volume 2701.908245
_symmetry_space_group_name_H-M "C M C 21"
_symmetry_group_IT_number 36
_symmetry_cell_setting 'orthorhombic'
loop_
_space_group_symop_operation_xyz
x,y,z
-x,-y,1/2+z
x,-y,1/2+z
-x,y,z
1/2+x,1/2+y,z
1/2-x,1/2-y,1/2+z
1/2+x,1/2-y,1/2+z
1/2-x,1/2+y,z
loop_
_atom_site_type_symbol
_atom_site_label
_atom_site_fract_x
_atom_site_fract_y
_atom_site_fract_z
Si Si1 0.692997 0.699075 0.779530
Si Si2 0.192235 0.550302 0.984963
Si Si3 0.805407 0.417959 0.707019
Si Si4 0.298217 0.325353 0.054584
Si Si5 0.695568 0.690596 0.221091
Si Si6 0.307354 0.471634 0.272753
Si Si7 0.198540 0.938109 0.045319
Si Si8 0.198926 0.212424 0.993583
O O1 0.500000 0.682769 0.779696
O O2 0.764224 0.679587 0.672133
O O3 0.705862 0.762127 0.771656
O O4 0.768239 0.686764 0.890362
O O5 0.270926 0.560537 0.874899
O O6 0.000000 0.564169 0.980783
O O7 0.264390 0.573099 0.090956
O O8 0.211956 0.487818 0.998971
O O9 0.720525 0.368175 0.758203
O O10 0.784931 0.473012 0.763871
O O11 0.000000 0.406633 0.699575
O O12 0.500000 0.324759 0.056275
O O13 0.246245 0.381029 0.010641
O O14 0.240757 0.273710 0.997813
O O15 0.500000 0.703849 0.225995
O O16 0.754387 0.690333 0.102398
O O17 0.500000 0.485416 0.273194
O O18 0.274251 0.441119 0.167862
O O19 0.000000 0.944056 0.027150
O O20 0.000000 0.206766 0.990411
#
# Coordination Sequence:
#
# PCOD9351545 Si02
#       8
#     8   8   8   8   8   8   8   8
#     4   9  18  34  53  73 102 138 171 206 253 306
#     4  10  21  36  54  77 106 138 171 210 258 312
#     4  10  21  37  55  76 105 140 176 213 258 312
#     4   9  18  33  53  75 100 131 168 209 251 297
#     4  10  20  34  53  78 105 133 171 217 260 303
#     4  10  20  35  56  79 104 135 173 217 260 304
#     4   9  19  35  54  77 103 134 174 216 258 304
#     4   9  19  34  52  75 103 135 170 208 252 304
#
# _framework density 23.686964
#
# number of rings (size 3 to 8) (size 9 to 14) (size 15 to 20)
#    0.000    2.500    0.000    1.500    0.000    5.500 
#    0.000    5.000    0.000    3.000    0.000    0.000 
#    0.000    0.000    0.000    0.000    0.000    0.000 
#
# Total GULP energy -178744.362686 kJ/mol
# GULP energy per Si atom -5585.761334 kJ/mol
# Density = 2.363305 g / cm^3
# Si number density = 23.686964 Si / 1000 Ang^3
#
#
#
# Elastic Constant Matrix: (Units=GPa)
#
#
# Indices 1 2 3 4 5 6 
#
# 1 24.1663 -3.7002 7.7354 0.0000 0.0000 0.0000
# 2 -3.7002 81.7529 -34.9092 0.0000 0.0000 0.0000
# 3 7.7354 -34.9092 72.3418 0.0000 0.0000 0.0000
# 4 0.0000 0.0000 0.0000 -13.7169 0.0000 0.0000
# 5 0.0000 0.0000 0.0000 0.0000 18.6857 0.0000
# 6 0.0000 0.0000 0.0000 0.0000 0.0000 19.4355
#
#
#
# Elastic Compliance Matrix: (Units=1/GPa)
#
#
# Indices 1 2 3 4 5 6 
#
# 1 0.042846 -0.000022 -0.004592 0.000000 0.000000 0.000000
# 2 -0.000022 0.015407 0.007437 0.000000 0.000000 0.000000
# 3 -0.004592 0.007437 0.017903 0.000000 0.000000 0.000000
# 4 0.000000 0.000000 0.000000 -0.072903 0.000000 0.000000
# 5 0.000000 0.000000 0.000000 0.000000 0.053517 0.000000
# 6 0.000000 0.000000 0.000000 0.000000 0.000000 0.051452
#
#
# Mechanical properties :
#
#
# Convention : Reuss Voigt Hill
#
# Bulk Modulus (GPa) = 12.22446 12.94588 12.58517
# Shear Modulus (GPa) = 38.50803 18.82320 28.66561
#
# Velocity S-wave (km/s) = 4.03638 2.82204 3.48255
# Velocity P-wave (km/s) = 5.18606 4.01196 4.63632
#
# Compressibility (1/GPa) = 0.08180317
#
# Stress axis : x y z
#
# Youngs Moduli (GPa) = 23.33916 64.90707 55.85643
#
# Poissons Ratio (x) = 0.00140 0.25649
# Poissons Ratio (y) = 0.00050 -0.41540
# Poissons Ratio (z) = 0.10717 -0.48271
#
# Static dielectric constant tensor:
#      x y z
#    x 1.832530 0.000000 0.000000 
#    y 0.000000 1.899970 0.000000 
#    z 0.000000 0.000000 1.964620 
# 
# From -- ./inp_files/11193.got.cif
#   From: 2010.05.17/outbox.cif.g08.bks.cpg/sg36_6_cif.got.tgz:11193.got - 2010.06.03 17:41:39.
