data_PCOD9351811
_publ_section_title
;
Structure prediction by ZEFSAII (Michael W. Deem and Ramdas Pophale) SiO2 
 PCOD9351811
Probable space group: C M C 21
;
_chemical_formula_sum "Si O2"
_cell_formula_units_Z 56
_cell_length_a 29.800356
_cell_length_b 5.251762
_cell_length_c 14.663833
_cell_angle_alpha 90.000000
_cell_angle_beta 90.000000
_cell_angle_gamma 90.000000
_cell_volume 2294.954051
_symmetry_space_group_name_H-M "C M C 21"
_symmetry_group_IT_number 36
_symmetry_cell_setting 'orthorhombic'
loop_
_space_group_symop_operation_xyz
x,y,z
-x,-y,1/2+z
x,-y,1/2+z
-x,y,z
1/2+x,1/2+y,z
1/2-x,1/2-y,1/2+z
1/2+x,1/2-y,1/2+z
1/2-x,1/2+y,z
loop_
_atom_site_type_symbol
_atom_site_label
_atom_site_fract_x
_atom_site_fract_y
_atom_site_fract_z
Si Si1 0.776099 0.579633 0.988720
Si Si2 0.373766 0.659574 0.292683
Si Si3 0.673225 0.162698 0.630177
Si Si4 0.050499 0.524483 0.382429
Si Si5 0.145871 0.939163 0.978042
Si Si6 0.418204 0.902654 0.569900
Si Si7 0.953326 0.103180 0.722306
O O1 0.755032 0.313898 0.958448
O O2 0.825079 0.680235 0.960174
O O3 0.785921 0.516838 0.096614
O O4 0.330939 0.753371 0.234805
O O5 0.408617 0.861962 0.337964
O O6 0.360125 0.467689 0.374587
O O7 0.406161 0.536440 0.216760
O O8 0.670608 0.390467 0.554173
O O9 0.626772 0.013454 0.613648
O O10 0.062130 0.567512 0.488063
O O11 0.047174 0.777686 0.322765
O O12 0.000000 0.405540 0.378296
O O13 0.098596 0.854710 0.019440
O O14 0.451129 0.830597 0.650070
O O15 0.000000 0.958734 0.707421
#
# Coordination Sequence:
#
# PCOD9351811 Si02
#       7
#     8   8   8   8   8   8   8
#     4  11  23  45  74 101 138 172 213 273 341 411
#     4  11  22  39  62  93 129 170 232 280 336 416
#     4  11  21  40  67  95 130 181 222 277 344 408
#     4  10  21  37  55  81 125 173 223 287 340 389
#     4  10  22  40  67  96 128 180 222 277 341 407
#     4  10  20  36  58  88 123 172 233 277 338 414
#     4  11  21  35  57  88 130 178 232 297 350 395
#
# _framework density 24.401361000000001
#
# number of rings (size 3 to 8) (size 9 to 14) (size 15 to 20)
#    0.000    1.429    4.286    1.714    0.000    0.000 
#    0.000    1.429    0.000    0.000    0.000    0.000 
#    0.000    0.000    0.000    0.000    0.000    0.000 
#
# Total GULP energy -156028.673508 kJ/mol
# GULP energy per Si atom -5572.452625 kJ/mol
# Density = 2.434582 g / cm^3
# Si number density = 24.401361 Si / 1000 Ang^3
#
#
#
# Elastic Constant Matrix: (Units=GPa)
#
#
# Indices 1 2 3 4 5 6 
#
# 1 48.3926 13.8426 -5.2591 0.0000 0.0000 0.0000
# 2 13.8426 72.6500 6.1557 0.0000 0.0000 0.0000
# 3 -5.2591 6.1557 95.3149 0.0000 0.0000 0.0000
# 4 0.0000 0.0000 0.0000 27.3974 0.0000 0.0000
# 5 0.0000 0.0000 0.0000 0.0000 187.7492 0.0000
# 6 0.0000 0.0000 0.0000 0.0000 0.0000 29.7859
#
#
#
# Elastic Compliance Matrix: (Units=1/GPa)
#
#
# Indices 1 2 3 4 5 6 
#
# 1 0.022066 -0.004331 0.001497 0.000000 0.000000 0.000000
# 2 -0.004331 0.014691 -0.001188 0.000000 0.000000 0.000000
# 3 0.001497 -0.001188 0.010651 0.000000 0.000000 0.000000
# 4 0.000000 0.000000 0.000000 0.036500 0.000000 0.000000
# 5 0.000000 0.000000 0.000000 0.000000 0.005326 0.000000
# 6 0.000000 0.000000 0.000000 0.000000 0.000000 0.033573
#
#
# Mechanical properties :
#
#
# Convention : Reuss Voigt Hill
#
# Bulk Modulus (GPa) = 25.40402 27.31509 26.35955
# Shear Modulus (GPa) = 34.72917 62.42773 48.57845
#
# Velocity S-wave (km/s) = 3.77669 5.06352 4.46669
# Velocity P-wave (km/s) = 5.42691 6.73825 6.11782
#
# Compressibility (1/GPa) = 0.03936385
#
# Stress axis : x y z
#
# Youngs Moduli (GPa) = 45.31858 68.07100 93.88917
#
# Poissons Ratio (x) = 0.29483 -0.14058
# Poissons Ratio (y) = 0.19629 0.11152
# Poissons Ratio (z) = -0.06785 0.08085
#
# Static dielectric constant tensor:
#      x y z
#    x 2.003350 0.000000 0.000000 
#    y 0.000000 2.069890 0.000000 
#    z 0.000000 0.000000 1.963480 
# 
# From -- ./inp_files/13176.got.cif
#   From: 2010.05.17/outbox.cif.g08.bks.cpg/sg36_7_cif.got.tgz:13176.got - 2010.06.03 17:41:39.
