data_PCOD9351845
_publ_section_title
;
Structure prediction by ZEFSAII (Michael W. Deem and Ramdas Pophale) SiO2 
 PCOD9351845
Probable space group: C M C 21
;
_chemical_formula_sum "Si O2"
_cell_formula_units_Z 64
_cell_length_a 7.482999
_cell_length_b 24.869833
_cell_length_c 15.298494
_cell_angle_alpha 90.000000
_cell_angle_beta 90.000000
_cell_angle_gamma 90.000000
_cell_volume 2847.064045
_symmetry_space_group_name_H-M "C M C 21"
_symmetry_group_IT_number 36
_symmetry_cell_setting 'orthorhombic'
loop_
_space_group_symop_operation_xyz
x,y,z
-x,-y,1/2+z
x,-y,1/2+z
-x,y,z
1/2+x,1/2+y,z
1/2-x,1/2-y,1/2+z
1/2+x,1/2-y,1/2+z
1/2-x,1/2+y,z
loop_
_atom_site_type_symbol
_atom_site_label
_atom_site_fract_x
_atom_site_fract_y
_atom_site_fract_z
Si Si1 0.784603 0.241901 0.573510
Si Si2 0.217146 0.129729 0.491572
Si Si3 0.219016 0.253733 0.772534
Si Si4 0.709162 0.674768 0.926705
Si Si5 0.784133 0.027257 0.601576
Si Si6 0.792387 0.944047 0.459411
Si Si7 0.290987 0.010633 0.288458
Si Si8 0.798515 0.625674 0.294294
O O1 0.727145 0.188382 0.523279
O O2 0.729996 0.237673 0.674391
O O3 0.723363 0.293231 0.518019
O O4 0.000000 0.243488 0.573213
O O5 0.269991 0.083223 0.558031
O O6 0.299479 0.118214 0.398194
O O7 0.000000 0.129004 0.483203
O O8 0.281849 0.213546 0.849259
O O9 0.282662 0.315400 0.781984
O O10 0.000000 0.254904 0.778502
O O11 0.500000 0.667904 0.904629
O O12 0.786224 0.614704 0.937512
O O13 0.727674 0.023883 0.701412
O O14 0.000000 0.025880 0.599346
O O15 0.716859 0.978142 0.540725
O O16 0.786826 0.981679 0.373417
O O17 0.000000 0.934384 0.481592
O O18 0.500000 0.018501 0.307780
O O19 0.213690 0.069624 0.264135
O O20 0.000000 0.628606 0.257047
#
# Coordination Sequence:
#
# PCOD9351845 Si02
#       8
#     8   8   8   8   8   8   8   8
#     4  10  21  36  58  86 114 148 189 232 283 336
#     4  10  20  36  60  86 110 145 194 240 281 330
#     4   9  19  36  57  80 110 149 185 224 279 339
#     4  10  21  38  60  83 112 151 193 232 279 339
#     4  10  22  39  59  84 116 153 193 237 287 342
#     4  10  22  40  61  84 114 156 197 235 284 342
#     4  11  24  38  58  88 116 149 192 239 292 344
#     4  10  20  37  59  81 110 149 189 231 287 342
#
# _framework density 22.479298
#
# number of rings (size 3 to 8) (size 9 to 14) (size 15 to 20)
#    0.000    2.000    2.500    0.375    3.500    2.000 
#    0.000    1.250    0.000    0.000    0.000    0.000 
#    0.000    0.000    0.000    0.000    0.000    0.000 
#
# Total GULP energy -178704.252224 kJ/mol
# GULP energy per Si atom -5584.507882 kJ/mol
# Density = 2.242813 g / cm^3
# Si number density = 22.479298 Si / 1000 Ang^3
#
#
#
# Elastic Constant Matrix: (Units=GPa)
#
#
# Indices 1 2 3 4 5 6 
#
# 1 59.9429 4.4873 -13.2941 0.0000 0.0000 0.0000
# 2 4.4873 91.2271 -23.6094 0.0000 0.0000 0.0000
# 3 -13.2941 -23.6094 52.7834 0.0000 0.0000 0.0000
# 4 0.0000 0.0000 0.0000 35.2962 0.0000 0.0000
# 5 0.0000 0.0000 0.0000 0.0000 -32.2131 0.0000
# 6 0.0000 0.0000 0.0000 0.0000 0.0000 12.7303
#
#
#
# Elastic Compliance Matrix: (Units=1/GPa)
#
#
# Indices 1 2 3 4 5 6 
#
# 1 0.017678 0.000320 0.004595 0.000000 0.000000 0.000000
# 2 0.000320 0.012402 0.005628 0.000000 0.000000 0.000000
# 3 0.004595 0.005628 0.022620 0.000000 0.000000 0.000000
# 4 0.000000 0.000000 0.000000 0.028332 0.000000 0.000000
# 5 0.000000 0.000000 0.000000 0.000000 -0.031043 0.000000
# 6 0.000000 0.000000 0.000000 0.000000 0.000000 0.078553
#
#
# Mechanical properties :
#
#
# Convention : Reuss Voigt Hill
#
# Bulk Modulus (GPa) = 13.55262 15.45789 14.50525
# Shear Modulus (GPa) = 37.86424 18.92065 28.39245
#
# Velocity S-wave (km/s) = 4.10860 2.90434 3.55780
# Velocity P-wave (km/s) = 5.34317 4.25891 4.83156
#
# Compressibility (1/GPa) = 0.07378647
#
# Stress axis : x y z
#
# Youngs Moduli (GPa) = 56.56822 80.62931 44.20851
#
# Poissons Ratio (x) = -0.02578 -0.20315
# Poissons Ratio (y) = -0.01809 -0.24880
# Poissons Ratio (z) = -0.25995 -0.45378
#
# Static dielectric constant tensor:
#      x y z
#    x 2.357700 0.000000 0.000000 
#    y 0.000000 1.890630 0.000000 
#    z 0.000000 0.000000 1.762630 
# 
# From -- ./inp_files/10876.got.cif
#   From: 2010.05.17/outbox.cif.g08.bks.cpg/sg36_6_cif.got.tgz:10876.got - 2010.06.03 17:41:39.
