data_PCOD9351749
_publ_section_title
;
Structure prediction by ZEFSAII (Michael W. Deem and Ramdas Pophale) SiO2 
 PCOD9351749
Probable space group: C M C 21
;
_chemical_formula_sum "Si O2"
_cell_formula_units_Z 64
_cell_length_a 19.558349
_cell_length_b 9.265987
_cell_length_c 19.370995
_cell_angle_alpha 90.000000
_cell_angle_beta 90.000000
_cell_angle_gamma 90.000000
_cell_volume 3510.555206
_symmetry_space_group_name_H-M "C M C 21"
_symmetry_group_IT_number 36
_symmetry_cell_setting 'orthorhombic'
loop_
_space_group_symop_operation_xyz
x,y,z
-x,-y,1/2+z
x,-y,1/2+z
-x,y,z
1/2+x,1/2+y,z
1/2-x,1/2-y,1/2+z
1/2+x,1/2-y,1/2+z
1/2-x,1/2+y,z
loop_
_atom_site_type_symbol
_atom_site_label
_atom_site_fract_x
_atom_site_fract_y
_atom_site_fract_z
Si Si1 0.339748 0.840374 0.254690
Si Si2 0.791708 0.021968 0.269944
Si Si3 0.580690 0.127133 0.893122
Si Si4 0.314360 0.577964 0.922388
Si Si5 0.180034 0.709136 0.605711
Si Si6 0.325341 0.552396 0.622809
Si Si7 0.081330 0.891525 0.998206
Si Si8 0.680330 0.902428 0.958969
O O1 0.286537 0.970568 0.263719
O O2 0.296681 0.693491 0.264454
O O3 0.395195 0.839416 0.315110
O O4 0.361494 0.834254 0.174580
O O5 0.818170 0.971562 0.343554
O O6 0.834215 0.956318 0.205619
O O7 0.500000 0.103337 0.895119
O O8 0.596836 0.256710 0.947184
O O9 0.623648 0.990160 0.917963
O O10 0.382287 0.527359 0.961647
O O11 0.302997 0.748016 0.925942
O O12 0.249658 0.496607 0.956929
O O13 0.256460 0.644857 0.613332
O O14 0.154807 0.635812 0.535709
O O15 0.183356 0.883085 0.601713
O O16 0.383104 0.618702 0.573306
O O17 0.000000 0.906180 0.003949
#
# Coordination Sequence:
#
# PCOD9351749 Si02
#       8
#     8   8   8   8   8   8   8   8
#     4  10  20  37  59  88 120 151 194 244 303 359
#     4  10  20  35  60  92 117 147 195 247 300 346
#     4  11  25  42  59  83 121 163 203 248 302 363
#     4  12  21  36  63  91 118 152 196 251 292 352
#     4  10  20  35  59  92 117 149 193 249 300 347
#     4  10  21  37  57  91 121 150 193 249 301 355
#     4  11  23  40  59  83 120 161 199 243 299 359
#     4  12  22  36  62  92 120 151 201 251 297 349
#
# _framework density 18.230733000000001
#
# number of rings (size 3 to 8) (size 9 to 14) (size 15 to 20)
#    0.000    1.250    5.000    1.500    1.750    0.500 
#    0.000    3.750    0.000    1.500    0.000    0.000 
#    0.000    0.000    0.000    0.000    0.000    0.000 
#
# Total GULP energy -178573.606634 kJ/mol
# GULP energy per Si atom -5580.425207 kJ/mol
# Density = 1.818924 g / cm^3
# Si number density = 18.230733 Si / 1000 Ang^3
#
#
#
# Elastic Constant Matrix: (Units=GPa)
#
#
# Indices 1 2 3 4 5 6 
#
# 1 57.2865 30.4748 30.8661 0.0000 0.0000 0.0000
# 2 30.4748 91.1307 25.4195 0.0000 0.0000 0.0000
# 3 30.8661 25.4195 142.7203 0.0000 0.0000 0.0000
# 4 0.0000 0.0000 0.0000 21.8089 0.0000 0.0000
# 5 0.0000 0.0000 0.0000 0.0000 24.4401 0.0000
# 6 0.0000 0.0000 0.0000 0.0000 0.0000 17.1110
#
#
#
# Elastic Compliance Matrix: (Units=1/GPa)
#
#
# Indices 1 2 3 4 5 6 
#
# 1 0.023038 -0.006644 -0.003799 0.000000 0.000000 0.000000
# 2 -0.006644 0.013463 -0.000961 0.000000 0.000000 0.000000
# 3 -0.003799 -0.000961 0.007999 0.000000 0.000000 0.000000
# 4 0.000000 0.000000 0.000000 0.045853 0.000000 0.000000
# 5 0.000000 0.000000 0.000000 0.000000 0.040916 0.000000
# 6 0.000000 0.000000 0.000000 0.000000 0.000000 0.058442
#
#
# Mechanical properties :
#
#
# Convention : Reuss Voigt Hill
#
# Bulk Modulus (GPa) = 46.10014 51.62869 48.86442
# Shear Modulus (GPa) = 22.75312 26.29716 24.52514
#
# Velocity S-wave (km/s) = 3.53663 3.80210 3.67176
# Velocity P-wave (km/s) = 6.48220 6.90331 6.69607
#
# Compressibility (1/GPa) = 0.02169191
#
# Stress axis : x y z
#
# Youngs Moduli (GPa) = 43.40738 74.27667 125.00849
#
# Poissons Ratio (x) = 0.49351 0.47490
# Poissons Ratio (y) = 0.28841 0.12012
# Poissons Ratio (z) = 0.16490 0.07137
#
# Static dielectric constant tensor:
#      x y z
#    x 1.581730 0.000000 0.000000 
#    y 0.000000 1.626700 0.000000 
#    z 0.000000 0.000000 1.693520 
# 
# From -- ./inp_files/16235.got.cif
#   From: 2010.05.17/outbox.cif.g08.bks.cpg/sg36_9_cif.got.tgz:16235.got - 2010.06.03 17:41:39.
