data_PCOD9351897
_publ_section_title
;
Structure prediction by ZEFSAII (Michael W. Deem and Ramdas Pophale) SiO2 
 PCOD9351897
Probable space group: C M C 21
;
_chemical_formula_sum "Si O2"
_cell_formula_units_Z 64
_cell_length_a 21.093473
_cell_length_b 8.464256
_cell_length_c 18.361952
_cell_angle_alpha 90.000000
_cell_angle_beta 90.000000
_cell_angle_gamma 90.000000
_cell_volume 3278.353108
_symmetry_space_group_name_H-M "C M C 21"
_symmetry_group_IT_number 36
_symmetry_cell_setting 'orthorhombic'
loop_
_space_group_symop_operation_xyz
x,y,z
-x,-y,1/2+z
x,-y,1/2+z
-x,y,z
1/2+x,1/2+y,z
1/2-x,1/2-y,1/2+z
1/2+x,1/2-y,1/2+z
1/2-x,1/2+y,z
loop_
_atom_site_type_symbol
_atom_site_label
_atom_site_fract_x
_atom_site_fract_y
_atom_site_fract_z
Si Si1 0.778131 0.538860 0.809150
Si Si2 0.923336 0.053477 0.935733
Si Si3 0.075871 0.438878 0.530610
Si Si4 0.423746 0.715721 0.082836
Si Si5 0.621369 0.214669 0.886921
Si Si6 0.887125 0.344738 0.224934
Si Si7 0.926968 0.690098 0.176908
Si Si8 0.347034 0.297750 0.310609
O O1 0.807627 0.651274 0.872103
O O2 0.813436 0.607944 0.737249
O O3 0.703544 0.559987 0.806826
O O4 0.806372 0.363962 0.818257
O O5 0.894143 0.178605 0.878534
O O6 0.000000 0.047296 0.928924
O O7 0.891490 0.889216 0.914213
O O8 0.907751 0.093580 0.019493
O O9 0.097588 0.614026 0.551408
O O10 0.093282 0.395317 0.449302
O O11 0.097441 0.316353 0.593541
O O12 0.000000 0.438828 0.536550
O O13 0.500000 0.715321 0.089857
O O14 0.396593 0.711963 0.164266
O O15 0.590986 0.198419 0.806386
O O16 0.922855 0.504716 0.200791
O O17 0.886126 0.782990 0.235889
O O18 0.000000 0.742803 0.178513
#
# Coordination Sequence:
#
# PCOD9351897 Si02
#       8
#     8   8   8   8   8   8   8   8
#     4   9  21  36  62  82 109 151 196 241 279 338
#     4  11  23  35  54  86 121 152 190 236 288 343
#     4   9  17  32  55  82 116 149 188 237 284 342
#     4   9  18  34  54  81 117 154 188 234 288 341
#     4  10  20  37  55  86 116 152 192 231 285 337
#     4   8  18  35  58  83 112 150 195 232 279 344
#     4   9  18  33  58  89 114 146 189 235 289 346
#     4  11  20  40  58  83 114 152 194 240 286 341
#
# _framework density 19.521998
#
# number of rings (size 3 to 8) (size 9 to 14) (size 15 to 20)
#    0.750    1.750    0.000    3.375    0.000    2.000 
#    2.250    1.250    0.000    3.000    0.000    0.000 
#    0.000    0.000    0.000    0.000    0.000    0.000 
#
# Total GULP energy -178229.847807 kJ/mol
# GULP energy per Si atom -5569.682744 kJ/mol
# Density = 1.947756 g / cm^3
# Si number density = 19.521998 Si / 1000 Ang^3
#
#
#
# Elastic Constant Matrix: (Units=GPa)
#
#
# Indices 1 2 3 4 5 6 
#
# 1 42.3542 4.6176 5.2604 0.0000 0.0000 0.0000
# 2 4.6176 41.6404 23.0005 0.0000 0.0000 0.0000
# 3 5.2604 23.0005 130.2537 0.0000 0.0000 0.0000
# 4 0.0000 0.0000 0.0000 0.1691 0.0000 0.0000
# 5 0.0000 0.0000 0.0000 0.0000 277.3476 0.0000
# 6 0.0000 0.0000 0.0000 0.0000 0.0000 21.0772
#
#
#
# Elastic Compliance Matrix: (Units=1/GPa)
#
#
# Indices 1 2 3 4 5 6 
#
# 1 0.023935 -0.002349 -0.000552 0.000000 0.000000 0.000000
# 2 -0.002349 0.026841 -0.004645 0.000000 0.000000 0.000000
# 3 -0.000552 -0.004645 0.008520 0.000000 0.000000 0.000000
# 4 0.000000 0.000000 0.000000 5.915146 0.000000 0.000000
# 5 0.000000 0.000000 0.000000 0.000000 0.003606 0.000000
# 6 0.000000 0.000000 0.000000 0.000000 0.000000 0.047445
#
#
# Mechanical properties :
#
#
# Convention : Reuss Voigt Hill
#
# Bulk Modulus (GPa) = 22.62231 31.11169 26.86700
# Shear Modulus (GPa) = 0.82572 71.81010 36.31791
#
# Velocity S-wave (km/s) = 0.65107 6.07158 4.31787
# Velocity P-wave (km/s) = 3.48976 8.06991 6.21699
#
# Compressibility (1/GPa) = 0.04420414
#
# Stress axis : x y z
#
# Youngs Moduli (GPa) = 41.77962 37.25599 117.37367
#
# Poissons Ratio (x) = 0.08753 0.06476
# Poissons Ratio (y) = 0.09816 0.54518
# Poissons Ratio (z) = 0.02305 0.17305
#
# Static dielectric constant tensor:
#      x y z
#    x 1.664110 0.000000 0.000000 
#    y 0.000000 1.748380 0.000000 
#    z 0.000000 0.000000 1.708270 
# 
# From -- ./inp_files/15116.got.cif
#   From: 2010.05.17/outbox.cif.g08.bks.cpg/sg36_8_cif.got.tgz:15116.got - 2010.06.03 17:41:39.
