data_PCOD9351470
_publ_section_title
;
Structure prediction by ZEFSAII (Michael W. Deem and Ramdas Pophale) SiO2 
 PCOD9351470
Probable space group: C M C 21
;
_chemical_formula_sum "Si O2"
_cell_formula_units_Z 64
_cell_length_a 9.032739
_cell_length_b 15.195365
_cell_length_c 20.913451
_cell_angle_alpha 90.000000
_cell_angle_beta 90.000000
_cell_angle_gamma 90.000000
_cell_volume 2870.491738
_symmetry_space_group_name_H-M "C M C 21"
_symmetry_group_IT_number 36
_symmetry_cell_setting 'orthorhombic'
loop_
_space_group_symop_operation_xyz
x,y,z
-x,-y,1/2+z
x,-y,1/2+z
-x,y,z
1/2+x,1/2+y,z
1/2-x,1/2-y,1/2+z
1/2+x,1/2-y,1/2+z
1/2-x,1/2+y,z
loop_
_atom_site_type_symbol
_atom_site_label
_atom_site_fract_x
_atom_site_fract_y
_atom_site_fract_z
Si Si1 0.333753 0.936090 0.720580
Si Si2 0.674963 0.374950 0.841840
Si Si3 0.671592 0.243447 0.009647
Si Si4 0.832708 0.361062 0.264328
Si Si5 0.330292 0.548141 0.469723
Si Si6 0.175324 0.489492 0.092083
Si Si7 0.677347 0.310495 0.141181
Si Si8 0.825733 0.196291 0.885521
O O1 0.500000 0.899228 0.731060
O O2 0.339914 0.039871 0.737845
O O3 0.300569 0.935215 0.645089
O O4 0.216458 0.898234 0.769768
O O5 0.500000 0.355696 0.849041
O O6 0.707872 0.450642 0.894650
O O7 0.775797 0.292978 0.861562
O O8 0.500000 0.215413 0.007977
O O9 0.674897 0.347062 0.988013
O O10 0.763715 0.190656 0.957326
O O11 0.723755 0.246565 0.083093
O O12 0.749964 0.302407 0.210783
O O13 0.749984 0.362488 0.331504
O O14 0.000000 0.328553 0.272802
O O15 0.500000 0.518976 0.478047
O O16 0.226089 0.497856 0.519351
O O17 0.271058 0.406521 0.116407
O O18 0.000000 0.468649 0.093945
O O19 0.500000 0.307305 0.146053
O O20 0.000000 0.185066 0.885106
#
# Coordination Sequence:
#
# PCOD9351470 Si02
#       8
#     8   8   8   8   8   8   8   8
#     4   9  19  33  49  72  99 127 160 198 239 286
#     4  10  20  33  50  72  99 130 162 199 243 288
#     4   8  15  28  45  67  96 125 156 198 242 281
#     4  10  20  34  51  72 101 131 161 201 246 291
#     4   8  15  27  43  66  93 121 156 197 238 281
#     4   9  16  26  43  68  95 123 156 196 240 283
#     4   9  16  27  45  69  95 123 158 199 240 283
#     4  11  21  32  50  74 100 130 165 202 240 289
#
# _framework density 22.295831
#
# number of rings (size 3 to 8) (size 9 to 14) (size 15 to 20)
#    0.000    2.750    0.000    4.875    0.000    8.500 
#    0.000    0.000    0.000    1.500    0.000    5.250 
#    0.000    0.000    0.000    0.000    0.000    0.000 
#
# Total GULP energy -178614.464989 kJ/mol
# GULP energy per Si atom -5581.702031 kJ/mol
# Density = 2.224508 g / cm^3
# Si number density = 22.295831 Si / 1000 Ang^3
#
#
#
# Elastic Constant Matrix: (Units=GPa)
#
#
# Indices 1 2 3 4 5 6 
#
# 1 87.4507 30.8304 29.2701 0.0000 0.0000 0.0000
# 2 30.8304 13.1045 92.6671 0.0000 0.0000 0.0000
# 3 29.2701 92.6671 27.4000 0.0000 0.0000 0.0000
# 4 0.0000 0.0000 0.0000 24.2324 0.0000 0.0000
# 5 0.0000 0.0000 0.0000 0.0000 44.2850 0.0000
# 6 0.0000 0.0000 0.0000 0.0000 0.0000 6.1196
#
#
#
# Elastic Compliance Matrix: (Units=1/GPa)
#
#
# Indices 1 2 3 4 5 6 
#
# 1 0.013956 -0.003168 -0.004195 0.000000 0.000000 0.000000
# 2 -0.003168 -0.002611 0.012214 0.000000 0.000000 0.000000
# 3 -0.004195 0.012214 -0.000332 0.000000 0.000000 0.000000
# 4 0.000000 0.000000 0.000000 0.041267 0.000000 0.000000
# 5 0.000000 0.000000 0.000000 0.000000 0.022581 0.000000
# 6 0.000000 0.000000 0.000000 0.000000 0.000000 0.163411
#
#
# Mechanical properties :
#
#
# Convention : Reuss Voigt Hill
#
# Bulk Modulus (GPa) = 48.27085 48.16561 48.21823
# Shear Modulus (GPa) = 21.23374 13.27324 17.25349
#
# Velocity S-wave (km/s) = 3.08939 2.44257 2.78482
# Velocity P-wave (km/s) = 5.86710 5.44102 5.65808
#
# Compressibility (1/GPa) = 0.02071644
#
# Stress axis : x y z
#
# Youngs Moduli (GPa) = 71.65419 -382.99013 -3015.99453
#
# Poissons Ratio (x) = -1.21320 -12.65265
# Poissons Ratio (y) = 0.22698 36.83873
# Poissons Ratio (z) = 0.30060 4.67802
#
# Static dielectric constant tensor:
#      x y z
#    x 1.742870 0.000000 0.000000 
#    y 0.000000 1.908340 0.000000 
#    z 0.000000 0.000000 1.877970 
# 
# From -- ./inp_files/15773.got.cif
#   From: 2010.05.17/outbox.cif.g08.bks.cpg/sg36_8_cif.got.tgz:15773.got - 2010.06.03 17:41:39.
