data_PCOD9351637
_publ_section_title
;
Structure prediction by ZEFSAII (Michael W. Deem and Ramdas Pophale) SiO2 
 PCOD9351637
Probable space group: C M C 21
;
_chemical_formula_sum "Si O2"
_cell_formula_units_Z 64
_cell_length_a 17.242179
_cell_length_b 21.298643
_cell_length_c 8.963448
_cell_angle_alpha 90.000000
_cell_angle_beta 90.000000
_cell_angle_gamma 90.000000
_cell_volume 3291.691961
_symmetry_space_group_name_H-M "C M C 21"
_symmetry_group_IT_number 36
_symmetry_cell_setting 'orthorhombic'
loop_
_space_group_symop_operation_xyz
x,y,z
-x,-y,1/2+z
x,-y,1/2+z
-x,y,z
1/2+x,1/2+y,z
1/2-x,1/2-y,1/2+z
1/2+x,1/2-y,1/2+z
1/2-x,1/2+y,z
loop_
_atom_site_type_symbol
_atom_site_label
_atom_site_fract_x
_atom_site_fract_y
_atom_site_fract_z
Si Si1 0.202847 0.731806 0.696690
Si Si2 0.363399 0.803178 0.751345
Si Si3 0.910008 0.571547 0.216271
Si Si4 0.911899 0.872336 0.172919
Si Si5 0.414472 0.707425 0.971521
Si Si6 0.744181 0.084723 0.654804
Si Si7 0.414940 0.249424 0.962133
Si Si8 0.832570 0.517211 0.931377
O O1 0.285274 0.763590 0.731154
O O2 0.155768 0.777322 0.582879
O O3 0.215925 0.658729 0.647004
O O4 0.151728 0.735502 0.845463
O O5 0.354670 0.875223 0.786119
O O6 0.415117 0.770917 0.875316
O O7 0.407211 0.800169 0.594517
O O8 0.895978 0.512170 0.321009
O O9 0.000000 0.588389 0.218755
O O10 0.876947 0.557961 0.053532
O O11 0.901995 0.844201 0.341174
O O12 0.837585 0.914512 0.142034
O O13 0.000000 0.897940 0.163556
O O14 0.907844 0.815189 0.052615
O O15 0.500000 0.696478 0.039522
O O16 0.709988 0.037312 0.529699
O O17 0.721184 0.057385 0.818515
O O18 0.500000 0.246743 0.891766
#
# Coordination Sequence:
#
# PCOD9351637 Si02
#       8
#     8   8   8   8   8   8   8   8
#     4  12  22  33  60  91 121 152 191 245 306 358
#     4  11  21  33  58  87 115 154 194 235 296 368
#     4  11  22  40  60  83 120 157 200 245 293 346
#     4   9  20  38  62  83 119 157 185 236 305 367
#     4  10  20  35  53  87 123 152 185 226 295 367
#     4  11  22  42  61  84 121 154 208 255 295 345
#     4  10  20  35  53  87 123 152 185 226 295 367
#     4  10  25  40  61  86 112 162 214 250 281 338
#
# _framework density 19.442889999999998
#
# number of rings (size 3 to 8) (size 9 to 14) (size 15 to 20)
#    0.000    1.500    2.500    4.875    3.500    0.000 
#    0.000    6.875    0.000    0.000    0.000    0.000 
#    0.000    0.000    0.000    0.000    0.000    0.000 
#
# Total GULP energy -178312.572583 kJ/mol
# GULP energy per Si atom -5572.267893 kJ/mol
# Density = 1.939864 g / cm^3
# Si number density = 19.442890 Si / 1000 Ang^3
#
#
#
# Elastic Constant Matrix: (Units=GPa)
#
#
# Indices 1 2 3 4 5 6 
#
# 1 132.4468 28.4631 24.5962 0.0000 0.0000 0.0000
# 2 28.4631 51.1621 -7.2759 0.0000 0.0000 0.0000
# 3 24.5962 -7.2759 36.6506 0.0000 0.0000 0.0000
# 4 0.0000 0.0000 0.0000 8.1065 0.0000 0.0000
# 5 0.0000 0.0000 0.0000 0.0000 21.4105 0.0000
# 6 0.0000 0.0000 0.0000 0.0000 0.0000 20.7165
#
#
#
# Elastic Compliance Matrix: (Units=1/GPa)
#
#
# Indices 1 2 3 4 5 6 
#
# 1 0.010687 -0.007168 -0.008595 0.000000 0.000000 0.000000
# 2 -0.007168 0.024921 0.009757 0.000000 0.000000 0.000000
# 3 -0.008595 0.009757 0.034990 0.000000 0.000000 0.000000
# 4 0.000000 0.000000 0.000000 0.123358 0.000000 0.000000
# 5 0.000000 0.000000 0.000000 0.000000 0.046706 0.000000
# 6 0.000000 0.000000 0.000000 0.000000 0.000000 0.048271
#
#
# Mechanical properties :
#
#
# Convention : Reuss Voigt Hill
#
# Bulk Modulus (GPa) = 17.06850 34.64739 25.85794
# Shear Modulus (GPa) = 15.60203 21.67843 18.64023
#
# Velocity S-wave (km/s) = 2.83584 3.34275 3.09967
# Velocity P-wave (km/s) = 4.41820 5.72341 5.11263
#
# Compressibility (1/GPa) = 0.05858746
#
# Stress axis : x y z
#
# Youngs Moduli (GPa) = 93.57493 40.12698 28.57993
#
# Poissons Ratio (x) = 0.28761 0.24564
# Poissons Ratio (y) = 0.67071 -0.27887
# Poissons Ratio (z) = 0.80425 -0.39154
#
# Static dielectric constant tensor:
#      x y z
#    x 1.609710 0.000000 0.000000 
#    y 0.000000 1.717110 0.000000 
#    z 0.000000 0.000000 1.691680 
# 
# From -- ./inp_files/4924.got.cif
#   From: 2010.05.17/outbox.cif.g08.bks.cpg/sg36_3_cif.got.tgz:4924.got - 2010.06.03 17:41:39.
