data_PCOD9351965
_publ_section_title
;
Structure prediction by ZEFSAII (Michael W. Deem and Ramdas Pophale) SiO2 
 PCOD9351965
Probable space group: C M C 21
;
_chemical_formula_sum "Si O2"
_cell_formula_units_Z 64
_cell_length_a 8.782283
_cell_length_b 24.300660
_cell_length_c 15.680099
_cell_angle_alpha 90.000000
_cell_angle_beta 90.000000
_cell_angle_gamma 90.000000
_cell_volume 3346.372612
_symmetry_space_group_name_H-M "C M C 21"
_symmetry_group_IT_number 36
_symmetry_cell_setting 'orthorhombic'
loop_
_space_group_symop_operation_xyz
x,y,z
-x,-y,1/2+z
x,-y,1/2+z
-x,y,z
1/2+x,1/2+y,z
1/2-x,1/2-y,1/2+z
1/2+x,1/2-y,1/2+z
1/2-x,1/2+y,z
loop_
_atom_site_type_symbol
_atom_site_label
_atom_site_fract_x
_atom_site_fract_y
_atom_site_fract_z
Si Si1 0.180668 0.250940 0.967980
Si Si2 0.316831 0.947280 0.368322
Si Si3 0.817459 0.860396 0.708120
Si Si4 0.183116 0.873238 0.516475
Si Si5 0.180610 0.247676 0.764856
Si Si6 0.683105 0.074933 0.368278
Si Si7 0.319019 0.361978 0.030515
Si Si8 0.183006 0.369772 0.212207
O O1 0.228453 0.189315 0.992789
O O2 0.201157 0.257491 0.866283
O O3 0.270181 0.298472 0.016609
O O4 0.000000 0.256893 0.986711
O O5 0.500000 0.945626 0.371490
O O6 0.253749 0.915616 0.450337
O O7 0.269514 0.914128 0.283519
O O8 0.270952 0.010945 0.366492
O O9 0.776102 0.883246 0.614859
O O10 0.759321 0.797830 0.716041
O O11 0.742941 0.894664 0.784127
O O12 0.000000 0.860949 0.716490
O O13 0.000000 0.875558 0.508693
O O14 0.253603 0.189599 0.740369
O O15 0.000000 0.246500 0.747560
O O16 0.500000 0.079016 0.371076
O O17 0.751113 0.104608 0.451053
O O18 0.500000 0.366466 0.031840
O O19 0.249045 0.382410 0.119289
O O20 0.000000 0.367891 0.208518
#
# Coordination Sequence:
#
# PCOD9351965 Si02
#       8
#     8   8   8   8   8   8   8   8
#     4  10  20  37  62  92 127 164 197 244 308 364
#     4  10  24  43  65  89 116 159 209 253 304 363
#     4  11  23  39  62  93 125 163 204 248 306 367
#     4  10  22  40  63  91 125 159 196 247 306 360
#     4  11  21  36  63  95 126 164 203 246 305 365
#     4  11  24  44  64  86 120 161 206 258 308 358
#     4  12  25  40  63  94 124 161 207 251 305 371
#     4  11  23  41  64  92 127 163 202 253 308 364
#
# _framework density 19.125187
#
# number of rings (size 3 to 8) (size 9 to 14) (size 15 to 20)
#    0.000    1.250    2.500    3.375    0.000    5.500 
#    0.000    3.750    0.000    0.000    0.000    0.000 
#    0.000    0.000    0.000    0.000    0.000    0.000 
#
# Total GULP energy -178990.040588 kJ/mol
# GULP energy per Si atom -5593.438768 kJ/mol
# Density = 1.908166 g / cm^3
# Si number density = 19.125187 Si / 1000 Ang^3
#
#
#
# Elastic Constant Matrix: (Units=GPa)
#
#
# Indices 1 2 3 4 5 6 
#
# 1 57.3164 23.3874 33.6934 0.0000 0.0000 0.0000
# 2 23.3874 113.3897 37.6050 0.0000 0.0000 0.0000
# 3 33.6934 37.6050 101.5994 0.0000 0.0000 0.0000
# 4 0.0000 0.0000 0.0000 -0.2458 0.0000 0.0000
# 5 0.0000 0.0000 0.0000 0.0000 31.0905 0.0000
# 6 0.0000 0.0000 0.0000 0.0000 0.0000 12.4423
#
#
#
# Elastic Compliance Matrix: (Units=1/GPa)
#
#
# Indices 1 2 3 4 5 6 
#
# 1 0.022250 -0.002442 -0.006475 0.000000 0.000000 0.000000
# 2 -0.002442 0.010321 -0.003010 0.000000 0.000000 0.000000
# 3 -0.006475 -0.003010 0.013104 0.000000 0.000000 0.000000
# 4 0.000000 0.000000 0.000000 -4.069133 0.000000 0.000000
# 5 0.000000 0.000000 0.000000 0.000000 0.032164 0.000000
# 6 0.000000 0.000000 0.000000 0.000000 0.000000 0.080371
#
#
# Mechanical properties :
#
#
# Convention : Reuss Voigt Hill
#
# Bulk Modulus (GPa) = 45.82795 51.29746 48.56271
# Shear Modulus (GPa) = -1.28873 20.49873 9.60500
#
# Velocity S-wave (km/s) = -0.82177 3.27742 2.24345
# Velocity P-wave (km/s) = 4.80767 6.41889 5.67079
#
# Compressibility (1/GPa) = 0.02182074
#
# Stress axis : x y z
#
# Youngs Moduli (GPa) = 44.94471 96.88833 76.31221
#
# Poissons Ratio (x) = 0.23658 0.49411
# Poissons Ratio (y) = 0.10974 0.22973
# Poissons Ratio (z) = 0.29101 0.29167
#
# Static dielectric constant tensor:
#      x y z
#    x 1.639240 0.000000 0.000000 
#    y 0.000000 1.639060 0.000000 
#    z 0.000000 0.000000 1.654440 
# 
# From -- ./inp_files/10938.got.cif
#   From: 2010.05.17/outbox.cif.g08.bks.cpg/sg36_6_cif.got.tgz:10938.got - 2010.06.03 17:41:39.
