data_PCOD9351293
_publ_section_title
;
Structure prediction by ZEFSAII (Michael W. Deem and Ramdas Pophale) SiO2 
 PCOD9351293
Probable space group: C M C 21
;
_chemical_formula_sum "Si O2"
_cell_formula_units_Z 64
_cell_length_a 8.544597
_cell_length_b 15.956229
_cell_length_c 24.469257
_cell_angle_alpha 90.000000
_cell_angle_beta 90.000000
_cell_angle_gamma 90.000000
_cell_volume 3336.127401
_symmetry_space_group_name_H-M "C M C 21"
_symmetry_group_IT_number 36
_symmetry_cell_setting 'orthorhombic'
loop_
_space_group_symop_operation_xyz
x,y,z
-x,-y,1/2+z
x,-y,1/2+z
-x,y,z
1/2+x,1/2+y,z
1/2-x,1/2-y,1/2+z
1/2+x,1/2-y,1/2+z
1/2-x,1/2+y,z
loop_
_atom_site_type_symbol
_atom_site_label
_atom_site_fract_x
_atom_site_fract_y
_atom_site_fract_z
Si Si1 0.689058 0.154653 0.350340
Si Si2 0.312641 0.597430 0.970868
Si Si3 0.189050 0.408170 0.970302
Si Si4 0.813090 0.341214 0.585345
Si Si5 0.190832 0.157720 0.851354
Si Si6 0.811267 0.338149 0.087166
Si Si7 0.189310 0.500190 0.656805
Si Si8 0.312439 0.499568 0.779585
O O1 0.500000 0.151110 0.346764
O O2 0.731819 0.136089 0.413493
O O3 0.740385 0.248709 0.335291
O O4 0.757372 0.082209 0.312502
O O5 0.500000 0.602419 0.972916
O O6 0.259833 0.500902 0.971783
O O7 0.260209 0.637383 0.913439
O O8 0.245706 0.642865 0.023928
O O9 0.000000 0.415692 0.971798
O O10 0.236877 0.358411 0.024693
O O11 0.754339 0.251110 0.604909
O O12 0.757880 0.418339 0.623065
O O13 0.000000 0.342363 0.585320
O O14 0.000000 0.157256 0.851174
O O15 0.243117 0.082902 0.811841
O O16 0.760895 0.415736 0.124938
O O17 0.000000 0.334415 0.088130
O O18 0.249695 0.498755 0.718246
O O19 0.000000 0.499533 0.657307
O O20 0.500000 0.500994 0.778875
#
# Coordination Sequence:
#
# PCOD9351293 Si02
#       8
#     8   8   8   8   8   8   8   8
#     4  10  20  37  62  86 116 157 194 227 289 360
#     4  11  20  35  61  89 122 157 193 237 295 354
#     4  10  19  35  60  89 122 157 191 234 292 355
#     4  11  23  40  61  89 121 153 196 243 293 354
#     4   9  20  38  59  85 118 155 189 234 291 347
#     4  10  21  40  63  88 121 156 193 239 296 353
#     4  10  23  43  62  81 115 158 198 241 294 353
#     4  11  23  40  60  85 117 149 198 253 292 336
#
# _framework density 19.183920000000001
#
# number of rings (size 3 to 8) (size 9 to 14) (size 15 to 20)
#    0.000    1.750    2.500    1.875    0.000    5.000 
#    0.000    7.500    0.000    0.000    0.000    0.000 
#    0.000    0.000    0.000    0.000    0.000    0.000 
#
# Total GULP energy -178790.725512 kJ/mol
# GULP energy per Si atom -5587.210172 kJ/mol
# Density = 1.914026 g / cm^3
# Si number density = 19.183920 Si / 1000 Ang^3
#
#
#
# Elastic Constant Matrix: (Units=GPa)
#
#
# Indices 1 2 3 4 5 6 
#
# 1 11.4007 31.5657 26.7563 0.0000 0.0000 0.0000
# 2 31.5657 198.4315 90.3115 0.0000 0.0000 0.0000
# 3 26.7563 90.3115 155.6763 0.0000 0.0000 0.0000
# 4 0.0000 0.0000 0.0000 1.1067 0.0000 0.0000
# 5 0.0000 0.0000 0.0000 0.0000 13.5931 0.0000
# 6 0.0000 0.0000 0.0000 0.0000 0.0000 31.8447
#
#
#
# Elastic Compliance Matrix: (Units=1/GPa)
#
#
# Indices 1 2 3 4 5 6 
#
# 1 0.198433 -0.021800 -0.021458 0.000000 0.000000 0.000000
# 2 -0.021800 0.009242 -0.001615 0.000000 0.000000 0.000000
# 3 -0.021458 -0.001615 0.011049 0.000000 0.000000 0.000000
# 4 0.000000 0.000000 0.000000 0.903627 0.000000 0.000000
# 5 0.000000 0.000000 0.000000 0.000000 0.073567 0.000000
# 6 0.000000 0.000000 0.000000 0.000000 0.000000 0.031402
#
#
# Mechanical properties :
#
#
# Convention : Reuss Voigt Hill
#
# Bulk Modulus (GPa) = 7.75329 73.64170 40.69750
# Shear Modulus (GPa) = 3.67631 23.76722 13.72176
#
# Velocity S-wave (km/s) = 1.38583 3.52364 2.67736
# Velocity P-wave (km/s) = 2.57119 7.41790 5.55141
#
# Compressibility (1/GPa) = 0.12897758
#
# Stress axis : x y z
#
# Youngs Moduli (GPa) = 5.03950 108.19783 90.50961
#
# Poissons Ratio (x) = 2.35867 1.94219
# Poissons Ratio (y) = 0.10986 0.14617
# Poissons Ratio (z) = 0.10814 0.17474
#
# Static dielectric constant tensor:
#      x y z
#    x 1.657240 0.000000 0.000000 
#    y 0.000000 1.661980 0.000000 
#    z 0.000000 0.000000 1.642930 
# 
# From -- ./inp_files/16594.got.cif
#   From: 2010.05.17/outbox.cif.g08.bks.cpg/sg36_9_cif.got.tgz:16594.got - 2010.06.03 17:41:39.
