data_PCOD9351940
_publ_section_title
;
Structure prediction by ZEFSAII (Michael W. Deem and Ramdas Pophale) SiO2 
 PCOD9351940
Probable space group: C M C 21
;
_chemical_formula_sum "Si O2"
_cell_formula_units_Z 64
_cell_length_a 19.109057
_cell_length_b 27.633969
_cell_length_c 5.159936
_cell_angle_alpha 90.000000
_cell_angle_beta 90.000000
_cell_angle_gamma 90.000000
_cell_volume 2724.751102
_symmetry_space_group_name_H-M "C M C 21"
_symmetry_group_IT_number 36
_symmetry_cell_setting 'orthorhombic'
loop_
_space_group_symop_operation_xyz
x,y,z
-x,-y,1/2+z
x,-y,1/2+z
-x,y,z
1/2+x,1/2+y,z
1/2-x,1/2-y,1/2+z
1/2+x,1/2-y,1/2+z
1/2-x,1/2+y,z
loop_
_atom_site_type_symbol
_atom_site_label
_atom_site_fract_x
_atom_site_fract_y
_atom_site_fract_z
Si Si1 0.843854 0.608806 0.279340
Si Si2 0.424978 0.172936 0.590899
Si Si3 0.324663 0.671718 0.023622
Si Si4 0.417748 0.968004 0.449323
Si Si5 0.921809 0.032092 0.476488
Si Si6 0.685308 0.791971 0.490150
Si Si7 0.200067 0.108790 0.524167
Si Si8 0.924574 0.232482 0.735526
O O1 0.910819 0.621583 0.456287
O O2 0.868649 0.575693 0.043401
O O3 0.821862 0.662698 0.187159
O O4 0.776328 0.590004 0.433937
O O5 0.500000 0.171855 0.737472
O O6 0.431045 0.217125 0.390181
O O7 0.355627 0.185441 0.748701
O O8 0.297994 0.634223 0.803713
O O9 0.399168 0.691472 0.931655
O O10 0.268282 0.715613 0.996585
O O11 0.323963 0.646420 0.300430
O O12 0.500000 0.954442 0.467304
O O13 0.405127 0.990296 0.166670
O O14 0.858892 0.068129 0.529157
O O15 0.000000 0.053869 0.508063
O O16 0.916931 0.989311 0.687794
O O17 0.639427 0.744638 0.546058
O O18 0.000000 0.221706 0.614664
#
# Coordination Sequence:
#
# PCOD9351940 Si02
#       8
#     8   8   8   8   8   8   8   8
#     4  10  22  39  58  87 121 156 209 253 313 362
#     4  10  20  37  60  86 116 158 213 263 303 362
#     4  11  25  41  64  92 133 170 208 264 331 385
#     4  10  23  39  57  85 119 156 195 241 305 372
#     4  10  22  42  69  98 128 166 212 263 318 381
#     4  10  22  38  62  88 119 166 214 268 310 380
#     4  11  24  42  64  96 128 165 211 257 319 396
#     4  10  24  40  60  92 126 167 222 267 321 384
#
# _framework density 23.488385000000001
#
# number of rings (size 3 to 8) (size 9 to 14) (size 15 to 20)
#    0.000    1.750    1.250    1.500    5.250    3.500 
#    0.000    0.000    0.000    0.000    0.000    0.000 
#    0.000    0.000    0.000    0.000    0.000    0.000 
#
# Total GULP energy -178805.019791 kJ/mol
# GULP energy per Si atom -5587.656868 kJ/mol
# Density = 2.343492 g / cm^3
# Si number density = 23.488385 Si / 1000 Ang^3
#
#
#
# Elastic Constant Matrix: (Units=GPa)
#
#
# Indices 1 2 3 4 5 6 
#
# 1 106.8721 24.4828 -10.7307 0.0000 0.0000 0.0000
# 2 24.4828 40.6389 -1.6337 0.0000 0.0000 0.0000
# 3 -10.7307 -1.6337 57.3925 0.0000 0.0000 0.0000
# 4 0.0000 0.0000 0.0000 33.9214 0.0000 0.0000
# 5 0.0000 0.0000 0.0000 0.0000 22.3395 0.0000
# 6 0.0000 0.0000 0.0000 0.0000 0.0000 61.0943
#
#
#
# Elastic Compliance Matrix: (Units=1/GPa)
#
#
# Indices 1 2 3 4 5 6 
#
# 1 0.011054 -0.006584 0.001879 0.000000 0.000000 0.000000
# 2 -0.006584 0.028557 -0.000418 0.000000 0.000000 0.000000
# 3 0.001879 -0.000418 0.017763 0.000000 0.000000 0.000000
# 4 0.000000 0.000000 0.000000 0.029480 0.000000 0.000000
# 5 0.000000 0.000000 0.000000 0.000000 0.044764 0.000000
# 6 0.000000 0.000000 0.000000 0.000000 0.000000 0.016368
#
#
# Mechanical properties :
#
#
# Convention : Reuss Voigt Hill
#
# Bulk Modulus (GPa) = 21.21851 25.46003 23.33927
# Shear Modulus (GPa) = 28.74546 36.32339 32.53443
#
# Velocity S-wave (km/s) = 3.50210 3.93675 3.72577
# Velocity P-wave (km/s) = 5.04046 5.61488 5.33541
#
# Compressibility (1/GPa) = 0.04712866
#
# Stress axis : x y z
#
# Youngs Moduli (GPa) = 90.46544 35.01817 56.29564
#
# Poissons Ratio (x) = 0.23056 -0.10580
# Poissons Ratio (y) = 0.59561 0.02354
# Poissons Ratio (z) = -0.17002 0.01464
#
# Static dielectric constant tensor:
#      x y z
#    x 1.991580 0.000000 0.000000 
#    y 0.000000 1.869470 0.000000 
#    z 0.000000 0.000000 1.956060 
# 
# From -- ./inp_files/1238.got.cif
#   From: 2010.05.17/outbox.cif.g08.bks.cpg/sg36_1_cif.got.tgz:1238.got - 2010.06.03 17:41:39.
