data_PCOD9351680
_publ_section_title
;
Structure prediction by ZEFSAII (Michael W. Deem and Ramdas Pophale) SiO2 
 PCOD9351680
Probable space group: C M C 21
;
_chemical_formula_sum "Si O2"
_cell_formula_units_Z 64
_cell_length_a 8.061672
_cell_length_b 23.512118
_cell_length_c 16.506082
_cell_angle_alpha 90.000000
_cell_angle_beta 90.000000
_cell_angle_gamma 90.000000
_cell_volume 3128.678050
_symmetry_space_group_name_H-M "C M C 21"
_symmetry_group_IT_number 36
_symmetry_cell_setting 'orthorhombic'
loop_
_space_group_symop_operation_xyz
x,y,z
-x,-y,1/2+z
x,-y,1/2+z
-x,y,z
1/2+x,1/2+y,z
1/2-x,1/2-y,1/2+z
1/2+x,1/2-y,1/2+z
1/2-x,1/2+y,z
loop_
_atom_site_type_symbol
_atom_site_label
_atom_site_fract_x
_atom_site_fract_y
_atom_site_fract_z
Si Si1 0.690109 0.287404 0.683760
Si Si2 0.799191 0.726793 0.450262
Si Si3 0.690191 0.165581 0.020588
Si Si4 0.308400 0.138945 0.320391
Si Si5 0.701434 0.988687 0.816040
Si Si6 0.201137 0.541638 0.643274
Si Si7 0.798418 0.671460 0.622487
Si Si8 0.303104 0.537876 0.990880
O O1 0.500000 0.288485 0.712379
O O2 0.695407 0.310596 0.592315
O O3 0.797243 0.331174 0.734292
O O4 0.753661 0.222335 0.682798
O O5 0.725487 0.789994 0.448478
O O6 0.735050 0.685134 0.380993
O O7 0.754171 0.694840 0.533777
O O8 0.000000 0.731555 0.446016
O O9 0.500000 0.172179 0.045874
O O10 0.725512 0.100193 0.003361
O O11 0.500000 0.131430 0.345411
O O12 0.235313 0.076279 0.318239
O O13 0.500000 0.989103 0.813224
O O14 0.756065 0.016884 0.730778
O O15 0.752144 0.016393 0.901374
O O16 0.259081 0.607230 0.635839
O O17 0.252168 0.504147 0.564973
O O18 0.000000 0.541868 0.643102
O O19 0.000000 0.670751 0.626135
O O20 0.500000 0.543382 0.993528
#
# Coordination Sequence:
#
# PCOD9351680 Si02
#       8
#     8   8   8   8   8   8   8   8
#     4  10  20  35  56  83 116 150 187 235 288 341
#     4   9  18  34  55  79 111 148 186 235 291 343
#     4  11  22  38  59  81 108 145 193 240 290 352
#     4  10  20  35  56  83 116 153 191 232 283 340
#     4  10  22  39  60  87 118 156 201 242 284 347
#     4  10  20  38  64  89 118 158 201 242 286 344
#     4   8  16  33  56  81 110 147 187 228 281 338
#     4  12  25  40  60  87 121 157 194 242 299 353
#
# _framework density 20.455924
#
# number of rings (size 3 to 8) (size 9 to 14) (size 15 to 20)
#    0.000    2.000    0.000    4.875    0.000    5.500 
#    0.000    6.875    0.000    0.000    0.000    0.000 
#    0.000    0.000    0.000    0.000    0.000    0.000 
#
# Total GULP energy -178506.741215 kJ/mol
# GULP energy per Si atom -5578.335663 kJ/mol
# Density = 2.040937 g / cm^3
# Si number density = 20.455924 Si / 1000 Ang^3
#
#
#
# Elastic Constant Matrix: (Units=GPa)
#
#
# Indices 1 2 3 4 5 6 
#
# 1 41.9124 8.5847 0.9131 0.0000 0.0000 0.0000
# 2 8.5847 182.2120 52.2205 0.0000 0.0000 0.0000
# 3 0.9131 52.2205 85.4417 0.0000 0.0000 0.0000
# 4 0.0000 0.0000 0.0000 29.6687 0.0000 0.0000
# 5 0.0000 0.0000 0.0000 0.0000 19.8850 0.0000
# 6 0.0000 0.0000 0.0000 0.0000 0.0000 8.9676
#
#
#
# Elastic Compliance Matrix: (Units=1/GPa)
#
#
# Indices 1 2 3 4 5 6 
#
# 1 0.024112 -0.001288 0.000529 0.000000 0.000000 0.000000
# 2 -0.001288 0.006722 -0.004095 0.000000 0.000000 0.000000
# 3 0.000529 -0.004095 0.014201 0.000000 0.000000 0.000000
# 4 0.000000 0.000000 0.000000 0.033706 0.000000 0.000000
# 5 0.000000 0.000000 0.000000 0.000000 0.050289 0.000000
# 6 0.000000 0.000000 0.000000 0.000000 0.000000 0.111513
#
#
# Mechanical properties :
#
#
# Convention : Reuss Voigt Hill
#
# Bulk Modulus (GPa) = 28.30582 48.11142 38.20862
# Shear Modulus (GPa) = 19.08217 28.22745 23.65481
#
# Velocity S-wave (km/s) = 3.05756 3.71875 3.40425
# Velocity P-wave (km/s) = 5.13151 6.48147 5.84559
#
# Compressibility (1/GPa) = 0.03532842
#
# Stress axis : x y z
#
# Youngs Moduli (GPa) = 41.47394 148.75820 70.41808
#
# Poissons Ratio (x) = 0.19155 -0.03727
# Poissons Ratio (y) = 0.05341 0.28835
# Poissons Ratio (z) = -0.02195 0.60914
#
# Static dielectric constant tensor:
#      x y z
#    x 1.727320 0.000000 0.000000 
#    y 0.000000 1.728390 0.000000 
#    z 0.000000 0.000000 1.741240 
# 
# From -- ./inp_files/13763.got.cif
#   From: 2010.05.17/outbox.cif.g08.bks.cpg/sg36_7_cif.got.tgz:13763.got - 2010.06.03 17:41:39.
