data_PCOD9351141
_publ_section_title
;
Structure prediction by ZEFSAII (Michael W. Deem and Ramdas Pophale) SiO2 
 PCOD9351141
Probable space group: C M C 21
;
_chemical_formula_sum "Si O2"
_cell_formula_units_Z 64
_cell_length_a 7.462624
_cell_length_b 21.927832
_cell_length_c 14.621559
_cell_angle_alpha 90.000000
_cell_angle_beta 90.000000
_cell_angle_gamma 90.000000
_cell_volume 2392.659711
_symmetry_space_group_name_H-M "C M C 21"
_symmetry_group_IT_number 36
_symmetry_cell_setting 'orthorhombic'
loop_
_space_group_symop_operation_xyz
x,y,z
-x,-y,1/2+z
x,-y,1/2+z
-x,y,z
1/2+x,1/2+y,z
1/2-x,1/2-y,1/2+z
1/2+x,1/2-y,1/2+z
1/2-x,1/2+y,z
loop_
_atom_site_type_symbol
_atom_site_label
_atom_site_fract_x
_atom_site_fract_y
_atom_site_fract_z
Si Si1 0.704332 0.707979 0.970200
Si Si2 0.780808 0.031098 0.016146
Si Si3 0.794665 0.013512 0.812230
Si Si4 0.792236 0.644565 0.793445
Si Si5 0.714896 0.326549 0.854484
Si Si6 0.704905 0.775766 0.140269
Si Si7 0.286041 0.396146 0.031327
Si Si8 0.780858 0.901796 0.688882
O O1 0.500000 0.689615 0.987541
O O2 0.780534 0.658865 0.900807
O O3 0.707250 0.769395 0.908569
O O4 0.785713 0.728412 0.067364
O O5 0.722864 0.084540 0.085098
O O6 0.000000 0.034517 0.012625
O O7 0.733682 0.964478 0.056632
O O8 0.713814 0.026174 0.912226
O O9 0.795516 0.080732 0.768475
O O10 0.000000 0.994336 0.828481
O O11 0.721388 0.961457 0.746752
O O12 0.716036 0.701836 0.736107
O O13 0.000000 0.639938 0.769825
O O14 0.500000 0.316233 0.852216
O O15 0.774189 0.344815 0.752458
O O16 0.748529 0.383154 0.923590
O O17 0.500000 0.755199 0.156437
O O18 0.701888 0.840463 0.086186
O O19 0.500000 0.390577 0.043823
O O20 0.000000 0.900248 0.687215
#
# Coordination Sequence:
#
# PCOD9351141 Si02
#       8
#     8   8   8   8   8   8   8   8
#     4  10  21  39  60  81 104 137 182 230 274 323
#     4   9  16  27  47  78 111 143 178 215 260 316
#     4  10  19  34  55  81 113 147 184 224 265 320
#     4  11  23  40  58  80 111 145 181 225 279 332
#     4   9  16  30  52  77 106 138 175 221 268 314
#     4   9  20  37  57  81 107 139 181 225 275 329
#     4   9  15  27  51  80 107 137 179 225 261 304
#     4   9  16  28  50  80 111 144 180 217 262 318
#
# _framework density 26.748476
#
# number of rings (size 3 to 8) (size 9 to 14) (size 15 to 20)
#    0.000    2.500    1.250    1.500    0.000    2.500 
#    2.250    1.250    0.000    1.500    0.000    0.000 
#    0.000    0.000    0.000    0.000    0.000    0.000 
#
# Total GULP energy -178891.003554 kJ/mol
# GULP energy per Si atom -5590.343861 kJ/mol
# Density = 2.668759 g / cm^3
# Si number density = 26.748476 Si / 1000 Ang^3
#
#
#
# Elastic Constant Matrix: (Units=GPa)
#
#
# Indices 1 2 3 4 5 6 
#
# 1 68.5742 -6.6181 3.7146 0.0000 0.0000 0.0000
# 2 -6.6181 107.0876 19.6674 0.0000 0.0000 0.0000
# 3 3.7146 19.6674 162.9046 0.0000 0.0000 0.0000
# 4 0.0000 0.0000 0.0000 55.6386 0.0000 0.0000
# 5 0.0000 0.0000 0.0000 0.0000 -4.0617 0.0000
# 6 0.0000 0.0000 0.0000 0.0000 0.0000 10.2751
#
#
#
# Elastic Compliance Matrix: (Units=1/GPa)
#
#
# Indices 1 2 3 4 5 6 
#
# 1 0.014703 0.000992 -0.000455 0.000000 0.000000 0.000000
# 2 0.000992 0.009617 -0.001184 0.000000 0.000000 0.000000
# 3 -0.000455 -0.001184 0.006292 0.000000 0.000000 0.000000
# 4 0.000000 0.000000 0.000000 0.017973 0.000000 0.000000
# 5 0.000000 0.000000 0.000000 0.000000 -0.246203 0.000000
# 6 0.000000 0.000000 0.000000 0.000000 0.000000 0.097322
#
#
# Mechanical properties :
#
#
# Convention : Reuss Voigt Hill
#
# Bulk Modulus (GPa) = 34.10771 41.34380 37.72576
# Shear Modulus (GPa) = -56.03525 33.82390 -11.10568
#
# Velocity S-wave (km/s) = -4.58197 3.55986 -2.03983
# Velocity P-wave (km/s) = 3.90046 5.69095 2.93030
#
# Compressibility (1/GPa) = 0.02931888
#
# Stress axis : x y z
#
# Youngs Moduli (GPa) = 68.01263 103.98403 158.93592
#
# Poissons Ratio (x) = -0.10318 0.07232
# Poissons Ratio (y) = -0.06748 0.18813
# Poissons Ratio (z) = 0.03095 0.12308
#
# Static dielectric constant tensor:
#      x y z
#    x 2.039360 0.000000 0.000000 
#    y 0.000000 2.090270 0.000000 
#    z 0.000000 0.000000 2.144010 
# 
# From -- ./inp_files/10906.got.cif
#   From: 2010.05.17/outbox.cif.g08.bks.cpg/sg36_6_cif.got.tgz:10906.got - 2010.06.03 17:41:39.
