data_PCOD9351306
_publ_section_title
;
Structure prediction by ZEFSAII (Michael W. Deem and Ramdas Pophale) SiO2 
 PCOD9351306
Probable space group: C M C 21
;
_chemical_formula_sum "Si O2"
_cell_formula_units_Z 64
_cell_length_a 8.287124
_cell_length_b 24.396335
_cell_length_c 15.729239
_cell_angle_alpha 90.000000
_cell_angle_beta 90.000000
_cell_angle_gamma 90.000000
_cell_volume 3180.066025
_symmetry_space_group_name_H-M "C M C 21"
_symmetry_group_IT_number 36
_symmetry_cell_setting 'orthorhombic'
loop_
_space_group_symop_operation_xyz
x,y,z
-x,-y,1/2+z
x,-y,1/2+z
-x,y,z
1/2+x,1/2+y,z
1/2-x,1/2-y,1/2+z
1/2+x,1/2-y,1/2+z
1/2-x,1/2+y,z
loop_
_atom_site_type_symbol
_atom_site_label
_atom_site_fract_x
_atom_site_fract_y
_atom_site_fract_z
Si Si1 0.690562 0.390407 0.338160
Si Si2 0.693587 0.701193 0.508748
Si Si3 0.695793 0.502384 0.418630
Si Si4 0.309737 0.123563 0.656729
Si Si5 0.191285 0.887415 0.668852
Si Si6 0.196975 0.876663 0.857524
Si Si7 0.691812 0.826303 0.502201
Si Si8 0.307591 0.998733 0.111170
O O1 0.500000 0.391294 0.321766
O O2 0.745535 0.452819 0.357081
O O3 0.775298 0.366109 0.255435
O O4 0.725617 0.356621 0.423346
O O5 0.500000 0.703119 0.502228
O O6 0.734847 0.667600 0.593331
O O7 0.754016 0.666971 0.427121
O O8 0.751199 0.763705 0.509874
O O9 0.500000 0.501004 0.425365
O O10 0.745163 0.562160 0.385893
O O11 0.767413 0.492800 0.511934
O O12 0.500000 0.123476 0.640995
O O13 0.248510 0.062011 0.635989
O O14 0.248377 0.866440 0.760794
O O15 0.274202 0.858200 0.589464
O O16 0.000000 0.878336 0.661632
O O17 0.224873 0.952355 0.662636
O O18 0.000000 0.876184 0.857553
O O19 0.500000 0.826426 0.486646
O O20 0.500000 0.001786 0.124169
#
# Coordination Sequence:
#
# PCOD9351306 Si02
#       8
#     8   8   8   8   8   8   8   8
#     4  11  23  39  63  93 121 161 206 247 301 365
#     4  10  22  42  65  87 118 161 206 254 304 358
#     4  10  19  35  62  90 117 151 197 249 298 362
#     4  11  24  40  61  92 126 162 200 250 308 358
#     4  11  22  38  62  90 120 160 204 247 300 366
#     4   9  19  37  62  89 115 150 199 250 295 352
#     4  11  24  41  61  89 123 159 203 258 312 355
#     4  11  22  36  58  90 126 160 193 243 308 362
#
# _framework density 20.125367000000001
#
# number of rings (size 3 to 8) (size 9 to 14) (size 15 to 20)
#    0.000    1.500    2.500    2.625    0.000    5.000 
#    0.000    3.750    0.000    0.000    0.000    0.000 
#    0.000    0.000    0.000    0.000    0.000    0.000 
#
# Total GULP energy -178886.294794 kJ/mol
# GULP energy per Si atom -5590.196712 kJ/mol
# Density = 2.007956 g / cm^3
# Si number density = 20.125367 Si / 1000 Ang^3
#
#
#
# Elastic Constant Matrix: (Units=GPa)
#
#
# Indices 1 2 3 4 5 6 
#
# 1 12.2696 -0.8607 -13.6687 0.0000 0.0000 0.0000
# 2 -0.8607 111.9403 16.1138 0.0000 0.0000 0.0000
# 3 -13.6687 16.1138 79.4059 0.0000 0.0000 0.0000
# 4 0.0000 0.0000 0.0000 3.0585 0.0000 0.0000
# 5 0.0000 0.0000 0.0000 0.0000 12.0796 0.0000
# 6 0.0000 0.0000 0.0000 0.0000 0.0000 19.9635
#
#
#
# Elastic Compliance Matrix: (Units=1/GPa)
#
#
# Indices 1 2 3 4 5 6 
#
# 1 0.101183 -0.001781 0.017779 0.000000 0.000000 0.000000
# 2 -0.001781 0.009233 -0.002180 0.000000 0.000000 0.000000
# 3 0.017779 -0.002180 0.016096 0.000000 0.000000 0.000000
# 4 0.000000 0.000000 0.000000 0.326952 0.000000 0.000000
# 5 0.000000 0.000000 0.000000 0.000000 0.082784 0.000000
# 6 0.000000 0.000000 0.000000 0.000000 0.000000 0.050091
#
#
# Mechanical properties :
#
#
# Convention : Reuss Voigt Hill
#
# Bulk Modulus (GPa) = 6.48730 22.97606 14.73168
# Shear Modulus (GPa) = 8.19552 20.48909 14.34230
#
# Velocity S-wave (km/s) = 2.02017 3.19419 2.67244
# Velocity P-wave (km/s) = 2.94481 5.00450 4.10590
#
# Compressibility (1/GPa) = 0.15414728
#
# Stress axis : x y z
#
# Youngs Moduli (GPa) = 9.88308 108.30130 62.12585
#
# Poissons Ratio (x) = 0.19291 -1.10452
# Poissons Ratio (y) = 0.01760 0.13546
# Poissons Ratio (z) = -0.17571 0.23614
#
# Static dielectric constant tensor:
#      x y z
#    x 1.692730 0.000000 0.000000 
#    y 0.000000 1.704620 0.000000 
#    z 0.000000 0.000000 1.688750 
# 
# From -- ./inp_files/10919.got.cif
#   From: 2010.05.17/outbox.cif.g08.bks.cpg/sg36_6_cif.got.tgz:10919.got - 2010.06.03 17:41:39.
