data_PCOD9351512
_publ_section_title
;
Structure prediction by ZEFSAII (Michael W. Deem and Ramdas Pophale) SiO2 
 PCOD9351512
Probable space group: C M C 21
;
_chemical_formula_sum "Si O2"
_cell_formula_units_Z 64
_cell_length_a 9.883471
_cell_length_b 31.681685
_cell_length_c 10.751656
_cell_angle_alpha 90.000000
_cell_angle_beta 90.000000
_cell_angle_gamma 90.000000
_cell_volume 3366.612446
_symmetry_space_group_name_H-M "C M C 21"
_symmetry_group_IT_number 36
_symmetry_cell_setting 'orthorhombic'
loop_
_space_group_symop_operation_xyz
x,y,z
-x,-y,1/2+z
x,-y,1/2+z
-x,y,z
1/2+x,1/2+y,z
1/2-x,1/2-y,1/2+z
1/2+x,1/2-y,1/2+z
1/2-x,1/2+y,z
loop_
_atom_site_type_symbol
_atom_site_label
_atom_site_fract_x
_atom_site_fract_y
_atom_site_fract_z
Si Si1 0.847204 0.962351 0.920270
Si Si2 0.160372 0.263839 0.658769
Si Si3 0.349581 0.159757 0.334358
Si Si4 0.662805 0.717128 0.922575
Si Si5 0.659687 0.370555 0.040302
Si Si6 0.849107 0.566667 0.221145
Si Si7 0.337472 0.629632 0.819297
Si Si8 0.844951 0.942609 0.498844
O O1 0.735968 0.962434 0.813527
O O2 0.000000 0.959069 0.867174
O O3 0.839253 0.006931 0.988685
O O4 0.827558 0.920173 0.002445
O O5 0.182758 0.310049 0.719379
O O6 0.252748 0.261299 0.534873
O O7 0.187621 0.235043 0.781993
O O8 0.000000 0.258515 0.628017
O O9 0.500000 0.172463 0.379685
O O10 0.240860 0.158209 0.443727
O O11 0.356205 0.112123 0.285864
O O12 0.500000 0.720634 0.945129
O O13 0.703289 0.667652 0.910467
O O14 0.500000 0.360486 0.034626
O O15 0.714089 0.364985 0.179500
O O16 0.000000 0.550993 0.197745
O O17 0.762238 0.571702 0.098688
O O18 0.500000 0.633418 0.808687
O O19 0.312088 0.583244 0.873779
O O20 0.000000 0.931142 0.532545
#
# Coordination Sequence:
#
# PCOD9351512 Si02
#       8
#     8   8   8   8   8   8   8   8
#     4   9  19  33  53  79 104 137 180 222 267 324
#     4  10  22  39  60  86 117 151 190 235 282 338
#     4   9  19  36  55  77 108 144 180 223 275 329
#     4  10  22  39  59  86 118 151 190 235 288 341
#     4   9  18  33  55  82 109 141 183 229 275 328
#     4  10  20  34  52  73 104 138 173 219 269 325
#     4   9  19  35  55  81 113 143 179 233 285 329
#     4  10  20  33  55  78 103 139 179 224 271 324
#
# _framework density 19.010207999999999
#
# number of rings (size 3 to 8) (size 9 to 14) (size 15 to 20)
#    0.000    2.500    0.000    1.125    3.500    2.000 
#    0.000    1.250    0.000    0.000    0.000    0.000 
#    0.000    0.000    0.000    0.000    0.000    0.000 
#
# Total GULP energy -178292.256858 kJ/mol
# GULP energy per Si atom -5571.633027 kJ/mol
# Density = 1.896694 g / cm^3
# Si number density = 19.010208 Si / 1000 Ang^3
#
#
#
# Elastic Constant Matrix: (Units=GPa)
#
#
# Indices 1 2 3 4 5 6 
#
# 1 84.1306 22.7318 63.0280 0.0000 0.0000 0.0000
# 2 22.7318 52.1480 14.0732 0.0000 0.0000 0.0000
# 3 63.0280 14.0732 103.0404 0.0000 0.0000 0.0000
# 4 0.0000 0.0000 0.0000 6.2402 0.0000 0.0000
# 5 0.0000 0.0000 0.0000 0.0000 4.0958 0.0000
# 6 0.0000 0.0000 0.0000 0.0000 0.0000 21.1423
#
#
#
# Elastic Compliance Matrix: (Units=1/GPa)
#
#
# Indices 1 2 3 4 5 6 
#
# 1 0.024035 -0.006759 -0.013779 0.000000 0.000000 0.000000
# 2 -0.006759 0.021811 0.001155 0.000000 0.000000 0.000000
# 3 -0.013779 0.001155 0.017975 0.000000 0.000000 0.000000
# 4 0.000000 0.000000 0.000000 0.160252 0.000000 0.000000
# 5 0.000000 0.000000 0.000000 0.000000 0.244154 0.000000
# 6 0.000000 0.000000 0.000000 0.000000 0.000000 0.047298
#
#
# Mechanical properties :
#
#
# Convention : Reuss Voigt Hill
#
# Bulk Modulus (GPa) = 39.90937 48.77611 44.34274
# Shear Modulus (GPa) = 8.88665 15.59472 12.24069
#
# Velocity S-wave (km/s) = 2.16444 2.86725 2.54027
# Velocity P-wave (km/s) = 5.22357 6.05600 5.65512
#
# Compressibility (1/GPa) = 0.02505677
#
# Stress axis : x y z
#
# Youngs Moduli (GPa) = 41.60593 45.84937 55.63171
#
# Poissons Ratio (x) = 0.30988 0.76653
# Poissons Ratio (y) = 0.28120 -0.06427
# Poissons Ratio (z) = 0.57328 -0.05297
#
# Static dielectric constant tensor:
#      x y z
#    x 1.672660 0.000000 0.000000 
#    y 0.000000 1.703270 0.000000 
#    z 0.000000 0.000000 1.657750 
# 
# From -- ./inp_files/7250.got.cif
#   From: 2010.05.17/outbox.cif.g08.bks.cpg/sg36_4_cif.got.tgz:7250.got - 2010.06.03 17:41:39.
