data_PCOD9351365
_publ_section_title
;
Structure prediction by ZEFSAII (Michael W. Deem and Ramdas Pophale) SiO2 
 PCOD9351365
Probable space group: C M C 21
;
_chemical_formula_sum "Si O2"
_cell_formula_units_Z 64
_cell_length_a 8.555074
_cell_length_b 15.780705
_cell_length_c 24.173948
_cell_angle_alpha 90.000000
_cell_angle_beta 90.000000
_cell_angle_gamma 90.000000
_cell_volume 3263.606244
_symmetry_space_group_name_H-M "C M C 21"
_symmetry_group_IT_number 36
_symmetry_cell_setting 'orthorhombic'
loop_
_space_group_symop_operation_xyz
x,y,z
-x,-y,1/2+z
x,-y,1/2+z
-x,y,z
1/2+x,1/2+y,z
1/2-x,1/2-y,1/2+z
1/2+x,1/2-y,1/2+z
1/2-x,1/2+y,z
loop_
_atom_site_type_symbol
_atom_site_label
_atom_site_fract_x
_atom_site_fract_y
_atom_site_fract_z
Si Si1 0.314640 0.328208 0.994090
Si Si2 0.810785 0.095252 0.611740
Si Si3 0.682586 0.351034 0.493961
Si Si4 0.189996 0.837976 0.232020
Si Si5 0.683666 0.988889 0.930048
Si Si6 0.312947 0.495352 0.307149
Si Si7 0.311459 0.852133 0.733638
Si Si8 0.185521 0.595184 0.108407
O O1 0.500000 0.313543 0.992519
O O2 0.271902 0.409844 0.957880
O O3 0.270805 0.350896 0.057467
O O4 0.229776 0.242867 0.975252
O O5 0.763571 0.138748 0.669305
O O6 0.000000 0.084433 0.612133
O O7 0.732776 0.003375 0.607578
O O8 0.500000 0.365820 0.485631
O O9 0.773813 0.425152 0.462364
O O10 0.725817 0.359457 0.558587
O O11 0.240442 0.911782 0.273565
O O12 0.239337 0.743370 0.247724
O O13 0.000000 0.837681 0.232010
O O14 0.500000 0.972985 0.934361
O O15 0.734429 0.998586 0.866699
O O16 0.500000 0.490940 0.313763
O O17 0.268727 0.576784 0.270612
O O18 0.500000 0.858837 0.740339
O O19 0.277041 0.868855 0.668995
O O20 0.000000 0.604934 0.099434
#
# Coordination Sequence:
#
# PCOD9351365 Si02
#       8
#     8   8   8   8   8   8   8   8
#     4  11  23  41  67  97 128 164 208 259 317 382
#     4  10  19  36  63  92 126 165 202 250 315 380
#     4  12  25  42  65  94 129 169 211 259 315 377
#     4   9  19  37  62  89 122 163 203 245 306 373
#     4  12  26  45  66  90 124 165 214 269 319 375
#     4  11  23  41  64  89 120 162 212 263 315 374
#     4  10  21  39  62  91 125 164 206 256 313 373
#     4  11  21  35  61  94 130 166 206 257 314 374
#
# _framework density 19.610209999999999
#
# number of rings (size 3 to 8) (size 9 to 14) (size 15 to 20)
#    0.000    1.250    2.500    4.125    0.000    4.000 
#    0.000    5.625    0.000    0.000    0.000    0.000 
#    0.000    0.000    0.000    0.000    0.000    0.000 
#
# Total GULP energy -178965.913599 kJ/mol
# GULP energy per Si atom -5592.684800 kJ/mol
# Density = 1.956558 g / cm^3
# Si number density = 19.610210 Si / 1000 Ang^3
#
#
#
# Elastic Constant Matrix: (Units=GPa)
#
#
# Indices 1 2 3 4 5 6 
#
# 1 15.4213 -12.1880 -0.3000 0.0000 0.0000 0.0000
# 2 -12.1880 107.2058 12.7428 0.0000 0.0000 0.0000
# 3 -0.3000 12.7428 72.1134 0.0000 0.0000 0.0000
# 4 0.0000 0.0000 0.0000 -4.8306 0.0000 0.0000
# 5 0.0000 0.0000 0.0000 0.0000 66.4766 0.0000
# 6 0.0000 0.0000 0.0000 0.0000 0.0000 29.8616
#
#
#
# Elastic Compliance Matrix: (Units=1/GPa)
#
#
# Indices 1 2 3 4 5 6 
#
# 1 0.071342 0.008249 -0.001161 0.000000 0.000000 0.000000
# 2 0.008249 0.010482 -0.001818 0.000000 0.000000 0.000000
# 3 -0.001161 -0.001818 0.014183 0.000000 0.000000 0.000000
# 4 0.000000 0.000000 0.000000 -0.207012 0.000000 0.000000
# 5 0.000000 0.000000 0.000000 0.000000 0.015043 0.000000
# 6 0.000000 0.000000 0.000000 0.000000 0.000000 0.033488
#
#
# Mechanical properties :
#
#
# Convention : Reuss Voigt Hill
#
# Bulk Modulus (GPa) = 9.38550 21.69446 15.53998
# Shear Modulus (GPa) = -133.33876 31.26724 -51.03576
#
# Velocity S-wave (km/s) = -8.25483 3.99737 -5.10701
# Velocity P-wave (km/s) = 9.27684 5.69141 5.18014
#
# Compressibility (1/GPa) = 0.10654728
#
# Stress axis : x y z
#
# Youngs Moduli (GPa) = 14.01698 95.40436 70.50473
#
# Poissons Ratio (x) = -0.78696 0.08184
# Poissons Ratio (y) = -0.11562 0.12817
# Poissons Ratio (z) = 0.01627 0.17343
#
# Static dielectric constant tensor:
#      x y z
#    x 1.593310 0.000000 0.000000 
#    y 0.000000 1.674970 0.000000 
#    z 0.000000 0.000000 1.664660 
# 
# From -- ./inp_files/16587.got.cif
#   From: 2010.05.17/outbox.cif.g08.bks.cpg/sg36_9_cif.got.tgz:16587.got - 2010.06.03 17:41:39.
