data_PCOD9351350
_publ_section_title
;
Structure prediction by ZEFSAII (Michael W. Deem and Ramdas Pophale) SiO2 
 PCOD9351350
Probable space group: C M C 21
;
_chemical_formula_sum "Si O2"
_cell_formula_units_Z 52
_cell_length_a 7.286418
_cell_length_b 14.513161
_cell_length_c 19.976495
_cell_angle_alpha 90.000000
_cell_angle_beta 90.000000
_cell_angle_gamma 90.000000
_cell_volume 2112.493522
_symmetry_space_group_name_H-M "C M C 21"
_symmetry_group_IT_number 36
_symmetry_cell_setting 'orthorhombic'
loop_
_space_group_symop_operation_xyz
x,y,z
-x,-y,1/2+z
x,-y,1/2+z
-x,y,z
1/2+x,1/2+y,z
1/2-x,1/2-y,1/2+z
1/2+x,1/2-y,1/2+z
1/2-x,1/2+y,z
loop_
_atom_site_type_symbol
_atom_site_label
_atom_site_fract_x
_atom_site_fract_y
_atom_site_fract_z
Si Si1 0.722146 0.083179 0.503620
Si Si2 0.778652 0.508312 0.138200
Si Si3 0.717773 0.736633 0.943042
Si Si4 0.708150 0.846912 0.738609
Si Si5 0.786325 0.452515 0.394798
Si Si6 0.277519 0.132874 0.755596
Si Si7 0.500000 0.338600 0.845612
O O1 0.500000 0.074267 0.501383
O O2 0.791103 0.027382 0.567146
O O3 0.760787 0.192063 0.502966
O O4 0.796096 0.040240 0.433539
O O5 0.731533 0.608134 0.168074
O O6 0.728408 0.435111 0.195581
O O7 0.000000 0.506342 0.132408
O O8 0.500000 0.743393 0.929314
O O9 0.768067 0.630069 0.949097
O O10 0.840689 0.775608 0.883281
O O11 0.500000 0.877699 0.751576
O O12 0.840333 0.882000 0.796408
O O13 0.715370 0.736403 0.739969
O O14 0.711628 0.409415 0.326265
O O15 0.000000 0.471935 0.382276
O O16 0.500000 0.139792 0.759629
#
# Coordination Sequence:
#
# PCOD9351350 Si02
#       7
#     8   8   8   8   8   8   4
#     4   9  21  40  63  92 130 173 210 251 314 378
#     4   9  21  40  63  92 130 173 210 251 314 378
#     4  11  22  40  65  92 127 164 208 256 316 373
#     4  11  22  40  65  92 127 164 208 256 316 373
#     4  10  19  36  61  92 127 164 207 262 312 362
#     4  10  19  36  61  92 127 164 207 262 312 362
#     4  12  22  40  62  98 126 162 200 272 310 370
#
# _framework density 24.615458
#
# number of rings (size 3 to 8) (size 9 to 14) (size 15 to 20)
#    0.000    1.846    3.077    0.462    2.154    1.231 
#    2.769    0.769    0.000    0.000    0.000    0.000 
#    0.000    0.000    0.000    0.000    0.000    0.000 
#
# Total GULP energy -144855.502072 kJ/mol
# GULP energy per Si atom -5571.365464 kJ/mol
# Density = 2.455943 g / cm^3
# Si number density = 24.615458 Si / 1000 Ang^3
#
#
#
# Elastic Constant Matrix: (Units=GPa)
#
#
# Indices 1 2 3 4 5 6 
#
# 1 133.4254 -27.1136 -13.8017 0.0000 0.0000 0.0000
# 2 -27.1136 117.8101 17.7884 0.0000 0.0000 0.0000
# 3 -13.8017 17.7884 79.9147 0.0000 0.0000 0.0000
# 4 0.0000 0.0000 0.0000 26.1273 0.0000 0.0000
# 5 0.0000 0.0000 0.0000 0.0000 -13.0168 0.0000
# 6 0.0000 0.0000 0.0000 0.0000 0.0000 27.9211
#
#
#
# Elastic Compliance Matrix: (Units=1/GPa)
#
#
# Indices 1 2 3 4 5 6 
#
# 1 0.007939 0.001676 0.000998 0.000000 0.000000 0.000000
# 2 0.001676 0.009137 -0.001744 0.000000 0.000000 0.000000
# 3 0.000998 -0.001744 0.013074 0.000000 0.000000 0.000000
# 4 0.000000 0.000000 0.000000 0.038274 0.000000 0.000000
# 5 0.000000 0.000000 0.000000 0.000000 -0.076824 0.000000
# 6 0.000000 0.000000 0.000000 0.000000 0.000000 0.035815
#
#
# Mechanical properties :
#
#
# Convention : Reuss Voigt Hill
#
# Bulk Modulus (GPa) = 31.24031 31.65515 31.44773
# Shear Modulus (GPa) = 138.02294 31.82480 84.92387
#
# Velocity S-wave (km/s) = 7.49622 3.59956 5.88006
# Velocity P-wave (km/s) = 9.36180 5.49214 7.67486
#
# Compressibility (1/GPa) = 0.03200993
#
# Stress axis : x y z
#
# Youngs Moduli (GPa) = 125.96499 109.43981 76.48777
#
# Poissons Ratio (x) = -0.18346 -0.07633
# Poissons Ratio (y) = -0.21117 0.13343
# Poissons Ratio (z) = -0.12570 0.19091
#
# Static dielectric constant tensor:
#      x y z
#    x 1.878630 0.000000 0.000000 
#    y 0.000000 1.985200 0.000000 
#    z 0.000000 0.000000 1.975840 
# 
# From -- ./inp_files/16475.got.cif
#   From: 2010.05.17/outbox.cif.g08.bks.cpg/sg36_9_cif.got.tgz:16475.got - 2010.06.03 17:41:39.
