data_PCOD9351174
_publ_section_title
;
Structure prediction by ZEFSAII (Michael W. Deem and Ramdas Pophale) SiO2 
 PCOD9351174
Probable space group: C M C 21
;
_chemical_formula_sum "Si O2"
_cell_formula_units_Z 64
_cell_length_a 7.566745
_cell_length_b 30.227108
_cell_length_c 12.404017
_cell_angle_alpha 90.000000
_cell_angle_beta 90.000000
_cell_angle_gamma 90.000000
_cell_volume 2837.056919
_symmetry_space_group_name_H-M "C M C 21"
_symmetry_group_IT_number 36
_symmetry_cell_setting 'orthorhombic'
loop_
_space_group_symop_operation_xyz
x,y,z
-x,-y,1/2+z
x,-y,1/2+z
-x,y,z
1/2+x,1/2+y,z
1/2-x,1/2-y,1/2+z
1/2+x,1/2-y,1/2+z
1/2-x,1/2+y,z
loop_
_atom_site_type_symbol
_atom_site_label
_atom_site_fract_x
_atom_site_fract_y
_atom_site_fract_z
Si Si1 0.698810 0.681680 0.044140
Si Si2 0.216709 0.634091 0.478434
Si Si3 0.795717 0.916281 0.551682
Si Si4 0.202272 0.424809 0.789123
Si Si5 0.287476 0.084181 0.694446
Si Si6 0.295295 0.483113 0.370893
Si Si7 0.711777 0.825671 0.309042
Si Si8 0.785034 0.276928 0.089987
O O1 0.500000 0.678988 0.091293
O O2 0.783789 0.633243 0.056467
O O3 0.784528 0.727187 0.082705
O O4 0.692463 0.688066 0.916114
O O5 0.276093 0.614303 0.364504
O O6 0.271135 0.601160 0.576608
O O7 0.272464 0.684181 0.507581
O O8 0.000000 0.633753 0.479088
O O9 0.791695 0.932965 0.674249
O O10 0.720265 0.950688 0.464212
O O11 0.000000 0.909969 0.517342
O O12 0.206871 0.469428 0.859317
O O13 0.000000 0.413975 0.763836
O O14 0.500000 0.080081 0.689538
O O15 0.217537 0.041160 0.754813
O O16 0.243125 0.124505 0.774819
O O17 0.500000 0.491327 0.396614
O O18 0.500000 0.823758 0.326006
O O19 0.754954 0.795778 0.207344
O O20 0.000000 0.274583 0.078753
#
# Coordination Sequence:
#
# PCOD9351174 Si02
#       8
#     8   8   8   8   8   8   8   8
#     4  10  19  34  57  82 112 151 190 229 280 344
#     4   8  17  35  56  83 114 143 183 236 287 331
#     4  10  23  41  57  82 120 155 188 230 286 345
#     4  11  24  39  59  85 115 151 194 238 286 343
#     4   9  17  33  58  82 106 140 185 236 285 336
#     4  11  23  39  58  82 114 147 188 236 287 345
#     4   9  17  31  52  79 109 142 186 237 283 329
#     4   8  16  32  55  81 112 151 188 228 284 341
#
# _framework density 22.558589000000001
#
# number of rings (size 3 to 8) (size 9 to 14) (size 15 to 20)
#    0.000    2.500    1.250    2.250    1.750    2.500 
#    0.000    1.250    0.000    3.000    0.000    0.000 
#    0.000    0.000    0.000    0.000    0.000    0.000 
#
# Total GULP energy -178554.714511 kJ/mol
# GULP energy per Si atom -5579.834828 kJ/mol
# Density = 2.250724 g / cm^3
# Si number density = 22.558589 Si / 1000 Ang^3
#
#
#
# Elastic Constant Matrix: (Units=GPa)
#
#
# Indices 1 2 3 4 5 6 
#
# 1 49.8842 1.8651 0.1824 0.0000 0.0000 0.0000
# 2 1.8651 128.2528 35.6154 0.0000 0.0000 0.0000
# 3 0.1824 35.6154 58.6163 0.0000 0.0000 0.0000
# 4 0.0000 0.0000 0.0000 19.9319 0.0000 0.0000
# 5 0.0000 0.0000 0.0000 0.0000 16.0552 0.0000
# 6 0.0000 0.0000 0.0000 0.0000 0.0000 6.4568
#
#
#
# Elastic Compliance Matrix: (Units=1/GPa)
#
#
# Indices 1 2 3 4 5 6 
#
# 1 0.020058 -0.000330 0.000138 0.000000 0.000000 0.000000
# 2 -0.000330 0.009385 -0.005701 0.000000 0.000000 0.000000
# 3 0.000138 -0.005701 0.020524 0.000000 0.000000 0.000000
# 4 0.000000 0.000000 0.000000 0.050171 0.000000 0.000000
# 5 0.000000 0.000000 0.000000 0.000000 0.062285 0.000000
# 6 0.000000 0.000000 0.000000 0.000000 0.000000 0.154875
#
#
# Mechanical properties :
#
#
# Convention : Reuss Voigt Hill
#
# Bulk Modulus (GPa) = 26.19131 34.67546 30.43338
# Shear Modulus (GPa) = 14.62792 21.76147 18.19470
#
# Velocity S-wave (km/s) = 2.54921 3.10927 2.84307
# Velocity P-wave (km/s) = 4.50558 5.31928 4.92925
#
# Compressibility (1/GPa) = 0.03818060
#
# Stress axis : x y z
#
# Youngs Moduli (GPa) = 49.85474 106.55109 48.72373
#
# Poissons Ratio (x) = 0.03517 -0.00673
# Poissons Ratio (y) = 0.01645 0.27779
# Poissons Ratio (z) = -0.00689 0.60749
#
# Static dielectric constant tensor:
#      x y z
#    x 1.841300 0.000000 0.000000 
#    y 0.000000 1.856030 0.000000 
#    z 0.000000 0.000000 1.811550 
# 
# From -- ./inp_files/7076.got.cif
#   From: 2010.05.17/outbox.cif.g08.bks.cpg/sg36_4_cif.got.tgz:7076.got - 2010.06.03 17:41:39.
