data_PCOD9351490
_publ_section_title
;
Structure prediction by ZEFSAII (Michael W. Deem and Ramdas Pophale) SiO2 
 PCOD9351490
Probable space group: C M C 21
;
_chemical_formula_sum "Si O2"
_cell_formula_units_Z 64
_cell_length_a 7.674766
_cell_length_b 21.740796
_cell_length_c 14.709805
_cell_angle_alpha 90.000000
_cell_angle_beta 90.000000
_cell_angle_gamma 90.000000
_cell_volume 2454.412191
_symmetry_space_group_name_H-M "C M C 21"
_symmetry_group_IT_number 36
_symmetry_cell_setting 'orthorhombic'
loop_
_space_group_symop_operation_xyz
x,y,z
-x,-y,1/2+z
x,-y,1/2+z
-x,y,z
1/2+x,1/2+y,z
1/2-x,1/2-y,1/2+z
1/2+x,1/2-y,1/2+z
1/2-x,1/2+y,z
loop_
_atom_site_type_symbol
_atom_site_label
_atom_site_fract_x
_atom_site_fract_y
_atom_site_fract_z
Si Si1 0.202419 0.540022 0.504730
Si Si2 0.793891 0.212508 0.878563
Si Si3 0.289601 0.593785 0.991895
Si Si4 0.793627 0.827468 0.658095
Si Si5 0.289310 0.349738 0.209170
Si Si6 0.710453 0.096946 0.325090
Si Si7 0.207638 0.482401 0.205953
Si Si8 0.697875 0.710056 0.540971
O O1 0.211871 0.470979 0.463404
O O2 0.275301 0.586414 0.428332
O O3 0.284158 0.527828 0.604202
O O4 0.000000 0.555226 0.517653
O O5 0.722676 0.203100 0.777487
O O6 0.000000 0.206230 0.868790
O O7 0.730907 0.152729 0.934153
O O8 0.771466 0.270074 0.944512
O O9 0.500000 0.589514 0.985391
O O10 0.243229 0.613428 0.095497
O O11 0.754371 0.844566 0.762126
O O12 0.705122 0.769814 0.608260
O O13 0.000000 0.818311 0.646422
O O14 0.500000 0.346959 0.201817
O O15 0.240696 0.415627 0.248855
O O16 0.217892 0.340309 0.107163
O O17 0.500000 0.094872 0.330166
O O18 0.776170 0.038147 0.266449
O O19 0.000000 0.492317 0.197518
O O20 0.500000 0.694166 0.523369
#
# Coordination Sequence:
#
# PCOD9351490 Si02
#       8
#     8   8   8   8   8   8   8   8
#     4  10  20  33  51  79 113 148 184 223 276 337
#     4   9  19  37  59  85 112 145 191 238 286 337
#     4   9  17  30  52  79 106 138 181 227 273 326
#     4  10  20  35  56  81 108 142 185 233 282 330
#     4  10  22  40  60  83 115 152 191 236 286 339
#     4  10  20  35  55  81 114 149 187 228 277 339
#     4  10  21  36  55  83 116 151 189 232 283 335
#     4  10  21  38  60  85 112 147 190 237 287 337
#
# _framework density 26.075489999999999
#
# number of rings (size 3 to 8) (size 9 to 14) (size 15 to 20)
#    0.000    2.250    1.250    2.250    0.000    5.000 
#    2.250    0.000    0.000    0.000    0.000    0.000 
#    0.000    0.000    0.000    0.000    0.000    0.000 
#
# Total GULP energy -178870.084023 kJ/mol
# GULP energy per Si atom -5589.690126 kJ/mol
# Density = 2.601614 g / cm^3
# Si number density = 26.075490 Si / 1000 Ang^3
#
#
#
# Elastic Constant Matrix: (Units=GPa)
#
#
# Indices 1 2 3 4 5 6 
#
# 1 66.3661 2.0037 16.6731 0.0000 0.0000 0.0000
# 2 2.0037 90.7610 6.9465 0.0000 0.0000 0.0000
# 3 16.6731 6.9465 150.3483 0.0000 0.0000 0.0000
# 4 0.0000 0.0000 0.0000 41.7463 0.0000 0.0000
# 5 0.0000 0.0000 0.0000 0.0000 11.4403 0.0000
# 6 0.0000 0.0000 0.0000 0.0000 0.0000 6.2838
#
#
#
# Elastic Compliance Matrix: (Units=1/GPa)
#
#
# Indices 1 2 3 4 5 6 
#
# 1 0.015504 -0.000211 -0.001710 0.000000 0.000000 0.000000
# 2 -0.000211 0.011060 -0.000488 0.000000 0.000000 0.000000
# 3 -0.001710 -0.000488 0.006863 0.000000 0.000000 0.000000
# 4 0.000000 0.000000 0.000000 0.023954 0.000000 0.000000
# 5 0.000000 0.000000 0.000000 0.000000 0.087410 0.000000
# 6 0.000000 0.000000 0.000000 0.000000 0.000000 0.159140
#
#
# Mechanical properties :
#
#
# Convention : Reuss Voigt Hill
#
# Bulk Modulus (GPa) = 34.95282 39.85801 37.40541
# Shear Modulus (GPa) = 15.70918 30.68422 23.19670
#
# Velocity S-wave (km/s) = 2.45715 3.43409 2.98585
# Velocity P-wave (km/s) = 4.63505 5.57161 5.12477
#
# Compressibility (1/GPa) = 0.02861000
#
# Stress axis : x y z
#
# Youngs Moduli (GPa) = 64.50029 90.41652 145.70182
#
# Poissons Ratio (x) = 0.01912 0.24909
# Poissons Ratio (y) = 0.01364 0.07104
# Poissons Ratio (z) = 0.11027 0.04408
#
# Static dielectric constant tensor:
#      x y z
#    x 1.926940 0.000000 0.000000 
#    y 0.000000 2.089850 0.000000 
#    z 0.000000 0.000000 2.137290 
# 
# From -- ./inp_files/10942.got.cif
#   From: 2010.05.17/outbox.cif.g08.bks.cpg/sg36_6_cif.got.tgz:10942.got - 2010.06.03 17:41:39.
