data_PCOD9351766
_publ_section_title
;
Structure prediction by ZEFSAII (Michael W. Deem and Ramdas Pophale) SiO2 
 PCOD9351766
Probable space group: C M C 21
;
_chemical_formula_sum "Si O2"
_cell_formula_units_Z 56
_cell_length_a 14.085307
_cell_length_b 21.217067
_cell_length_c 6.906269
_cell_angle_alpha 90.000000
_cell_angle_beta 90.000000
_cell_angle_gamma 90.000000
_cell_volume 2063.930910
_symmetry_space_group_name_H-M "C M C 21"
_symmetry_group_IT_number 36
_symmetry_cell_setting 'orthorhombic'
loop_
_space_group_symop_operation_xyz
x,y,z
-x,-y,1/2+z
x,-y,1/2+z
-x,y,z
1/2+x,1/2+y,z
1/2-x,1/2-y,1/2+z
1/2+x,1/2-y,1/2+z
1/2-x,1/2+y,z
loop_
_atom_site_type_symbol
_atom_site_label
_atom_site_fract_x
_atom_site_fract_y
_atom_site_fract_z
Si Si1 0.105785 0.266710 0.251010
Si Si2 0.696504 0.394118 0.367074
Si Si3 0.198915 0.855222 0.825891
Si Si4 0.500000 0.551873 0.940267
Si Si5 0.392489 0.730261 0.797695
Si Si6 0.500000 0.409543 0.881700
Si Si7 0.896308 0.629732 0.272136
Si Si8 0.103243 0.414629 0.350970
O O1 0.184337 0.220153 0.338900
O O2 0.107130 0.340655 0.290904
O O3 0.000000 0.244095 0.313197
O O4 0.110556 0.251877 0.022370
O O5 0.702170 0.376120 0.597654
O O6 0.598351 0.430154 0.340734
O O7 0.681686 0.325649 0.267484
O O8 0.788649 0.434549 0.307052
O O9 0.301438 0.879502 0.895358
O O10 0.103387 0.881035 0.919627
O O11 0.500000 0.478222 0.970318
O O12 0.500000 0.586349 0.146809
O O13 0.500000 0.705399 0.765594
O O14 0.385535 0.797850 0.693755
O O15 0.000000 0.626246 0.369055
O O16 0.899665 0.585561 0.085455
O O17 0.000000 0.440672 0.284871
#
# Coordination Sequence:
#
# PCOD9351766 Si02
#       8
#     8   8   8   4   8   4   8   8
#     4   9  15  25  42  64  90 124 157 178 208 263
#     4   9  16  29  48  64  86 121 153 181 222 274
#     4   9  16  29  48  64  86 121 153 181 222 274
#     4  10  20  36  54  70  86 112 154 200 237 272
#     4   9  15  25  42  64  90 124 157 178 208 263
#     4  10  20  36  54  70  86 112 154 200 237 272
#     4   9  17  27  41  66  96 122 148 179 214 259
#     4   9  17  27  41  66  96 122 148 179 214 259
#
# _framework density 27.132688999999999
#
# number of rings (size 3 to 8) (size 9 to 14) (size 15 to 20)
#    0.000    2.857    1.429    0.857    0.000    0.000 
#    0.000    2.857    0.000    0.857    0.000    0.000 
#    0.000    0.000    0.000    0.000    0.000    0.000 
#
# Total GULP energy -156521.324961 kJ/mol
# GULP energy per Si atom -5590.047320 kJ/mol
# Density = 2.707093 g / cm^3
# Si number density = 27.132689 Si / 1000 Ang^3
#
#
#
# Elastic Constant Matrix: (Units=GPa)
#
#
# Indices 1 2 3 4 5 6 
#
# 1 267.4407 28.9180 18.3997 0.0000 0.0000 0.0000
# 2 28.9180 31.2412 -1.4295 0.0000 0.0000 0.0000
# 3 18.3997 -1.4295 98.6623 0.0000 0.0000 0.0000
# 4 0.0000 0.0000 0.0000 250.4872 0.0000 0.0000
# 5 0.0000 0.0000 0.0000 0.0000 8.0577 0.0000
# 6 0.0000 0.0000 0.0000 0.0000 0.0000 12.3541
#
#
#
# Elastic Compliance Matrix: (Units=1/GPa)
#
#
# Indices 1 2 3 4 5 6 
#
# 1 0.004224 -0.003949 -0.000845 0.000000 0.000000 0.000000
# 2 -0.003949 0.035721 0.001254 0.000000 0.000000 0.000000
# 3 -0.000845 0.001254 0.010311 0.000000 0.000000 0.000000
# 4 0.000000 0.000000 0.000000 0.003992 0.000000 0.000000
# 5 0.000000 0.000000 0.000000 0.000000 0.124104 0.000000
# 6 0.000000 0.000000 0.000000 0.000000 0.000000 0.080945
#
#
# Mechanical properties :
#
#
# Convention : Reuss Voigt Hill
#
# Bulk Modulus (GPa) = 23.16023 54.34674 38.75348
# Shear Modulus (GPa) = 17.80813 77.61021 47.70917
#
# Velocity S-wave (km/s) = 2.56468 5.35407 4.19784
# Velocity P-wave (km/s) = 4.16228 7.63511 6.14896
#
# Compressibility (1/GPa) = 0.04317747
#
# Stress axis : x y z
#
# Youngs Moduli (GPa) = 236.72789 27.99435 96.98061
#
# Poissons Ratio (x) = 0.11054 0.08195
# Poissons Ratio (y) = 0.93479 -0.12161
# Poissons Ratio (z) = 0.20004 -0.03510
#
# Static dielectric constant tensor:
#      x y z
#    x 2.191850 0.000000 0.000000 
#    y 0.000000 2.001450 0.000000 
#    z 0.000000 0.000000 2.138070 
# 
# From -- ./inp_files/4316.got.cif
#   From: 2010.05.17/outbox.cif.g08.bks.cpg/sg36_3_cif.got.tgz:4316.got - 2010.06.03 17:41:39.
