data_PCOD9351840
_publ_section_title
;
Structure prediction by ZEFSAII (Michael W. Deem and Ramdas Pophale) SiO2 
 PCOD9351840
Probable space group: C M C 21
;
_chemical_formula_sum "Si O2"
_cell_formula_units_Z 64
_cell_length_a 16.664850
_cell_length_b 20.582763
_cell_length_c 9.033130
_cell_angle_alpha 90.000000
_cell_angle_beta 90.000000
_cell_angle_gamma 90.000000
_cell_volume 3098.441799
_symmetry_space_group_name_H-M "C M C 21"
_symmetry_group_IT_number 36
_symmetry_cell_setting 'orthorhombic'
loop_
_space_group_symop_operation_xyz
x,y,z
-x,-y,1/2+z
x,-y,1/2+z
-x,y,z
1/2+x,1/2+y,z
1/2-x,1/2-y,1/2+z
1/2+x,1/2-y,1/2+z
1/2-x,1/2+y,z
loop_
_atom_site_type_symbol
_atom_site_label
_atom_site_fract_x
_atom_site_fract_y
_atom_site_fract_z
Si Si1 0.211278 0.869138 0.562290
Si Si2 0.091923 0.191597 0.295212
Si Si3 0.089739 0.327410 0.836921
Si Si4 0.908047 0.335775 0.171297
Si Si5 0.588376 0.021982 0.303746
Si Si6 0.196711 0.500716 0.568833
Si Si7 0.252590 0.382464 0.244445
Si Si8 0.680065 0.255994 0.089715
O O1 0.145048 0.855237 0.688979
O O2 0.193369 0.888963 0.391447
O O3 0.258164 0.800698 0.543312
O O4 0.266389 0.930606 0.605850
O O5 0.088636 0.260304 0.211176
O O6 0.131875 0.213037 0.451544
O O7 0.000000 0.168338 0.315740
O O8 0.085568 0.400689 0.778854
O O9 0.130438 0.280670 0.718979
O O10 0.000000 0.301999 0.862079
O O11 0.123702 0.337629 0.002131
O O12 0.842868 0.370106 0.276813
O O13 0.000000 0.360597 0.180325
O O14 0.500000 0.001987 0.357453
O O15 0.667714 0.007132 0.400924
O O16 0.610490 0.990765 0.147893
O O17 0.253880 0.556957 0.631893
O O18 0.277833 0.316511 0.165875
#
# Coordination Sequence:
#
# PCOD9351840 Si02
#       8
#     8   8   8   8   8   8   8   8
#     4  12  24  43  65  96 132 177 226 278 337 402
#     4  11  25  43  68  98 132 171 218 281 340 395
#     4  10  21  37  61  92 133 176 212 260 323 394
#     4  10  20  36  59  91 132 173 211 257 323 392
#     4  11  23  39  61  93 138 185 223 265 333 408
#     4  12  25  41  62  95 134 180 230 278 333 404
#     4  12  25  40  64  97 129 177 224 277 331 398
#     4  12  23  39  68  98 130 167 224 282 330 399
#
# _framework density 20.655543000000002
#
# number of rings (size 3 to 8) (size 9 to 14) (size 15 to 20)
#    0.000    0.750    6.250    1.500    3.500    0.500 
#    0.000    0.625    0.000    3.750    0.000    0.000 
#    0.000    0.000    0.000    0.000    0.000    0.000 
#
# Total GULP energy -178395.216728 kJ/mol
# GULP energy per Si atom -5574.850523 kJ/mol
# Density = 2.060853 g / cm^3
# Si number density = 20.655543 Si / 1000 Ang^3
#
#
#
# Elastic Constant Matrix: (Units=GPa)
#
#
# Indices 1 2 3 4 5 6 
#
# 1 87.4078 32.4815 36.7579 0.0000 0.0000 0.0000
# 2 32.4815 90.9822 22.0141 0.0000 0.0000 0.0000
# 3 36.7579 22.0141 84.3814 0.0000 0.0000 0.0000
# 4 0.0000 0.0000 0.0000 30.6613 0.0000 0.0000
# 5 0.0000 0.0000 0.0000 0.0000 28.9259 0.0000
# 6 0.0000 0.0000 0.0000 0.0000 0.0000 29.5259
#
#
#
# Elastic Compliance Matrix: (Units=1/GPa)
#
#
# Indices 1 2 3 4 5 6 
#
# 1 0.015326 -0.004116 -0.005603 0.000000 0.000000 0.000000
# 2 -0.004116 0.012837 -0.001556 0.000000 0.000000 0.000000
# 3 -0.005603 -0.001556 0.014697 0.000000 0.000000 0.000000
# 4 0.000000 0.000000 0.000000 0.032614 0.000000 0.000000
# 5 0.000000 0.000000 0.000000 0.000000 0.034571 0.000000
# 6 0.000000 0.000000 0.000000 0.000000 0.000000 0.033869
#
#
# Mechanical properties :
#
#
# Convention : Reuss Voigt Hill
#
# Bulk Modulus (GPa) = 49.23292 49.47538 49.35415
# Shear Modulus (GPa) = 28.86259 29.25714 29.05986
#
# Velocity S-wave (km/s) = 3.74214 3.76763 3.75491
# Velocity P-wave (km/s) = 6.52368 6.55220 6.53796
#
# Compressibility (1/GPa) = 0.02031161
#
# Stress axis : x y z
#
# Youngs Moduli (GPa) = 65.24766 77.89912 68.03901
#
# Poissons Ratio (x) = 0.32063 0.38119
# Poissons Ratio (y) = 0.26856 0.10587
# Poissons Ratio (z) = 0.36555 0.12121
#
# Static dielectric constant tensor:
#      x y z
#    x 1.784440 0.000000 0.000000 
#    y 0.000000 1.736010 0.000000 
#    z 0.000000 0.000000 1.812700 
# 
# From -- ./inp_files/4952.got.cif
#   From: 2010.05.17/outbox.cif.g08.bks.cpg/sg36_3_cif.got.tgz:4952.got - 2010.06.03 17:41:39.
