data_PCOD9351819
_publ_section_title
;
Structure prediction by ZEFSAII (Michael W. Deem and Ramdas Pophale) SiO2 
 PCOD9351819
Probable space group: C M C 21
;
_chemical_formula_sum "Si O2"
_cell_formula_units_Z 64
_cell_length_a 7.636707
_cell_length_b 15.944623
_cell_length_c 24.303719
_cell_angle_alpha 90.000000
_cell_angle_beta 90.000000
_cell_angle_gamma 90.000000
_cell_volume 2959.328104
_symmetry_space_group_name_H-M "C M C 21"
_symmetry_group_IT_number 36
_symmetry_cell_setting 'orthorhombic'
loop_
_space_group_symop_operation_xyz
x,y,z
-x,-y,1/2+z
x,-y,1/2+z
-x,y,z
1/2+x,1/2+y,z
1/2-x,1/2-y,1/2+z
1/2+x,1/2-y,1/2+z
1/2-x,1/2+y,z
loop_
_atom_site_type_symbol
_atom_site_label
_atom_site_fract_x
_atom_site_fract_y
_atom_site_fract_z
Si Si1 0.713689 0.355456 0.140390
Si Si2 0.710801 0.758720 0.956388
Si Si3 0.207294 0.337801 0.653493
Si Si4 0.711185 0.607265 0.032462
Si Si5 0.703525 0.268957 0.334092
Si Si6 0.210239 0.076936 0.522660
Si Si7 0.799730 0.103695 0.271629
Si Si8 0.715260 0.420102 0.258225
O O1 0.500000 0.163872 0.164686
O O2 0.767291 0.258402 0.145986
O O3 0.775551 0.393667 0.082821
O O4 0.769554 0.404275 0.195146
O O5 0.500000 0.752239 0.955014
O O6 0.779337 0.742152 0.894987
O O7 0.777255 0.687621 0.998609
O O8 0.749537 0.851070 0.978994
O O9 0.500000 0.643722 0.639334
O O10 0.240989 0.384519 0.596421
O O11 0.294654 0.379105 0.706307
O O12 0.500000 0.609141 0.029209
O O13 0.772938 0.517136 0.010329
O O14 0.500000 0.291367 0.341574
O O15 0.711043 0.181280 0.301834
O O16 0.776791 0.343075 0.295952
O O17 0.000000 0.072394 0.526527
O O18 0.000000 0.104071 0.290865
O O19 0.726260 0.010556 0.279859
O O20 0.500000 0.420863 0.257562
#
# Coordination Sequence:
#
# PCOD9351819 Si02
#       8
#     8   8   8   8   8   8   8   8
#     4   9  16  30  55  83 107 142 181 215 268 338
#     4  10  22  38  57  83 113 146 189 240 285 325
#     4  11  20  34  59  86 115 151 184 221 282 348
#     4  10  21  37  58  85 115 147 189 237 278 327
#     4  10  21  40  60  78 110 154 191 228 283 342
#     4  10  20  36  59  84 113 149 188 229 279 339
#     4  11  22  36  59  89 114 142 188 239 278 326
#     4   9  18  35  59  82 109 145 184 225 277 339
#
# _framework density 21.626532000000001
#
# number of rings (size 3 to 8) (size 9 to 14) (size 15 to 20)
#    0.000    2.000    2.500    1.500    0.000    4.000 
#    0.000    3.750    0.000    0.000    0.000    0.000 
#    0.000    0.000    0.000    0.000    0.000    0.000 
#
# Total GULP energy -178795.129946 kJ/mol
# GULP energy per Si atom -5587.347811 kJ/mol
# Density = 2.157731 g / cm^3
# Si number density = 21.626532 Si / 1000 Ang^3
#
#
#
# Elastic Constant Matrix: (Units=GPa)
#
#
# Indices 1 2 3 4 5 6 
#
# 1 41.5320 -0.9309 -8.6529 0.0000 0.0000 0.0000
# 2 -0.9309 99.7841 6.3147 0.0000 0.0000 0.0000
# 3 -8.6529 6.3147 88.6567 0.0000 0.0000 0.0000
# 4 0.0000 0.0000 0.0000 0.8014 0.0000 0.0000
# 5 0.0000 0.0000 0.0000 0.0000 15.8771 0.0000
# 6 0.0000 0.0000 0.0000 0.0000 0.0000 22.4689
#
#
#
# Elastic Compliance Matrix: (Units=1/GPa)
#
#
# Indices 1 2 3 4 5 6 
#
# 1 0.024578 0.000078 0.002393 0.000000 0.000000 0.000000
# 2 0.000078 0.010067 -0.000709 0.000000 0.000000 0.000000
# 3 0.002393 -0.000709 0.011564 0.000000 0.000000 0.000000
# 4 0.000000 0.000000 0.000000 1.247864 0.000000 0.000000
# 5 0.000000 0.000000 0.000000 0.000000 0.062984 0.000000
# 6 0.000000 0.000000 0.000000 0.000000 0.000000 0.044506
#
#
# Mechanical properties :
#
#
# Convention : Reuss Voigt Hill
#
# Bulk Modulus (GPa) = 20.10765 24.82609 22.46687
# Shear Modulus (GPa) = 3.53453 23.37895 13.45674
#
# Velocity S-wave (km/s) = 1.27980 3.29147 2.49717
# Velocity P-wave (km/s) = 3.39142 5.09406 4.32731
#
# Compressibility (1/GPa) = 0.04973231
#
# Stress axis : x y z
#
# Youngs Moduli (GPa) = 40.68652 99.33194 86.47840
#
# Poissons Ratio (x) = -0.00773 -0.20697
# Poissons Ratio (y) = -0.00317 0.06135
# Poissons Ratio (z) = -0.09737 0.07047
#
# Static dielectric constant tensor:
#      x y z
#    x 1.820040 0.000000 0.000000 
#    y 0.000000 1.781930 0.000000 
#    z 0.000000 0.000000 1.751380 
# 
# From -- ./inp_files/16572.got.cif
#   From: 2010.05.17/outbox.cif.g08.bks.cpg/sg36_9_cif.got.tgz:16572.got - 2010.06.03 17:41:39.
