data_PCOD9351349
_publ_section_title
;
Structure prediction by ZEFSAII (Michael W. Deem and Ramdas Pophale) SiO2 
 PCOD9351349
Probable space group: C M C 21
;
_chemical_formula_sum "Si O2"
_cell_formula_units_Z 56
_cell_length_a 16.436639
_cell_length_b 22.250901
_cell_length_c 7.725781
_cell_angle_alpha 90.000000
_cell_angle_beta 90.000000
_cell_angle_gamma 90.000000
_cell_volume 2825.550095
_symmetry_space_group_name_H-M "C M C 21"
_symmetry_group_IT_number 36
_symmetry_cell_setting 'orthorhombic'
loop_
_space_group_symop_operation_xyz
x,y,z
-x,-y,1/2+z
x,-y,1/2+z
-x,y,z
1/2+x,1/2+y,z
1/2-x,1/2-y,1/2+z
1/2+x,1/2-y,1/2+z
1/2-x,1/2+y,z
loop_
_atom_site_type_symbol
_atom_site_label
_atom_site_fract_x
_atom_site_fract_y
_atom_site_fract_z
Si Si1 0.191260 0.690858 0.460040
Si Si2 0.852755 0.063011 0.682327
Si Si3 0.818853 0.498659 0.747199
Si Si4 0.592148 0.438383 0.790103
Si Si5 0.197891 0.815355 0.300598
Si Si6 0.907908 0.422925 0.029021
Si Si7 0.255436 0.381280 0.627727
O O1 0.163136 0.754684 0.384058
O O2 0.251684 0.697303 0.624499
O O3 0.120872 0.645571 0.521500
O O4 0.234389 0.657956 0.297064
O O5 0.865120 0.067199 0.476840
O O6 0.862476 0.129775 0.755925
O O7 0.763062 0.038603 0.737147
O O8 0.909037 0.009333 0.748036
O O9 0.843736 0.461463 0.916744
O O10 0.892875 0.543631 0.709427
O O11 0.799673 0.440949 0.624331
O O12 0.500000 0.415276 0.791993
O O13 0.652374 0.405775 0.655395
O O14 0.253054 0.842753 0.454925
O O15 0.000000 0.428644 0.969114
#
# Coordination Sequence:
#
# PCOD9351349 Si02
#       7
#     8   8   8   8   8   8   8
#     4  11  23  39  64  91 117 162 222 262 301 368
#     4  11  20  36  62  91 122 165 213 255 308 377
#     4  10  19  36  61  90 118 158 198 247 308 384
#     4  11  22  38  59  96 136 163 198 263 329 379
#     4  12  21  39  66  89 115 164 218 267 304 350
#     4  11  22  38  58  91 129 157 192 256 322 373
#     4  10  21  38  64  94 121 155 217 262 298 377
#
# _framework density 19.81915
#
# number of rings (size 3 to 8) (size 9 to 14) (size 15 to 20)
#    0.000    1.143    4.286    5.143    0.000    0.000 
#    0.000    2.857    0.000    0.000    0.000    0.000 
#    0.000    0.000    0.000    0.000    0.000    0.000 
#
# Total GULP energy -156097.464715 kJ/mol
# GULP energy per Si atom -5574.909454 kJ/mol
# Density = 1.977404 g / cm^3
# Si number density = 19.819150 Si / 1000 Ang^3
#
#
#
# Elastic Constant Matrix: (Units=GPa)
#
#
# Indices 1 2 3 4 5 6 
#
# 1 55.3981 7.2766 -4.5576 0.0000 0.0000 0.0000
# 2 7.2766 137.0395 26.3112 0.0000 0.0000 0.0000
# 3 -4.5576 26.3112 80.9360 0.0000 0.0000 0.0000
# 4 0.0000 0.0000 0.0000 36.9990 0.0000 0.0000
# 5 0.0000 0.0000 0.0000 0.0000 8.7181 0.0000
# 6 0.0000 0.0000 0.0000 0.0000 0.0000 13.5972
#
#
#
# Elastic Compliance Matrix: (Units=1/GPa)
#
#
# Indices 1 2 3 4 5 6 
#
# 1 0.018334 -0.001250 0.001439 0.000000 0.000000 0.000000
# 2 -0.001250 0.007868 -0.002628 0.000000 0.000000 0.000000
# 3 0.001439 -0.002628 0.013291 0.000000 0.000000 0.000000
# 4 0.000000 0.000000 0.000000 0.027028 0.000000 0.000000
# 5 0.000000 0.000000 0.000000 0.000000 0.114704 0.000000
# 6 0.000000 0.000000 0.000000 0.000000 0.000000 0.073545
#
#
# Mechanical properties :
#
#
# Convention : Reuss Voigt Hill
#
# Bulk Modulus (GPa) = 28.88991 36.82600 32.85796
# Shear Modulus (GPa) = 18.43758 28.15243 23.29500
#
# Velocity S-wave (km/s) = 3.05338 3.77300 3.43210
# Velocity P-wave (km/s) = 5.19993 6.13205 5.68512
#
# Compressibility (1/GPa) = 0.03461416
#
# Stress axis : x y z
#
# Youngs Moduli (GPa) = 54.54444 127.09493 75.23973
#
# Poissons Ratio (x) = 0.15883 -0.10824
# Poissons Ratio (y) = 0.06817 0.19775
# Poissons Ratio (z) = -0.07847 0.33403
#
# Static dielectric constant tensor:
#      x y z
#    x 1.686970 0.000000 0.000000 
#    y 0.000000 1.731770 0.000000 
#    z 0.000000 0.000000 1.826060 
# 
# From -- ./inp_files/4877.got.cif
#   From: 2010.05.17/outbox.cif.g08.bks.cpg/sg36_3_cif.got.tgz:4877.got - 2010.06.03 17:41:39.
