data_PCOD9351977
_publ_section_title
;
Structure prediction by ZEFSAII (Michael W. Deem and Ramdas Pophale) SiO2 
 PCOD9351977
Probable space group: C M C 21
;
_chemical_formula_sum "Si O2"
_cell_formula_units_Z 64
_cell_length_a 24.256912
_cell_length_b 12.006875
_cell_length_c 11.453875
_cell_angle_alpha 90.000000
_cell_angle_beta 90.000000
_cell_angle_gamma 90.000000
_cell_volume 3335.937775
_symmetry_space_group_name_H-M "C M C 21"
_symmetry_group_IT_number 36
_symmetry_cell_setting 'orthorhombic'
loop_
_space_group_symop_operation_xyz
x,y,z
-x,-y,1/2+z
x,-y,1/2+z
-x,y,z
1/2+x,1/2+y,z
1/2-x,1/2-y,1/2+z
1/2+x,1/2-y,1/2+z
1/2-x,1/2+y,z
loop_
_atom_site_type_symbol
_atom_site_label
_atom_site_fract_x
_atom_site_fract_y
_atom_site_fract_z
Si Si1 0.867621 0.086319 0.572440
Si Si2 0.861447 0.161363 0.169662
Si Si3 0.368459 0.150078 0.486630
Si Si4 0.256379 0.912355 0.706593
Si Si5 0.251638 0.557592 0.469269
Si Si6 0.626457 0.208166 0.229246
Si Si7 0.064015 0.204644 0.388944
Si Si8 0.565196 0.923698 0.530747
O O1 0.811546 0.108966 0.498158
O O2 0.867936 0.165835 0.684963
O O3 0.918973 0.125609 0.495956
O O4 0.868674 0.957841 0.607221
O O5 0.878619 0.261557 0.086824
O O6 0.796802 0.167358 0.202577
O O7 0.898494 0.168867 0.282827
O O8 0.302203 0.134845 0.477591
O O9 0.389092 0.196676 0.363437
O O10 0.397801 0.032566 0.511707
O O11 0.249325 0.979751 0.831236
O O12 0.313953 0.849089 0.713282
O O13 0.255847 0.975706 0.581469
O O14 0.584438 0.139707 0.147850
O O15 0.075244 0.331794 0.429620
O O16 0.000000 0.195251 0.361435
O O17 0.500000 0.949439 0.534053
#
# Coordination Sequence:
#
# PCOD9351977 Si02
#       8
#     8   8   8   8   8   8   8   8
#     4  10  22  41  64  91 127 172 214 259 320 384
#     4  11  24  38  65  95 128 167 212 263 317 388
#     4  11  24  39  63 100 129 162 214 269 324 386
#     4  10  20  38  63  97 132 172 213 268 329 390
#     4  10  20  37  63  97 132 172 209 270 329 388
#     4  10  22  41  64  92 132 169 214 268 320 383
#     4  10  23  44  66  89 123 171 215 260 316 381
#     4  10  23  44  68  93 127 169 213 263 327 386
#
# _framework density 19.185009999999998
#
# number of rings (size 3 to 8) (size 9 to 14) (size 15 to 20)
#    0.000    1.750    2.500    0.750    3.500    2.500 
#    0.000    0.000    0.000    0.000    0.000    0.000 
#    0.000    0.000    0.000    0.000    0.000    0.000 
#
# Total GULP energy -178472.089910 kJ/mol
# GULP energy per Si atom -5577.252810 kJ/mol
# Density = 1.914134 g / cm^3
# Si number density = 19.185010 Si / 1000 Ang^3
#
#
#
# Elastic Constant Matrix: (Units=GPa)
#
#
# Indices 1 2 3 4 5 6 
#
# 1 51.2117 24.9292 19.3035 0.0000 0.0000 0.0000
# 2 24.9292 49.0432 10.1828 0.0000 0.0000 0.0000
# 3 19.3035 10.1828 73.1228 0.0000 0.0000 0.0000
# 4 0.0000 0.0000 0.0000 22.7167 0.0000 0.0000
# 5 0.0000 0.0000 0.0000 0.0000 24.6002 0.0000
# 6 0.0000 0.0000 0.0000 0.0000 0.0000 17.4546
#
#
#
# Elastic Compliance Matrix: (Units=1/GPa)
#
#
# Indices 1 2 3 4 5 6 
#
# 1 0.027988 -0.013071 -0.005568 0.000000 0.000000 0.000000
# 2 -0.013071 0.027101 -0.000324 0.000000 0.000000 0.000000
# 3 -0.005568 -0.000324 0.015191 0.000000 0.000000 0.000000
# 4 0.000000 0.000000 0.000000 0.044021 0.000000 0.000000
# 5 0.000000 0.000000 0.000000 0.000000 0.040650 0.000000
# 6 0.000000 0.000000 0.000000 0.000000 0.000000 0.057291
#
#
# Mechanical properties :
#
#
# Convention : Reuss Voigt Hill
#
# Bulk Modulus (GPa) = 30.90696 31.35652 31.13174
# Shear Modulus (GPa) = 19.16058 20.88512 20.02285
#
# Velocity S-wave (km/s) = 3.16369 3.30300 3.23410
# Velocity P-wave (km/s) = 5.43049 5.56113 5.49620
#
# Compressibility (1/GPa) = 0.03235517
#
# Stress axis : x y z
#
# Youngs Moduli (GPa) = 35.72919 36.89864 65.82993
#
# Poissons Ratio (x) = 0.48229 0.36657
# Poissons Ratio (y) = 0.46700 0.02130
# Poissons Ratio (z) = 0.19895 0.01194
#
# Static dielectric constant tensor:
#      x y z
#    x 1.649600 0.000000 0.000000 
#    y 0.000000 1.651580 0.000000 
#    z 0.000000 0.000000 1.687190 
# 
# From -- ./inp_files/9521.got.cif
#   From: 2010.05.17/outbox.cif.g08.bks.cpg/sg36_5_cif.got.tgz:9521.got - 2010.06.03 17:41:39.
