data_PCOD9351133
_publ_section_title
;
Structure prediction by ZEFSAII (Michael W. Deem and Ramdas Pophale) SiO2 
 PCOD9351133
Probable space group: C M C 21
;
_chemical_formula_sum "Si O2"
_cell_formula_units_Z 64
_cell_length_a 7.834158
_cell_length_b 23.445700
_cell_length_c 16.812698
_cell_angle_alpha 90.000000
_cell_angle_beta 90.000000
_cell_angle_gamma 90.000000
_cell_volume 3088.111281
_symmetry_space_group_name_H-M "C M C 21"
_symmetry_group_IT_number 36
_symmetry_cell_setting 'orthorhombic'
loop_
_space_group_symop_operation_xyz
x,y,z
-x,-y,1/2+z
x,-y,1/2+z
-x,y,z
1/2+x,1/2+y,z
1/2-x,1/2-y,1/2+z
1/2+x,1/2-y,1/2+z
1/2-x,1/2+y,z
loop_
_atom_site_type_symbol
_atom_site_label
_atom_site_fract_x
_atom_site_fract_y
_atom_site_fract_z
Si Si1 0.294958 0.789184 0.955810
Si Si2 0.792674 0.969958 0.763086
Si Si3 0.199919 0.463192 0.465020
Si Si4 0.206361 0.893082 0.616043
Si Si5 0.196896 0.281010 0.297541
Si Si6 0.208800 0.761443 0.625702
Si Si7 0.804997 0.090384 0.803312
Si Si8 0.799035 0.417049 0.932244
O O1 0.500000 0.791568 0.961759
O O2 0.263370 0.749592 0.878005
O O3 0.226454 0.853703 0.942772
O O4 0.232886 0.765993 0.041735
O O5 0.740267 0.930706 0.690701
O O6 0.727204 0.939966 0.842919
O O7 0.000000 0.971618 0.767825
O O8 0.734778 0.035788 0.755002
O O9 0.219530 0.422365 0.538819
O O10 0.299570 0.435095 0.392200
O O11 0.263420 0.527791 0.481927
O O12 0.000000 0.466570 0.441873
O O13 0.256556 0.827703 0.624207
O O14 0.000000 0.894730 0.610934
O O15 0.270184 0.263561 0.210661
O O16 0.212192 0.349364 0.302725
O O17 0.000000 0.263869 0.295141
O O18 0.000000 0.757083 0.625506
O O19 0.000000 0.101477 0.779100
O O20 0.000000 0.411579 0.949133
#
# Coordination Sequence:
#
# PCOD9351133 Si02
#       8
#     8   8   8   8   8   8   8   8
#     4  10  20  37  58  80 110 152 189 221 270 334
#     4   9  19  34  54  77 104 139 180 221 268 327
#     4  10  20  34  53  80 108 138 179 228 273 322
#     4  10  19  34  54  77 105 140 180 223 272 327
#     4  11  22  37  58  84 111 144 185 232 277 325
#     4   9  20  36  55  78 108 145 184 221 269 332
#     4  10  20  36  55  77 106 142 180 223 276 332
#     4   9  19  34  53  77 106 138 179 225 271 319
#
# _framework density 20.724641999999999
#
# number of rings (size 3 to 8) (size 9 to 14) (size 15 to 20)
#    0.000    2.250    0.000    2.625    0.000    5.000 
#    0.000    3.750    0.000    0.000    0.000    0.000 
#    0.000    0.000    0.000    0.000    0.000    0.000 
#
# Total GULP energy -178437.690272 kJ/mol
# GULP energy per Si atom -5576.177821 kJ/mol
# Density = 2.067747 g / cm^3
# Si number density = 20.724642 Si / 1000 Ang^3
#
#
#
# Elastic Constant Matrix: (Units=GPa)
#
#
# Indices 1 2 3 4 5 6 
#
# 1 23.0827 5.9315 4.9612 0.0000 0.0000 0.0000
# 2 5.9315 173.2930 75.2413 0.0000 0.0000 0.0000
# 3 4.9612 75.2413 107.0718 0.0000 0.0000 0.0000
# 4 0.0000 0.0000 0.0000 32.5840 0.0000 0.0000
# 5 0.0000 0.0000 0.0000 0.0000 16.9776 0.0000
# 6 0.0000 0.0000 0.0000 0.0000 0.0000 64.0485
#
#
#
# Elastic Compliance Matrix: (Units=1/GPa)
#
#
# Indices 1 2 3 4 5 6 
#
# 1 0.043854 -0.000890 -0.001406 0.000000 0.000000 0.000000
# 2 -0.000890 0.008322 -0.005807 0.000000 0.000000 0.000000
# 3 -0.001406 -0.005807 0.013485 0.000000 0.000000 0.000000
# 4 0.000000 0.000000 0.000000 0.030690 0.000000 0.000000
# 5 0.000000 0.000000 0.000000 0.000000 0.058901 0.000000
# 6 0.000000 0.000000 0.000000 0.000000 0.000000 0.015613
#
#
# Mechanical properties :
#
#
# Convention : Reuss Voigt Hill
#
# Bulk Modulus (GPa) = 20.22083 52.85728 36.53905
# Shear Modulus (GPa) = 24.56307 37.20958 30.88633
#
# Velocity S-wave (km/s) = 3.44642 4.24184 3.86465
# Velocity P-wave (km/s) = 5.06115 7.03924 6.13050
#
# Compressibility (1/GPa) = 0.04945396
#
# Stress axis : x y z
#
# Youngs Moduli (GPa) = 22.80314 120.15790 74.15427
#
# Poissons Ratio (x) = 0.10700 0.10428
# Poissons Ratio (y) = 0.02031 0.43062
# Poissons Ratio (z) = 0.03207 0.69776
#
# Static dielectric constant tensor:
#      x y z
#    x 1.771040 0.000000 0.000000 
#    y 0.000000 1.743590 0.000000 
#    z 0.000000 0.000000 1.726670 
# 
# From -- ./inp_files/11047.got.cif
#   From: 2010.05.17/outbox.cif.g08.bks.cpg/sg36_6_cif.got.tgz:11047.got - 2010.06.03 17:41:39.
