data_PCOD9351763
_publ_section_title
;
Structure prediction by ZEFSAII (Michael W. Deem and Ramdas Pophale) SiO2 
 PCOD9351763
Probable space group: C M C 21
;
_chemical_formula_sum "Si O2"
_cell_formula_units_Z 64
_cell_length_a 31.582782
_cell_length_b 5.414897
_cell_length_c 14.277349
_cell_angle_alpha 90.000000
_cell_angle_beta 90.000000
_cell_angle_gamma 90.000000
_cell_volume 2441.676697
_symmetry_space_group_name_H-M "C M C 21"
_symmetry_group_IT_number 36
_symmetry_cell_setting 'orthorhombic'
loop_
_space_group_symop_operation_xyz
x,y,z
-x,-y,1/2+z
x,-y,1/2+z
-x,y,z
1/2+x,1/2+y,z
1/2-x,1/2-y,1/2+z
1/2+x,1/2-y,1/2+z
1/2-x,1/2+y,z
loop_
_atom_site_type_symbol
_atom_site_label
_atom_site_fract_x
_atom_site_fract_y
_atom_site_fract_z
Si Si1 0.254899 0.710092 0.052540
Si Si2 0.047195 0.417798 0.338785
Si Si3 0.869027 0.859808 0.819272
Si Si4 0.045760 0.190623 0.550743
Si Si5 0.085395 0.806755 0.442837
Si Si6 0.845881 0.343813 0.057640
Si Si7 0.724945 0.802968 0.345867
Si Si8 0.369261 0.321999 0.153809
O O1 0.255019 0.457141 0.107695
O O2 0.302092 0.753840 0.015407
O O3 0.226216 0.707927 0.960206
O O4 0.088232 0.290934 0.290722
O O5 0.045246 0.320286 0.447772
O O6 0.058586 0.704519 0.356595
O O7 0.000000 0.377904 0.299309
O O8 0.824177 0.723056 0.816576
O O9 0.883247 0.965278 0.919893
O O10 0.864371 0.115688 0.762049
O O11 0.083693 0.252882 0.620524
O O12 0.000000 0.230217 0.594042
O O13 0.053730 0.904583 0.521611
O O14 0.118592 0.607977 0.480364
O O15 0.841177 0.593948 0.117484
O O16 0.860206 0.099811 0.114690
O O17 0.751805 0.557865 0.318811
#
# Coordination Sequence:
#
# PCOD9351763 Si02
#       8
#     8   8   8   8   8   8   8   8
#     4  10  20  35  62  93 123 155 222 276 322 378
#     4  10  21  38  66 100 131 171 233 288 335 395
#     4  11  26  41  68  96 147 180 222 286 352 415
#     4   9  19  38  61  92 130 173 228 279 329 396
#     4  10  20  37  68  95 128 178 229 287 333 391
#     4  11  23  42  66  94 130 175 231 277 329 404
#     4  10  23  40  65  98 129 170 226 273 335 401
#     4  11  25  43  64  98 137 186 217 272 352 414
#
# _framework density 26.211497999999999
#
# number of rings (size 3 to 8) (size 9 to 14) (size 15 to 20)
#    0.000    1.750    1.250    2.625    7.000    1.000 
#    0.000    3.750    0.000    0.000    0.000    0.000 
#    0.000    0.000    0.000    0.000    0.000    0.000 
#
# Total GULP energy -178666.308164 kJ/mol
# GULP energy per Si atom -5583.322130 kJ/mol
# Density = 2.615184 g / cm^3
# Si number density = 26.211498 Si / 1000 Ang^3
#
#
#
# Elastic Constant Matrix: (Units=GPa)
#
#
# Indices 1 2 3 4 5 6 
#
# 1 155.8796 39.4903 -3.1582 0.0000 0.0000 0.0000
# 2 39.4903 152.4734 -1.9998 0.0000 0.0000 0.0000
# 3 -3.1582 -1.9998 40.7029 0.0000 0.0000 0.0000
# 4 0.0000 0.0000 0.0000 29.0574 0.0000 0.0000
# 5 0.0000 0.0000 0.0000 0.0000 4.3641 0.0000
# 6 0.0000 0.0000 0.0000 0.0000 0.0000 24.9910
#
#
#
# Elastic Compliance Matrix: (Units=1/GPa)
#
#
# Indices 1 2 3 4 5 6 
#
# 1 0.006874 -0.001774 0.000446 0.000000 0.000000 0.000000
# 2 -0.001774 0.007021 0.000207 0.000000 0.000000 0.000000
# 3 0.000446 0.000207 0.024613 0.000000 0.000000 0.000000
# 4 0.000000 0.000000 0.000000 0.034415 0.000000 0.000000
# 5 0.000000 0.000000 0.000000 0.000000 0.229144 0.000000
# 6 0.000000 0.000000 0.000000 0.000000 0.000000 0.040014
#
#
# Mechanical properties :
#
#
# Convention : Reuss Voigt Hill
#
# Bulk Modulus (GPa) = 27.57431 46.41337 36.99384
# Shear Modulus (GPa) = 14.02872 32.66406 23.34639
#
# Velocity S-wave (km/s) = 2.31598 3.53395 2.98769
# Velocity P-wave (km/s) = 4.20647 5.86493 5.10352
#
# Compressibility (1/GPa) = 0.03626564
#
# Stress axis : x y z
#
# Youngs Moduli (GPa) = 145.48032 142.43355 40.62883
#
# Poissons Ratio (x) = 0.25274 -0.01813
# Poissons Ratio (y) = 0.25815 -0.00842
# Poissons Ratio (z) = -0.06491 -0.02952
#
# Static dielectric constant tensor:
#      x y z
#    x 2.035510 0.000000 0.000000 
#    y 0.000000 2.231660 0.000000 
#    z 0.000000 0.000000 2.101160 
# 
# From -- ./inp_files/15195.got.cif
#   From: 2010.05.17/outbox.cif.g08.bks.cpg/sg36_8_cif.got.tgz:15195.got - 2010.06.03 17:41:39.
