data_PCOD9351098
_publ_section_title
;
Structure prediction by ZEFSAII (Michael W. Deem and Ramdas Pophale) SiO2 
 PCOD9351098
Probable space group: C M C 21
;
_chemical_formula_sum "Si O2"
_cell_formula_units_Z 64
_cell_length_a 8.642624
_cell_length_b 20.558716
_cell_length_c 19.776365
_cell_angle_alpha 90.000000
_cell_angle_beta 90.000000
_cell_angle_gamma 90.000000
_cell_volume 3513.889299
_symmetry_space_group_name_H-M "C M C 21"
_symmetry_group_IT_number 36
_symmetry_cell_setting 'orthorhombic'
loop_
_space_group_symop_operation_xyz
x,y,z
-x,-y,1/2+z
x,-y,1/2+z
-x,y,z
1/2+x,1/2+y,z
1/2-x,1/2-y,1/2+z
1/2+x,1/2-y,1/2+z
1/2-x,1/2+y,z
loop_
_atom_site_type_symbol
_atom_site_label
_atom_site_fract_x
_atom_site_fract_y
_atom_site_fract_z
Si Si1 0.681767 0.815120 0.578280
Si Si2 0.816956 0.937326 0.655225
Si Si3 0.682889 0.058342 0.572858
Si Si4 0.686085 0.259943 0.444487
Si Si5 0.813919 0.389571 0.792994
Si Si6 0.312483 0.261635 0.292150
Si Si7 0.184108 0.177950 0.655308
Si Si8 0.184439 0.113939 0.439190
O O1 0.500000 0.831693 0.580686
O O2 0.775292 0.870815 0.616303
O O3 0.738566 0.803531 0.502170
O O4 0.701351 0.746194 0.616149
O O5 0.746667 0.931083 0.730347
O O6 0.000000 0.945838 0.659688
O O7 0.743741 0.996021 0.613038
O O8 0.500000 0.054482 0.563167
O O9 0.726485 0.121566 0.617112
O O10 0.763463 0.067852 0.500194
O O11 0.500000 0.261380 0.449980
O O12 0.731870 0.280135 0.368279
O O13 0.741851 0.185309 0.452415
O O14 0.766628 0.313735 0.780970
O O15 0.745357 0.408134 0.865850
O O16 0.000000 0.391588 0.795858
O O17 0.500000 0.261703 0.289322
O O18 0.260558 0.307906 0.231666
O O19 0.000000 0.162043 0.655392
O O20 0.000000 0.120335 0.438395
#
# Coordination Sequence:
#
# PCOD9351098 Si02
#       8
#     8   8   8   8   8   8   8   8
#     4  11  21  36  60  87 120 156 194 245 302 356
#     4  12  25  41  61  88 121 158 203 252 302 360
#     4  12  25  41  60  86 120 160 204 251 303 358
#     4  10  19  33  56  87 119 155 200 248 300 354
#     4  10  19  37  61  88 119 155 197 242 297 358
#     4   8  16  32  56  84 116 152 190 238 293 348
#     4  10  19  36  60  86 117 153 194 242 299 354
#     4  11  21  36  58  88 120 155 198 246 300 356
#
# _framework density 18.213436999999999
#
# number of rings (size 3 to 8) (size 9 to 14) (size 15 to 20)
#    0.000    1.500    2.500    5.250    0.000    0.500 
#    0.000    2.500    0.000    1.500    0.000    0.000 
#    0.000    0.000    0.000    0.000    0.000    0.000 
#
# Total GULP energy -178776.631462 kJ/mol
# GULP energy per Si atom -5586.769733 kJ/mol
# Density = 1.817198 g / cm^3
# Si number density = 18.213437 Si / 1000 Ang^3
#
#
#
# Elastic Constant Matrix: (Units=GPa)
#
#
# Indices 1 2 3 4 5 6 
#
# 1 57.5503 9.5738 14.0208 0.0000 0.0000 0.0000
# 2 9.5738 39.6772 28.4278 0.0000 0.0000 0.0000
# 3 14.0208 28.4278 137.9688 0.0000 0.0000 0.0000
# 4 0.0000 0.0000 0.0000 29.2212 0.0000 0.0000
# 5 0.0000 0.0000 0.0000 0.0000 32.0042 0.0000
# 6 0.0000 0.0000 0.0000 0.0000 0.0000 27.1526
#
#
#
# Elastic Compliance Matrix: (Units=1/GPa)
#
#
# Indices 1 2 3 4 5 6 
#
# 1 0.018247 -0.003607 -0.001111 0.000000 0.000000 0.000000
# 2 -0.003607 0.030281 -0.005873 0.000000 0.000000 0.000000
# 3 -0.001111 -0.005873 0.008571 0.000000 0.000000 0.000000
# 4 0.000000 0.000000 0.000000 0.034222 0.000000 0.000000
# 5 0.000000 0.000000 0.000000 0.000000 0.031246 0.000000
# 6 0.000000 0.000000 0.000000 0.000000 0.000000 0.036829
#
#
# Mechanical properties :
#
#
# Convention : Reuss Voigt Hill
#
# Bulk Modulus (GPa) = 27.84133 37.69347 32.76740
# Shear Modulus (GPa) = 25.96735 29.88722 27.92728
#
# Velocity S-wave (km/s) = 3.77997 4.05525 3.92003
# Velocity P-wave (km/s) = 5.86262 6.53200 6.20634
#
# Compressibility (1/GPa) = 0.03591783
#
# Stress axis : x y z
#
# Youngs Moduli (GPa) = 54.80412 33.02362 116.67258
#
# Poissons Ratio (x) = 0.11911 0.12964
# Poissons Ratio (y) = 0.19766 0.68519
# Poissons Ratio (z) = 0.06090 0.19394
#
# Static dielectric constant tensor:
#      x y z
#    x 1.609950 0.000000 0.000000 
#    y 0.000000 1.595440 0.000000 
#    z 0.000000 0.000000 1.639860 
# 
# From -- ./inp_files/14108.got.cif
#   From: 2010.05.17/outbox.cif.g08.bks.cpg/sg36_8_cif.got.tgz:14108.got - 2010.06.03 17:41:39.
