data_PCOD9351860
_publ_section_title
;
Structure prediction by ZEFSAII (Michael W. Deem and Ramdas Pophale) SiO2 
 PCOD9351860
Probable space group: C M C 21
;
_chemical_formula_sum "Si O2"
_cell_formula_units_Z 48
_cell_length_a 10.330784
_cell_length_b 25.171072
_cell_length_c 7.800187
_cell_angle_alpha 90.000000
_cell_angle_beta 90.000000
_cell_angle_gamma 90.000000
_cell_volume 2028.336508
_symmetry_space_group_name_H-M "C M C 21"
_symmetry_group_IT_number 36
_symmetry_cell_setting 'orthorhombic'
loop_
_space_group_symop_operation_xyz
x,y,z
-x,-y,1/2+z
x,-y,1/2+z
-x,y,z
1/2+x,1/2+y,z
1/2-x,1/2-y,1/2+z
1/2+x,1/2-y,1/2+z
1/2-x,1/2+y,z
loop_
_atom_site_type_symbol
_atom_site_label
_atom_site_fract_x
_atom_site_fract_y
_atom_site_fract_z
Si Si1 0.650560 0.257233 0.010370
Si Si2 0.500000 0.585272 0.188005
Si Si3 0.751830 0.859651 0.818915
Si Si4 0.500000 0.483079 0.036423
Si Si5 0.000000 0.473164 0.333667
Si Si6 0.649819 0.679031 0.870541
Si Si7 0.242343 0.923591 0.176400
Si Si8 0.000000 0.586687 0.197526
O O1 0.500000 0.244990 0.966879
O O2 0.710015 0.301302 0.882309
O O3 0.650341 0.285523 0.195347
O O4 0.746688 0.207509 0.993292
O O5 0.628579 0.618757 0.209686
O O6 0.500000 0.546228 0.028119
O O7 0.500000 0.547219 0.356789
O O8 0.739385 0.892674 0.997270
O O9 0.621700 0.874953 0.722207
O O10 0.627989 0.464734 0.136934
O O11 0.129473 0.453025 0.239131
O O12 0.000000 0.537321 0.332526
O O13 0.000000 0.444867 0.518404
O O14 0.500000 0.678658 0.928850
O O15 0.696897 0.621088 0.811115
#
# Coordination Sequence:
#
# PCOD9351860 Si02
#       8
#     8   4   8   4   4   8   8   4
#     4  10  22  41  64  91 124 161 202 250 304 364
#     4  10  20  36  61  88 115 151 194 243 297 358
#     4  10  21  41  64  87 121 162 201 247 305 362
#     4  10  20  36  61  88 115 151 194 243 297 358
#     4  12  26  42  61  90 125 163 206 253 301 362
#     4  10  22  41  64  91 124 161 202 250 304 364
#     4  10  21  41  64  87 121 162 201 247 305 362
#     4  12  26  42  61  90 125 163 206 253 301 362
#
# _framework density 23.664712000000002
#
# number of rings (size 3 to 8) (size 9 to 14) (size 15 to 20)
#    0.000    1.667    1.667    2.500    2.333    6.000 
#    0.000    0.000    0.000    0.000    0.000    0.000 
#    0.000    0.000    0.000    0.000    0.000    0.000 
#
# Total GULP energy -134486.852852 kJ/mol
# GULP energy per Si atom -5603.618869 kJ/mol
# Density = 2.361085 g / cm^3
# Si number density = 23.664712 Si / 1000 Ang^3
#
#
#
# Elastic Constant Matrix: (Units=GPa)
#
#
# Indices 1 2 3 4 5 6 
#
# 1 223.0138 82.6905 50.1946 0.0000 0.0000 0.0000
# 2 82.6905 108.1518 20.0022 0.0000 0.0000 0.0000
# 3 50.1946 20.0022 92.2136 0.0000 0.0000 0.0000
# 4 0.0000 0.0000 0.0000 49.1807 0.0000 0.0000
# 5 0.0000 0.0000 0.0000 0.0000 -44.9443 0.0000
# 6 0.0000 0.0000 0.0000 0.0000 0.0000 28.9848
#
#
#
# Elastic Compliance Matrix: (Units=1/GPa)
#
#
# Indices 1 2 3 4 5 6 
#
# 1 0.006848 -0.004736 -0.002700 0.000000 0.000000 0.000000
# 2 -0.004736 0.012909 -0.000222 0.000000 0.000000 0.000000
# 3 -0.002700 -0.000222 0.012362 0.000000 0.000000 0.000000
# 4 0.000000 0.000000 0.000000 0.020333 0.000000 0.000000
# 5 0.000000 0.000000 0.000000 0.000000 -0.022250 0.000000
# 6 0.000000 0.000000 0.000000 0.000000 0.000000 0.034501
#
#
# Mechanical properties :
#
#
# Convention : Reuss Voigt Hill
#
# Bulk Modulus (GPa) = 59.51665 81.01707 70.26686
# Shear Modulus (GPa) = 58.39708 24.67704 41.53706
#
# Velocity S-wave (km/s) = 4.97297 3.23271 4.19409
# Velocity P-wave (km/s) = 7.62748 6.94576 7.29459
#
# Compressibility (1/GPa) = 0.01680202
#
# Stress axis : x y z
#
# Youngs Moduli (GPa) = 146.02878 77.46743 80.89111
#
# Poissons Ratio (x) = 0.36692 0.21842
# Poissons Ratio (y) = 0.69165 0.01795
# Poissons Ratio (z) = 0.39430 0.01719
#
# Static dielectric constant tensor:
#      x y z
#    x 1.826060 0.000000 0.000000 
#    y 0.000000 1.850720 0.000000 
#    z 0.000000 0.000000 1.950330 
# 
# From -- ./inp_files/2765.got.cif
#   From: 2010.05.17/outbox.cif.g08.bks.cpg/sg36_2_cif.got.tgz:2765.got - 2010.06.03 17:41:39.
