data_PCOD9351437
_publ_section_title
;
Structure prediction by ZEFSAII (Michael W. Deem and Ramdas Pophale) SiO2 
 PCOD9351437
Probable space group: C M C 21
;
_chemical_formula_sum "Si O2"
_cell_formula_units_Z 48
_cell_length_a 23.421528
_cell_length_b 21.439603
_cell_length_c 5.168213
_cell_angle_alpha 90.000000
_cell_angle_beta 90.000000
_cell_angle_gamma 90.000000
_cell_volume 2595.209175
_symmetry_space_group_name_H-M "C M C 21"
_symmetry_group_IT_number 36
_symmetry_cell_setting 'orthorhombic'
loop_
_space_group_symop_operation_xyz
x,y,z
-x,-y,1/2+z
x,-y,1/2+z
-x,y,z
1/2+x,1/2+y,z
1/2-x,1/2-y,1/2+z
1/2+x,1/2-y,1/2+z
1/2-x,1/2+y,z
loop_
_atom_site_type_symbol
_atom_site_label
_atom_site_fract_x
_atom_site_fract_y
_atom_site_fract_z
Si Si1 0.433864 0.350072 0.728130
Si Si2 0.895844 0.974538 0.482597
Si Si3 0.566266 0.268147 0.224426
Si Si4 0.235499 0.027817 0.845117
Si Si5 0.243349 0.666313 0.655738
Si Si6 0.181280 0.287784 0.654137
O O1 0.500000 0.370375 0.728599
O O2 0.398220 0.408406 0.625537
O O3 0.428006 0.297119 0.509525
O O4 0.420704 0.320851 0.006401
O O5 0.830402 0.989024 0.408211
O O6 0.922768 0.978749 0.195815
O O7 0.500000 0.249889 0.184630
O O8 0.613756 0.215423 0.192992
O O9 0.261929 0.017597 0.128475
O O10 0.237649 0.096987 0.729314
O O11 0.214732 0.674037 0.375226
O O12 0.294451 0.716733 0.674553
O O13 0.198420 0.687532 0.873803
#
# Coordination Sequence:
#
# PCOD9351437 Si02
#       6
#     8   8   8   8   8   8
#     4  10  20  32  47  66  91 128 168 208 250 288
#     4  10  20  31  45  65  90 127 170 209 246 281
#     4  10  20  34  51  71  97 128 163 202 250 307
#     4  10  20  33  49  70  99 132 165 201 243 297
#     4  10  20  33  51  76 103 132 165 204 252 301
#     4  10  20  33  52  76 102 131 163 206 253 300
#
# _framework density 18.495618
#
# number of rings (size 3 to 8) (size 9 to 14) (size 15 to 20)
#    0.000    2.000    0.000    4.000    0.000    6.000 
#    0.000    0.000    0.000    0.000    0.000    0.000 
#    0.000   13.333    0.000    0.000    0.000    0.000 
#
# Total GULP energy -133839.296577 kJ/mol
# GULP energy per Si atom -5576.637357 kJ/mol
# Density = 1.845352 g / cm^3
# Si number density = 18.495618 Si / 1000 Ang^3
#
#
#
# Elastic Constant Matrix: (Units=GPa)
#
#
# Indices 1 2 3 4 5 6 
#
# 1 45.7853 -3.1929 2.8530 0.0000 0.0000 0.0000
# 2 -3.1929 36.0216 8.2865 0.0000 0.0000 0.0000
# 3 2.8530 8.2865 45.3599 0.0000 0.0000 0.0000
# 4 0.0000 0.0000 0.0000 17.9192 0.0000 0.0000
# 5 0.0000 0.0000 0.0000 0.0000 16.2969 0.0000
# 6 0.0000 0.0000 0.0000 0.0000 0.0000 13.2712
#
#
#
# Elastic Compliance Matrix: (Units=1/GPa)
#
#
# Indices 1 2 3 4 5 6 
#
# 1 0.022121 0.002381 -0.001826 0.000000 0.000000 0.000000
# 2 0.002381 0.029235 -0.005490 0.000000 0.000000 0.000000
# 3 -0.001826 -0.005490 0.023164 0.000000 0.000000 0.000000
# 4 0.000000 0.000000 0.000000 0.055806 0.000000 0.000000
# 5 0.000000 0.000000 0.000000 0.000000 0.061361 0.000000
# 6 0.000000 0.000000 0.000000 0.000000 0.000000 0.075351
#
#
# Mechanical properties :
#
#
# Convention : Reuss Voigt Hill
#
# Bulk Modulus (GPa) = 15.46839 15.89557 15.68198
# Shear Modulus (GPa) = 16.75270 17.44549 17.09909
#
# Velocity S-wave (km/s) = 3.01286 3.07452 3.04385
# Velocity P-wave (km/s) = 4.52598 4.60614 4.56624
#
# Compressibility (1/GPa) = 0.06464798
#
# Stress axis : x y z
#
# Youngs Moduli (GPa) = 45.20615 34.20539 43.17084
#
# Poissons Ratio (x) = -0.08144 0.07884
# Poissons Ratio (y) = -0.10763 0.23703
# Poissons Ratio (z) = 0.08256 0.18780
#
# Static dielectric constant tensor:
#      x y z
#    x 1.646400 0.000000 0.000000 
#    y 0.000000 1.644700 0.000000 
#    z 0.000000 0.000000 1.726620 
# 
# From -- ./inp_files/1348.got.cif
#   From: 2010.05.17/outbox.cif.g08.bks.cpg/sg36_1_cif.got.tgz:1348.got - 2010.06.03 17:41:39.
