data_PCOD9351892
_publ_section_title
;
Structure prediction by ZEFSAII (Michael W. Deem and Ramdas Pophale) SiO2 
 PCOD9351892
Probable space group: C M C 21
;
_chemical_formula_sum "Si O2"
_cell_formula_units_Z 56
_cell_length_a 18.640624
_cell_length_b 10.080963
_cell_length_c 13.627231
_cell_angle_alpha 90.000000
_cell_angle_beta 90.000000
_cell_angle_gamma 90.000000
_cell_volume 2560.767121
_symmetry_space_group_name_H-M "C M C 21"
_symmetry_group_IT_number 36
_symmetry_cell_setting 'orthorhombic'
loop_
_space_group_symop_operation_xyz
x,y,z
-x,-y,1/2+z
x,-y,1/2+z
-x,y,z
1/2+x,1/2+y,z
1/2-x,1/2-y,1/2+z
1/2+x,1/2-y,1/2+z
1/2-x,1/2+y,z
loop_
_atom_site_type_symbol
_atom_site_label
_atom_site_fract_x
_atom_site_fract_y
_atom_site_fract_z
Si Si1 0.229781 0.098802 0.514980
Si Si2 0.225202 0.843758 0.391867
Si Si3 0.577260 0.365497 0.295162
Si Si4 0.310407 0.104802 0.710189
Si Si5 0.920406 0.554683 0.338414
Si Si6 0.082740 0.793889 0.073407
Si Si7 0.582789 0.016614 0.569042
O O1 0.249974 0.035569 0.960033
O O2 0.273656 0.216537 0.461956
O O3 0.248376 0.077853 0.630269
O O4 0.146166 0.142390 0.509749
O O5 0.150414 0.901194 0.349083
O O6 0.274014 0.809575 0.296279
O O7 0.500000 0.425637 0.325641
O O8 0.582493 0.369502 0.177588
O O9 0.573987 0.209608 0.319470
O O10 0.353387 0.998254 0.776490
O O11 0.373774 0.126475 0.630503
O O12 0.909783 0.530846 0.453041
O O13 0.000000 0.496614 0.313350
O O14 0.000000 0.796033 0.035588
O O15 0.101867 0.637980 0.091130
O O16 0.500000 0.031338 0.593225
#
# Coordination Sequence:
#
# PCOD9351892 Si02
#       7
#     8   8   8   8   8   8   8
#     4  12  27  43  65 100 133 174 224 277 334 396
#     4  12  27  43  65 100 133 174 224 277 334 396
#     4  10  20  40  65  89 125 176 220 259 325 401
#     4  12  21  38  61  92 134 170 212 272 333 386
#     4  10  20  36  64  98 130 169 219 273 333 401
#     4  10  20  40  65  89 125 176 220 259 325 401
#     4  10  20  36  64  98 130 169 219 273 333 401
#
# _framework density 21.868445999999999
#
# number of rings (size 3 to 8) (size 9 to 14) (size 15 to 20)
#    0.000    1.143    2.857    4.714    0.000    1.714 
#    0.000    1.429    0.000    0.000    0.000    0.000 
#    0.000    0.000    0.000    0.000    0.000    0.000 
#
# Total GULP energy -155912.687581 kJ/mol
# GULP energy per Si atom -5568.310271 kJ/mol
# Density = 2.181867 g / cm^3
# Si number density = 21.868446 Si / 1000 Ang^3
#
#
#
# Elastic Constant Matrix: (Units=GPa)
#
#
# Indices 1 2 3 4 5 6 
#
# 1 111.1556 9.0790 24.0535 0.0000 0.0000 0.0000
# 2 9.0790 38.5865 24.0667 0.0000 0.0000 0.0000
# 3 24.0535 24.0667 140.2631 0.0000 0.0000 0.0000
# 4 0.0000 0.0000 0.0000 17.8692 0.0000 0.0000
# 5 0.0000 0.0000 0.0000 0.0000 20.5056 0.0000
# 6 0.0000 0.0000 0.0000 0.0000 0.0000 28.0630
#
#
#
# Elastic Compliance Matrix: (Units=1/GPa)
#
#
# Indices 1 2 3 4 5 6 
#
# 1 0.009406 -0.001352 -0.001381 0.000000 0.000000 0.000000
# 2 -0.001352 0.029216 -0.004781 0.000000 0.000000 0.000000
# 3 -0.001381 -0.004781 0.008187 0.000000 0.000000 0.000000
# 4 0.000000 0.000000 0.000000 0.055962 0.000000 0.000000
# 5 0.000000 0.000000 0.000000 0.000000 0.048767 0.000000
# 6 0.000000 0.000000 0.000000 0.000000 0.000000 0.035634
#
#
# Mechanical properties :
#
#
# Convention : Reuss Voigt Hill
#
# Bulk Modulus (GPa) = 31.46589 44.93374 38.19982
# Shear Modulus (GPa) = 23.49704 28.80797 26.15250
#
# Velocity S-wave (km/s) = 3.28147 3.63344 3.46193
# Velocity P-wave (km/s) = 5.36445 6.18016 5.78670
#
# Compressibility (1/GPa) = 0.03178044
#
# Stress axis : x y z
#
# Youngs Moduli (GPa) = 106.31910 34.22797 122.15010
#
# Poissons Ratio (x) = 0.04627 0.16869
# Poissons Ratio (y) = 0.14371 0.58402
# Poissons Ratio (z) = 0.14683 0.16365
#
# Static dielectric constant tensor:
#      x y z
#    x 1.971720 0.000000 0.000000 
#    y 0.000000 1.794330 0.000000 
#    z 0.000000 0.000000 1.819260 
# 
# From -- ./inp_files/12673.got.cif
#   From: 2010.05.17/outbox.cif.g08.bks.cpg/sg36_7_cif.got.tgz:12673.got - 2010.06.03 17:41:39.
