data_PCOD9351400
_publ_section_title
;
Structure prediction by ZEFSAII (Michael W. Deem and Ramdas Pophale) SiO2 
 PCOD9351400
Probable space group: C M C 21
;
_chemical_formula_sum "Si O2"
_cell_formula_units_Z 56
_cell_length_a 14.468262
_cell_length_b 27.339593
_cell_length_c 5.578634
_cell_angle_alpha 90.000000
_cell_angle_beta 90.000000
_cell_angle_gamma 90.000000
_cell_volume 2206.664351
_symmetry_space_group_name_H-M "C M C 21"
_symmetry_group_IT_number 36
_symmetry_cell_setting 'orthorhombic'
loop_
_space_group_symop_operation_xyz
x,y,z
-x,-y,1/2+z
x,-y,1/2+z
-x,y,z
1/2+x,1/2+y,z
1/2-x,1/2-y,1/2+z
1/2+x,1/2-y,1/2+z
1/2-x,1/2+y,z
loop_
_atom_site_type_symbol
_atom_site_label
_atom_site_fract_x
_atom_site_fract_y
_atom_site_fract_z
Si Si1 0.214700 0.376588 0.072280
Si Si2 0.000000 0.029663 0.446566
Si Si3 0.500000 0.220426 0.234814
Si Si4 0.397366 0.382228 0.343417
Si Si5 0.686792 0.439743 0.734353
Si Si6 0.152060 0.482984 0.224444
Si Si7 0.345861 0.794788 0.406170
Si Si8 0.634475 0.714477 0.060964
O O1 0.317037 0.364744 0.170637
O O2 0.172017 0.425440 0.194372
O O3 0.157778 0.330640 0.172930
O O4 0.240941 0.396237 0.807482
O O5 0.899978 0.056080 0.414626
O O6 0.000000 0.003017 0.702000
O O7 0.581619 0.188088 0.101492
O O8 0.419850 0.255407 0.359224
O O9 0.500000 0.386912 0.247745
O O10 0.359914 0.429337 0.480884
O O11 0.399445 0.340752 0.550223
O O12 0.750660 0.487213 0.731633
O O13 0.107384 0.497131 0.478240
O O14 0.244128 0.786444 0.510809
O O15 0.383365 0.743017 0.306857
#
# Coordination Sequence:
#
# PCOD9351400 Si02
#       8
#     8   4   4   8   8   8   8   8
#     4  10  24  40  60  93 126 179 237 296 354 434
#     4  12  26  37  59  89 136 198 248 302 361 445
#     4  12  24  45  73 101 140 190 232 310 369 439
#     4  11  23  37  55  91 133 182 241 285 348 444
#     4  11  23  35  59  88 136 183 236 300 362 439
#     4  10  19  38  59  88 130 176 235 293 360 430
#     4  11  25  45  73  99 141 182 246 301 367 446
#     4  11  24  44  68 101 140 187 242 302 373 442
#
# _framework density 25.377670999999999
#
# number of rings (size 3 to 8) (size 9 to 14) (size 15 to 20)
#    0.000    1.143    4.286    2.143    5.000    0.000 
#    0.000    0.000    0.000    0.000    0.000    4.000 
#    0.000    0.000    0.000    0.000    0.000    0.000 
#
# Total GULP energy -156021.577545 kJ/mol
# GULP energy per Si atom -5572.199198 kJ/mol
# Density = 2.531991 g / cm^3
# Si number density = 25.377671 Si / 1000 Ang^3
#
#
#
# Elastic Constant Matrix: (Units=GPa)
#
#
# Indices 1 2 3 4 5 6 
#
# 1 137.2064 14.3393 13.3337 0.0000 0.0000 0.0000
# 2 14.3393 61.3516 -0.7402 0.0000 0.0000 0.0000
# 3 13.3337 -0.7402 91.0958 0.0000 0.0000 0.0000
# 4 0.0000 0.0000 0.0000 35.0417 0.0000 0.0000
# 5 0.0000 0.0000 0.0000 0.0000 6.6514 0.0000
# 6 0.0000 0.0000 0.0000 0.0000 0.0000 10.0653
#
#
#
# Elastic Compliance Matrix: (Units=1/GPa)
#
#
# Indices 1 2 3 4 5 6 
#
# 1 0.007584 -0.001786 -0.001125 0.000000 0.000000 0.000000
# 2 -0.001786 0.016722 0.000397 0.000000 0.000000 0.000000
# 3 -0.001125 0.000397 0.011145 0.000000 0.000000 0.000000
# 4 0.000000 0.000000 0.000000 0.028537 0.000000 0.000000
# 5 0.000000 0.000000 0.000000 0.000000 0.150345 0.000000
# 6 0.000000 0.000000 0.000000 0.000000 0.000000 0.099351
#
#
# Mechanical properties :
#
#
# Convention : Reuss Voigt Hill
#
# Bulk Modulus (GPa) = 32.86843 38.16882 35.51862
# Shear Modulus (GPa) = 15.20435 27.86641 21.53538
#
# Velocity S-wave (km/s) = 2.45035 3.31731 2.91623
# Velocity P-wave (km/s) = 4.58099 5.45396 5.03642
#
# Compressibility (1/GPa) = 0.03042433
#
# Stress axis : x y z
#
# Youngs Moduli (GPa) = 131.85215 59.80228 89.72398
#
# Poissons Ratio (x) = 0.10682 0.10091
# Poissons Ratio (y) = 0.23551 -0.03565
# Poissons Ratio (z) = 0.14828 -0.02376
#
# Static dielectric constant tensor:
#      x y z
#    x 1.949320 0.000000 0.000000 
#    y 0.000000 2.022980 0.000000 
#    z 0.000000 0.000000 2.147620 
# 
# From -- ./inp_files/956.got.cif
#   From: 2010.05.17/outbox.cif.g08.bks.cpg/sg36_1_cif.got.tgz:956.got - 2010.06.03 17:41:39.
