data_PCOD9351677
_publ_section_title
;
Structure prediction by ZEFSAII (Michael W. Deem and Ramdas Pophale) SiO2 
 PCOD9351677
Probable space group: C M C 21
;
_chemical_formula_sum "Si O2"
_cell_formula_units_Z 48
_cell_length_a 16.715521
_cell_length_b 16.719149
_cell_length_c 7.689426
_cell_angle_alpha 90.000000
_cell_angle_beta 90.000000
_cell_angle_gamma 90.000000
_cell_volume 2148.958396
_symmetry_space_group_name_H-M "C M C 21"
_symmetry_group_IT_number 36
_symmetry_cell_setting 'orthorhombic'
loop_
_space_group_symop_operation_xyz
x,y,z
-x,-y,1/2+z
x,-y,1/2+z
-x,y,z
1/2+x,1/2+y,z
1/2-x,1/2-y,1/2+z
1/2+x,1/2-y,1/2+z
1/2-x,1/2+y,z
loop_
_atom_site_type_symbol
_atom_site_label
_atom_site_fract_x
_atom_site_fract_y
_atom_site_fract_z
Si Si1 0.679724 0.928278 0.954370
Si Si2 0.338491 0.771044 0.471329
Si Si3 0.910430 0.968449 0.144143
Si Si4 0.278497 0.351058 0.247288
Si Si5 0.089938 0.421995 0.610188
Si Si6 0.147942 0.110163 0.299529
O O1 0.613943 0.905495 0.810746
O O2 0.762084 0.918257 0.845521
O O3 0.702725 0.877369 0.126081
O O4 0.651738 0.014210 0.026954
O O5 0.323064 0.719218 0.643104
O O6 0.256939 0.817464 0.423645
O O7 0.402435 0.839180 0.506371
O O8 0.355328 0.705490 0.321235
O O9 0.840446 0.923721 0.250967
O O10 0.000000 0.957878 0.211434
O O11 0.886407 0.061743 0.138150
O O12 0.903982 0.926595 0.957670
O O13 0.000000 0.454213 0.600325
#
# Coordination Sequence:
#
# PCOD9351677 Si02
#       6
#     8   8   8   8   8   8
#     4  10  21  39  59  84 114 156 202 234 282 357
#     4  10  21  38  59  86 117 151 194 240 292 347
#     4  10  20  35  56  82 112 143 183 232 281 337
#     4  10  22  38  61  85 114 156 198 239 285 350
#     4  12  23  37  60  87 119 152 191 248 302 350
#     4  10  21  37  59  82 110 150 190 231 278 341
#
# _framework density 22.336402
#
# number of rings (size 3 to 8) (size 9 to 14) (size 15 to 20)
#    0.000    2.000    0.000    7.000    0.000    4.667 
#    0.000    0.833    0.000    1.000    0.000    0.000 
#    0.000    0.000    0.000    0.000    0.000    0.000 
#
# Total GULP energy -133923.922973 kJ/mol
# GULP energy per Si atom -5580.163457 kJ/mol
# Density = 2.228556 g / cm^3
# Si number density = 22.336402 Si / 1000 Ang^3
#
#
#
# Elastic Constant Matrix: (Units=GPa)
#
#
# Indices 1 2 3 4 5 6 
#
# 1 65.5236 29.5781 11.0109 0.0000 0.0000 0.0000
# 2 29.5781 103.1034 13.9814 0.0000 0.0000 0.0000
# 3 11.0109 13.9814 46.5813 0.0000 0.0000 0.0000
# 4 0.0000 0.0000 0.0000 37.6757 0.0000 0.0000
# 5 0.0000 0.0000 0.0000 0.0000 22.9888 0.0000
# 6 0.0000 0.0000 0.0000 0.0000 0.0000 15.6104
#
#
#
# Elastic Compliance Matrix: (Units=1/GPa)
#
#
# Indices 1 2 3 4 5 6 
#
# 1 0.017876 -0.004748 -0.002800 0.000000 0.000000 0.000000
# 2 -0.004748 0.011372 -0.002291 0.000000 0.000000 0.000000
# 3 -0.002800 -0.002291 0.022817 0.000000 0.000000 0.000000
# 4 0.000000 0.000000 0.000000 0.026542 0.000000 0.000000
# 5 0.000000 0.000000 0.000000 0.000000 0.043499 0.000000
# 6 0.000000 0.000000 0.000000 0.000000 0.000000 0.064060
#
#
# Mechanical properties :
#
#
# Convention : Reuss Voigt Hill
#
# Bulk Modulus (GPa) = 30.87756 36.03878 33.45817
# Shear Modulus (GPa) = 23.07968 25.96417 24.52192
#
# Velocity S-wave (km/s) = 3.21795 3.41312 3.31697
# Velocity P-wave (km/s) = 5.25935 5.63046 5.44807
#
# Compressibility (1/GPa) = 0.03238598
#
# Stress axis : x y z
#
# Youngs Moduli (GPa) = 55.94174 87.93631 43.82626
#
# Poissons Ratio (x) = 0.41756 0.12272
# Poissons Ratio (y) = 0.26563 0.10040
# Poissons Ratio (z) = 0.15665 0.20145
#
# Static dielectric constant tensor:
#      x y z
#    x 1.807510 0.000000 0.000000 
#    y 0.000000 1.842230 0.000000 
#    z 0.000000 0.000000 1.922160 
# 
# From -- ./inp_files/4632.got.cif
#   From: 2010.05.17/outbox.cif.g08.bks.cpg/sg36_3_cif.got.tgz:4632.got - 2010.06.03 17:41:39.
