data_PCOD9351959
_publ_section_title
;
Structure prediction by ZEFSAII (Michael W. Deem and Ramdas Pophale) SiO2 
 PCOD9351959
Probable space group: C M C 21
;
_chemical_formula_sum "Si O2"
_cell_formula_units_Z 64
_cell_length_a 8.255126
_cell_length_b 29.787154
_cell_length_c 12.579615
_cell_angle_alpha 90.000000
_cell_angle_beta 90.000000
_cell_angle_gamma 90.000000
_cell_volume 3093.285935
_symmetry_space_group_name_H-M "C M C 21"
_symmetry_group_IT_number 36
_symmetry_cell_setting 'orthorhombic'
loop_
_space_group_symop_operation_xyz
x,y,z
-x,-y,1/2+z
x,-y,1/2+z
-x,y,z
1/2+x,1/2+y,z
1/2-x,1/2-y,1/2+z
1/2+x,1/2-y,1/2+z
1/2-x,1/2+y,z
loop_
_atom_site_type_symbol
_atom_site_label
_atom_site_fract_x
_atom_site_fract_y
_atom_site_fract_z
Si Si1 0.308617 0.341148 0.902160
Si Si2 0.805516 0.116013 0.625073
Si Si3 0.314461 0.570442 0.069533
Si Si4 0.807190 0.317634 0.293261
Si Si5 0.807726 0.330744 0.531603
Si Si6 0.196880 0.027117 0.504026
Si Si7 0.692159 0.223918 0.237733
Si Si8 0.815122 0.572786 0.292414
O O1 0.500000 0.351388 0.893506
O O2 0.273852 0.293952 0.846621
O O3 0.209563 0.376269 0.830885
O O4 0.264003 0.351606 0.024178
O O5 0.730653 0.136417 0.731125
O O6 0.756631 0.065508 0.590210
O O7 0.000000 0.116399 0.636298
O O8 0.500000 0.576221 0.034658
O O9 0.222014 0.616262 0.045187
O O10 0.303979 0.564235 0.195867
O O11 0.249578 0.523592 0.024645
O O12 0.744566 0.317753 0.414792
O O13 0.727536 0.276523 0.230053
O O14 0.000000 0.311154 0.294785
O O15 0.744201 0.303291 0.634161
O O16 0.000000 0.322437 0.530321
O O17 0.268223 0.043350 0.393110
O O18 0.000000 0.027732 0.499971
O O19 0.500000 0.216551 0.245912
O O20 0.000000 0.565629 0.258869
#
# Coordination Sequence:
#
# PCOD9351959 Si02
#       8
#     8   8   8   8   8   8   8   8
#     4  10  20  37  62  88 117 153 199 255 306 356
#     4   9  20  40  62  86 122 161 201 253 310 362
#     4  11  22  38  64  92 122 162 209 258 308 370
#     4  11  25  42  61  89 127 166 207 253 310 375
#     4  10  24  44  62  88 128 164 202 258 317 368
#     4   9  21  40  61  88 121 163 212 258 307 365
#     4  11  23  40  63  90 120 158 204 253 310 371
#     4  11  21  35  57  87 121 157 200 252 310 367
#
# _framework density 20.689972000000001
#
# number of rings (size 3 to 8) (size 9 to 14) (size 15 to 20)
#    0.000    1.750    1.250    3.375    1.750    6.000 
#    0.000    3.750    0.000    0.000    0.000    0.000 
#    0.000    0.000    0.000    0.000    0.000    0.000 
#
# Total GULP energy -178669.054480 kJ/mol
# GULP energy per Si atom -5583.407952 kJ/mol
# Density = 2.064288 g / cm^3
# Si number density = 20.689972 Si / 1000 Ang^3
#
#
#
# Elastic Constant Matrix: (Units=GPa)
#
#
# Indices 1 2 3 4 5 6 
#
# 1 23.3753 -0.2278 6.5710 0.0000 0.0000 0.0000
# 2 -0.2278 88.8514 31.3530 0.0000 0.0000 0.0000
# 3 6.5710 31.3530 67.0224 0.0000 0.0000 0.0000
# 4 0.0000 0.0000 0.0000 21.6031 0.0000 0.0000
# 5 0.0000 0.0000 0.0000 0.0000 21.8140 0.0000
# 6 0.0000 0.0000 0.0000 0.0000 0.0000 22.7459
#
#
#
# Elastic Compliance Matrix: (Units=1/GPa)
#
#
# Indices 1 2 3 4 5 6 
#
# 1 0.044279 0.001971 -0.005263 0.000000 0.000000 0.000000
# 2 0.001971 0.013568 -0.006540 0.000000 0.000000 0.000000
# 3 -0.005263 -0.006540 0.018496 0.000000 0.000000 0.000000
# 4 0.000000 0.000000 0.000000 0.046290 0.000000 0.000000
# 5 0.000000 0.000000 0.000000 0.000000 0.045842 0.000000
# 6 0.000000 0.000000 0.000000 0.000000 0.000000 0.043964
#
#
# Mechanical properties :
#
#
# Convention : Reuss Voigt Hill
#
# Bulk Modulus (GPa) = 17.64374 28.29351 22.96863
# Shear Modulus (GPa) = 19.92067 22.66946 21.29507
#
# Velocity S-wave (km/s) = 3.10630 3.31369 3.21167
# Velocity P-wave (km/s) = 4.62727 5.32404 4.98784
#
# Compressibility (1/GPa) = 0.05667732
#
# Stress axis : x y z
#
# Youngs Moduli (GPa) = 22.58414 73.70493 54.06621
#
# Poissons Ratio (x) = -0.14525 0.28455
# Poissons Ratio (y) = -0.04451 0.35360
# Poissons Ratio (z) = 0.11886 0.48204
#
# Static dielectric constant tensor:
#      x y z
#    x 1.715190 0.000000 0.000000 
#    y 0.000000 1.750660 0.000000 
#    z 0.000000 0.000000 1.744070 
# 
# From -- ./inp_files/7159.got.cif
#   From: 2010.05.17/outbox.cif.g08.bks.cpg/sg36_4_cif.got.tgz:7159.got - 2010.06.03 17:41:39.
