data_PCOD9351028
_publ_section_title
;
Structure prediction by ZEFSAII (Michael W. Deem and Ramdas Pophale) SiO2 
 PCOD9351028
Probable space group: C M C 21
;
_chemical_formula_sum "Si O2"
_cell_formula_units_Z 48
_cell_length_a 7.934129
_cell_length_b 15.728854
_cell_length_c 14.384536
_cell_angle_alpha 90.000000
_cell_angle_beta 90.000000
_cell_angle_gamma 90.000000
_cell_volume 1795.114670
_symmetry_space_group_name_H-M "C M C 21"
_symmetry_group_IT_number 36
_symmetry_cell_setting 'orthorhombic'
loop_
_space_group_symop_operation_xyz
x,y,z
-x,-y,1/2+z
x,-y,1/2+z
-x,y,z
1/2+x,1/2+y,z
1/2-x,1/2-y,1/2+z
1/2+x,1/2-y,1/2+z
1/2-x,1/2+y,z
loop_
_atom_site_type_symbol
_atom_site_label
_atom_site_fract_x
_atom_site_fract_y
_atom_site_fract_z
Si Si1 0.796061 0.436869 0.125000
Si Si2 0.308186 0.340502 0.298073
Si Si3 0.302134 0.040748 0.953277
Si Si4 0.199489 0.712599 0.079037
Si Si5 0.306355 0.683569 0.414883
Si Si6 0.299334 0.101802 0.237032
O O1 0.734291 0.360553 0.190783
O O2 0.736795 0.517273 0.187673
O O3 0.000000 0.434663 0.123379
O O4 0.740975 0.463906 0.020648
O O5 0.500000 0.310125 0.303558
O O6 0.287912 0.425789 0.360720
O O7 0.200743 0.269886 0.351837
O O8 0.500000 0.027659 0.931575
O O9 0.292694 0.124289 0.020168
O O10 0.276278 0.785155 0.012032
O O11 0.000000 0.732474 0.087857
O O12 0.269785 0.681482 0.177475
O O13 0.500000 0.662522 0.430181
O O14 0.230017 0.614442 0.345599
O O15 0.500000 0.101507 0.223194
#
# Coordination Sequence:
#
# PCOD9351028 Si02
#       6
#     8   8   8   8   8   8
#     4   9  18  34  55  75  99 133 168 204 248 299
#     4  11  21  32  50  76 104 132 165 207 250 293
#     4   8  15  31  53  72  93 128 170 205 244 297
#     4   7  13  28  49  69  92 125 160 194 237 290
#     4  10  19  33  52  73  99 132 168 202 242 294
#     4   9  17  32  53  75  97 124 161 204 249 291
#
# _framework density 26.739239000000001
#
# number of rings (size 3 to 8) (size 9 to 14) (size 15 to 20)
#    0.000    3.000    0.000    5.000    0.000    1.333 
#    0.000    9.167    0.000    4.000    0.000    0.000 
#    0.000    0.000    0.000    0.000    0.000    0.000 
#
# Total GULP energy -134172.913962 kJ/mol
# GULP energy per Si atom -5590.538082 kJ/mol
# Density = 2.667838 g / cm^3
# Si number density = 26.739239 Si / 1000 Ang^3
#
#
#
# Elastic Constant Matrix: (Units=GPa)
#
#
# Indices 1 2 3 4 5 6 
#
# 1 57.7136 -1.5628 7.4652 0.0000 0.0000 0.0000
# 2 -1.5628 81.7747 -2.8891 0.0000 0.0000 0.0000
# 3 7.4652 -2.8891 198.3521 0.0000 0.0000 0.0000
# 4 0.0000 0.0000 0.0000 56.9001 0.0000 0.0000
# 5 0.0000 0.0000 0.0000 0.0000 29.8077 0.0000
# 6 0.0000 0.0000 0.0000 0.0000 0.0000 19.1926
#
#
#
# Elastic Compliance Matrix: (Units=1/GPa)
#
#
# Indices 1 2 3 4 5 6 
#
# 1 0.017420 0.000310 -0.000651 0.000000 0.000000 0.000000
# 2 0.000310 0.012241 0.000167 0.000000 0.000000 0.000000
# 3 -0.000651 0.000167 0.005068 0.000000 0.000000 0.000000
# 4 0.000000 0.000000 0.000000 0.017575 0.000000 0.000000
# 5 0.000000 0.000000 0.000000 0.000000 0.033548 0.000000
# 6 0.000000 0.000000 0.000000 0.000000 0.000000 0.052103
#
#
# Mechanical properties :
#
#
# Convention : Reuss Voigt Hill
#
# Bulk Modulus (GPa) = 29.08714 38.20743 33.64729
# Shear Modulus (GPa) = 33.38589 43.50189 38.44389
#
# Velocity S-wave (km/s) = 3.53735 4.03785 3.79586
# Velocity P-wave (km/s) = 5.25219 6.00491 5.64112
#
# Compressibility (1/GPa) = 0.03437945
#
# Stress axis : x y z
#
# Youngs Moduli (GPa) = 57.40673 81.69582 197.29810
#
# Poissons Ratio (x) = -0.02532 0.12846
# Poissons Ratio (y) = -0.01779 -0.03287
# Poissons Ratio (z) = 0.03738 -0.01361
#
# Static dielectric constant tensor:
#      x y z
#    x 1.910080 0.000000 0.000000 
#    y 0.000000 2.282140 0.000000 
#    z 0.000000 0.000000 2.126260 
# 
# From -- ./inp_files/10388.got.cif
#   From: 2010.05.17/outbox.cif.g08.bks.cpg/sg36_6_cif.got.tgz:10388.got - 2010.06.03 17:41:39.
