data_PCOD9351227
_publ_section_title
;
Structure prediction by ZEFSAII (Michael W. Deem and Ramdas Pophale) SiO2 
 PCOD9351227
Probable space group: C M C 21
;
_chemical_formula_sum "Si O2"
_cell_formula_units_Z 56
_cell_length_a 32.320669
_cell_length_b 5.658073
_cell_length_c 12.702409
_cell_angle_alpha 90.000000
_cell_angle_beta 90.000000
_cell_angle_gamma 90.000000
_cell_volume 2322.923889
_symmetry_space_group_name_H-M "C M C 21"
_symmetry_group_IT_number 36
_symmetry_cell_setting 'orthorhombic'
loop_
_space_group_symop_operation_xyz
x,y,z
-x,-y,1/2+z
x,-y,1/2+z
-x,y,z
1/2+x,1/2+y,z
1/2-x,1/2-y,1/2+z
1/2+x,1/2-y,1/2+z
1/2-x,1/2+y,z
loop_
_atom_site_type_symbol
_atom_site_label
_atom_site_fract_x
_atom_site_fract_y
_atom_site_fract_z
Si Si1 0.000000 0.015544 0.203370
Si Si2 0.854427 0.853197 0.229957
Si Si3 0.000000 0.515143 0.330162
Si Si4 0.360946 0.966744 0.522099
Si Si5 0.416406 0.723431 0.146702
Si Si6 0.740650 0.387728 0.293141
Si Si7 0.271156 0.127597 0.557744
Si Si8 0.411498 0.017122 0.351568
O O1 0.000000 0.751325 0.253197
O O2 0.042741 0.062487 0.139857
O O3 0.000000 0.240195 0.286112
O O4 0.855655 0.694904 0.124005
O O5 0.807339 0.887339 0.262298
O O6 0.881921 0.734753 0.321080
O O7 0.877722 0.085484 0.194804
O O8 0.957717 0.544729 0.395847
O O9 0.397454 0.154645 0.544797
O O10 0.316814 0.089340 0.511895
O O11 0.380741 0.848338 0.418718
O O12 0.423932 0.921220 0.235218
O O13 0.750418 0.636880 0.346803
O O14 0.769261 0.380111 0.187358
O O15 0.254976 0.390308 0.534347
#
# Coordination Sequence:
#
# PCOD9351227 Si02
#       8
#     4   8   4   8   8   8   8   8
#     4  10  20  41  69  94 129 176 216 266 342 399
#     4  11  21  39  66  91 127 173 224 269 330 394
#     4  10  20  45  65  90 139 176 208 270 344 387
#     4  11  23  39  65  98 130 173 229 280 327 403
#     4  10  22  40  66  94 127 175 219 279 330 406
#     4  10  19  34  61  88 121 171 212 262 332 385
#     4  10  19  37  60  87 128 175 211 269 339 381
#     4  10  24  41  64  96 132 175 221 275 339 397
#
# _framework density 24.107547
#
# number of rings (size 3 to 8) (size 9 to 14) (size 15 to 20)
#    0.000    1.714    4.286    1.714    2.000    1.714 
#    0.000    2.857    0.000    0.000    0.000    0.000 
#    0.000    0.000    0.000    0.000    0.000    0.000 
#
# Total GULP energy -156225.108065 kJ/mol
# GULP energy per Si atom -5579.468145 kJ/mol
# Density = 2.405268 g / cm^3
# Si number density = 24.107547 Si / 1000 Ang^3
#
#
#
# Elastic Constant Matrix: (Units=GPa)
#
#
# Indices 1 2 3 4 5 6 
#
# 1 131.0870 22.8601 20.7789 0.0000 0.0000 0.0000
# 2 22.8601 129.1532 15.5678 0.0000 0.0000 0.0000
# 3 20.7789 15.5678 47.1488 0.0000 0.0000 0.0000
# 4 0.0000 0.0000 0.0000 21.7685 0.0000 0.0000
# 5 0.0000 0.0000 0.0000 0.0000 29.6313 0.0000
# 6 0.0000 0.0000 0.0000 0.0000 0.0000 34.7411
#
#
#
# Elastic Compliance Matrix: (Units=1/GPa)
#
#
# Indices 1 2 3 4 5 6 
#
# 1 0.008343 -0.001076 -0.003321 0.000000 0.000000 0.000000
# 2 -0.001076 0.008203 -0.002234 0.000000 0.000000 0.000000
# 3 -0.003321 -0.002234 0.023411 0.000000 0.000000 0.000000
# 4 0.000000 0.000000 0.000000 0.045938 0.000000 0.000000
# 5 0.000000 0.000000 0.000000 0.000000 0.033748 0.000000
# 6 0.000000 0.000000 0.000000 0.000000 0.000000 0.028784
#
#
# Mechanical properties :
#
#
# Convention : Reuss Voigt Hill
#
# Bulk Modulus (GPa) = 37.46337 47.31142 42.38739
# Shear Modulus (GPa) = 29.31051 33.77365 31.54208
#
# Velocity S-wave (km/s) = 3.49065 3.74700 3.62109
# Velocity P-wave (km/s) = 5.64092 6.19578 5.92485
#
# Compressibility (1/GPa) = 0.02669274
#
# Stress axis : x y z
#
# Youngs Moduli (GPa) = 119.86546 121.91358 42.71534
#
# Poissons Ratio (x) = 0.13122 0.14187
# Poissons Ratio (y) = 0.12901 0.09543
# Poissons Ratio (z) = 0.39811 0.27236
#
# Static dielectric constant tensor:
#      x y z
#    x 1.935790 0.000000 0.000000 
#    y 0.000000 1.990890 0.000000 
#    z 0.000000 0.000000 2.240310 
# 
# From -- ./inp_files/13191.got.cif
#   From: 2010.05.17/outbox.cif.g08.bks.cpg/sg36_7_cif.got.tgz:13191.got - 2010.06.03 17:41:39.
