data_PCOD9351632
_publ_section_title
;
Structure prediction by ZEFSAII (Michael W. Deem and Ramdas Pophale) SiO2 
 PCOD9351632
Probable space group: C M C 21
;
_chemical_formula_sum "Si O2"
_cell_formula_units_Z 64
_cell_length_a 7.543420
_cell_length_b 30.027638
_cell_length_c 12.689172
_cell_angle_alpha 90.000000
_cell_angle_beta 90.000000
_cell_angle_gamma 90.000000
_cell_volume 2874.238118
_symmetry_space_group_name_H-M "C M C 21"
_symmetry_group_IT_number 36
_symmetry_cell_setting 'orthorhombic'
loop_
_space_group_symop_operation_xyz
x,y,z
-x,-y,1/2+z
x,-y,1/2+z
-x,y,z
1/2+x,1/2+y,z
1/2-x,1/2-y,1/2+z
1/2+x,1/2-y,1/2+z
1/2-x,1/2+y,z
loop_
_atom_site_type_symbol
_atom_site_label
_atom_site_fract_x
_atom_site_fract_y
_atom_site_fract_z
Si Si1 0.782351 0.978497 0.479330
Si Si2 0.789227 0.344481 0.431432
Si Si3 0.703493 0.821798 0.756693
Si Si4 0.282690 0.573628 0.546204
Si Si5 0.211708 0.918862 0.284510
Si Si6 0.200208 0.095339 0.127761
Si Si7 0.716728 0.763042 0.559151
Si Si8 0.798074 0.170279 0.490535
O O1 0.720866 0.951999 0.375707
O O2 0.725527 0.951209 0.584321
O O3 0.000000 0.976697 0.480329
O O4 0.726333 0.029541 0.484464
O O5 0.750517 0.368246 0.321365
O O6 0.699514 0.375282 0.520392
O O7 0.734831 0.294219 0.458935
O O8 0.000000 0.347460 0.449905
O O9 0.500000 0.809863 0.776078
O O10 0.710058 0.872251 0.711503
O O11 0.772612 0.789586 0.663940
O O12 0.800717 0.818824 0.866849
O O13 0.500000 0.573170 0.541985
O O14 0.225901 0.570594 0.667869
O O15 0.219246 0.621310 0.504391
O O16 0.000000 0.923635 0.282968
O O17 0.000000 0.087918 0.165763
O O18 0.500000 0.761650 0.560667
O O19 0.783609 0.712976 0.548131
O O20 0.000000 0.166845 0.530455
#
# Coordination Sequence:
#
# PCOD9351632 Si02
#       8
#     8   8   8   8   8   8   8   8
#     4   8  15  28  48  75 101 127 166 212 253 295
#     4   9  16  29  49  72 101 132 164 207 256 299
#     4  10  20  35  53  75 106 138 167 207 261 307
#     4   9  18  31  49  74 102 131 164 211 261 300
#     4   9  17  30  49  73 100 129 167 210 251 302
#     4   9  16  29  52  78 100 126 167 211 245 292
#     4   8  17  33  51  71  97 132 169 204 245 299
#     4  10  20  35  53  74 101 133 172 212 254 306
#
# _framework density 22.266770000000001
#
# number of rings (size 3 to 8) (size 9 to 14) (size 15 to 20)
#    0.000    3.000    0.000    2.625    0.000    2.000 
#    0.000    9.375    0.000   10.500    0.000    0.000 
#    0.000    0.000    0.000    0.000    0.000    0.000 
#
# Total GULP energy -178443.192816 kJ/mol
# GULP energy per Si atom -5576.349776 kJ/mol
# Density = 2.221609 g / cm^3
# Si number density = 22.266770 Si / 1000 Ang^3
#
#
#
# Elastic Constant Matrix: (Units=GPa)
#
#
# Indices 1 2 3 4 5 6 
#
# 1 55.9557 1.0688 -1.0331 0.0000 0.0000 0.0000
# 2 1.0688 176.9801 42.6449 0.0000 0.0000 0.0000
# 3 -1.0331 42.6449 61.5936 0.0000 0.0000 0.0000
# 4 0.0000 0.0000 0.0000 23.2484 0.0000 0.0000
# 5 0.0000 0.0000 0.0000 0.0000 8.3340 0.0000
# 6 0.0000 0.0000 0.0000 0.0000 0.0000 0.7068
#
#
#
# Elastic Compliance Matrix: (Units=1/GPa)
#
#
# Indices 1 2 3 4 5 6 
#
# 1 0.017884 -0.000216 0.000450 0.000000 0.000000 0.000000
# 2 -0.000216 0.006784 -0.004701 0.000000 0.000000 0.000000
# 3 0.000450 -0.004701 0.019498 0.000000 0.000000 0.000000
# 4 0.000000 0.000000 0.000000 0.043014 0.000000 0.000000
# 5 0.000000 0.000000 0.000000 0.000000 0.119990 0.000000
# 6 0.000000 0.000000 0.000000 0.000000 0.000000 1.414744
#
#
# Mechanical properties :
#
#
# Convention : Reuss Voigt Hill
#
# Bulk Modulus (GPa) = 28.38422 42.21006 35.29714
# Shear Modulus (GPa) = 3.04397 23.24778 13.14588
#
# Velocity S-wave (km/s) = 1.17048 3.23469 2.43241
# Velocity P-wave (km/s) = 3.82122 5.74009 4.87598
#
# Compressibility (1/GPa) = 0.03523085
#
# Stress axis : x y z
#
# Youngs Moduli (GPa) = 55.91681 147.39766 51.28818
#
# Poissons Ratio (x) = 0.03189 -0.02307
# Poissons Ratio (y) = 0.01210 0.24110
# Poissons Ratio (z) = -0.02515 0.69289
#
# Static dielectric constant tensor:
#      x y z
#    x 1.864180 0.000000 0.000000 
#    y 0.000000 1.847020 0.000000 
#    z 0.000000 0.000000 1.807770 
# 
# From -- ./inp_files/7073.got.cif
#   From: 2010.05.17/outbox.cif.g08.bks.cpg/sg36_4_cif.got.tgz:7073.got - 2010.06.03 17:41:39.
