data_PCOD9351792
_publ_section_title
;
Structure prediction by ZEFSAII (Michael W. Deem and Ramdas Pophale) SiO2 
 PCOD9351792
Probable space group: C M C 21
;
_chemical_formula_sum "Si O2"
_cell_formula_units_Z 48
_cell_length_a 27.958231
_cell_length_b 8.855883
_cell_length_c 7.665247
_cell_angle_alpha 90.000000
_cell_angle_beta 90.000000
_cell_angle_gamma 90.000000
_cell_volume 1897.875471
_symmetry_space_group_name_H-M "C M C 21"
_symmetry_group_IT_number 36
_symmetry_cell_setting 'orthorhombic'
loop_
_space_group_symop_operation_xyz
x,y,z
-x,-y,1/2+z
x,-y,1/2+z
-x,y,z
1/2+x,1/2+y,z
1/2-x,1/2-y,1/2+z
1/2+x,1/2-y,1/2+z
1/2-x,1/2+y,z
loop_
_atom_site_type_symbol
_atom_site_label
_atom_site_fract_x
_atom_site_fract_y
_atom_site_fract_z
Si Si1 0.202713 0.008132 0.473270
Si Si2 0.209213 0.324635 0.343421
Si Si3 0.051459 0.744120 0.103427
Si Si4 0.852724 0.181580 0.756967
Si Si5 0.846712 0.496566 0.615215
Si Si6 0.946874 0.585053 0.723835
O O1 0.211157 0.146162 0.337136
O O2 0.189704 0.109004 0.640673
O O3 0.246470 0.894583 0.446877
O O4 0.155440 0.909076 0.433309
O O5 0.197963 0.396088 0.156091
O O6 0.163156 0.386712 0.451546
O O7 0.096346 0.840312 0.164719
O O8 0.050056 0.597926 0.231533
O O9 0.000000 0.821778 0.110344
O O10 0.056757 0.669974 0.909772
O O11 0.846074 0.361559 0.762434
O O12 0.896091 0.591414 0.621677
O O13 0.000000 0.629130 0.650433
#
# Coordination Sequence:
#
# PCOD9351792 Si02
#       6
#     8   8   8   8   8   8
#     4  11  23  39  57  82 112 152 198 244 302 361
#     4  11  23  37  57  83 114 150 195 246 299 361
#     4   9  18  35  59  89 124 160 199 246 298 355
#     4  10  22  39  58  82 115 153 195 243 296 355
#     4  10  20  36  57  86 117 150 192 242 296 350
#     4   9  16  30  56  88 122 157 195 239 289 344
#
# _framework density 25.291440999999999
#
# number of rings (size 3 to 8) (size 9 to 14) (size 15 to 20)
#    0.000    2.000    0.000    5.000    0.000    5.333 
#    0.000    4.167    0.000    2.000    0.000    0.000 
#    0.000    0.000    0.000    0.000    0.000    0.000 
#
# Total GULP energy -133857.703807 kJ/mol
# GULP energy per Si atom -5577.404325 kJ/mol
# Density = 2.523388 g / cm^3
# Si number density = 25.291441 Si / 1000 Ang^3
#
#
#
# Elastic Constant Matrix: (Units=GPa)
#
#
# Indices 1 2 3 4 5 6 
#
# 1 180.2726 36.9474 17.5710 0.0000 0.0000 0.0000
# 2 36.9474 108.5427 5.9808 0.0000 0.0000 0.0000
# 3 17.5710 5.9808 35.7133 0.0000 0.0000 0.0000
# 4 0.0000 0.0000 0.0000 34.1978 0.0000 0.0000
# 5 0.0000 0.0000 0.0000 0.0000 39.4739 0.0000
# 6 0.0000 0.0000 0.0000 0.0000 0.0000 38.7147
#
#
#
# Elastic Compliance Matrix: (Units=1/GPa)
#
#
# Indices 1 2 3 4 5 6 
#
# 1 0.006216 -0.001966 -0.002729 0.000000 0.000000 0.000000
# 2 -0.001966 0.009920 -0.000694 0.000000 0.000000 0.000000
# 3 -0.002729 -0.000694 0.029460 0.000000 0.000000 0.000000
# 4 0.000000 0.000000 0.000000 0.029242 0.000000 0.000000
# 5 0.000000 0.000000 0.000000 0.000000 0.025333 0.000000
# 6 0.000000 0.000000 0.000000 0.000000 0.000000 0.025830
#
#
# Mechanical properties :
#
#
# Convention : Reuss Voigt Hill
#
# Bulk Modulus (GPa) = 28.72061 49.50301 39.11181
# Shear Modulus (GPa) = 33.69617 40.07924 36.88770
#
# Velocity S-wave (km/s) = 3.65405 3.98514 3.82318
# Velocity P-wave (km/s) = 5.40216 6.38676 5.91498
#
# Compressibility (1/GPa) = 0.03481820
#
# Stress axis : x y z
#
# Youngs Moduli (GPa) = 160.87518 100.80364 33.94457
#
# Poissons Ratio (x) = 0.19813 0.09264
# Poissons Ratio (y) = 0.31620 0.02357
# Poissons Ratio (z) = 0.43905 0.06999
#
# Static dielectric constant tensor:
#      x y z
#    x 2.056530 0.000000 0.000000 
#    y 0.000000 1.935670 0.000000 
#    z 0.000000 0.000000 2.244840 
# 
# From -- ./inp_files/5959.got.cif
#   From: 2010.05.17/outbox.cif.g08.bks.cpg/sg36_3_cif.got.tgz:5959.got - 2010.06.03 17:41:39.
