data_PCOD9351262
_publ_section_title
;
Structure prediction by ZEFSAII (Michael W. Deem and Ramdas Pophale) SiO2 
 PCOD9351262
Probable space group: C M C 21
;
_chemical_formula_sum "Si O2"
_cell_formula_units_Z 64
_cell_length_a 8.847294
_cell_length_b 20.657438
_cell_length_c 19.682538
_cell_angle_alpha 90.000000
_cell_angle_beta 90.000000
_cell_angle_gamma 90.000000
_cell_volume 3597.228420
_symmetry_space_group_name_H-M "C M C 21"
_symmetry_group_IT_number 36
_symmetry_cell_setting 'orthorhombic'
loop_
_space_group_symop_operation_xyz
x,y,z
-x,-y,1/2+z
x,-y,1/2+z
-x,y,z
1/2+x,1/2+y,z
1/2-x,1/2-y,1/2+z
1/2+x,1/2-y,1/2+z
1/2-x,1/2+y,z
loop_
_atom_site_type_symbol
_atom_site_label
_atom_site_fract_x
_atom_site_fract_y
_atom_site_fract_z
Si Si1 0.181060 0.860845 0.866140
Si Si2 0.319291 0.513834 0.868622
Si Si3 0.819477 0.486310 0.222679
Si Si4 0.180323 0.438296 0.504503
Si Si5 0.820383 0.640257 0.220770
Si Si6 0.820239 0.816528 0.583173
Si Si7 0.820347 0.942527 0.086355
Si Si8 0.819365 0.193158 0.510758
O O1 0.212675 0.937056 0.880022
O O2 0.261256 0.842633 0.795873
O O3 0.000000 0.855409 0.857418
O O4 0.225384 0.820067 0.932444
O O5 0.500000 0.521910 0.869005
O O6 0.249998 0.530497 0.795617
O O7 0.244001 0.554230 0.928626
O O8 0.789065 0.563195 0.211108
O O9 0.741252 0.446845 0.162653
O O10 0.000000 0.477514 0.222314
O O11 0.247980 0.376384 0.542370
O O12 0.235647 0.501812 0.544585
O O13 0.000000 0.434922 0.504748
O O14 0.740122 0.678439 0.160274
O O15 0.000000 0.649358 0.216676
O O16 0.767084 0.751256 0.546471
O O17 0.000000 0.822118 0.582936
O O18 0.794116 0.873398 0.051677
O O19 0.000000 0.955524 0.084602
O O20 0.000000 0.206245 0.511796
#
# Coordination Sequence:
#
# PCOD9351262 Si02
#       8
#     8   8   8   8   8   8   8   8
#     4   9  18  35  59  86 116 153 192 236 289 352
#     4  10  19  35  58  87 119 154 195 242 295 352
#     4  10  20  34  55  88 122 155 193 243 297 346
#     4  12  23  37  59  87 119 153 193 245 296 347
#     4  10  20  35  57  86 118 153 193 242 292 345
#     4  12  25  40  60  86 118 158 202 244 294 354
#     4  11  21  37  61  88 117 154 195 241 292 349
#     4  10  22  41  61  86 121 156 195 241 295 349
#
# _framework density 17.791475999999999
#
# number of rings (size 3 to 8) (size 9 to 14) (size 15 to 20)
#    0.000    1.500    2.500    3.750    0.000    3.000 
#    0.000    1.250    0.000    6.000    0.000    0.000 
#    0.000    0.000    0.000    0.000    0.000    0.000 
#
# Total GULP energy -178820.457657 kJ/mol
# GULP energy per Si atom -5588.139302 kJ/mol
# Density = 1.775098 g / cm^3
# Si number density = 17.791476 Si / 1000 Ang^3
#
#
#
# Elastic Constant Matrix: (Units=GPa)
#
#
# Indices 1 2 3 4 5 6 
#
# 1 102.1526 54.1098 76.9033 0.0000 0.0000 0.0000
# 2 54.1098 58.2043 57.3984 0.0000 0.0000 0.0000
# 3 76.9033 57.3984 170.0307 0.0000 0.0000 0.0000
# 4 0.0000 0.0000 0.0000 25.4578 0.0000 0.0000
# 5 0.0000 0.0000 0.0000 0.0000 34.4758 0.0000
# 6 0.0000 0.0000 0.0000 0.0000 0.0000 26.5379
#
#
#
# Elastic Compliance Matrix: (Units=1/GPa)
#
#
# Indices 1 2 3 4 5 6 
#
# 1 0.021293 -0.015437 -0.004420 0.000000 0.000000 0.000000
# 2 -0.015437 0.036946 -0.005490 0.000000 0.000000 0.000000
# 3 -0.004420 -0.005490 0.009734 0.000000 0.000000 0.000000
# 4 0.000000 0.000000 0.000000 0.039281 0.000000 0.000000
# 5 0.000000 0.000000 0.000000 0.000000 0.029006 0.000000
# 6 0.000000 0.000000 0.000000 0.000000 0.000000 0.037682
#
#
# Mechanical properties :
#
#
# Convention : Reuss Voigt Hill
#
# Bulk Modulus (GPa) = 57.87204 78.57892 68.22548
# Shear Modulus (GPa) = 21.70186 26.75938 24.23062
#
# Velocity S-wave (km/s) = 3.49634 3.88242 3.69443
# Velocity P-wave (km/s) = 6.99269 8.02248 7.52522
#
# Compressibility (1/GPa) = 0.01727950
#
# Stress axis : x y z
#
# Youngs Moduli (GPa) = 46.96276 27.06647 102.73726
#
# Poissons Ratio (x) = 0.41783 0.45406
# Poissons Ratio (y) = 0.72497 0.56403
# Poissons Ratio (z) = 0.20756 0.14860
#
# Static dielectric constant tensor:
#      x y z
#    x 1.590570 0.000000 0.000000 
#    y 0.000000 1.581260 0.000000 
#    z 0.000000 0.000000 1.612150 
# 
# From -- ./inp_files/13898.got.cif
#   From: 2010.05.17/outbox.cif.g08.bks.cpg/sg36_7_cif.got.tgz:13898.got - 2010.06.03 17:41:39.
