data_PCOD9351251
_publ_section_title
;
Structure prediction by ZEFSAII (Michael W. Deem and Ramdas Pophale) SiO2 
 PCOD9351251
Probable space group: C M C 21
;
_chemical_formula_sum "Si O2"
_cell_formula_units_Z 64
_cell_length_a 8.074869
_cell_length_b 29.510246
_cell_length_c 12.974117
_cell_angle_alpha 90.000000
_cell_angle_beta 90.000000
_cell_angle_gamma 90.000000
_cell_volume 3091.620122
_symmetry_space_group_name_H-M "C M C 21"
_symmetry_group_IT_number 36
_symmetry_cell_setting 'orthorhombic'
loop_
_space_group_symop_operation_xyz
x,y,z
-x,-y,1/2+z
x,-y,1/2+z
-x,y,z
1/2+x,1/2+y,z
1/2-x,1/2-y,1/2+z
1/2+x,1/2-y,1/2+z
1/2-x,1/2+y,z
loop_
_atom_site_type_symbol
_atom_site_label
_atom_site_fract_x
_atom_site_fract_y
_atom_site_fract_z
Si Si1 0.695907 0.418876 0.326830
Si Si2 0.687640 0.915423 0.924342
Si Si3 0.198886 0.970363 0.121772
Si Si4 0.802273 0.273258 0.833773
Si Si5 0.690331 0.818066 0.033802
Si Si6 0.695440 0.823597 0.259478
Si Si7 0.194458 0.865331 0.727958
Si Si8 0.203318 0.067924 0.057315
O O1 0.500000 0.428695 0.328152
O O2 0.763426 0.442826 0.222192
O O3 0.721407 0.364973 0.318650
O O4 0.761506 0.433771 0.438788
O O5 0.500000 0.928755 0.898525
O O6 0.780532 0.902794 0.818791
O O7 0.758376 0.948921 0.010425
O O8 0.683921 0.867390 0.983581
O O9 0.000000 0.969673 0.128672
O O10 0.254535 0.022393 0.116893
O O11 0.720890 0.226708 0.800512
O O12 0.773173 0.317648 0.762790
O O13 0.000000 0.266791 0.839292
O O14 0.734994 0.286211 0.947042
O O15 0.500000 0.802611 0.050493
O O16 0.770158 0.822172 0.144369
O O17 0.500000 0.834515 0.255246
O O18 0.257210 0.888169 0.622548
O O19 0.000000 0.856503 0.717756
O O20 0.000000 0.068818 0.056292
#
# Coordination Sequence:
#
# PCOD9351251 Si02
#       8
#     8   8   8   8   8   8   8   8
#     4  10  21  38  59  87 120 153 195 246 300 351
#     4  10  19  35  57  82 113 150 188 242 298 344
#     4  10  20  35  60  88 112 150 201 246 287 350
#     4  10  21  38  58  84 116 154 197 245 300 352
#     4   8  17  34  54  74 105 145 184 231 290 344
#     4  11  21  37  59  84 114 153 197 242 295 355
#     4  10  20  37  60  86 116 155 200 245 293 351
#     4   9  21  38  59  87 122 160 196 243 301 353
#
# _framework density 20.701121000000001
#
# number of rings (size 3 to 8) (size 9 to 14) (size 15 to 20)
#    0.000    2.250    1.250    2.250    1.750    1.000 
#    0.000   10.000    0.000    0.000    0.000    0.000 
#    0.000    0.000    0.000    0.000    0.000    0.000 
#
# Total GULP energy -178415.622889 kJ/mol
# GULP energy per Si atom -5575.488215 kJ/mol
# Density = 2.065400 g / cm^3
# Si number density = 20.701121 Si / 1000 Ang^3
#
#
#
# Elastic Constant Matrix: (Units=GPa)
#
#
# Indices 1 2 3 4 5 6 
#
# 1 20.2905 -8.6563 -2.8365 0.0000 0.0000 0.0000
# 2 -8.6563 73.1434 33.2116 0.0000 0.0000 0.0000
# 3 -2.8365 33.2116 76.2984 0.0000 0.0000 0.0000
# 4 0.0000 0.0000 0.0000 14.5993 0.0000 0.0000
# 5 0.0000 0.0000 0.0000 0.0000 12.2471 0.0000
# 6 0.0000 0.0000 0.0000 0.0000 0.0000 8.9560
#
#
#
# Elastic Compliance Matrix: (Units=1/GPa)
#
#
# Indices 1 2 3 4 5 6 
#
# 1 0.051957 0.006571 -0.000928 0.000000 0.000000 0.000000
# 2 0.006571 0.017870 -0.007534 0.000000 0.000000 0.000000
# 3 -0.000928 -0.007534 0.016352 0.000000 0.000000 0.000000
# 4 0.000000 0.000000 0.000000 0.068497 0.000000 0.000000
# 5 0.000000 0.000000 0.000000 0.000000 0.081652 0.000000
# 6 0.000000 0.000000 0.000000 0.000000 0.000000 0.111657
#
#
# Mechanical properties :
#
#
# Convention : Reuss Voigt Hill
#
# Bulk Modulus (GPa) = 12.13672 23.68554 17.91113
# Shear Modulus (GPa) = 13.18446 17.02805 15.10625
#
# Velocity S-wave (km/s) = 2.52642 2.87115 2.70428
# Velocity P-wave (km/s) = 3.79288 4.73897 4.29207
#
# Compressibility (1/GPa) = 0.08239461
#
# Stress axis : x y z
#
# Youngs Moduli (GPa) = 19.24656 55.95818 61.15619
#
# Poissons Ratio (x) = -0.36768 0.05678
# Poissons Ratio (y) = -0.12646 0.46078
# Poissons Ratio (z) = 0.01787 0.42162
#
# Static dielectric constant tensor:
#      x y z
#    x 1.749840 0.000000 0.000000 
#    y 0.000000 1.733980 0.000000 
#    z 0.000000 0.000000 1.784440 
# 
# From -- ./inp_files/7261.got.cif
#   From: 2010.05.17/outbox.cif.g08.bks.cpg/sg36_4_cif.got.tgz:7261.got - 2010.06.03 17:41:39.
