data_PCOD9351946
_publ_section_title
;
Structure prediction by ZEFSAII (Michael W. Deem and Ramdas Pophale) SiO2 
 PCOD9351946
Probable space group: C M C 21
;
_chemical_formula_sum "Si O2"
_cell_formula_units_Z 64
_cell_length_a 8.602615
_cell_length_b 29.612485
_cell_length_c 12.549510
_cell_angle_alpha 90.000000
_cell_angle_beta 90.000000
_cell_angle_gamma 90.000000
_cell_volume 3196.922511
_symmetry_space_group_name_H-M "C M C 21"
_symmetry_group_IT_number 36
_symmetry_cell_setting 'orthorhombic'
loop_
_space_group_symop_operation_xyz
x,y,z
-x,-y,1/2+z
x,-y,1/2+z
-x,y,z
1/2+x,1/2+y,z
1/2-x,1/2-y,1/2+z
1/2+x,1/2-y,1/2+z
1/2-x,1/2+y,z
loop_
_atom_site_type_symbol
_atom_site_label
_atom_site_fract_x
_atom_site_fract_y
_atom_site_fract_z
Si Si1 0.185044 0.069351 0.588710
Si Si2 0.184667 0.523019 0.158110
Si Si3 0.312676 0.084551 0.357472
Si Si4 0.175279 0.180111 0.090861
Si Si5 0.681045 0.813938 0.810790
Si Si6 0.817579 0.721045 0.883347
Si Si7 0.178421 0.916738 0.479837
Si Si8 0.688380 0.363978 0.268977
O O1 0.259248 0.067217 0.472055
O O2 0.232186 0.113491 0.657006
O O3 0.000000 0.070335 0.577797
O O4 0.233962 0.025293 0.654822
O O5 0.239949 0.554069 0.257259
O O6 0.223022 0.547505 0.045991
O O7 0.000000 0.517224 0.167543
O O8 0.500000 0.084934 0.353051
O O9 0.260970 0.136642 0.346106
O O10 0.297633 0.186682 0.183841
O O11 0.177657 0.128507 0.051387
O O12 0.000000 0.190834 0.127582
O O13 0.220830 0.208914 0.988523
O O14 0.500000 0.808852 0.839978
O O15 0.778184 0.772029 0.853345
O O16 0.762701 0.684363 0.795229
O O17 0.000000 0.714863 0.902181
O O18 0.232637 0.898916 0.364394
O O19 0.000000 0.933084 0.469744
O O20 0.500000 0.359489 0.274814
#
# Coordination Sequence:
#
# PCOD9351946 Si02
#       8
#     8   8   8   8   8   8   8   8
#     4  11  25  42  64  92 126 168 210 257 315 377
#     4  11  23  40  62  91 124 159 206 256 310 372
#     4  10  24  44  64  92 127 164 206 257 314 373
#     4  10  20  37  60  88 120 157 204 259 314 370
#     4  11  22  40  64  90 125 165 210 263 316 372
#     4  11  23  38  61  93 126 167 214 257 315 380
#     4   9  18  35  61  88 116 152 199 256 309 364
#     4   9  21  42  62  88 124 162 209 263 315 366
#
# _framework density 20.019255000000001
#
# number of rings (size 3 to 8) (size 9 to 14) (size 15 to 20)
#    0.000    1.750    1.250    3.375    1.750    6.000 
#    0.000    2.500    0.000    0.000    0.000    0.000 
#    0.000    0.000    0.000    0.000    0.000    0.000 
#
# Total GULP energy -178734.446035 kJ/mol
# GULP energy per Si atom -5585.451439 kJ/mol
# Density = 1.997369 g / cm^3
# Si number density = 20.019255 Si / 1000 Ang^3
#
#
#
# Elastic Constant Matrix: (Units=GPa)
#
#
# Indices 1 2 3 4 5 6 
#
# 1 16.5696 11.0194 -0.8559 0.0000 0.0000 0.0000
# 2 11.0194 100.6407 32.2764 0.0000 0.0000 0.0000
# 3 -0.8559 32.2764 53.3164 0.0000 0.0000 0.0000
# 4 0.0000 0.0000 0.0000 16.2679 0.0000 0.0000
# 5 0.0000 0.0000 0.0000 0.0000 26.3133 0.0000
# 6 0.0000 0.0000 0.0000 0.0000 0.0000 13.7049
#
#
#
# Elastic Compliance Matrix: (Units=1/GPa)
#
#
# Indices 1 2 3 4 5 6 
#
# 1 0.067049 -0.009538 0.006851 0.000000 0.000000 0.000000
# 2 -0.009538 0.013687 -0.008439 0.000000 0.000000 0.000000
# 3 0.006851 -0.008439 0.023975 0.000000 0.000000 0.000000
# 4 0.000000 0.000000 0.000000 0.061471 0.000000 0.000000
# 5 0.000000 0.000000 0.000000 0.000000 0.038004 0.000000
# 6 0.000000 0.000000 0.000000 0.000000 0.000000 0.072967
#
#
# Mechanical properties :
#
#
# Convention : Reuss Voigt Hill
#
# Bulk Modulus (GPa) = 12.12753 28.37849 20.25301
# Shear Modulus (GPa) = 15.29563 19.79634 17.54598
#
# Velocity S-wave (km/s) = 2.76714 3.14803 2.96371
# Velocity P-wave (km/s) = 4.03491 5.23640 4.67442
#
# Compressibility (1/GPa) = 0.08245702
#
# Stress axis : x y z
#
# Youngs Moduli (GPa) = 14.91455 73.06105 41.71069
#
# Poissons Ratio (x) = 0.69688 -0.28575
# Poissons Ratio (y) = 0.14226 0.35200
# Poissons Ratio (z) = -0.10217 0.61656
#
# Static dielectric constant tensor:
#      x y z
#    x 1.684120 0.000000 0.000000 
#    y 0.000000 1.708220 0.000000 
#    z 0.000000 0.000000 1.704210 
# 
# From -- ./inp_files/7186.got.cif
#   From: 2010.05.17/outbox.cif.g08.bks.cpg/sg36_4_cif.got.tgz:7186.got - 2010.06.03 17:41:39.
