data_PCOD9351220
_publ_section_title
;
Structure prediction by ZEFSAII (Michael W. Deem and Ramdas Pophale) SiO2 
 PCOD9351220
Probable space group: C M C 21
;
_chemical_formula_sum "Si O2"
_cell_formula_units_Z 52
_cell_length_a 7.889585
_cell_length_b 27.341314
_cell_length_c 12.071541
_cell_angle_alpha 90.000000
_cell_angle_beta 90.000000
_cell_angle_gamma 90.000000
_cell_volume 2603.971675
_symmetry_space_group_name_H-M "C M C 21"
_symmetry_group_IT_number 36
_symmetry_cell_setting 'orthorhombic'
loop_
_space_group_symop_operation_xyz
x,y,z
-x,-y,1/2+z
x,-y,1/2+z
-x,y,z
1/2+x,1/2+y,z
1/2-x,1/2-y,1/2+z
1/2+x,1/2-y,1/2+z
1/2-x,1/2+y,z
loop_
_atom_site_type_symbol
_atom_site_label
_atom_site_fract_x
_atom_site_fract_y
_atom_site_fract_z
Si Si1 0.000000 0.521692 0.095610
Si Si2 0.807385 0.075561 0.194688
Si Si3 0.696010 0.234630 0.142070
Si Si4 0.815304 0.151331 0.987218
Si Si5 0.000000 0.598540 0.892946
Si Si6 0.200213 0.165297 0.333968
Si Si7 0.500000 0.914601 0.142738
Si Si8 0.200883 0.840482 0.093625
O O1 0.832074 0.535775 0.165038
O O2 0.000000 0.464373 0.073353
O O3 0.000000 0.556886 0.988040
O O4 0.751430 0.110547 0.295546
O O5 0.000000 0.057442 0.212606
O O6 0.813107 0.112923 0.090064
O O7 0.500000 0.236378 0.107873
O O8 0.711272 0.204523 0.255592
O O9 0.787879 0.203462 0.046477
O O10 0.751111 0.290428 0.155731
O O11 0.663400 0.133261 0.910600
O O12 0.000000 0.149635 0.933002
O O13 0.000000 0.574221 0.773524
O O14 0.222952 0.171825 0.463426
O O15 0.000000 0.169375 0.308361
O O16 0.331321 0.883177 0.120383
O O17 0.000000 0.851670 0.111945
#
# Coordination Sequence:
#
# PCOD9351220 Si02
#       8
#     4   8   8   8   4   8   4   8
#     4  10  22  40  64  88 116 154 202 258 298 366
#     4   8  16  32  59  91 114 142 196 251 297 346
#     4  10  19  34  59  91 122 160 208 250 286 348
#     4   9  17  33  60  90 121 154 193 247 296 349
#     4  10  22  42  60  92 124 148 204 257 305 358
#     4   9  19  36  60  87 120 163 198 246 301 355
#     4  12  28  42  62  86 120 166 196 253 315 356
#     4  10  25  43  55  83 128 162 202 244 298 363
#
# _framework density 19.969494999999998
#
# number of rings (size 3 to 8) (size 9 to 14) (size 15 to 20)
#    0.000    2.462    0.769    1.385    6.462    3.692 
#    0.000    1.538    0.000    0.000    0.000    0.000 
#    0.000    0.000    0.000    0.000    0.000    0.000 
#
# Total GULP energy -145097.461333 kJ/mol
# GULP energy per Si atom -5580.671590 kJ/mol
# Density = 1.992404 g / cm^3
# Si number density = 19.969495 Si / 1000 Ang^3
#
#
#
# Elastic Constant Matrix: (Units=GPa)
#
#
# Indices 1 2 3 4 5 6 
#
# 1 105.5321 63.0139 16.1307 0.0000 0.0000 0.0000
# 2 63.0139 117.0496 9.5778 0.0000 0.0000 0.0000
# 3 16.1307 9.5778 41.8604 0.0000 0.0000 0.0000
# 4 0.0000 0.0000 0.0000 14.8493 0.0000 0.0000
# 5 0.0000 0.0000 0.0000 0.0000 3.4653 0.0000
# 6 0.0000 0.0000 0.0000 0.0000 0.0000 55.1290
#
#
#
# Elastic Compliance Matrix: (Units=1/GPa)
#
#
# Indices 1 2 3 4 5 6 
#
# 1 0.014561 -0.007521 -0.003890 0.000000 0.000000 0.000000
# 2 -0.007521 0.012591 0.000017 0.000000 0.000000 0.000000
# 3 -0.003890 0.000017 0.025384 0.000000 0.000000 0.000000
# 4 0.000000 0.000000 0.000000 0.067343 0.000000 0.000000
# 5 0.000000 0.000000 0.000000 0.000000 0.288577 0.000000
# 6 0.000000 0.000000 0.000000 0.000000 0.000000 0.018139
#
#
# Mechanical properties :
#
#
# Convention : Reuss Voigt Hill
#
# Bulk Modulus (GPa) = 33.61514 49.09855 41.35684
# Shear Modulus (GPa) = 10.88616 26.40335 18.64475
#
# Velocity S-wave (km/s) = 2.33736 3.64013 3.05890
# Velocity P-wave (km/s) = 4.91468 6.50442 5.76462
#
# Compressibility (1/GPa) = 0.02974850
#
# Stress axis : x y z
#
# Youngs Moduli (GPa) = 68.67629 79.42340 39.39474
#
# Poissons Ratio (x) = 0.59732 0.15326
# Poissons Ratio (y) = 0.51649 -0.00068
# Poissons Ratio (z) = 0.26717 -0.00137
#
# Static dielectric constant tensor:
#      x y z
#    x 1.719810 0.000000 0.000000 
#    y 0.000000 1.703500 0.000000 
#    z 0.000000 0.000000 1.718710 
# 
# From -- ./inp_files/6935.got.cif
#   From: 2010.05.17/outbox.cif.g08.bks.cpg/sg36_4_cif.got.tgz:6935.got - 2010.06.03 17:41:39.
