data_PCOD9351833
_publ_section_title
;
Structure prediction by ZEFSAII (Michael W. Deem and Ramdas Pophale) SiO2 
 PCOD9351833
Probable space group: C M C 21
;
_chemical_formula_sum "Si O2"
_cell_formula_units_Z 40
_cell_length_a 15.200107
_cell_length_b 11.764195
_cell_length_c 12.030725
_cell_angle_alpha 90.000000
_cell_angle_beta 90.000000
_cell_angle_gamma 90.000000
_cell_volume 2151.298426
_symmetry_space_group_name_H-M "C M C 21"
_symmetry_group_IT_number 36
_symmetry_cell_setting 'orthorhombic'
loop_
_space_group_symop_operation_xyz
x,y,z
-x,-y,1/2+z
x,-y,1/2+z
-x,y,z
1/2+x,1/2+y,z
1/2-x,1/2-y,1/2+z
1/2+x,1/2-y,1/2+z
1/2-x,1/2+y,z
loop_
_atom_site_type_symbol
_atom_site_label
_atom_site_fract_x
_atom_site_fract_y
_atom_site_fract_z
Si Si1 0.746623 0.476377 0.250000
Si Si2 0.187074 0.333193 0.057443
Si Si3 0.102545 0.163616 0.222996
Si Si4 0.398163 0.059383 0.108669
Si Si5 0.686521 0.801522 0.417014
O O1 0.745963 0.382215 0.151366
O O2 0.661285 0.553420 0.245916
O O3 0.832308 0.550514 0.213719
O O4 0.764289 0.409548 0.363044
O O5 0.138017 0.226339 0.112595
O O6 0.119861 0.438202 0.046433
O O7 0.242120 0.292433 0.952570
O O8 0.122500 0.251437 0.323363
O O9 0.000000 0.139394 0.215222
O O10 0.500000 0.070071 0.137631
O O11 0.365085 0.156399 0.025439
#
# Coordination Sequence:
#
# PCOD9351833 Si02
#       5
#     8   8   8   8   8
#     4   9  22  37  58  82 122 148 193 240 296 341
#     4   9  19  37  59  81 114 155 191 241 289 344
#     4  11  21  37  60  86 117 159 197 237 290 354
#     4  10  20  36  59  88 113 147 196 242 289 348
#     4  11  20  37  62  85 116 155 193 242 298 343
#
# _framework density 18.593423000000001
#
# number of rings (size 3 to 8) (size 9 to 14) (size 15 to 20)
#    1.200    0.800    2.000    2.400    0.000    0.800 
#    0.000    6.000    0.000    0.000    0.000    0.000 
#    0.000    0.000    0.000    0.000    0.000    0.000 
#
# Total GULP energy -111454.870452 kJ/mol
# GULP energy per Si atom -5572.743523 kJ/mol
# Density = 1.855110 g / cm^3
# Si number density = 18.593423 Si / 1000 Ang^3
#
#
#
# Elastic Constant Matrix: (Units=GPa)
#
#
# Indices 1 2 3 4 5 6 
#
# 1 112.4862 35.2980 5.4762 0.0000 0.0000 0.0000
# 2 35.2980 47.4467 -5.7061 0.0000 0.0000 0.0000
# 3 5.4762 -5.7061 26.6994 0.0000 0.0000 0.0000
# 4 0.0000 0.0000 0.0000 34.1454 0.0000 0.0000
# 5 0.0000 0.0000 0.0000 0.0000 11.7938 0.0000
# 6 0.0000 0.0000 0.0000 0.0000 0.0000 15.9274
#
#
#
# Elastic Compliance Matrix: (Units=1/GPa)
#
#
# Indices 1 2 3 4 5 6 
#
# 1 0.012108 -0.009552 -0.004525 0.000000 0.000000 0.000000
# 2 -0.009552 0.029167 0.008193 0.000000 0.000000 0.000000
# 3 -0.004525 0.008193 0.040133 0.000000 0.000000 0.000000
# 4 0.000000 0.000000 0.000000 0.029286 0.000000 0.000000
# 5 0.000000 0.000000 0.000000 0.000000 0.084790 0.000000
# 6 0.000000 0.000000 0.000000 0.000000 0.000000 0.062785
#
#
# Mechanical properties :
#
#
# Convention : Reuss Voigt Hill
#
# Bulk Modulus (GPa) = 14.35940 28.52983 21.44462
# Shear Modulus (GPa) = 17.05029 22.47761 19.76395
#
# Velocity S-wave (km/s) = 3.03150 3.48070 3.26383
# Velocity P-wave (km/s) = 4.47134 5.61525 5.07562
#
# Compressibility (1/GPa) = 0.06964078
#
# Stress axis : x y z
#
# Youngs Moduli (GPa) = 82.59342 34.28484 24.91716
#
# Poissons Ratio (x) = 0.32747 0.11274
# Poissons Ratio (y) = 0.78889 -0.20414
# Poissons Ratio (z) = 0.37370 -0.28088
#
# Static dielectric constant tensor:
#      x y z
#    x 1.599460 0.000000 0.000000 
#    y 0.000000 1.667200 0.000000 
#    z 0.000000 0.000000 1.663900 
# 
# From -- ./inp_files/8248.got.cif
#   From: 2010.05.17/outbox.cif.g08.bks.cpg/sg36_5_cif.got.tgz:8248.got - 2010.06.03 17:41:39.
