data_PCOD9351604
_publ_section_title
;
Structure prediction by ZEFSAII (Michael W. Deem and Ramdas Pophale) SiO2 
 PCOD9351604
Probable space group: C M C 21
;
_chemical_formula_sum "Si O2"
_cell_formula_units_Z 64
_cell_length_a 8.989726
_cell_length_b 18.104163
_cell_length_c 21.187474
_cell_angle_alpha 90.000000
_cell_angle_beta 90.000000
_cell_angle_gamma 90.000000
_cell_volume 3448.292430
_symmetry_space_group_name_H-M "C M C 21"
_symmetry_group_IT_number 36
_symmetry_cell_setting 'orthorhombic'
loop_
_space_group_symop_operation_xyz
x,y,z
-x,-y,1/2+z
x,-y,1/2+z
-x,y,z
1/2+x,1/2+y,z
1/2-x,1/2-y,1/2+z
1/2+x,1/2-y,1/2+z
1/2-x,1/2+y,z
loop_
_atom_site_type_symbol
_atom_site_label
_atom_site_fract_x
_atom_site_fract_y
_atom_site_fract_z
Si Si1 0.170872 0.838693 0.680560
Si Si2 0.679197 0.334668 0.821370
Si Si3 0.171772 0.341068 0.186491
Si Si4 0.175903 0.173740 0.814913
Si Si5 0.674142 0.343455 0.056404
Si Si6 0.327624 0.834720 0.552952
Si Si7 0.825280 0.078956 0.941281
Si Si8 0.676945 0.079123 0.437147
O O1 0.216161 0.863436 0.750715
O O2 0.172759 0.748940 0.684210
O O3 0.273386 0.860129 0.622127
O O4 0.000000 0.860990 0.668504
O O5 0.500000 0.331441 0.825872
O O6 0.744995 0.252227 0.827002
O O7 0.747128 0.384053 0.876149
O O8 0.252981 0.360459 0.251669
O O9 0.257236 0.366094 0.123826
O O10 0.000000 0.364662 0.186233
O O11 0.195690 0.122621 0.875785
O O12 0.000000 0.186005 0.804751
O O13 0.500000 0.362918 0.052978
O O14 0.685656 0.254350 0.051201
O O15 0.762969 0.379539 0.999231
O O16 0.500000 0.853884 0.542793
O O17 0.227042 0.870065 0.498993
O O18 0.000000 0.060861 0.947456
O O19 0.728904 0.005180 0.941187
O O20 0.500000 0.085694 0.433071
#
# Coordination Sequence:
#
# PCOD9351604 Si02
#       8
#     8   8   8   8   8   8   8   8
#     4   8  16  31  53  81 111 142 176 219 269 320
#     4  10  20  36  59  85 113 145 182 225 275 329
#     4   9  17  31  54  84 115 144 179 225 273 322
#     4  10  20  35  58  86 112 143 185 229 275 327
#     4  10  20  36  59  85 114 146 182 225 272 326
#     4  10  20  34  57  86 112 141 180 225 270 321
#     4  11  24  40  56  76 109 149 186 227 274 326
#     4  12  25  39  56  79 110 146 186 231 276 327
#
# _framework density 18.559912000000001
#
# number of rings (size 3 to 8) (size 9 to 14) (size 15 to 20)
#    0.000    2.000    0.000    4.875    0.000    9.000 
#    0.000    1.250    0.000    4.500    0.000    0.000 
#    0.000    0.000    0.000    0.000    0.000    0.000 
#
# Total GULP energy -178706.557710 kJ/mol
# GULP energy per Si atom -5584.579928 kJ/mol
# Density = 1.851767 g / cm^3
# Si number density = 18.559912 Si / 1000 Ang^3
#
#
#
# Elastic Constant Matrix: (Units=GPa)
#
#
# Indices 1 2 3 4 5 6 
#
# 1 125.3500 32.9868 79.4385 0.0000 0.0000 0.0000
# 2 32.9868 26.0603 28.9114 0.0000 0.0000 0.0000
# 3 79.4385 28.9114 145.5224 0.0000 0.0000 0.0000
# 4 0.0000 0.0000 0.0000 -13.6196 0.0000 0.0000
# 5 0.0000 0.0000 0.0000 0.0000 46.3814 0.0000
# 6 0.0000 0.0000 0.0000 0.0000 0.0000 22.3066
#
#
#
# Elastic Compliance Matrix: (Units=1/GPa)
#
#
# Indices 1 2 3 4 5 6 
#
# 1 0.014833 -0.012561 -0.005602 0.000000 0.000000 0.000000
# 2 -0.012561 0.059858 -0.005035 0.000000 0.000000 0.000000
# 3 -0.005602 -0.005035 0.010930 0.000000 0.000000 0.000000
# 4 0.000000 0.000000 0.000000 -0.073424 0.000000 0.000000
# 5 0.000000 0.000000 0.000000 0.000000 0.021560 0.000000
# 6 0.000000 0.000000 0.000000 0.000000 0.000000 0.044830
#
#
# Mechanical properties :
#
#
# Convention : Reuss Voigt Hill
#
# Bulk Modulus (GPa) = 25.49369 64.40068 44.94719
# Shear Modulus (GPa) = 36.21630 21.38675 28.80152
#
# Velocity S-wave (km/s) = 4.42217 3.39825 3.94358
# Velocity P-wave (km/s) = 6.31188 7.08319 6.70863
#
# Compressibility (1/GPa) = 0.03922539
#
# Stress axis : x y z
#
# Youngs Moduli (GPa) = 67.41660 16.70610 91.49097
#
# Poissons Ratio (x) = 0.20985 0.51250
# Poissons Ratio (y) = 0.84683 0.46069
# Poissons Ratio (z) = 0.37764 0.08412
#
# Static dielectric constant tensor:
#      x y z
#    x 1.572960 0.000000 0.000000 
#    y 0.000000 1.618070 0.000000 
#    z 0.000000 0.000000 1.631530 
# 
# From -- ./inp_files/15735.got.cif
#   From: 2010.05.17/outbox.cif.g08.bks.cpg/sg36_8_cif.got.tgz:15735.got - 2010.06.03 17:41:39.
