data_PCOD9351135
_publ_section_title
;
Structure prediction by ZEFSAII (Michael W. Deem and Ramdas Pophale) SiO2 
 PCOD9351135
Probable space group: C M C 21
;
_chemical_formula_sum "Si O2"
_cell_formula_units_Z 64
_cell_length_a 7.480787
_cell_length_b 22.107035
_cell_length_c 14.510055
_cell_angle_alpha 90.000000
_cell_angle_beta 90.000000
_cell_angle_gamma 90.000000
_cell_volume 2399.644167
_symmetry_space_group_name_H-M "C M C 21"
_symmetry_group_IT_number 36
_symmetry_cell_setting 'orthorhombic'
loop_
_space_group_symop_operation_xyz
x,y,z
-x,-y,1/2+z
x,-y,1/2+z
-x,y,z
1/2+x,1/2+y,z
1/2-x,1/2-y,1/2+z
1/2+x,1/2-y,1/2+z
1/2-x,1/2+y,z
loop_
_atom_site_type_symbol
_atom_site_label
_atom_site_fract_x
_atom_site_fract_y
_atom_site_fract_z
Si Si1 0.720201 0.398603 0.892130
Si Si2 0.704995 0.648849 0.781433
Si Si3 0.283847 0.732190 0.397026
Si Si4 0.718839 0.720740 0.611678
Si Si5 0.714558 0.853670 0.627374
Si Si6 0.796505 0.041765 0.564385
Si Si7 0.205162 0.974221 0.734220
Si Si8 0.794381 0.425946 0.452966
O O1 0.500000 0.400351 0.892410
O O2 0.771143 0.332866 0.855820
O O3 0.788566 0.453857 0.830046
O O4 0.781811 0.408633 0.996646
O O5 0.500000 0.633528 0.767028
O O6 0.714772 0.710450 0.841812
O O7 0.781505 0.668264 0.681589
O O8 0.775409 0.595711 0.847921
O O9 0.500000 0.737268 0.395538
O O10 0.231039 0.725332 0.504432
O O11 0.500000 0.718303 0.612543
O O12 0.774742 0.786408 0.650951
O O13 0.500000 0.856672 0.639871
O O14 0.797498 0.909378 0.681976
O O15 0.750002 0.868953 0.519487
O O16 0.713838 0.020489 0.660622
O O17 0.806134 0.982416 0.498102
O O18 0.000000 0.060276 0.584337
O O19 0.000000 0.992189 0.751271
O O20 0.000000 0.440686 0.470044
#
# Coordination Sequence:
#
# PCOD9351135 Si02
#       8
#     8   8   8   8   8   8   8   8
#     4   9  18  33  54  79 105 138 179 218 260 313
#     4  11  21  33  52  81 110 138 176 221 267 316
#     4  10  19  36  56  76 108 147 181 215 263 323
#     4   9  18  32  49  74 106 141 175 208 259 325
#     4   9  16  30  51  72  98 133 171 209 252 310
#     4   9  18  34  53  77 106 134 171 224 268 305
#     4   9  17  30  50  78 103 128 173 222 260 300
#     4  10  19  34  55  75 100 137 176 215 263 318
#
# _framework density 26.670621000000001
#
# number of rings (size 3 to 8) (size 9 to 14) (size 15 to 20)
#    0.000    2.500    1.250    1.500    0.000    0.500 
#    2.250    3.125    0.000    0.000    0.000    0.000 
#    0.000    0.000    0.000    0.000    0.000    0.000 
#
# Total GULP energy -178904.720198 kJ/mol
# GULP energy per Si atom -5590.772506 kJ/mol
# Density = 2.660992 g / cm^3
# Si number density = 26.670621 Si / 1000 Ang^3
#
#
#
# Elastic Constant Matrix: (Units=GPa)
#
#
# Indices 1 2 3 4 5 6 
#
# 1 80.4270 5.9386 1.0691 0.0000 0.0000 0.0000
# 2 5.9386 122.1055 30.5686 0.0000 0.0000 0.0000
# 3 1.0691 30.5686 160.5023 0.0000 0.0000 0.0000
# 4 0.0000 0.0000 0.0000 59.7909 0.0000 0.0000
# 5 0.0000 0.0000 0.0000 0.0000 -2.5798 0.0000
# 6 0.0000 0.0000 0.0000 0.0000 0.0000 18.5086
#
#
#
# Elastic Compliance Matrix: (Units=1/GPa)
#
#
# Indices 1 2 3 4 5 6 
#
# 1 0.012479 -0.000615 0.000034 0.000000 0.000000 0.000000
# 2 -0.000615 0.008630 -0.001640 0.000000 0.000000 0.000000
# 3 0.000034 -0.001640 0.006542 0.000000 0.000000 0.000000
# 4 0.000000 0.000000 0.000000 0.016725 0.000000 0.000000
# 5 0.000000 0.000000 0.000000 0.000000 -0.387628 0.000000
# 6 0.000000 0.000000 0.000000 0.000000 0.000000 0.054029
#
#
# Mechanical properties :
#
#
# Convention : Reuss Voigt Hill
#
# Bulk Modulus (GPa) = 43.08603 48.68746 45.88675
# Shear Modulus (GPa) = -18.04766 36.84118 9.39676
#
# Velocity S-wave (km/s) = -2.60414 3.72067 1.87907
# Velocity P-wave (km/s) = 2.67355 6.06239 4.68511
#
# Compressibility (1/GPa) = 0.02320938
#
# Stress axis : x y z
#
# Youngs Moduli (GPa) = 80.13703 115.87461 152.84743
#
# Poissons Ratio (x) = 0.07131 -0.00521
# Poissons Ratio (y) = 0.04932 0.25060
# Poissons Ratio (z) = -0.00273 0.18998
#
# Static dielectric constant tensor:
#      x y z
#    x 2.024280 0.000000 0.000000 
#    y 0.000000 2.079810 0.000000 
#    z 0.000000 0.000000 2.143380 
# 
# From -- ./inp_files/11046.got.cif
#   From: 2010.05.17/outbox.cif.g08.bks.cpg/sg36_6_cif.got.tgz:11046.got - 2010.06.03 17:41:39.
