data_PCOD9351734
_publ_section_title
;
Structure prediction by ZEFSAII (Michael W. Deem and Ramdas Pophale) SiO2 
 PCOD9351734
Probable space group: C M C 21
;
_chemical_formula_sum "Si O2"
_cell_formula_units_Z 64
_cell_length_a 8.699096
_cell_length_b 15.040762
_cell_length_c 23.509436
_cell_angle_alpha 90.000000
_cell_angle_beta 90.000000
_cell_angle_gamma 90.000000
_cell_volume 3075.998881
_symmetry_space_group_name_H-M "C M C 21"
_symmetry_group_IT_number 36
_symmetry_cell_setting 'orthorhombic'
loop_
_space_group_symop_operation_xyz
x,y,z
-x,-y,1/2+z
x,-y,1/2+z
-x,y,z
1/2+x,1/2+y,z
1/2-x,1/2-y,1/2+z
1/2+x,1/2-y,1/2+z
1/2-x,1/2+y,z
loop_
_atom_site_type_symbol
_atom_site_label
_atom_site_fract_x
_atom_site_fract_y
_atom_site_fract_z
Si Si1 0.812574 0.400079 0.262340
Si Si2 0.182125 0.649927 0.083361
Si Si3 0.315070 0.806402 0.146974
Si Si4 0.176321 0.193706 0.965208
Si Si5 0.817707 0.254718 0.350872
Si Si6 0.182177 0.577590 0.316072
Si Si7 0.814339 0.549756 0.552355
Si Si8 0.177323 0.985090 0.932667
O O1 0.760067 0.351354 0.205350
O O2 0.764439 0.341689 0.316566
O O3 0.766525 0.501992 0.271650
O O4 0.000000 0.400065 0.261752
O O5 0.254194 0.708632 0.133159
O O6 0.231322 0.546752 0.078180
O O7 0.000000 0.650781 0.089377
O O8 0.230041 0.695101 0.023526
O O9 0.500000 0.803042 0.148865
O O10 0.271645 0.872516 0.095571
O O11 0.241234 0.249590 0.912757
O O12 0.182378 0.090873 0.944559
O O13 0.000000 0.218172 0.977129
O O14 0.771502 0.169790 0.313784
O O15 0.000000 0.259574 0.358161
O O16 0.219402 0.538780 0.378743
O O17 0.000000 0.592546 0.310360
O O18 0.738011 0.558722 0.490733
O O19 0.000000 0.548923 0.545603
O O20 0.000000 0.959698 0.921286
#
# Coordination Sequence:
#
# PCOD9351734 Si02
#       8
#     8   8   8   8   8   8   8   8
#     4   9  21  41  62  83 116 158 199 243 295 351
#     4  10  21  37  57  87 120 154 192 243 298 347
#     4  10  21  40  63  85 113 157 204 243 287 352
#     4  10  20  36  59  87 119 157 195 241 296 355
#     4  11  22  38  59  87 118 154 196 246 299 351
#     4  11  22  38  60  87 117 156 200 240 295 358
#     4   9  20  37  58  83 116 155 194 236 290 353
#     4  10  20  35  58  87 121 153 192 244 296 347
#
# _framework density 20.806249999999999
#
# number of rings (size 3 to 8) (size 9 to 14) (size 15 to 20)
#    0.000    2.000    1.250    1.875    1.750    3.000 
#    0.000    3.750    0.000    0.000    0.000    0.000 
#    0.000    0.000    0.000    0.000    0.000    0.000 
#
# Total GULP energy -178831.795420 kJ/mol
# GULP energy per Si atom -5588.493607 kJ/mol
# Density = 2.075889 g / cm^3
# Si number density = 20.806250 Si / 1000 Ang^3
#
#
#
# Elastic Constant Matrix: (Units=GPa)
#
#
# Indices 1 2 3 4 5 6 
#
# 1 13.2915 0.6828 -2.9073 0.0000 0.0000 0.0000
# 2 0.6828 57.6124 -9.4781 0.0000 0.0000 0.0000
# 3 -2.9073 -9.4781 19.9820 0.0000 0.0000 0.0000
# 4 0.0000 0.0000 0.0000 25.2289 0.0000 0.0000
# 5 0.0000 0.0000 0.0000 0.0000 21.1425 0.0000
# 6 0.0000 0.0000 0.0000 0.0000 0.0000 25.6738
#
#
#
# Elastic Compliance Matrix: (Units=1/GPa)
#
#
# Indices 1 2 3 4 5 6 
#
# 1 0.077764 0.001019 0.011798 0.000000 0.000000 0.000000
# 2 0.001019 0.018840 0.009085 0.000000 0.000000 0.000000
# 3 0.011798 0.009085 0.056071 0.000000 0.000000 0.000000
# 4 0.000000 0.000000 0.000000 0.039637 0.000000 0.000000
# 5 0.000000 0.000000 0.000000 0.000000 0.047298 0.000000
# 6 0.000000 0.000000 0.000000 0.000000 0.000000 0.038950
#
#
# Mechanical properties :
#
#
# Convention : Reuss Voigt Hill
#
# Bulk Modulus (GPa) = 5.08961 7.49785 6.29373
# Shear Modulus (GPa) = 16.65282 21.24828 18.95055
#
# Velocity S-wave (km/s) = 2.83216 3.19916 3.02124
# Velocity P-wave (km/s) = 3.62579 4.15423 3.89897
#
# Compressibility (1/GPa) = 0.19647879
#
# Stress axis : x y z
#
# Youngs Moduli (GPa) = 12.85939 53.07892 17.83458
#
# Poissons Ratio (x) = -0.05410 -0.21041
# Poissons Ratio (y) = -0.01311 -0.16202
# Poissons Ratio (z) = -0.15171 -0.48221
#
# Static dielectric constant tensor:
#      x y z
#    x 1.703940 0.000000 0.000000 
#    y 0.000000 1.781880 0.000000 
#    z 0.000000 0.000000 1.723400 
# 
# From -- ./inp_files/16542.got.cif
#   From: 2010.05.17/outbox.cif.g08.bks.cpg/sg36_9_cif.got.tgz:16542.got - 2010.06.03 17:41:39.
