data_PCOD9351768
_publ_section_title
;
Structure prediction by ZEFSAII (Michael W. Deem and Ramdas Pophale) SiO2 
 PCOD9351768
Probable space group: C M C 21
;
_chemical_formula_sum "Si O2"
_cell_formula_units_Z 48
_cell_length_a 10.927044
_cell_length_b 9.717443
_cell_length_c 22.648734
_cell_angle_alpha 90.000000
_cell_angle_beta 90.000000
_cell_angle_gamma 90.000000
_cell_volume 2404.908874
_symmetry_space_group_name_H-M "C M C 21"
_symmetry_group_IT_number 36
_symmetry_cell_setting 'orthorhombic'
loop_
_space_group_symop_operation_xyz
x,y,z
-x,-y,1/2+z
x,-y,1/2+z
-x,y,z
1/2+x,1/2+y,z
1/2-x,1/2-y,1/2+z
1/2+x,1/2-y,1/2+z
1/2-x,1/2+y,z
loop_
_atom_site_type_symbol
_atom_site_label
_atom_site_fract_x
_atom_site_fract_y
_atom_site_fract_z
Si Si1 0.862756 0.767751 0.961110
Si Si2 0.361969 0.984718 0.278198
Si Si3 0.722966 0.751475 0.711546
Si Si4 0.210768 0.855954 0.086331
Si Si5 0.857879 0.460437 0.917183
Si Si6 0.866395 0.865581 0.614966
O O1 0.842230 0.605005 0.951694
O O2 0.749190 0.853615 0.934021
O O3 0.000000 0.798477 0.936371
O O4 0.862860 0.809941 0.029741
O O5 0.500000 0.933607 0.267554
O O6 0.267982 0.875898 0.250252
O O7 0.348162 0.133394 0.247341
O O8 0.344723 0.003781 0.347871
O O9 0.662254 0.696645 0.650407
O O10 0.839913 0.830636 0.682865
O O11 0.339716 0.776527 0.082006
O O12 0.224809 0.018166 0.092266
O O13 0.000000 0.413080 0.926419
O O14 0.000000 0.920231 0.604456
#
# Coordination Sequence:
#
# PCOD9351768 Si02
#       6
#     8   8   8   8   8   8
#     4  11  23  42  65  89 125 166 208 260 312 367
#     4  11  22  40  62  85 121 159 202 256 305 363
#     4  10  20  39  57  89 120 152 195 245 308 367
#     4  10  21  37  59  91 120 155 201 244 303 374
#     4  10  24  42  63  91 121 163 216 260 305 364
#     4  10  20  36  54  83 122 153 189 239 296 363
#
# _framework density 19.959175999999999
#
# number of rings (size 3 to 8) (size 9 to 14) (size 15 to 20)
#    1.000    0.667    1.667    3.000    0.000    2.667 
#    0.000    5.000    0.000    0.000    0.000    0.000 
#    0.000    0.000    0.000    0.000    0.000    0.000 
#
# Total GULP energy -133627.211483 kJ/mol
# GULP energy per Si atom -5567.800478 kJ/mol
# Density = 1.991375 g / cm^3
# Si number density = 19.959176 Si / 1000 Ang^3
#
#
#
# Elastic Constant Matrix: (Units=GPa)
#
#
# Indices 1 2 3 4 5 6 
#
# 1 66.2188 28.9331 15.1530 0.0000 0.0000 0.0000
# 2 28.9331 69.5034 -0.1783 0.0000 0.0000 0.0000
# 3 15.1530 -0.1783 59.6618 0.0000 0.0000 0.0000
# 4 0.0000 0.0000 0.0000 24.6725 0.0000 0.0000
# 5 0.0000 0.0000 0.0000 0.0000 10.2143 0.0000
# 6 0.0000 0.0000 0.0000 0.0000 0.0000 22.5944
#
#
#
# Elastic Compliance Matrix: (Units=1/GPa)
#
#
# Indices 1 2 3 4 5 6 
#
# 1 0.019885 -0.008291 -0.005075 0.000000 0.000000 0.000000
# 2 -0.008291 0.017845 0.002159 0.000000 0.000000 0.000000
# 3 -0.005075 0.002159 0.018057 0.000000 0.000000 0.000000
# 4 0.000000 0.000000 0.000000 0.040531 0.000000 0.000000
# 5 0.000000 0.000000 0.000000 0.000000 0.097902 0.000000
# 6 0.000000 0.000000 0.000000 0.000000 0.000000 0.044259
#
#
# Mechanical properties :
#
#
# Convention : Reuss Voigt Hill
#
# Bulk Modulus (GPa) = 29.96492 31.46662 30.71577
# Shear Modulus (GPa) = 18.38121 21.59466 19.98793
#
# Velocity S-wave (km/s) = 3.03799 3.29286 3.16799
# Velocity P-wave (km/s) = 5.22987 5.50063 5.36696
#
# Compressibility (1/GPa) = 0.03337235
#
# Stress axis : x y z
#
# Youngs Moduli (GPa) = 50.28803 56.03896 55.38134
#
# Poissons Ratio (x) = 0.46462 0.28108
# Poissons Ratio (y) = 0.41694 -0.11957
# Poissons Ratio (z) = 0.25523 -0.12099
#
# Static dielectric constant tensor:
#      x y z
#    x 1.710220 0.000000 0.000000 
#    y 0.000000 1.684740 0.000000 
#    z 0.000000 0.000000 1.708750 
# 
# From -- ./inp_files/16437.got.cif
#   From: 2010.05.17/outbox.cif.g08.bks.cpg/sg36_9_cif.got.tgz:16437.got - 2010.06.03 17:41:39.
