data_PCOD9351311
_publ_section_title
;
Structure prediction by ZEFSAII (Michael W. Deem and Ramdas Pophale) SiO2 
 PCOD9351311
Probable space group: C M C 21
;
_chemical_formula_sum "Si O2"
_cell_formula_units_Z 52
_cell_length_a 7.536927
_cell_length_b 21.155227
_cell_length_c 14.699317
_cell_angle_alpha 90.000000
_cell_angle_beta 90.000000
_cell_angle_gamma 90.000000
_cell_volume 2343.738502
_symmetry_space_group_name_H-M "C M C 21"
_symmetry_group_IT_number 36
_symmetry_cell_setting 'orthorhombic'
loop_
_space_group_symop_operation_xyz
x,y,z
-x,-y,1/2+z
x,-y,1/2+z
-x,y,z
1/2+x,1/2+y,z
1/2-x,1/2-y,1/2+z
1/2+x,1/2-y,1/2+z
1/2-x,1/2+y,z
loop_
_atom_site_type_symbol
_atom_site_label
_atom_site_fract_x
_atom_site_fract_y
_atom_site_fract_z
Si Si1 0.691729 0.900964 0.738110
Si Si2 0.500000 0.674684 0.326251
Si Si3 0.215539 0.460181 0.429079
Si Si4 0.289976 0.953753 0.223071
Si Si5 0.716024 0.089075 0.530018
Si Si6 0.711787 0.222138 0.438229
Si Si7 0.204726 0.843321 0.559248
O O1 0.500000 0.901950 0.785735
O O2 0.689528 0.856066 0.650730
O O3 0.845899 0.877149 0.800882
O O4 0.724575 0.971548 0.702484
O O5 0.341046 0.725455 0.352612
O O6 0.279434 0.447481 0.325908
O O7 0.271973 0.527839 0.471096
O O8 0.274072 0.403233 0.493538
O O9 0.000000 0.461187 0.427880
O O10 0.500000 0.938555 0.228131
O O11 0.219643 0.918047 0.134312
O O12 0.500000 0.087909 0.532014
O O13 0.766873 0.156196 0.487092
O O14 0.500000 0.221896 0.419174
O O15 0.749226 0.280211 0.505183
O O16 0.000000 0.838159 0.589541
#
# Coordination Sequence:
#
# PCOD9351311 Si02
#       7
#     8   4   8   8   8   8   8
#     4  11  22  41  68  98 134 170 221 280 330 404
#     4  12  24  42  66 102 120 172 232 270 326 400
#     4  10  19  35  66  95 124 170 222 278 336 393
#     4   9  18  35  62  98 130 171 224 277 344 400
#     4   9  17  37  63  91 128 174 219 272 336 396
#     4  10  24  44  66  93 138 178 221 276 334 400
#     4  11  23  43  63  96 136 181 220 271 341 405
#
# _framework density 22.186775000000001
#
# number of rings (size 3 to 8) (size 9 to 14) (size 15 to 20)
#    0.000    1.846    2.308    1.846    2.154    2.462 
#    8.308    0.769    0.000    0.000    0.000    0.000 
#    0.000    0.000    0.000    0.000    0.000    0.000 
#
# Total GULP energy -144756.463955 kJ/mol
# GULP energy per Si atom -5567.556306 kJ/mol
# Density = 2.213628 g / cm^3
# Si number density = 22.186775 Si / 1000 Ang^3
#
#
#
# Elastic Constant Matrix: (Units=GPa)
#
#
# Indices 1 2 3 4 5 6 
#
# 1 97.7031 14.6798 8.6148 0.0000 0.0000 0.0000
# 2 14.6798 101.4689 22.0402 0.0000 0.0000 0.0000
# 3 8.6148 22.0402 70.2476 0.0000 0.0000 0.0000
# 4 0.0000 0.0000 0.0000 30.2672 0.0000 0.0000
# 5 0.0000 0.0000 0.0000 0.0000 1.4450 0.0000
# 6 0.0000 0.0000 0.0000 0.0000 0.0000 9.0209
#
#
#
# Elastic Compliance Matrix: (Units=1/GPa)
#
#
# Indices 1 2 3 4 5 6 
#
# 1 0.010512 -0.001332 -0.000871 0.000000 0.000000 0.000000
# 2 -0.001332 0.010745 -0.003208 0.000000 0.000000 0.000000
# 3 -0.000871 -0.003208 0.015349 0.000000 0.000000 0.000000
# 4 0.000000 0.000000 0.000000 0.033039 0.000000 0.000000
# 5 0.000000 0.000000 0.000000 0.000000 0.692057 0.000000
# 6 0.000000 0.000000 0.000000 0.000000 0.000000 0.110854
#
#
# Mechanical properties :
#
#
# Convention : Reuss Voigt Hill
#
# Bulk Modulus (GPa) = 38.78401 40.00993 39.39697
# Shear Modulus (GPa) = 5.60556 23.08560 14.34558
#
# Velocity S-wave (km/s) = 1.59123 3.22920 2.54556
# Velocity P-wave (km/s) = 4.57107 5.65473 5.14153
#
# Compressibility (1/GPa) = 0.02578382
#
# Stress axis : x y z
#
# Youngs Moduli (GPa) = 95.12953 93.06961 65.15222
#
# Poissons Ratio (x) = 0.12392 0.05677
# Poissons Ratio (y) = 0.12667 0.20900
# Poissons Ratio (z) = 0.08289 0.29855
#
# Static dielectric constant tensor:
#      x y z
#    x 1.800560 0.000000 0.000000 
#    y 0.000000 1.789160 0.000000 
#    z 0.000000 0.000000 1.910390 
# 
# From -- ./inp_files/10517.got.cif
#   From: 2010.05.17/outbox.cif.g08.bks.cpg/sg36_6_cif.got.tgz:10517.got - 2010.06.03 17:41:39.
