data_PCOD9351413
_publ_section_title
;
Structure prediction by ZEFSAII (Michael W. Deem and Ramdas Pophale) SiO2 
 PCOD9351413
Probable space group: C M C 21
;
_chemical_formula_sum "Si O2"
_cell_formula_units_Z 64
_cell_length_a 8.560309
_cell_length_b 31.202540
_cell_length_c 12.285768
_cell_angle_alpha 90.000000
_cell_angle_beta 90.000000
_cell_angle_gamma 90.000000
_cell_volume 3281.570208
_symmetry_space_group_name_H-M "C M C 21"
_symmetry_group_IT_number 36
_symmetry_cell_setting 'orthorhombic'
loop_
_space_group_symop_operation_xyz
x,y,z
-x,-y,1/2+z
x,-y,1/2+z
-x,y,z
1/2+x,1/2+y,z
1/2-x,1/2-y,1/2+z
1/2+x,1/2-y,1/2+z
1/2-x,1/2+y,z
loop_
_atom_site_type_symbol
_atom_site_label
_atom_site_fract_x
_atom_site_fract_y
_atom_site_fract_z
Si Si1 0.812720 0.622824 0.134000
Si Si2 0.817360 0.541320 0.757238
Si Si3 0.808958 0.792536 0.255310
Si Si4 0.185625 0.948152 0.794933
Si Si5 0.813148 0.696634 0.298309
Si Si6 0.312362 0.623093 0.888744
Si Si7 0.681499 0.573011 0.540702
Si Si8 0.318702 0.326953 0.028371
O O1 0.767978 0.580896 0.204045
O O2 0.756620 0.663967 0.204870
O O3 0.000000 0.624835 0.123419
O O4 0.739252 0.622208 0.014308
O O5 0.727346 0.497900 0.785765
O O6 0.755702 0.582195 0.824696
O O7 0.785190 0.550048 0.630081
O O8 0.000000 0.535651 0.778448
O O9 0.755176 0.745485 0.290294
O O10 0.760322 0.832343 0.331202
O O11 0.758482 0.800435 0.131036
O O12 0.000000 0.793153 0.255559
O O13 0.231666 0.933673 0.916508
O O14 0.000000 0.941616 0.784164
O O15 0.770874 0.679058 0.416620
O O16 0.000000 0.697997 0.287455
O O17 0.500000 0.620953 0.881654
O O18 0.500000 0.558636 0.551168
O O19 0.685296 0.623567 0.563319
O O20 0.500000 0.315588 0.008405
#
# Coordination Sequence:
#
# PCOD9351413 Si02
#       8
#     8   8   8   8   8   8   8   8
#     4  11  24  41  61  91 130 164 202 258 319 366
#     4  12  26  42  64  94 128 160 201 257 318 368
#     4   9  20  39  62  88 122 164 205 253 305 361
#     4  11  24  43  67  92 122 165 213 251 300 371
#     4  10  22  39  60  90 127 163 200 251 314 366
#     4  11  23  43  66  87 122 169 214 253 300 370
#     4  10  21  41  67  91 118 159 210 256 301 364
#     4  10  19  38  65  89 117 156 207 257 301 356
#
# _framework density 19.502858
#
# number of rings (size 3 to 8) (size 9 to 14) (size 15 to 20)
#    0.000    1.500    2.500    2.250    3.500    2.000 
#    0.000    1.250    0.000    0.000    0.000    0.000 
#    0.000    0.000    0.000    0.000    0.000    0.000 
#
# Total GULP energy -178776.182091 kJ/mol
# GULP energy per Si atom -5586.755690 kJ/mol
# Density = 1.945847 g / cm^3
# Si number density = 19.502858 Si / 1000 Ang^3
#
#
#
# Elastic Constant Matrix: (Units=GPa)
#
#
# Indices 1 2 3 4 5 6 
#
# 1 12.9204 -3.8220 6.7960 0.0000 0.0000 0.0000
# 2 -3.8220 85.1937 17.4521 0.0000 0.0000 0.0000
# 3 6.7960 17.4521 88.7313 0.0000 0.0000 0.0000
# 4 0.0000 0.0000 0.0000 25.1430 0.0000 0.0000
# 5 0.0000 0.0000 0.0000 0.0000 29.4697 0.0000
# 6 0.0000 0.0000 0.0000 0.0000 0.0000 12.5801
#
#
#
# Elastic Compliance Matrix: (Units=1/GPa)
#
#
# Indices 1 2 3 4 5 6 
#
# 1 0.082820 0.005225 -0.007371 0.000000 0.000000 0.000000
# 2 0.005225 0.012560 -0.002871 0.000000 0.000000 0.000000
# 3 -0.007371 -0.002871 0.012399 0.000000 0.000000 0.000000
# 4 0.000000 0.000000 0.000000 0.039772 0.000000 0.000000
# 5 0.000000 0.000000 0.000000 0.000000 0.033933 0.000000
# 6 0.000000 0.000000 0.000000 0.000000 0.000000 0.079491
#
#
# Mechanical properties :
#
#
# Convention : Reuss Voigt Hill
#
# Bulk Modulus (GPa) = 10.23053 25.29975 17.76514
# Shear Modulus (GPa) = 16.46958 24.53319 20.50138
#
# Velocity S-wave (km/s) = 2.90913 3.55058 3.24574
# Velocity P-wave (km/s) = 4.06707 5.45979 4.81406
#
# Compressibility (1/GPa) = 0.09774669
#
# Stress axis : x y z
#
# Youngs Moduli (GPa) = 12.07444 79.61501 80.65073
#
# Poissons Ratio (x) = -0.41602 0.59448
# Poissons Ratio (y) = -0.06309 0.23152
# Poissons Ratio (z) = 0.08900 0.22855
#
# Static dielectric constant tensor:
#      x y z
#    x 1.674430 0.000000 0.000000 
#    y 0.000000 1.682160 0.000000 
#    z 0.000000 0.000000 1.653030 
# 
# From -- ./inp_files/7163.got.cif
#   From: 2010.05.17/outbox.cif.g08.bks.cpg/sg36_4_cif.got.tgz:7163.got - 2010.06.03 17:41:39.
