data_PCOD9351800
_publ_section_title
;
Structure prediction by ZEFSAII (Michael W. Deem and Ramdas Pophale) SiO2 
 PCOD9351800
Probable space group: C M C 21
;
_chemical_formula_sum "Si O2"
_cell_formula_units_Z 40
_cell_length_a 16.426589
_cell_length_b 8.797690
_cell_length_c 12.016145
_cell_angle_alpha 90.000000
_cell_angle_beta 90.000000
_cell_angle_gamma 90.000000
_cell_volume 1736.525665
_symmetry_space_group_name_H-M "C M C 21"
_symmetry_group_IT_number 36
_symmetry_cell_setting 'orthorhombic'
loop_
_space_group_symop_operation_xyz
x,y,z
-x,-y,1/2+z
x,-y,1/2+z
-x,y,z
1/2+x,1/2+y,z
1/2-x,1/2-y,1/2+z
1/2+x,1/2-y,1/2+z
1/2-x,1/2+y,z
loop_
_atom_site_type_symbol
_atom_site_label
_atom_site_fract_x
_atom_site_fract_y
_atom_site_fract_z
Si Si1 0.358853 0.357823 0.289920
Si Si2 0.500000 0.788139 0.319040
Si Si3 0.250000 0.620750 0.389884
Si Si4 0.000000 0.992521 0.162125
Si Si5 0.500000 0.007479 0.117643
Si Si6 0.358853 0.142177 0.989848
Si Si7 0.000000 0.211861 0.960728
O O1 0.315013 0.510681 0.331764
O O2 0.289869 0.228251 0.294838
O O3 0.417404 0.400320 0.187204
O O4 0.421864 0.301285 0.383430
O O5 0.500000 0.633487 0.249040
O O6 0.578136 0.801285 0.396338
O O7 0.500000 0.932686 0.237613
O O8 0.289869 0.728251 0.484930
O O9 0.184987 0.510681 0.448004
O O10 0.000000 0.067314 0.042155
O O11 0.500000 0.866513 0.030728
O O12 0.417404 0.099680 0.092564
#
# Coordination Sequence:
#
# PCOD9351800 Si02
#       7
#     8   4   8   4   4   8   4
#     4  10  20  38  58  82 114 152 182 236 274 338
#     4  10  20  37  60  85 112 149 191 230 274 334
#     4  10  20  36  58  82 116 150 184 226 294 320
#     4  10  20  37  60  85 112 149 191 230 274 334
#     4  10  20  37  60  85 112 149 191 230 274 334
#     4  10  20  38  58  82 114 152 182 236 274 338
#     4  10  20  37  60  85 112 149 191 230 274 334
#
# _framework density 23.034500000000001
#
# number of rings (size 3 to 8) (size 9 to 14) (size 15 to 20)
#    0.000    2.000    4.000    0.000    0.000    0.000 
#    0.000   16.000    0.000    0.000    0.000    0.000 
#    0.000    0.000    0.000    0.000    0.000    0.000 
#
# Total GULP energy -111884.935022 kJ/mol
# GULP energy per Si atom -5594.246751 kJ/mol
# Density = 2.298207 g / cm^3
# Si number density = 23.034500 Si / 1000 Ang^3
#
#
#
# Elastic Constant Matrix: (Units=GPa)
#
#
# Indices 1 2 3 4 5 6 
#
# 1 97.6597 44.2216 -14.0184 0.0000 0.0000 0.0000
# 2 44.2216 133.2833 -0.7155 0.0000 0.0000 0.0000
# 3 -14.0184 -0.7155 9.8454 0.0000 0.0000 0.0000
# 4 0.0000 0.0000 0.0000 21.8566 0.0000 0.0000
# 5 0.0000 0.0000 0.0000 0.0000 -1.2848 0.0000
# 6 0.0000 0.0000 0.0000 0.0000 0.0000 -943.7339
#
#
#
# Elastic Compliance Matrix: (Units=1/GPa)
#
#
# Indices 1 2 3 4 5 6 
#
# 1 0.015701 -0.005091 0.021986 0.000000 0.000000 0.000000
# 2 -0.005091 0.009157 -0.006584 0.000000 0.000000 0.000000
# 3 0.021986 -0.006584 0.132396 0.000000 0.000000 0.000000
# 4 0.000000 0.000000 0.000000 0.045753 0.000000 0.000000
# 5 0.000000 0.000000 0.000000 0.000000 -0.778301 0.000000
# 6 0.000000 0.000000 0.000000 0.000000 0.000000 -0.001060
#
#
# Mechanical properties :
#
#
# Convention : Reuss Voigt Hill
#
# Bulk Modulus (GPa) = 5.62193 33.30710 19.46451
# Shear Modulus (GPa) = -9.29914 -170.54570 -89.92242
#
# Velocity S-wave (km/s) = -2.01142 -8.61394 -6.25483
# Velocity P-wave (km/s) = 1.71711 9.18925 6.61025
#
# Compressibility (1/GPa) = 0.17787487
#
# Stress axis : x y z
#
# Youngs Moduli (GPa) = 63.69021 109.20947 7.55310
#
# Poissons Ratio (x) = 0.55602 -0.16606
# Poissons Ratio (y) = 0.32427 0.04973
# Poissons Ratio (z) = -1.40028 0.71902
#
# Static dielectric constant tensor:
#      x y z
#    x 1.917950 0.000000 0.000000 
#    y 0.000000 1.859760 0.000000 
#    z 0.000000 0.000000 1.894510 
# 
# From -- ./inp_files/3823.got.cif
#   From: 2010.05.17/outbox.cif.g08.bks.cpg/sg36_2_cif.got.tgz:3823.got - 2010.06.03 17:41:39.
