data_PCOD9351605
_publ_section_title
;
Structure prediction by ZEFSAII (Michael W. Deem and Ramdas Pophale) SiO2 
 PCOD9351605
Probable space group: C M C 21
;
_chemical_formula_sum "Si O2"
_cell_formula_units_Z 64
_cell_length_a 7.528128
_cell_length_b 14.795917
_cell_length_c 22.221962
_cell_angle_alpha 90.000000
_cell_angle_beta 90.000000
_cell_angle_gamma 90.000000
_cell_volume 2475.205616
_symmetry_space_group_name_H-M "C M C 21"
_symmetry_group_IT_number 36
_symmetry_cell_setting 'orthorhombic'
loop_
_space_group_symop_operation_xyz
x,y,z
-x,-y,1/2+z
x,-y,1/2+z
-x,y,z
1/2+x,1/2+y,z
1/2-x,1/2-y,1/2+z
1/2+x,1/2-y,1/2+z
1/2-x,1/2+y,z
loop_
_atom_site_type_symbol
_atom_site_label
_atom_site_fract_x
_atom_site_fract_y
_atom_site_fract_z
Si Si1 0.798685 0.923105 0.642630
Si Si2 0.295008 0.343047 0.238299
Si Si3 0.796117 0.323775 0.421307
Si Si4 0.716555 0.539594 0.015911
Si Si5 0.207356 0.857454 0.767436
Si Si6 0.699401 0.024393 0.837531
Si Si7 0.284111 0.722035 0.609133
Si Si8 0.216330 0.850100 0.977903
O O1 0.716132 0.909139 0.708362
O O2 0.798730 0.820418 0.617985
O O3 0.000000 0.957614 0.651137
O O4 0.723368 0.974918 0.584856
O O5 0.500000 0.370626 0.238318
O O6 0.283665 0.243476 0.269115
O O7 0.195509 0.417587 0.276224
O O8 0.234808 0.332864 0.169354
O O9 0.794743 0.370305 0.486927
O O10 0.708891 0.401655 0.380948
O O11 0.717763 0.224498 0.430666
O O12 0.000000 0.312710 0.399543
O O13 0.500000 0.545825 0.016851
O O14 0.768238 0.454272 0.974809
O O15 0.000000 0.842687 0.755382
O O16 0.222057 0.926542 0.822655
O O17 0.500000 0.008520 0.859041
O O18 0.500000 0.730729 0.610735
O O19 0.234418 0.680559 0.545375
O O20 0.000000 0.847118 0.974715
#
# Coordination Sequence:
#
# PCOD9351605 Si02
#       8
#     8   8   8   8   8   8   8   8
#     4   9  18  32  54  84 119 147 180 234 291 344
#     4  10  21  37  60  90 120 154 194 241 296 353
#     4  10  22  41  59  79 113 153 195 239 285 340
#     4  10  20  34  57  86 114 146 188 235 285 346
#     4  10  21  38  60  86 120 158 196 242 296 350
#     4  11  24  40  59  84 117 160 207 248 287 346
#     4   9  17  32  58  83 113 151 188 226 281 350
#     4   9  18  34  57  82 110 147 186 227 281 343
#
# _framework density 25.856439999999999
#
# number of rings (size 3 to 8) (size 9 to 14) (size 15 to 20)
#    0.000    2.250    1.250    1.125    1.750    3.000 
#    0.000    2.500    0.000    0.000    0.000    0.000 
#    0.000    0.000    0.000    0.000    0.000    0.000 
#
# Total GULP energy -178866.598446 kJ/mol
# GULP energy per Si atom -5589.581201 kJ/mol
# Density = 2.579759 g / cm^3
# Si number density = 25.856440 Si / 1000 Ang^3
#
#
#
# Elastic Constant Matrix: (Units=GPa)
#
#
# Indices 1 2 3 4 5 6 
#
# 1 79.9347 -0.2598 6.1432 0.0000 0.0000 0.0000
# 2 -0.2598 120.7584 35.8281 0.0000 0.0000 0.0000
# 3 6.1432 35.8281 50.3618 0.0000 0.0000 0.0000
# 4 0.0000 0.0000 0.0000 54.6581 0.0000 0.0000
# 5 0.0000 0.0000 0.0000 0.0000 13.3653 0.0000
# 6 0.0000 0.0000 0.0000 0.0000 0.0000 8.4993
#
#
#
# Elastic Compliance Matrix: (Units=1/GPa)
#
#
# Indices 1 2 3 4 5 6 
#
# 1 0.012665 0.000616 -0.001983 0.000000 0.000000 0.000000
# 2 0.000616 0.010526 -0.007564 0.000000 0.000000 0.000000
# 3 -0.001983 -0.007564 0.025479 0.000000 0.000000 0.000000
# 4 0.000000 0.000000 0.000000 0.018296 0.000000 0.000000
# 5 0.000000 0.000000 0.000000 0.000000 0.074821 0.000000
# 6 0.000000 0.000000 0.000000 0.000000 0.000000 0.117657
#
#
# Mechanical properties :
#
#
# Convention : Reuss Voigt Hill
#
# Bulk Modulus (GPa) = 32.45886 37.16422 34.81154
# Shear Modulus (GPa) = 17.38682 29.26078 23.32380
#
# Velocity S-wave (km/s) = 2.59595 3.36767 3.00667
# Velocity P-wave (km/s) = 4.64392 5.43379 5.05431
#
# Compressibility (1/GPa) = 0.03080823
#
# Stress axis : x y z
#
# Youngs Moduli (GPa) = 78.96033 94.99914 39.24787
#
# Poissons Ratio (x) = -0.05847 0.07782
# Poissons Ratio (y) = -0.04860 0.29686
# Poissons Ratio (z) = 0.15656 0.71855
#
# Static dielectric constant tensor:
#      x y z
#    x 1.983840 0.000000 0.000000 
#    y 0.000000 2.000200 0.000000 
#    z 0.000000 0.000000 2.121270 
# 
# From -- ./inp_files/16539.got.cif
#   From: 2010.05.17/outbox.cif.g08.bks.cpg/sg36_9_cif.got.tgz:16539.got - 2010.06.03 17:41:39.
