data_PCOD9351782
_publ_section_title
;
Structure prediction by ZEFSAII (Michael W. Deem and Ramdas Pophale) SiO2 
 PCOD9351782
Probable space group: C M C 21
;
_chemical_formula_sum "Si O2"
_cell_formula_units_Z 48
_cell_length_a 7.709817
_cell_length_b 29.346934
_cell_length_c 8.225338
_cell_angle_alpha 90.000000
_cell_angle_beta 90.000000
_cell_angle_gamma 90.000000
_cell_volume 1861.060786
_symmetry_space_group_name_H-M "C M C 21"
_symmetry_group_IT_number 36
_symmetry_cell_setting 'orthorhombic'
loop_
_space_group_symop_operation_xyz
x,y,z
-x,-y,1/2+z
x,-y,1/2+z
-x,y,z
1/2+x,1/2+y,z
1/2-x,1/2-y,1/2+z
1/2+x,1/2-y,1/2+z
1/2-x,1/2+y,z
loop_
_atom_site_type_symbol
_atom_site_label
_atom_site_fract_x
_atom_site_fract_y
_atom_site_fract_z
Si Si1 0.296845 0.653935 0.377340
Si Si2 0.210359 0.765816 0.082950
Si Si3 0.795392 0.320068 0.408951
Si Si4 0.202960 0.095177 0.076817
Si Si5 0.287970 0.069347 0.564935
Si Si6 0.701751 0.988252 0.757426
O O1 0.500000 0.659932 0.343648
O O2 0.224452 0.702107 0.434691
O O3 0.220895 0.626619 0.224595
O O4 0.276990 0.619773 0.530837
O O5 0.263012 0.791867 0.245214
O O6 0.000000 0.765050 0.077791
O O7 0.272438 0.714483 0.049712
O O8 0.723029 0.370976 0.425146
O O9 0.000000 0.325469 0.426283
O O10 0.286680 0.045811 0.101439
O O11 0.000000 0.087343 0.103246
O O12 0.500000 0.071384 0.568281
O O13 0.225718 0.040453 0.406809
O O14 0.226355 0.037767 0.713057
O O15 0.500000 0.994700 0.793183
#
# Coordination Sequence:
#
# PCOD9351782 Si02
#       6
#     8   8   8   8   8   8
#     4   9  19  36  56  78 107 142 180 222 268 320
#     4  10  22  39  57  80 110 142 178 221 267 318
#     4  11  23  38  58  83 110 142 180 221 266 318
#     4  10  20  36  57  80 109 144 181 223 270 318
#     4   9  18  32  51  75 105 140 178 222 267 314
#     4   9  18  33  51  74 105 140 179 221 266 316
#
# _framework density 25.791743
#
# number of rings (size 3 to 8) (size 9 to 14) (size 15 to 20)
#    0.000    2.333    0.000    2.000    0.000    6.000 
#    0.000    1.667    0.000    0.000    0.000    0.000 
#    0.000    0.000    0.000    0.000    0.000    0.000 
#
# Total GULP energy -134153.110263 kJ/mol
# GULP energy per Si atom -5589.712928 kJ/mol
# Density = 2.573304 g / cm^3
# Si number density = 25.791743 Si / 1000 Ang^3
#
#
#
# Elastic Constant Matrix: (Units=GPa)
#
#
# Indices 1 2 3 4 5 6 
#
# 1 69.4757 -2.3703 -7.0325 0.0000 0.0000 0.0000
# 2 -2.3703 145.3511 3.1930 0.0000 0.0000 0.0000
# 3 -7.0325 3.1930 60.1243 0.0000 0.0000 0.0000
# 4 0.0000 0.0000 0.0000 47.3868 0.0000 0.0000
# 5 0.0000 0.0000 0.0000 0.0000 13.3260 0.0000
# 6 0.0000 0.0000 0.0000 0.0000 0.0000 17.8362
#
#
#
# Elastic Compliance Matrix: (Units=1/GPa)
#
#
# Indices 1 2 3 4 5 6 
#
# 1 0.014572 0.000200 0.001694 0.000000 0.000000 0.000000
# 2 0.000200 0.006891 -0.000342 0.000000 0.000000 0.000000
# 3 0.001694 -0.000342 0.016849 0.000000 0.000000 0.000000
# 4 0.000000 0.000000 0.000000 0.021103 0.000000 0.000000
# 5 0.000000 0.000000 0.000000 0.000000 0.075041 0.000000
# 6 0.000000 0.000000 0.000000 0.000000 0.000000 0.056066
#
#
# Mechanical properties :
#
#
# Convention : Reuss Voigt Hill
#
# Bulk Modulus (GPa) = 24.14620 29.17016 26.65818
# Shear Modulus (GPa) = 24.84815 34.45386 29.65100
#
# Velocity S-wave (km/s) = 3.10726 3.65889 3.39430
# Velocity P-wave (km/s) = 4.71760 5.40226 5.07150
#
# Compressibility (1/GPa) = 0.04141439
#
# Stress axis : x y z
#
# Youngs Moduli (GPa) = 68.62570 145.12341 59.35238
#
# Poissons Ratio (x) = -0.02909 -0.10053
# Poissons Ratio (y) = -0.01375 0.02033
# Poissons Ratio (z) = -0.11624 0.04970
#
# Static dielectric constant tensor:
#      x y z
#    x 1.924530 0.000000 0.000000 
#    y 0.000000 2.023200 0.000000 
#    z 0.000000 0.000000 2.176000 
# 
# From -- ./inp_files/2640.got.cif
#   From: 2010.05.17/outbox.cif.g08.bks.cpg/sg36_2_cif.got.tgz:2640.got - 2010.06.03 17:41:39.
