data_PCOD9351584
_publ_section_title
;
Structure prediction by ZEFSAII (Michael W. Deem and Ramdas Pophale) SiO2 
 PCOD9351584
Probable space group: C M C 21
;
_chemical_formula_sum "Si O2"
_cell_formula_units_Z 64
_cell_length_a 8.955499
_cell_length_b 20.502947
_cell_length_c 19.969904
_cell_angle_alpha 90.000000
_cell_angle_beta 90.000000
_cell_angle_gamma 90.000000
_cell_volume 3666.756377
_symmetry_space_group_name_H-M "C M C 21"
_symmetry_group_IT_number 36
_symmetry_cell_setting 'orthorhombic'
loop_
_space_group_symop_operation_xyz
x,y,z
-x,-y,1/2+z
x,-y,1/2+z
-x,y,z
1/2+x,1/2+y,z
1/2-x,1/2-y,1/2+z
1/2+x,1/2-y,1/2+z
1/2-x,1/2+y,z
loop_
_atom_site_type_symbol
_atom_site_label
_atom_site_fract_x
_atom_site_fract_y
_atom_site_fract_z
Si Si1 0.322301 0.670643 0.688220
Si Si2 0.678805 0.670797 0.530971
Si Si3 0.177097 0.042454 0.452229
Si Si4 0.179242 0.772426 0.789220
Si Si5 0.322009 0.727605 0.929744
Si Si6 0.823456 0.409801 0.420626
Si Si7 0.323195 0.578235 0.297439
Si Si8 0.176406 0.446127 0.264662
O O1 0.500000 0.675250 0.698726
O O2 0.291331 0.677383 0.609512
O O3 0.240577 0.725934 0.731414
O O4 0.264382 0.601393 0.715485
O O5 0.500000 0.678287 0.519539
O O6 0.718974 0.598605 0.504410
O O7 0.763903 0.723974 0.487011
O O8 0.202047 0.071199 0.377470
O O9 0.000000 0.028979 0.458336
O O10 0.266548 0.975247 0.456549
O O11 0.250772 0.750576 0.859421
O O12 0.215921 0.848381 0.776852
O O13 0.000000 0.766443 0.794591
O O14 0.500000 0.728996 0.925080
O O15 0.264342 0.654378 0.942328
O O16 0.796270 0.421383 0.341013
O O17 0.000000 0.400813 0.430050
O O18 0.500000 0.568087 0.286071
O O19 0.232769 0.520407 0.262618
O O20 0.000000 0.442168 0.252243
#
# Coordination Sequence:
#
# PCOD9351584 Si02
#       8
#     8   8   8   8   8   8   8   8
#     4  11  23  38  59  85 116 155 196 236 285 348
#     4  10  22  41  60  82 117 156 191 235 294 350
#     4   9  17  34  57  81 110 145 186 231 282 341
#     4  11  21  37  59  85 118 154 192 239 292 341
#     4  12  23  35  58  88 116 150 195 242 285 344
#     4  10  20  34  55  84 116 146 183 236 288 332
#     4   9  18  33  57  83 110 143 185 234 282 337
#     4  10  20  34  55  82 115 149 184 233 284 335
#
# _framework density 17.454118999999999
#
# number of rings (size 3 to 8) (size 9 to 14) (size 15 to 20)
#    0.000    1.750    2.500    2.625    0.000    3.500 
#    0.000    1.250    0.000    1.500    0.000    0.000 
#    0.000    0.000    0.000    0.000    0.000    0.000 
#
# Total GULP energy -178729.490211 kJ/mol
# GULP energy per Si atom -5585.296569 kJ/mol
# Density = 1.741439 g / cm^3
# Si number density = 17.454119 Si / 1000 Ang^3
#
#
#
# Elastic Constant Matrix: (Units=GPa)
#
#
# Indices 1 2 3 4 5 6 
#
# 1 85.1188 81.2237 66.4431 0.0000 0.0000 0.0000
# 2 81.2237 158.4596 72.0870 0.0000 0.0000 0.0000
# 3 66.4431 72.0870 85.6370 0.0000 0.0000 0.0000
# 4 0.0000 0.0000 0.0000 24.2859 0.0000 0.0000
# 5 0.0000 0.0000 0.0000 0.0000 22.7598 0.0000
# 6 0.0000 0.0000 0.0000 0.0000 0.0000 36.6776
#
#
#
# Elastic Compliance Matrix: (Units=1/GPa)
#
#
# Indices 1 2 3 4 5 6 
#
# 1 0.037003 -0.009572 -0.020652 0.000000 0.000000 0.000000
# 2 -0.009572 0.012703 -0.003267 0.000000 0.000000 0.000000
# 3 -0.020652 -0.003267 0.030450 0.000000 0.000000 0.000000
# 4 0.000000 0.000000 0.000000 0.041176 0.000000 0.000000
# 5 0.000000 0.000000 0.000000 0.000000 0.043937 0.000000
# 6 0.000000 0.000000 0.000000 0.000000 0.000000 0.027265
#
#
# Mechanical properties :
#
#
# Convention : Reuss Voigt Hill
#
# Bulk Modulus (GPa) = 75.90039 85.41366 80.65702
# Shear Modulus (GPa) = 18.94600 24.04213 21.49406
#
# Velocity S-wave (km/s) = 3.29823 3.71542 3.51302
# Velocity P-wave (km/s) = 7.62132 8.21268 7.92252
#
# Compressibility (1/GPa) = 0.01317516
#
# Stress axis : x y z
#
# Youngs Moduli (GPa) = 27.02465 78.71955 32.84042
#
# Poissons Ratio (x) = 0.75351 0.67822
# Poissons Ratio (y) = 0.25868 0.10728
# Poissons Ratio (z) = 0.55812 0.25715
#
# Static dielectric constant tensor:
#      x y z
#    x 1.579730 0.000000 0.000000 
#    y 0.000000 1.585600 0.000000 
#    z 0.000000 0.000000 1.568660 
# 
# From -- ./inp_files/15592.got.cif
#   From: 2010.05.17/outbox.cif.g08.bks.cpg/sg36_8_cif.got.tgz:15592.got - 2010.06.03 17:41:39.
