data_PCOD9351040
_publ_section_title
;
Structure prediction by ZEFSAII (Michael W. Deem and Ramdas Pophale) SiO2 
 PCOD9351040
Probable space group: C M C 21
;
_chemical_formula_sum "Si O2"
_cell_formula_units_Z 48
_cell_length_a 7.475171
_cell_length_b 29.397680
_cell_length_c 8.270991
_cell_angle_alpha 90.000000
_cell_angle_beta 90.000000
_cell_angle_gamma 90.000000
_cell_volume 1817.572480
_symmetry_space_group_name_H-M "C M C 21"
_symmetry_group_IT_number 36
_symmetry_cell_setting 'orthorhombic'
loop_
_space_group_symop_operation_xyz
x,y,z
-x,-y,1/2+z
x,-y,1/2+z
-x,y,z
1/2+x,1/2+y,z
1/2-x,1/2-y,1/2+z
1/2+x,1/2-y,1/2+z
1/2-x,1/2+y,z
loop_
_atom_site_type_symbol
_atom_site_label
_atom_site_fract_x
_atom_site_fract_y
_atom_site_fract_z
Si Si1 0.782222 0.983363 0.502760
Si Si2 0.798764 0.344421 0.016706
Si Si3 0.217506 0.101466 0.194007
Si Si4 0.286639 0.432412 0.185062
Si Si5 0.719778 0.765279 0.801048
Si Si6 0.205461 0.819465 0.475917
O O1 0.739984 0.950341 0.653613
O O2 0.716744 0.956241 0.346671
O O3 0.000000 0.984745 0.489308
O O4 0.721929 0.034267 0.541286
O O5 0.741449 0.379092 0.156308
O O6 0.713340 0.298199 0.947490
O O7 0.000000 0.332336 0.052596
O O8 0.788866 0.376624 0.856954
O O9 0.280656 0.133523 0.045023
O O10 0.000000 0.104783 0.203182
O O11 0.500000 0.436985 0.188553
O O12 0.500000 0.766372 0.796854
O O13 0.778287 0.713761 0.837537
O O14 0.788301 0.787393 0.636409
O O15 0.000000 0.828809 0.432726
#
# Coordination Sequence:
#
# PCOD9351040 Si02
#       6
#     8   8   8   8   8   8
#     4   9  18  32  53  78 100 124 159 207 254 291
#     4  10  20  34  50  71 102 136 166 199 243 291
#     4   9  17  33  55  76  98 126 164 207 248 291
#     4  10  19  33  53  75  98 127 164 203 246 294
#     4   9  19  34  50  72 103 133 162 202 248 290
#     4   9  18  32  51  74  99 130 167 204 243 291
#
# _framework density 26.408847999999999
#
# number of rings (size 3 to 8) (size 9 to 14) (size 15 to 20)
#    0.000    2.667    0.000    1.500    0.000    5.333 
#    0.000    5.833    0.000    0.000    0.000    0.000 
#    0.000    0.000    0.000    0.000    0.000    0.000 
#
# Total GULP energy -134122.755491 kJ/mol
# GULP energy per Si atom -5588.448145 kJ/mol
# Density = 2.634874 g / cm^3
# Si number density = 26.408848 Si / 1000 Ang^3
#
#
#
# Elastic Constant Matrix: (Units=GPa)
#
#
# Indices 1 2 3 4 5 6 
#
# 1 83.0906 6.2469 5.6223 0.0000 0.0000 0.0000
# 2 6.2469 152.0420 10.3295 0.0000 0.0000 0.0000
# 3 5.6223 10.3295 72.0324 0.0000 0.0000 0.0000
# 4 0.0000 0.0000 0.0000 47.5231 0.0000 0.0000
# 5 0.0000 0.0000 0.0000 0.0000 -14.5745 0.0000
# 6 0.0000 0.0000 0.0000 0.0000 0.0000 12.2723
#
#
#
# Elastic Compliance Matrix: (Units=1/GPa)
#
#
# Indices 1 2 3 4 5 6 
#
# 1 0.012128 -0.000438 -0.000884 0.000000 0.000000 0.000000
# 2 -0.000438 0.006658 -0.000921 0.000000 0.000000 0.000000
# 3 -0.000884 -0.000921 0.014084 0.000000 0.000000 0.000000
# 4 0.000000 0.000000 0.000000 0.021042 0.000000 0.000000
# 5 0.000000 0.000000 0.000000 0.000000 -0.068613 0.000000
# 6 0.000000 0.000000 0.000000 0.000000 0.000000 0.081485
#
#
# Mechanical properties :
#
#
# Convention : Reuss Voigt Hill
#
# Bulk Modulus (GPa) = 35.23102 39.06248 37.14675
# Shear Modulus (GPa) = 61.93536 28.04192 44.98864
#
# Velocity S-wave (km/s) = 4.84803 3.26212 4.13188
# Velocity P-wave (km/s) = 6.68636 5.38629 6.07123
#
# Compressibility (1/GPa) = 0.02838408
#
# Stress axis : x y z
#
# Youngs Moduli (GPa) = 82.45513 150.20257 71.00442
#
# Poissons Ratio (x) = 0.06583 0.06275
# Poissons Ratio (y) = 0.03614 0.06536
# Poissons Ratio (z) = 0.07287 0.13826
#
# Static dielectric constant tensor:
#      x y z
#    x 2.009330 0.000000 0.000000 
#    y 0.000000 2.036290 0.000000 
#    z 0.000000 0.000000 2.147250 
# 
# From -- ./inp_files/2637.got.cif
#   From: 2010.05.17/outbox.cif.g08.bks.cpg/sg36_2_cif.got.tgz:2637.got - 2010.06.03 17:41:39.
