data_PCOD9351024
_publ_section_title
;
Structure prediction by ZEFSAII (Michael W. Deem and Ramdas Pophale) SiO2 
 PCOD9351024
Probable space group: C M C 21
;
_chemical_formula_sum "Si O2"
_cell_formula_units_Z 64
_cell_length_a 8.184217
_cell_length_b 14.667229
_cell_length_c 29.321600
_cell_angle_alpha 90.000000
_cell_angle_beta 90.000000
_cell_angle_gamma 90.000000
_cell_volume 3519.758558
_symmetry_space_group_name_H-M "C M C 21"
_symmetry_group_IT_number 36
_symmetry_cell_setting 'orthorhombic'
loop_
_space_group_symop_operation_xyz
x,y,z
-x,-y,1/2+z
x,-y,1/2+z
-x,y,z
1/2+x,1/2+y,z
1/2-x,1/2-y,1/2+z
1/2+x,1/2-y,1/2+z
1/2-x,1/2+y,z
loop_
_atom_site_type_symbol
_atom_site_label
_atom_site_fract_x
_atom_site_fract_y
_atom_site_fract_z
Si Si1 0.196659 0.397988 0.005040
Si Si2 0.805461 0.107006 0.754297
Si Si3 0.199880 0.747931 0.578631
Si Si4 0.196670 0.106001 0.004724
Si Si5 0.699697 0.399551 0.755556
Si Si6 0.802447 0.747773 0.431209
Si Si7 0.305151 0.750363 0.327210
Si Si8 0.196183 0.245927 0.182132
O O1 0.251272 0.340636 0.049490
O O2 0.249611 0.502057 0.004846
O O3 0.000000 0.395483 0.005024
O O4 0.251168 0.340219 0.960725
O O5 0.764319 0.162933 0.800032
O O6 0.737242 0.165637 0.712197
O O7 0.000000 0.103984 0.749375
O O8 0.742769 0.003431 0.755780
O O9 0.250171 0.836132 0.549072
O O10 0.258860 0.749472 0.630526
O O11 0.000000 0.747441 0.579437
O O12 0.000000 0.107933 0.004636
O O13 0.250972 0.163730 0.960399
O O14 0.500000 0.401312 0.755464
O O15 0.750318 0.339763 0.799409
O O16 0.753284 0.341595 0.711333
O O17 0.741880 0.747809 0.379807
O O18 0.000000 0.747828 0.430376
O O19 0.500000 0.754670 0.323051
O O20 0.000000 0.239355 0.179787
#
# Coordination Sequence:
#
# PCOD9351024 Si02
#       8
#     8   8   8   8   8   8   8   8
#     4   9  18  33  51  73 101 131 164 203 246 288
#     4  10  19  33  51  73 101 129 159 200 248 290
#     4   8  16  32  52  71  98 135 166 198 245 294
#     4   9  18  33  52  73  98 132 169 200 239 293
#     4   8  17  32  49  69  95 126 158 195 239 290
#     4   9  19  35  51  70 100 133 162 198 248 296
#     4  10  20  35  53  73  96 127 167 203 240 291
#     4   9  17  33  53  72  97 131 169 203 239 288
#
# _framework density 18.183066
#
# number of rings (size 3 to 8) (size 9 to 14) (size 15 to 20)
#    0.000    3.000    0.000    3.000    0.000    3.000 
#    0.000   14.375    0.000    0.000    0.000    0.000 
#    0.000    0.000    0.000    0.000    0.000    0.000 
#
# Total GULP energy -178374.851409 kJ/mol
# GULP energy per Si atom -5574.214107 kJ/mol
# Density = 1.814168 g / cm^3
# Si number density = 18.183066 Si / 1000 Ang^3
#
#
#
# Elastic Constant Matrix: (Units=GPa)
#
#
# Indices 1 2 3 4 5 6 
#
# 1 1.9628 2.4908 1.2941 0.0000 0.0000 0.0000
# 2 2.4908 190.8203 93.3406 0.0000 0.0000 0.0000
# 3 1.2941 93.3406 176.5592 0.0000 0.0000 0.0000
# 4 0.0000 0.0000 0.0000 6.8185 0.0000 0.0000
# 5 0.0000 0.0000 0.0000 0.0000 22.0939 0.0000
# 6 0.0000 0.0000 0.0000 0.0000 0.0000 28.0468
#
#
#
# Elastic Compliance Matrix: (Units=1/GPa)
#
#
# Indices 1 2 3 4 5 6 
#
# 1 0.518074 -0.006616 -0.000300 0.000000 0.000000 0.000000
# 2 -0.006616 0.007153 -0.003733 0.000000 0.000000 0.000000
# 3 -0.000300 -0.003733 0.007640 0.000000 0.000000 0.000000
# 4 0.000000 0.000000 0.000000 0.146659 0.000000 0.000000
# 5 0.000000 0.000000 0.000000 0.000000 0.045261 0.000000
# 6 0.000000 0.000000 0.000000 0.000000 0.000000 0.035655
#
#
# Mechanical properties :
#
#
# Convention : Reuss Voigt Hill
#
# Bulk Modulus (GPa) = 1.95477 62.62147 32.28812
# Shear Modulus (GPa) = 5.25065 29.53962 17.39513
#
# Velocity S-wave (km/s) = 1.70116 4.03496 3.09636
# Velocity P-wave (km/s) = 2.22170 7.49814 5.52983
#
# Compressibility (1/GPa) = 0.51156975
#
# Stress axis : x y z
#
# Youngs Moduli (GPa) = 1.93022 139.80333 130.89816
#
# Poissons Ratio (x) = 0.92492 0.03923
# Poissons Ratio (y) = 0.01277 0.48864
# Poissons Ratio (z) = 0.00058 0.52189
#
# Static dielectric constant tensor:
#      x y z
#    x 1.646720 0.000000 0.000000 
#    y 0.000000 1.612420 0.000000 
#    z 0.000000 0.000000 1.612820 
# 
# From -- ./inp_files/17342.got.cif
#   From: 2010.05.17/outbox.cif.g08.bks.cpg/sg36_9_cif.got.tgz:17342.got - 2010.06.03 17:41:39.
