data_PCOD9351043
_publ_section_title
;
Structure prediction by ZEFSAII (Michael W. Deem and Ramdas Pophale) SiO2 
 PCOD9351043
Probable space group: C M C 21
;
_chemical_formula_sum "Si O2"
_cell_formula_units_Z 64
_cell_length_a 28.855874
_cell_length_b 7.882096
_cell_length_c 13.888152
_cell_angle_alpha 90.000000
_cell_angle_beta 90.000000
_cell_angle_gamma 90.000000
_cell_volume 3158.787524
_symmetry_space_group_name_H-M "C M C 21"
_symmetry_group_IT_number 36
_symmetry_cell_setting 'orthorhombic'
loop_
_space_group_symop_operation_xyz
x,y,z
-x,-y,1/2+z
x,-y,1/2+z
-x,y,z
1/2+x,1/2+y,z
1/2-x,1/2-y,1/2+z
1/2+x,1/2-y,1/2+z
1/2-x,1/2+y,z
loop_
_atom_site_type_symbol
_atom_site_label
_atom_site_fract_x
_atom_site_fract_y
_atom_site_fract_z
Si Si1 0.129538 0.942430 0.488520
Si Si2 0.620142 0.172742 0.056151
Si Si3 0.878033 0.940555 0.782756
Si Si4 0.447656 0.340893 0.633173
Si Si5 0.448057 0.953274 0.708070
Si Si6 0.699490 0.360973 0.639579
Si Si7 0.129874 0.455400 0.350194
Si Si8 0.802744 0.531493 0.193318
O O1 0.121788 0.138280 0.516816
O O2 0.125402 0.937162 0.373835
O O3 0.088823 0.845937 0.545551
O O4 0.179639 0.894403 0.532670
O O5 0.573981 0.144013 0.117818
O O6 0.662015 0.138774 0.128972
O O7 0.625867 0.047105 0.964929
O O8 0.924471 0.951032 0.719053
O O9 0.835429 0.961715 0.709834
O O10 0.873900 0.744169 0.818920
O O11 0.500000 0.393585 0.608583
O O12 0.449196 0.149474 0.673246
O O13 0.500000 0.899089 0.731912
O O14 0.412753 0.951490 0.797504
O O15 0.751140 0.409251 0.669817
O O16 0.693273 0.162373 0.658785
O O17 0.177107 0.527757 0.302375
#
# Coordination Sequence:
#
# PCOD9351043 Si02
#       8
#     8   8   8   8   8   8   8   8
#     4  10  19  33  53  77 102 129 166 209 250 292
#     4  10  19  33  53  77 102 129 166 209 250 292
#     4   8  17  33  52  73  99 132 168 205 246 294
#     4   9  18  34  53  73 101 136 169 203 248 298
#     4   9  18  34  53  73 101 136 169 203 248 298
#     4  10  20  36  54  74 101 132 166 203 248 298
#     4   8  17  33  52  73  99 132 168 205 246 294
#     4  10  20  36  54  74 101 132 166 203 248 298
#
# _framework density 20.260939
#
# number of rings (size 3 to 8) (size 9 to 14) (size 15 to 20)
#    0.000    2.750    0.000    3.000    0.000    2.500 
#    0.000   17.500    0.000    0.000    0.000    0.000 
#    0.000    0.000    0.000    0.000    0.000    0.000 
#
# Total GULP energy -178534.898593 kJ/mol
# GULP energy per Si atom -5579.215581 kJ/mol
# Density = 2.021482 g / cm^3
# Si number density = 20.260939 Si / 1000 Ang^3
#
#
#
# Elastic Constant Matrix: (Units=GPa)
#
#
# Indices 1 2 3 4 5 6 
#
# 1 112.7767 12.4680 -5.8724 0.0000 0.0000 0.0000
# 2 12.4680 33.3205 13.8399 0.0000 0.0000 0.0000
# 3 -5.8724 13.8399 34.0447 0.0000 0.0000 0.0000
# 4 0.0000 0.0000 0.0000 24.3545 0.0000 0.0000
# 5 0.0000 0.0000 0.0000 0.0000 11.6324 0.0000
# 6 0.0000 0.0000 0.0000 0.0000 0.0000 11.4963
#
#
#
# Elastic Compliance Matrix: (Units=1/GPa)
#
#
# Indices 1 2 3 4 5 6 
#
# 1 0.009634 -0.005168 0.003763 0.000000 0.000000 0.000000
# 2 -0.005168 0.038881 -0.016697 0.000000 0.000000 0.000000
# 3 0.003763 -0.016697 0.036810 0.000000 0.000000 0.000000
# 4 0.000000 0.000000 0.000000 0.041060 0.000000 0.000000
# 5 0.000000 0.000000 0.000000 0.000000 0.085967 0.000000
# 6 0.000000 0.000000 0.000000 0.000000 0.000000 0.086985
#
#
# Mechanical properties :
#
#
# Convention : Reuss Voigt Hill
#
# Bulk Modulus (GPa) = 20.35824 24.55697 22.45761
# Shear Modulus (GPa) = 14.20798 20.14371 17.17585
#
# Velocity S-wave (km/s) = 2.65098 3.15654 2.91474
# Velocity P-wave (km/s) = 4.40910 5.04298 4.73665
#
# Compressibility (1/GPa) = 0.04912016
#
# Stress axis : x y z
#
# Youngs Moduli (GPa) = 103.79535 25.71982 27.16658
#
# Poissons Ratio (x) = 0.13292 -0.10222
# Poissons Ratio (y) = 0.53640 0.45360
# Poissons Ratio (z) = -0.39055 0.42945
#
# Static dielectric constant tensor:
#      x y z
#    x 1.730690 0.000000 0.000000 
#    y 0.000000 1.759140 0.000000 
#    z 0.000000 0.000000 1.735160 
# 
# From -- ./inp_files/13218.got.cif
#   From: 2010.05.17/outbox.cif.g08.bks.cpg/sg36_7_cif.got.tgz:13218.got - 2010.06.03 17:41:39.
