data_PCOD9351835
_publ_section_title
;
Structure prediction by ZEFSAII (Michael W. Deem and Ramdas Pophale) SiO2 
 PCOD9351835
Probable space group: C M C 21
;
_chemical_formula_sum "Si O2"
_cell_formula_units_Z 48
_cell_length_a 12.764492
_cell_length_b 21.855493
_cell_length_c 9.295630
_cell_angle_alpha 90.000000
_cell_angle_beta 90.000000
_cell_angle_gamma 90.000000
_cell_volume 2593.241552
_symmetry_space_group_name_H-M "C M C 21"
_symmetry_group_IT_number 36
_symmetry_cell_setting 'orthorhombic'
loop_
_space_group_symop_operation_xyz
x,y,z
-x,-y,1/2+z
x,-y,1/2+z
-x,y,z
1/2+x,1/2+y,z
1/2-x,1/2-y,1/2+z
1/2+x,1/2-y,1/2+z
1/2-x,1/2+y,z
loop_
_atom_site_type_symbol
_atom_site_label
_atom_site_fract_x
_atom_site_fract_y
_atom_site_fract_z
Si Si1 0.621916 0.611190 0.030840
Si Si2 0.376871 0.924925 0.219662
Si Si3 0.248720 0.192920 0.811105
Si Si4 0.229672 0.498492 0.961895
Si Si5 0.623387 0.274514 0.036066
Si Si6 0.119286 0.895351 0.854018
O O1 0.500000 0.599019 0.002262
O O2 0.631999 0.633593 0.195508
O O3 0.666503 0.658752 0.915785
O O4 0.689198 0.549328 0.019076
O O5 0.500000 0.915957 0.203147
O O6 0.318266 0.860318 0.238249
O O7 0.350259 0.965297 0.360150
O O8 0.329054 0.962596 0.087333
O O9 0.186261 0.228425 0.686044
O O10 0.322007 0.233293 0.914300
O O11 0.297653 0.448715 0.875840
O O12 0.500000 0.259322 0.052884
O O13 0.629791 0.343947 0.975921
O O14 0.000000 0.919904 0.860426
#
# Coordination Sequence:
#
# PCOD9351835 Si02
#       6
#     8   8   8   8   8   8
#     4  10  21  37  61  91 122 157 199 247 307 365
#     4  11  23  39  61  87 121 164 204 248 301 363
#     4  11  23  41  65  88 129 158 210 253 311 361
#     4  11  20  38  59  87 122 157 199 247 300 366
#     4  11  23  41  65  91 122 164 211 259 309 364
#     4  10  20  36  59  88 120 156 199 250 308 359
#
# _framework density 18.509651999999999
#
# number of rings (size 3 to 8) (size 9 to 14) (size 15 to 20)
#    0.000    1.333    3.333    3.000    0.000    0.000 
#    0.000    2.500    0.000    0.000    0.000    0.000 
#    0.000    0.000    0.000    0.000    0.000    0.000 
#
# Total GULP energy -134040.561246 kJ/mol
# GULP energy per Si atom -5585.023385 kJ/mol
# Density = 1.846752 g / cm^3
# Si number density = 18.509652 Si / 1000 Ang^3
#
#
#
# Elastic Constant Matrix: (Units=GPa)
#
#
# Indices 1 2 3 4 5 6 
#
# 1 133.3490 36.3558 66.5300 0.0000 0.0000 0.0000
# 2 36.3558 47.2098 32.9043 0.0000 0.0000 0.0000
# 3 66.5300 32.9043 105.4760 0.0000 0.0000 0.0000
# 4 0.0000 0.0000 0.0000 37.4540 0.0000 0.0000
# 5 0.0000 0.0000 0.0000 0.0000 19.4667 0.0000
# 6 0.0000 0.0000 0.0000 0.0000 0.0000 16.3789
#
#
#
# Elastic Compliance Matrix: (Units=1/GPa)
#
#
# Indices 1 2 3 4 5 6 
#
# 1 0.011793 -0.004980 -0.005885 0.000000 0.000000 0.000000
# 2 -0.004980 0.029170 -0.005959 0.000000 0.000000 0.000000
# 3 -0.005885 -0.005959 0.015052 0.000000 0.000000 0.000000
# 4 0.000000 0.000000 0.000000 0.026699 0.000000 0.000000
# 5 0.000000 0.000000 0.000000 0.000000 0.051370 0.000000
# 6 0.000000 0.000000 0.000000 0.000000 0.000000 0.061054
#
#
# Mechanical properties :
#
#
# Convention : Reuss Voigt Hill
#
# Bulk Modulus (GPa) = 44.70774 61.95719 53.33247
# Shear Modulus (GPa) = 21.16477 24.67621 22.92049
#
# Velocity S-wave (km/s) = 3.38515 3.65520 3.52277
# Velocity P-wave (km/s) = 6.28373 7.16656 6.73961
#
# Compressibility (1/GPa) = 0.02236749
#
# Stress axis : x y z
#
# Youngs Moduli (GPa) = 84.79652 34.28159 66.43753
#
# Poissons Ratio (x) = 0.17072 0.39098
# Poissons Ratio (y) = 0.42228 0.39589
# Poissons Ratio (z) = 0.49902 0.20428
#
# Static dielectric constant tensor:
#      x y z
#    x 1.605790 0.000000 0.000000 
#    y 0.000000 1.614820 0.000000 
#    z 0.000000 0.000000 1.644410 
# 
# From -- ./inp_files/3297.got.cif
#   From: 2010.05.17/outbox.cif.g08.bks.cpg/sg36_2_cif.got.tgz:3297.got - 2010.06.03 17:41:39.
