data_PCOD9351821
_publ_section_title
;
Structure prediction by ZEFSAII (Michael W. Deem and Ramdas Pophale) SiO2 
 PCOD9351821
Probable space group: C M C 21
;
_chemical_formula_sum "Si O2"
_cell_formula_units_Z 64
_cell_length_a 7.477429
_cell_length_b 19.846073
_cell_length_c 16.837375
_cell_angle_alpha 90.000000
_cell_angle_beta 90.000000
_cell_angle_gamma 90.000000
_cell_volume 2498.626070
_symmetry_space_group_name_H-M "C M C 21"
_symmetry_group_IT_number 36
_symmetry_cell_setting 'orthorhombic'
loop_
_space_group_symop_operation_xyz
x,y,z
-x,-y,1/2+z
x,-y,1/2+z
-x,y,z
1/2+x,1/2+y,z
1/2-x,1/2-y,1/2+z
1/2+x,1/2-y,1/2+z
1/2-x,1/2+y,z
loop_
_atom_site_type_symbol
_atom_site_label
_atom_site_fract_x
_atom_site_fract_y
_atom_site_fract_z
Si Si1 0.714994 0.198104 0.694950
Si Si2 0.715617 0.910057 0.470007
Si Si3 0.710516 0.165427 0.127565
Si Si4 0.218399 0.291007 0.369800
Si Si5 0.791680 0.838050 0.950756
Si Si6 0.218507 0.411185 0.785695
Si Si7 0.797663 0.547146 0.717052
Si Si8 0.709351 0.458077 0.048149
O O1 0.500000 0.195264 0.691037
O O2 0.769622 0.253692 0.631168
O O3 0.773187 0.226400 0.780985
O O4 0.781564 0.120985 0.699124
O O5 0.500000 0.910093 0.469148
O O6 0.781138 0.869763 0.548246
O O7 0.773340 0.865808 0.395020
O O8 0.772181 0.986575 0.479558
O O9 0.500000 0.151966 0.127090
O O10 0.780730 0.131838 0.208882
O O11 0.283965 0.235204 0.431611
O O12 0.000000 0.288630 0.370976
O O13 0.781342 0.877882 0.867109
O O14 0.000000 0.829467 0.971612
O O15 0.713758 0.887194 0.017365
O O16 0.279072 0.488549 0.771997
O O17 0.000000 0.411477 0.787100
O O18 0.801920 0.516410 0.627999
O O19 0.000000 0.559305 0.746380
O O20 0.500000 0.451715 0.065558
#
# Coordination Sequence:
#
# PCOD9351821 Si02
#       8
#     8   8   8   8   8   8   8   8
#     4  10  21  37  60  87 114 149 192 238 285 340
#     4  10  21  39  63  83 111 154 194 236 286 344
#     4  10  20  36  59  85 111 147 190 233 286 343
#     4   9  19  37  60  83 109 149 192 228 280 344
#     4  10  22  39  58  83 116 152 192 235 288 349
#     4  10  20  37  60  85 110 147 195 237 280 339
#     4  10  22  40  60  86 117 151 197 239 281 346
#     4  11  24  39  58  86 118 153 192 238 290 341
#
# _framework density 25.614077000000002
#
# number of rings (size 3 to 8) (size 9 to 14) (size 15 to 20)
#    0.000    2.000    2.500    0.375    3.500    2.500 
#    0.000    1.250    0.000    0.000    0.000    0.000 
#    0.000    0.000    0.000    0.000    0.000    0.000 
#
# Total GULP energy -178955.783913 kJ/mol
# GULP energy per Si atom -5592.368247 kJ/mol
# Density = 2.555578 g / cm^3
# Si number density = 25.614077 Si / 1000 Ang^3
#
#
#
# Elastic Constant Matrix: (Units=GPa)
#
#
# Indices 1 2 3 4 5 6 
#
# 1 81.4998 -2.6533 -4.3736 0.0000 0.0000 0.0000
# 2 -2.6533 126.2797 -7.5163 0.0000 0.0000 0.0000
# 3 -4.3736 -7.5163 49.1647 0.0000 0.0000 0.0000
# 4 0.0000 0.0000 0.0000 50.1188 0.0000 0.0000
# 5 0.0000 0.0000 0.0000 0.0000 9.2311 0.0000
# 6 0.0000 0.0000 0.0000 0.0000 0.0000 17.7849
#
#
#
# Elastic Compliance Matrix: (Units=1/GPa)
#
#
# Indices 1 2 3 4 5 6 
#
# 1 0.012342 0.000328 0.001148 0.000000 0.000000 0.000000
# 2 0.000328 0.008000 0.001252 0.000000 0.000000 0.000000
# 3 0.001148 0.001252 0.020633 0.000000 0.000000 0.000000
# 4 0.000000 0.000000 0.000000 0.019953 0.000000 0.000000
# 5 0.000000 0.000000 0.000000 0.000000 0.108329 0.000000
# 6 0.000000 0.000000 0.000000 0.000000 0.000000 0.056228
#
#
# Mechanical properties :
#
#
# Convention : Reuss Voigt Hill
#
# Bulk Modulus (GPa) = 21.53694 25.31752 23.42723
# Shear Modulus (GPa) = 21.23083 33.52614 27.37848
#
# Velocity S-wave (km/s) = 2.88214 3.62179 3.27293
# Velocity P-wave (km/s) = 4.41612 5.23407 4.84240
#
# Compressibility (1/GPa) = 0.04643185
#
# Stress axis : x y z
#
# Youngs Moduli (GPa) = 81.02258 124.99457 48.46522
#
# Poissons Ratio (x) = -0.04096 -0.05564
# Poissons Ratio (y) = -0.02655 -0.06069
# Poissons Ratio (z) = -0.09302 -0.15652
#
# Static dielectric constant tensor:
#      x y z
#    x 1.982010 0.000000 0.000000 
#    y 0.000000 2.034780 0.000000 
#    z 0.000000 0.000000 2.019620 
# 
# From -- ./inp_files/13765.got.cif
#   From: 2010.05.17/outbox.cif.g08.bks.cpg/sg36_7_cif.got.tgz:13765.got - 2010.06.03 17:41:39.
