data_PCOD9351112
_publ_section_title
;
Structure prediction by ZEFSAII (Michael W. Deem and Ramdas Pophale) SiO2 
 PCOD9351112
Probable space group: C M C 21
;
_chemical_formula_sum "Si O2"
_cell_formula_units_Z 48
_cell_length_a 7.618612
_cell_length_b 20.536967
_cell_length_c 14.550927
_cell_angle_alpha 90.000000
_cell_angle_beta 90.000000
_cell_angle_gamma 90.000000
_cell_volume 2276.684357
_symmetry_space_group_name_H-M "C M C 21"
_symmetry_group_IT_number 36
_symmetry_cell_setting 'orthorhombic'
loop_
_space_group_symop_operation_xyz
x,y,z
-x,-y,1/2+z
x,-y,1/2+z
-x,y,z
1/2+x,1/2+y,z
1/2-x,1/2-y,1/2+z
1/2+x,1/2-y,1/2+z
1/2-x,1/2+y,z
loop_
_atom_site_type_symbol
_atom_site_label
_atom_site_fract_x
_atom_site_fract_y
_atom_site_fract_z
Si Si1 0.213305 0.576188 0.084280
Si Si2 0.214199 0.450414 0.971904
Si Si3 0.708001 0.017903 0.275039
Si Si4 0.296101 0.701894 0.974670
Si Si5 0.212928 0.674234 0.587061
Si Si6 0.293459 0.365388 0.289949
O O1 0.277178 0.550782 0.182777
O O2 0.000000 0.580453 0.084923
O O3 0.263759 0.519895 0.013069
O O4 0.284717 0.644003 0.048449
O O5 0.278000 0.449346 0.867601
O O6 0.000000 0.448207 0.971449
O O7 0.271881 0.392215 0.037461
O O8 0.500000 0.029895 0.273547
O O9 0.726761 0.939585 0.278989
O O10 0.500000 0.717549 0.954859
O O11 0.219780 0.673284 0.878918
O O12 0.221856 0.765603 0.025217
O O13 0.265596 0.671959 0.693818
O O14 0.000000 0.675418 0.587096
O O15 0.500000 0.372434 0.305988
#
# Coordination Sequence:
#
# PCOD9351112 Si02
#       6
#     8   8   8   8   8   8
#     4  10  19  33  58  86 109 143 192 235 269 324
#     4   9  17  32  57  84 106 140 191 235 267 315
#     4  10  19  34  58  86 112 148 192 232 276 327
#     4  10  23  39  57  83 118 152 180 227 290 338
#     4  10  21  40  60  80 112 153 192 227 273 339
#     4  11  22  36  56  85 115 146 183 232 289 335
#
# _framework density 21.083290999999999
#
# number of rings (size 3 to 8) (size 9 to 14) (size 15 to 20)
#    0.000    2.000    3.333    0.500    0.000    3.333 
#    0.000    4.167    0.000    0.000    0.000    0.000 
#    0.000    0.000    0.000    0.000    0.000    0.000 
#
# Total GULP energy -133978.589154 kJ/mol
# GULP energy per Si atom -5582.441215 kJ/mol
# Density = 2.103530 g / cm^3
# Si number density = 21.083291 Si / 1000 Ang^3
#
#
#
# Elastic Constant Matrix: (Units=GPa)
#
#
# Indices 1 2 3 4 5 6 
#
# 1 37.6583 -16.1978 -8.1211 0.0000 0.0000 0.0000
# 2 -16.1978 66.7755 -2.1693 0.0000 0.0000 0.0000
# 3 -8.1211 -2.1693 114.3818 0.0000 0.0000 0.0000
# 4 0.0000 0.0000 0.0000 33.6767 0.0000 0.0000
# 5 0.0000 0.0000 0.0000 0.0000 7.9894 0.0000
# 6 0.0000 0.0000 0.0000 0.0000 0.0000 14.4362
#
#
#
# Elastic Compliance Matrix: (Units=1/GPa)
#
#
# Indices 1 2 3 4 5 6 
#
# 1 0.030234 0.007408 0.002287 0.000000 0.000000 0.000000
# 2 0.007408 0.016800 0.000845 0.000000 0.000000 0.000000
# 3 0.002287 0.000845 0.008921 0.000000 0.000000 0.000000
# 4 0.000000 0.000000 0.000000 0.029694 0.000000 0.000000
# 5 0.000000 0.000000 0.000000 0.000000 0.125166 0.000000
# 6 0.000000 0.000000 0.000000 0.000000 0.000000 0.069270
#
#
# Mechanical properties :
#
#
# Convention : Reuss Voigt Hill
#
# Bulk Modulus (GPa) = 12.98105 18.42658 15.70381
# Shear Modulus (GPa) = 17.56328 27.57403 22.56866
#
# Velocity S-wave (km/s) = 2.88938 3.62036 3.27533
# Velocity P-wave (km/s) = 4.15954 5.12200 4.66565
#
# Compressibility (1/GPa) = 0.07703539
#
# Stress axis : x y z
#
# Youngs Moduli (GPa) = 33.07503 59.52373 112.09437
#
# Poissons Ratio (x) = -0.44097 -0.25637
# Poissons Ratio (y) = -0.24503 -0.09468
# Poissons Ratio (z) = -0.07565 -0.05027
#
# Static dielectric constant tensor:
#      x y z
#    x 1.804490 0.000000 0.000000 
#    y 0.000000 1.710390 0.000000 
#    z 0.000000 0.000000 1.780250 
# 
# From -- ./inp_files/10339.got.cif
#   From: 2010.05.17/outbox.cif.g08.bks.cpg/sg36_6_cif.got.tgz:10339.got - 2010.06.03 17:41:39.
