data_PCOD9351131
_publ_section_title
;
Structure prediction by ZEFSAII (Michael W. Deem and Ramdas Pophale) SiO2 
 PCOD9351131
Probable space group: C M C 21
;
_chemical_formula_sum "Si O2"
_cell_formula_units_Z 48
_cell_length_a 7.608637
_cell_length_b 15.507109
_cell_length_c 19.358894
_cell_angle_alpha 90.000000
_cell_angle_beta 90.000000
_cell_angle_gamma 90.000000
_cell_volume 2284.116475
_symmetry_space_group_name_H-M "C M C 21"
_symmetry_group_IT_number 36
_symmetry_cell_setting 'orthorhombic'
loop_
_space_group_symop_operation_xyz
x,y,z
-x,-y,1/2+z
x,-y,1/2+z
-x,y,z
1/2+x,1/2+y,z
1/2-x,1/2-y,1/2+z
1/2+x,1/2-y,1/2+z
1/2-x,1/2+y,z
loop_
_atom_site_type_symbol
_atom_site_label
_atom_site_fract_x
_atom_site_fract_y
_atom_site_fract_z
Si Si1 0.284149 0.516923 0.829990
Si Si2 0.284690 0.344987 0.572137
Si Si3 0.297661 0.488608 0.676594
Si Si4 0.212714 0.178800 0.915644
Si Si5 0.201551 0.652463 0.594328
Si Si6 0.794893 0.126894 0.438369
O O1 0.500000 0.517145 0.828880
O O2 0.220531 0.496126 0.753066
O O3 0.229940 0.610432 0.858404
O O4 0.229192 0.444163 0.884775
O O5 0.500000 0.345673 0.571181
O O6 0.220400 0.419472 0.622963
O O7 0.231972 0.353916 0.492032
O O8 0.228436 0.250020 0.596999
O O9 0.500000 0.461506 0.686342
O O10 0.294979 0.581237 0.639938
O O11 0.276310 0.276693 0.908274
O O12 0.000000 0.181966 0.915362
O O13 0.207493 0.626774 0.513527
O O14 0.000000 0.654041 0.617363
O O15 0.000000 0.108675 0.451179
#
# Coordination Sequence:
#
# PCOD9351131 Si02
#       6
#     8   8   8   8   8   8
#     4   9  19  33  52  76 105 137 169 204 254 310
#     4   8  16  31  52  71  96 134 171 203 248 302
#     4  10  19  34  54  76 101 137 176 207 243 306
#     4   9  17  33  52  73 101 134 167 209 259 301
#     4  10  20  35  53  76 103 134 169 215 266 303
#     4  10  19  34  55  78 100 132 176 216 248 300
#
# _framework density 21.014690000000002
#
# number of rings (size 3 to 8) (size 9 to 14) (size 15 to 20)
#    0.000    2.667    0.000    3.000    0.000    4.000 
#    0.000   13.333    0.000    0.000    0.000    0.000 
#    0.000    0.000    0.000    0.000    0.000    0.000 
#
# Total GULP energy -133973.772841 kJ/mol
# GULP energy per Si atom -5582.240535 kJ/mol
# Density = 2.096686 g / cm^3
# Si number density = 21.014690 Si / 1000 Ang^3
#
#
#
# Elastic Constant Matrix: (Units=GPa)
#
#
# Indices 1 2 3 4 5 6 
#
# 1 43.0886 -9.3094 -7.5263 0.0000 0.0000 0.0000
# 2 -9.3094 47.8413 27.7625 0.0000 0.0000 0.0000
# 3 -7.5263 27.7625 47.4845 0.0000 0.0000 0.0000
# 4 0.0000 0.0000 0.0000 2.6751 0.0000 0.0000
# 5 0.0000 0.0000 0.0000 0.0000 9.1526 0.0000
# 6 0.0000 0.0000 0.0000 0.0000 0.0000 21.2123
#
#
#
# Elastic Compliance Matrix: (Units=1/GPa)
#
#
# Indices 1 2 3 4 5 6 
#
# 1 0.024311 0.003776 0.001646 0.000000 0.000000 0.000000
# 2 0.003776 0.032222 -0.018241 0.000000 0.000000 0.000000
# 3 0.001646 -0.018241 0.031985 0.000000 0.000000 0.000000
# 4 0.000000 0.000000 0.000000 0.373818 0.000000 0.000000
# 5 0.000000 0.000000 0.000000 0.000000 0.109258 0.000000
# 6 0.000000 0.000000 0.000000 0.000000 0.000000 0.047143
#
#
# Mechanical properties :
#
#
# Convention : Reuss Voigt Hill
#
# Bulk Modulus (GPa) = 15.90330 17.80754 16.85542
# Shear Modulus (GPa) = 7.51500 15.10717 11.31108
#
# Velocity S-wave (km/s) = 1.89310 2.68411 2.32253
# Velocity P-wave (km/s) = 3.51605 4.25420 3.90261
#
# Compressibility (1/GPa) = 0.06288001
#
# Stress axis : x y z
#
# Youngs Moduli (GPa) = 41.13329 31.03432 31.26447
#
# Poissons Ratio (x) = -0.11717 -0.05146
# Poissons Ratio (y) = -0.15530 0.57029
# Poissons Ratio (z) = -0.06770 0.56609
#
# Static dielectric constant tensor:
#      x y z
#    x 1.789780 0.000000 0.000000 
#    y 0.000000 1.731760 0.000000 
#    z 0.000000 0.000000 1.725680 
# 
# From -- ./inp_files/11532.got.cif
#   From: 2010.05.17/outbox.cif.g08.bks.cpg/sg36_6_cif.got.tgz:11532.got - 2010.06.03 17:41:39.
