data_PCOD9351745
_publ_section_title
;
Structure prediction by ZEFSAII (Michael W. Deem and Ramdas Pophale) SiO2 
 PCOD9351745
Probable space group: C M C 21
;
_chemical_formula_sum "Si O2"
_cell_formula_units_Z 64
_cell_length_a 31.111673
_cell_length_b 5.073326
_cell_length_c 19.367282
_cell_angle_alpha 90.000000
_cell_angle_beta 90.000000
_cell_angle_gamma 90.000000
_cell_volume 3056.925197
_symmetry_space_group_name_H-M "C M C 21"
_symmetry_group_IT_number 36
_symmetry_cell_setting 'orthorhombic'
loop_
_space_group_symop_operation_xyz
x,y,z
-x,-y,1/2+z
x,-y,1/2+z
-x,y,z
1/2+x,1/2+y,z
1/2-x,1/2-y,1/2+z
1/2+x,1/2-y,1/2+z
1/2-x,1/2+y,z
loop_
_atom_site_type_symbol
_atom_site_label
_atom_site_fract_x
_atom_site_fract_y
_atom_site_fract_z
Si Si1 0.393298 0.456533 0.472280
Si Si2 0.452530 0.289318 0.720594
Si Si3 0.867888 0.629602 0.350048
Si Si4 0.867977 0.528794 0.057511
Si Si5 0.272632 0.075385 0.033073
Si Si6 0.548712 0.232089 0.878786
Si Si7 0.775920 0.387438 0.366773
Si Si8 0.098453 0.724109 0.201465
O O1 0.363915 0.356402 0.408076
O O2 0.374548 0.710139 0.511010
O O3 0.437167 0.557046 0.436360
O O4 0.395189 0.210445 0.524584
O O5 0.500000 0.333077 0.692946
O O6 0.451869 0.358649 0.802262
O O7 0.419118 0.485900 0.686084
O O8 0.440006 0.984081 0.715335
O O9 0.911541 0.474256 0.373202
O O10 0.825259 0.452505 0.349947
O O11 0.875016 0.729835 0.272476
O O12 0.818193 0.457277 0.053107
O O13 0.878600 0.605396 0.135239
O O14 0.236654 0.870103 0.057678
O O15 0.272919 0.098685 0.950052
O O16 0.500000 0.129298 0.890694
O O17 0.756903 0.112685 0.341478
#
# Coordination Sequence:
#
# PCOD9351745 Si02
#       8
#     8   8   8   8   8   8   8   8
#     4  12  22  41  66  91 128 166 211 262 320 373
#     4  10  21  40  66  92 119 162 217 259 306 382
#     4  11  23  42  70  95 129 169 219 270 321 381
#     4  12  25  41  62  93 129 171 208 261 322 391
#     4  10  20  35  59  88 119 160 211 255 309 379
#     4  10  22  40  68 101 127 163 217 273 323 377
#     4  10  22  35  61  95 125 159 211 266 320 374
#     4  11  24  42  64  91 126 170 208 256 325 383
#
# _framework density 20.936067999999999
#
# number of rings (size 3 to 8) (size 9 to 14) (size 15 to 20)
#    0.000    1.250    3.750    1.875    5.250    1.000 
#    0.000    5.000    0.000    0.000    0.000    0.000 
#    0.000    0.000    0.000    0.000    0.000    0.000 
#
# Total GULP energy -178661.903306 kJ/mol
# GULP energy per Si atom -5583.184478 kJ/mol
# Density = 2.088842 g / cm^3
# Si number density = 20.936068 Si / 1000 Ang^3
#
#
#
# Elastic Constant Matrix: (Units=GPa)
#
#
# Indices 1 2 3 4 5 6 
#
# 1 61.3790 16.2976 5.9729 0.0000 0.0000 0.0000
# 2 16.2976 76.3280 16.1590 0.0000 0.0000 0.0000
# 3 5.9729 16.1590 73.7899 0.0000 0.0000 0.0000
# 4 0.0000 0.0000 0.0000 22.3525 0.0000 0.0000
# 5 0.0000 0.0000 0.0000 0.0000 12.3989 0.0000
# 6 0.0000 0.0000 0.0000 0.0000 0.0000 25.1704
#
#
#
# Elastic Compliance Matrix: (Units=1/GPa)
#
#
# Indices 1 2 3 4 5 6 
#
# 1 0.017298 -0.003562 -0.000620 0.000000 0.000000 0.000000
# 2 -0.003562 0.014472 -0.002881 0.000000 0.000000 0.000000
# 3 -0.000620 -0.002881 0.014233 0.000000 0.000000 0.000000
# 4 0.000000 0.000000 0.000000 0.044738 0.000000 0.000000
# 5 0.000000 0.000000 0.000000 0.000000 0.080652 0.000000
# 6 0.000000 0.000000 0.000000 0.000000 0.000000 0.039729
#
#
# Mechanical properties :
#
#
# Convention : Reuss Voigt Hill
#
# Bulk Modulus (GPa) = 31.37067 32.03956 31.70511
# Shear Modulus (GPa) = 21.19772 23.52220 22.35996
#
# Velocity S-wave (km/s) = 3.18543 3.35554 3.27159
# Velocity P-wave (km/s) = 5.34283 5.50905 5.42658
#
# Compressibility (1/GPa) = 0.03187691
#
# Stress axis : x y z
#
# Youngs Moduli (GPa) = 57.80870 69.09965 70.25901
#
# Poissons Ratio (x) = 0.24615 0.04357
# Poissons Ratio (y) = 0.20593 0.20240
# Poissons Ratio (z) = 0.03585 0.19906
#
# Static dielectric constant tensor:
#      x y z
#    x 1.756990 0.000000 0.000000 
#    y 0.000000 1.795460 0.000000 
#    z 0.000000 0.000000 1.744210 
# 
# From -- ./inp_files/15194.got.cif
#   From: 2010.05.17/outbox.cif.g08.bks.cpg/sg36_8_cif.got.tgz:15194.got - 2010.06.03 17:41:39.
