data_PCOD9351810
_publ_section_title
;
Structure prediction by ZEFSAII (Michael W. Deem and Ramdas Pophale) SiO2 
 PCOD9351810
Probable space group: C M C 21
;
_chemical_formula_sum "Si O2"
_cell_formula_units_Z 32
_cell_length_a 12.876947
_cell_length_b 10.931127
_cell_length_c 8.398884
_cell_angle_alpha 90.000000
_cell_angle_beta 90.000000
_cell_angle_gamma 90.000000
_cell_volume 1182.223074
_symmetry_space_group_name_H-M "C M C 21"
_symmetry_group_IT_number 36
_symmetry_cell_setting 'orthorhombic'
loop_
_space_group_symop_operation_xyz
x,y,z
-x,-y,1/2+z
x,-y,1/2+z
-x,y,z
1/2+x,1/2+y,z
1/2-x,1/2-y,1/2+z
1/2+x,1/2-y,1/2+z
1/2-x,1/2+y,z
loop_
_atom_site_type_symbol
_atom_site_label
_atom_site_fract_x
_atom_site_fract_y
_atom_site_fract_z
Si Si1 0.390903 0.081748 0.621360
Si Si2 0.655776 0.689640 0.947681
Si Si3 0.169847 0.013099 0.213653
Si Si4 0.616221 0.737228 0.423293
O O1 0.500000 0.011412 0.611976
O O2 0.385947 0.173620 0.470428
O O3 0.394451 0.175053 0.769412
O O4 0.288035 0.006579 0.656090
O O5 0.640347 0.622054 0.778771
O O6 0.777295 0.710237 0.995149
O O7 0.614906 0.591646 0.076263
O O8 0.151912 0.103618 0.362355
O O9 0.500000 0.730346 0.494012
#
# Coordination Sequence:
#
# PCOD9351810 Si02
#       4
#     8   8   8   8
#     4   9  19  36  57  84 120 161 205 252 304 364
#     4  10  20  36  58  88 122 158 200 250 302 366
#     4  10  20  36  60  86 120 160 202 252 308 366
#     4   9  19  36  57  84 120 161 205 252 304 364
#
# _framework density 27.06765
#
# number of rings (size 3 to 8) (size 9 to 14) (size 15 to 20)
#    0.000    2.500    0.000    1.500    0.000    2.000 
#    0.000   12.500    0.000   18.000    0.000    0.000 
#    0.000    0.000    0.000    0.000    0.000    0.000 
#
# Total GULP energy -89242.127078 kJ/mol
# GULP energy per Si atom -5577.632942 kJ/mol
# Density = 2.700604 g / cm^3
# Si number density = 27.067650 Si / 1000 Ang^3
#
#
#
# Elastic Constant Matrix: (Units=GPa)
#
#
# Indices 1 2 3 4 5 6 
#
# 1 217.7040 51.0822 19.7099 0.0000 0.0000 0.0000
# 2 51.0822 103.8855 25.4537 0.0000 0.0000 0.0000
# 3 19.7099 25.4537 31.7640 0.0000 0.0000 0.0000
# 4 0.0000 0.0000 0.0000 37.2498 0.0000 0.0000
# 5 0.0000 0.0000 0.0000 0.0000 13.0492 0.0000
# 6 0.0000 0.0000 0.0000 0.0000 0.0000 -22.0778
#
#
#
# Elastic Compliance Matrix: (Units=1/GPa)
#
#
# Indices 1 2 3 4 5 6 
#
# 1 0.005248 -0.002218 -0.001479 0.000000 0.000000 0.000000
# 2 -0.002218 0.012915 -0.008973 0.000000 0.000000 0.000000
# 3 -0.001479 -0.008973 0.039590 0.000000 0.000000 0.000000
# 4 0.000000 0.000000 0.000000 0.026846 0.000000 0.000000
# 5 0.000000 0.000000 0.000000 0.000000 0.076633 0.000000
# 6 0.000000 0.000000 0.000000 0.000000 0.000000 -0.045294
#
#
# Mechanical properties :
#
#
# Convention : Reuss Voigt Hill
#
# Bulk Modulus (GPa) = 30.85167 60.64947 45.75057
# Shear Modulus (GPa) = 32.87706 22.78477 27.83092
#
# Velocity S-wave (km/s) = 3.48893 2.90448 3.21003
# Velocity P-wave (km/s) = 5.25860 5.80545 5.53878
#
# Compressibility (1/GPa) = 0.03241316
#
# Stress axis : x y z
#
# Youngs Moduli (GPa) = 190.55874 77.42818 25.25874
#
# Poissons Ratio (x) = 0.17174 0.03735
# Poissons Ratio (y) = 0.42267 0.22665
# Poissons Ratio (z) = 0.28181 0.69477
#
# Static dielectric constant tensor:
#      x y z
#    x 2.164360 0.000000 0.000000 
#    y 0.000000 2.126600 0.000000 
#    z 0.000000 0.000000 2.164880 
# 
# From -- ./inp_files/3686.got.cif
#   From: 2010.05.17/outbox.cif.g08.bks.cpg/sg36_2_cif.got.tgz:3686.got - 2010.06.03 17:41:39.
