data_PCOD9351589
_publ_section_title
;
Structure prediction by ZEFSAII (Michael W. Deem and Ramdas Pophale) SiO2 
 PCOD9351589
Probable space group: C M C 21
;
_chemical_formula_sum "Si O2"
_cell_formula_units_Z 48
_cell_length_a 7.987459
_cell_length_b 28.747834
_cell_length_c 8.182462
_cell_angle_alpha 90.000000
_cell_angle_beta 90.000000
_cell_angle_gamma 90.000000
_cell_volume 1878.874479
_symmetry_space_group_name_H-M "C M C 21"
_symmetry_group_IT_number 36
_symmetry_cell_setting 'orthorhombic'
loop_
_space_group_symop_operation_xyz
x,y,z
-x,-y,1/2+z
x,-y,1/2+z
-x,y,z
1/2+x,1/2+y,z
1/2-x,1/2-y,1/2+z
1/2+x,1/2-y,1/2+z
1/2-x,1/2+y,z
loop_
_atom_site_type_symbol
_atom_site_label
_atom_site_fract_x
_atom_site_fract_y
_atom_site_fract_z
Si Si1 0.196204 0.821865 0.662610
Si Si2 0.693815 0.906698 0.857247
Si Si3 0.295151 0.235455 0.480909
Si Si4 0.684581 0.491946 0.680730
Si Si5 0.691256 0.931821 0.383112
Si Si6 0.796761 0.650135 0.682347
O O1 0.286461 0.869454 0.709794
O O2 0.219910 0.788848 0.822271
O O3 0.258425 0.788235 0.517611
O O4 0.000000 0.831413 0.641119
O O5 0.500000 0.919860 0.869975
O O6 0.796568 0.952548 0.820002
O O7 0.745603 0.879177 0.018753
O O8 0.500000 0.234209 0.470073
O O9 0.243921 0.202005 0.633700
O O10 0.500000 0.511894 0.679871
O O11 0.805193 0.534422 0.723891
O O12 0.717572 0.461813 0.519791
O O13 0.500000 0.926212 0.435787
O O14 0.765022 0.881842 0.331229
O O15 0.000000 0.650449 0.695199
#
# Coordination Sequence:
#
# PCOD9351589 Si02
#       6
#     8   8   8   8   8   8
#     4  10  20  34  55  84 115 148 190 238 285 334
#     4  10  20  38  61  83 111 150 193 236 288 348
#     4   9  19  36  55  79 113 150 189 233 282 337
#     4  12  25  40  58  86 120 150 187 239 292 338
#     4  11  22  39  62  86 113 152 197 234 280 345
#     4   8  17  35  59  82 106 142 190 236 275 330
#
# _framework density 25.54721
#
# number of rings (size 3 to 8) (size 9 to 14) (size 15 to 20)
#    0.000    2.000    0.000    5.000    0.000    4.000 
#    0.000    9.167    0.000    0.000    0.000    0.000 
#    0.000    0.000    0.000    0.000    0.000    0.000 
#
# Total GULP energy -134310.616071 kJ/mol
# GULP energy per Si atom -5596.275670 kJ/mol
# Density = 2.548906 g / cm^3
# Si number density = 25.547210 Si / 1000 Ang^3
#
#
#
# Elastic Constant Matrix: (Units=GPa)
#
#
# Indices 1 2 3 4 5 6 
#
# 1 60.4720 6.7872 3.0212 0.0000 0.0000 0.0000
# 2 6.7872 132.9108 6.7009 0.0000 0.0000 0.0000
# 3 3.0212 6.7009 58.3245 0.0000 0.0000 0.0000
# 4 0.0000 0.0000 0.0000 48.5947 0.0000 0.0000
# 5 0.0000 0.0000 0.0000 0.0000 24.9810 0.0000
# 6 0.0000 0.0000 0.0000 0.0000 0.0000 21.3954
#
#
#
# Elastic Compliance Matrix: (Units=1/GPa)
#
#
# Indices 1 2 3 4 5 6 
#
# 1 0.016666 -0.000812 -0.000770 0.000000 0.000000 0.000000
# 2 -0.000812 0.007607 -0.000832 0.000000 0.000000 0.000000
# 3 -0.000770 -0.000832 0.017281 0.000000 0.000000 0.000000
# 4 0.000000 0.000000 0.000000 0.020578 0.000000 0.000000
# 5 0.000000 0.000000 0.000000 0.000000 0.040030 0.000000
# 6 0.000000 0.000000 0.000000 0.000000 0.000000 0.046739
#
#
# Mechanical properties :
#
#
# Convention : Reuss Voigt Hill
#
# Bulk Modulus (GPa) = 27.22864 31.63621 29.43242
# Shear Modulus (GPa) = 30.12547 34.67409 32.39978
#
# Velocity S-wave (km/s) = 3.43768 3.68809 3.56509
# Velocity P-wave (km/s) = 5.14181 5.52687 5.33782
#
# Compressibility (1/GPa) = 0.03672604
#
# Stress axis : x y z
#
# Youngs Moduli (GPa) = 60.00165 131.45328 57.86731
#
# Poissons Ratio (x) = 0.10677 0.04456
# Poissons Ratio (y) = 0.04874 0.04814
# Poissons Ratio (z) = 0.04620 0.10936
#
# Static dielectric constant tensor:
#      x y z
#    x 1.874320 0.000000 0.000000 
#    y 0.000000 1.978130 0.000000 
#    z 0.000000 0.000000 2.151040 
# 
# From -- ./inp_files/2682.got.cif
#   From: 2010.05.17/outbox.cif.g08.bks.cpg/sg36_2_cif.got.tgz:2682.got - 2010.06.03 17:41:39.
