data_PCOD9351452
_publ_section_title
;
Structure prediction by ZEFSAII (Michael W. Deem and Ramdas Pophale) SiO2 
 PCOD9351452
Probable space group: C M C 21
;
_chemical_formula_sum "Si O2"
_cell_formula_units_Z 28
_cell_length_a 18.039411
_cell_length_b 16.109265
_cell_length_c 5.058655
_cell_angle_alpha 90.000000
_cell_angle_beta 90.000000
_cell_angle_gamma 90.000000
_cell_volume 1470.053501
_symmetry_space_group_name_H-M "C M C 21"
_symmetry_group_IT_number 36
_symmetry_cell_setting 'orthorhombic'
loop_
_space_group_symop_operation_xyz
x,y,z
-x,-y,1/2+z
x,-y,1/2+z
-x,y,z
1/2+x,1/2+y,z
1/2-x,1/2-y,1/2+z
1/2+x,1/2-y,1/2+z
1/2-x,1/2+y,z
loop_
_atom_site_type_symbol
_atom_site_label
_atom_site_fract_x
_atom_site_fract_y
_atom_site_fract_z
Si Si1 0.790139 0.712822 0.140820
Si Si2 0.500000 0.557426 0.819278
Si Si3 0.916628 0.175169 0.477139
Si Si4 0.296375 0.441091 0.721173
O O1 0.760002 0.768642 0.382509
O O2 0.775766 0.618275 0.223010
O O3 0.871831 0.743878 0.065400
O O4 0.500000 0.481838 0.606609
O O5 0.431943 0.615364 0.729759
O O6 0.863595 0.122444 0.285762
O O7 0.000000 0.191643 0.372556
O O8 0.298710 0.490720 0.450213
#
# Coordination Sequence:
#
# PCOD9351452 Si02
#       4
#     8   4   8   8
#     4  10  21  39  56  81 116 160 204 234 293 367
#     4  10  20  32  50  82 116 140 176 226 294 350
#     4   9  21  37  57  84 118 155 188 242 299 362
#     4  11  21  35  57  83 115 151 192 246 292 347
#
# _framework density 19.046925000000002
#
# number of rings (size 3 to 8) (size 9 to 14) (size 15 to 20)
#    0.857    1.143    0.000    5.143    0.000    4.571 
#    0.000    0.000    0.000    1.714    0.000    0.000 
#    0.000    0.000    0.000    0.000    0.000    0.000 
#
# Total GULP energy -78131.586755 kJ/mol
# GULP energy per Si atom -5580.827625 kJ/mol
# Density = 1.900357 g / cm^3
# Si number density = 19.046925 Si / 1000 Ang^3
#
#
#
# Elastic Constant Matrix: (Units=GPa)
#
#
# Indices 1 2 3 4 5 6 
#
# 1 107.7828 74.1963 15.2818 0.0000 0.0000 0.0000
# 2 74.1963 85.6085 19.5994 0.0000 0.0000 0.0000
# 3 15.2818 19.5994 79.0042 0.0000 0.0000 0.0000
# 4 0.0000 0.0000 0.0000 22.1805 0.0000 0.0000
# 5 0.0000 0.0000 0.0000 0.0000 20.1991 0.0000
# 6 0.0000 0.0000 0.0000 0.0000 0.0000 42.6117
#
#
#
# Elastic Compliance Matrix: (Units=1/GPa)
#
#
# Indices 1 2 3 4 5 6 
#
# 1 0.023021 -0.020073 0.000527 0.000000 0.000000 0.000000
# 2 -0.020073 0.029887 -0.003532 0.000000 0.000000 0.000000
# 3 0.000527 -0.003532 0.013432 0.000000 0.000000 0.000000
# 4 0.000000 0.000000 0.000000 0.045085 0.000000 0.000000
# 5 0.000000 0.000000 0.000000 0.000000 0.049507 0.000000
# 6 0.000000 0.000000 0.000000 0.000000 0.000000 0.023468
#
#
# Mechanical properties :
#
#
# Convention : Reuss Voigt Hill
#
# Bulk Modulus (GPa) = 49.54402 54.50560 52.02481
# Shear Modulus (GPa) = 21.07195 27.88613 24.47904
#
# Velocity S-wave (km/s) = 3.32974 3.83047 3.58885
# Velocity P-wave (km/s) = 6.39147 6.94565 6.67431
#
# Compressibility (1/GPa) = 0.02018407
#
# Stress axis : x y z
#
# Youngs Moduli (GPa) = 43.43847 33.45991 74.45018
#
# Poissons Ratio (x) = 0.67163 -0.03921
# Poissons Ratio (y) = 0.87193 0.26293
# Poissons Ratio (z) = -0.02288 0.11817
#
# Static dielectric constant tensor:
#      x y z
#    x 1.712600 0.000000 0.000000 
#    y 0.000000 1.661050 0.000000 
#    z 0.000000 0.000000 1.704730 
# 
# From -- ./inp_files/1272.got.cif
#   From: 2010.05.17/outbox.cif.g08.bks.cpg/sg36_1_cif.got.tgz:1272.got - 2010.06.03 17:41:39.
