data_PCOD9351421
_publ_section_title
;
Structure prediction by ZEFSAII (Michael W. Deem and Ramdas Pophale) SiO2 
 PCOD9351421
Probable space group: C M C 21
;
_chemical_formula_sum "Si O2"
_cell_formula_units_Z 64
_cell_length_a 18.831953
_cell_length_b 12.303166
_cell_length_c 14.369715
_cell_angle_alpha 90.000000
_cell_angle_beta 90.000000
_cell_angle_gamma 90.000000
_cell_volume 3329.357260
_symmetry_space_group_name_H-M "C M C 21"
_symmetry_group_IT_number 36
_symmetry_cell_setting 'orthorhombic'
loop_
_space_group_symop_operation_xyz
x,y,z
-x,-y,1/2+z
x,-y,1/2+z
-x,y,z
1/2+x,1/2+y,z
1/2-x,1/2-y,1/2+z
1/2+x,1/2-y,1/2+z
1/2-x,1/2+y,z
loop_
_atom_site_type_symbol
_atom_site_label
_atom_site_fract_x
_atom_site_fract_y
_atom_site_fract_z
Si Si1 0.300912 0.156708 0.766660
Si Si2 0.666143 0.999185 0.604470
Si Si3 0.689938 0.363316 0.631938
Si Si4 0.583225 0.216286 0.108508
Si Si5 0.151167 0.205667 0.421566
Si Si6 0.918230 0.043928 0.274705
Si Si7 0.182315 0.305086 0.968378
Si Si8 0.642018 0.318993 0.293442
O O1 0.335143 0.068766 0.699446
O O2 0.292801 0.269146 0.707920
O O3 0.345615 0.186047 0.857613
O O4 0.220709 0.127247 0.794304
O O5 0.661276 0.084623 0.520314
O O6 0.742048 0.936775 0.607677
O O7 0.606060 0.908830 0.599364
O O8 0.627745 0.432582 0.681100
O O9 0.670884 0.295021 0.539985
O O10 0.500000 0.229410 0.123791
O O11 0.626341 0.264591 0.194978
O O12 0.608149 0.276170 0.015147
O O13 0.116698 0.113894 0.357346
O O14 0.233567 0.184291 0.446341
O O15 0.000000 0.075087 0.260721
O O16 0.911676 0.918335 0.302856
O O17 0.143033 0.271247 0.873931
#
# Coordination Sequence:
#
# PCOD9351421 Si02
#       8
#     8   8   8   8   8   8   8   8
#     4   9  19  37  63  95 119 154 206 267 307 355
#     4  11  20  39  66  93 121 160 215 256 313 371
#     4  10  19  39  64  92 123 157 209 266 304 372
#     4  12  25  42  61  88 129 170 210 257 310 378
#     4  10  22  40  64  95 126 159 213 263 308 375
#     4  11  24  39  62  95 131 173 202 250 331 390
#     4  10  23  38  66  99 119 157 214 273 312 358
#     4  11  22  40  60  91 128 160 207 262 315 371
#
# _framework density 19.222929000000001
#
# number of rings (size 3 to 8) (size 9 to 14) (size 15 to 20)
#    0.000    1.500    3.750    1.500    1.750    1.000 
#    0.000   11.250    0.000    0.000    0.000    0.000 
#    0.000    0.000    0.000    0.000    0.000    0.000 
#
# Total GULP energy -178715.624293 kJ/mol
# GULP energy per Si atom -5584.863259 kJ/mol
# Density = 1.917918 g / cm^3
# Si number density = 19.222929 Si / 1000 Ang^3
#
#
#
# Elastic Constant Matrix: (Units=GPa)
#
#
# Indices 1 2 3 4 5 6 
#
# 1 60.7185 5.0515 16.0596 0.0000 0.0000 0.0000
# 2 5.0515 55.1135 10.3174 0.0000 0.0000 0.0000
# 3 16.0596 10.3174 91.3609 0.0000 0.0000 0.0000
# 4 0.0000 0.0000 0.0000 0.2999 0.0000 0.0000
# 5 0.0000 0.0000 0.0000 0.0000 10.1712 0.0000
# 6 0.0000 0.0000 0.0000 0.0000 0.0000 7.2465
#
#
#
# Elastic Compliance Matrix: (Units=1/GPa)
#
#
# Indices 1 2 3 4 5 6 
#
# 1 0.017331 -0.001040 -0.002929 0.000000 0.000000 0.000000
# 2 -0.001040 0.018599 -0.001918 0.000000 0.000000 0.000000
# 3 -0.002929 -0.001918 0.011677 0.000000 0.000000 0.000000
# 4 0.000000 0.000000 0.000000 3.334661 0.000000 0.000000
# 5 0.000000 0.000000 0.000000 0.000000 0.098317 0.000000
# 6 0.000000 0.000000 0.000000 0.000000 0.000000 0.137998
#
#
# Mechanical properties :
#
#
# Convention : Reuss Voigt Hill
#
# Bulk Modulus (GPa) = 27.90717 30.00555 28.95636
# Shear Modulus (GPa) = 1.37276 15.26113 8.31695
#
# Velocity S-wave (km/s) = 0.84598 2.82068 2.08230
# Velocity P-wave (km/s) = 3.93744 5.12362 4.56918
#
# Compressibility (1/GPa) = 0.03583309
#
# Stress axis : x y z
#
# Youngs Moduli (GPa) = 57.70115 53.76731 85.63835
#
# Poissons Ratio (x) = 0.05593 0.25083
# Poissons Ratio (y) = 0.06002 0.16421
# Poissons Ratio (z) = 0.16900 0.10310
#
# Static dielectric constant tensor:
#      x y z
#    x 1.632880 0.000000 0.000000 
#    y 0.000000 1.684520 0.000000 
#    z 0.000000 0.000000 1.683370 
# 
# From -- ./inp_files/12632.got.cif
#   From: 2010.05.17/outbox.cif.g08.bks.cpg/sg36_7_cif.got.tgz:12632.got - 2010.06.03 17:41:39.
