data_PCOD9351152
_publ_section_title
;
Structure prediction by ZEFSAII (Michael W. Deem and Ramdas Pophale) SiO2 
 PCOD9351152
Probable space group: C M C 21
;
_chemical_formula_sum "Si O2"
_cell_formula_units_Z 64
_cell_length_a 7.996518
_cell_length_b 30.381664
_cell_length_c 12.550141
_cell_angle_alpha 90.000000
_cell_angle_beta 90.000000
_cell_angle_gamma 90.000000
_cell_volume 3049.025670
_symmetry_space_group_name_H-M "C M C 21"
_symmetry_group_IT_number 36
_symmetry_cell_setting 'orthorhombic'
loop_
_space_group_symop_operation_xyz
x,y,z
-x,-y,1/2+z
x,-y,1/2+z
-x,y,z
1/2+x,1/2+y,z
1/2-x,1/2-y,1/2+z
1/2+x,1/2-y,1/2+z
1/2-x,1/2+y,z
loop_
_atom_site_type_symbol
_atom_site_label
_atom_site_fract_x
_atom_site_fract_y
_atom_site_fract_z
Si Si1 0.301632 0.915871 0.135240
Si Si2 0.306099 0.094720 0.271614
Si Si3 0.297679 0.569611 0.874325
Si Si4 0.301765 0.474136 0.933398
Si Si5 0.190250 0.681820 0.608118
Si Si6 0.191032 0.179405 0.381189
Si Si7 0.702062 0.634152 0.051747
Si Si8 0.203784 0.776847 0.659546
O O1 0.500000 0.912702 0.116445
O O2 0.267060 0.932553 0.254023
O O3 0.230770 0.865815 0.130899
O O4 0.236081 0.946927 0.040717
O O5 0.500000 0.107033 0.279466
O O6 0.279495 0.048535 0.329612
O O7 0.201484 0.129299 0.341544
O O8 0.250960 0.102241 0.150181
O O9 0.500000 0.571388 0.869590
O O10 0.249161 0.525084 0.936612
O O11 0.239577 0.612068 0.941942
O O12 0.500000 0.473076 0.916900
O O13 0.191446 0.685588 0.480828
O O14 0.269837 0.727651 0.644809
O O15 0.000000 0.680573 0.650460
O O16 0.240205 0.207407 0.278668
O O17 0.000000 0.189812 0.411261
O O18 0.500000 0.635814 0.049738
O O19 0.761664 0.683570 0.081484
O O20 0.000000 0.775316 0.648275
#
# Coordination Sequence:
#
# PCOD9351152 Si02
#       8
#     8   8   8   8   8   8   8   8
#     4  11  24  40  60  89 125 159 197 246 302 358
#     4  11  21  35  58  87 115 148 191 248 305 355
#     4  10  24  42  62  87 119 160 202 247 299 357
#     4  11  23  40  62  86 115 154 201 248 295 356
#     4  10  20  36  57  84 119 156 193 245 302 351
#     4  10  19  34  56  82 111 152 200 246 291 350
#     4   9  19  39  62  86 117 157 202 246 295 353
#     4   8  17  34  57  83 115 154 196 242 297 350
#
# _framework density 20.990311999999999
#
# number of rings (size 3 to 8) (size 9 to 14) (size 15 to 20)
#    0.000    2.000    1.250    3.000    1.750    3.000 
#    0.000    3.125    0.000    0.000    0.000    0.000 
#    0.000    0.000    0.000    0.000    0.000    0.000 
#
# Total GULP energy -178552.597031 kJ/mol
# GULP energy per Si atom -5579.768657 kJ/mol
# Density = 2.094254 g / cm^3
# Si number density = 20.990312 Si / 1000 Ang^3
#
#
#
# Elastic Constant Matrix: (Units=GPa)
#
#
# Indices 1 2 3 4 5 6 
#
# 1 28.0666 6.5216 -0.2478 0.0000 0.0000 0.0000
# 2 6.5216 124.6477 38.8345 0.0000 0.0000 0.0000
# 3 -0.2478 38.8345 53.9564 0.0000 0.0000 0.0000
# 4 0.0000 0.0000 0.0000 18.4172 0.0000 0.0000
# 5 0.0000 0.0000 0.0000 0.0000 13.6435 0.0000
# 6 0.0000 0.0000 0.0000 0.0000 0.0000 1.9893
#
#
#
# Elastic Compliance Matrix: (Units=1/GPa)
#
#
# Indices 1 2 3 4 5 6 
#
# 1 0.036230 -0.002510 0.001973 0.000000 0.000000 0.000000
# 2 -0.002510 0.010516 -0.007580 0.000000 0.000000 0.000000
# 3 0.001973 -0.007580 0.023998 0.000000 0.000000 0.000000
# 4 0.000000 0.000000 0.000000 0.054297 0.000000 0.000000
# 5 0.000000 0.000000 0.000000 0.000000 0.073295 0.000000
# 6 0.000000 0.000000 0.000000 0.000000 0.000000 0.502691
#
#
# Mechanical properties :
#
#
# Convention : Reuss Voigt Hill
#
# Bulk Modulus (GPa) = 18.34536 32.98747 25.66642
# Shear Modulus (GPa) = 6.79873 17.58080 12.18977
#
# Velocity S-wave (km/s) = 1.80167 2.89722 2.41245
# Velocity P-wave (km/s) = 3.61758 5.19052 4.47372
#
# Compressibility (1/GPa) = 0.05450971
#
# Stress axis : x y z
#
# Youngs Moduli (GPa) = 27.60122 95.09746 41.66987
#
# Poissons Ratio (x) = 0.23872 -0.08222
# Poissons Ratio (y) = 0.06929 0.31586
# Poissons Ratio (z) = -0.05446 0.72084
#
# Static dielectric constant tensor:
#      x y z
#    x 1.786030 0.000000 0.000000 
#    y 0.000000 1.807800 0.000000 
#    z 0.000000 0.000000 1.722010 
# 
# From -- ./inp_files/7246.got.cif
#   From: 2010.05.17/outbox.cif.g08.bks.cpg/sg36_4_cif.got.tgz:7246.got - 2010.06.03 17:41:39.
