data_PCOD9351325
_publ_section_title
;
Structure prediction by ZEFSAII (Michael W. Deem and Ramdas Pophale) SiO2 
 PCOD9351325
Probable space group: C M C 21
;
_chemical_formula_sum "Si O2"
_cell_formula_units_Z 64
_cell_length_a 15.475636
_cell_length_b 11.226997
_cell_length_c 14.439581
_cell_angle_alpha 90.000000
_cell_angle_beta 90.000000
_cell_angle_gamma 90.000000
_cell_volume 2508.803830
_symmetry_space_group_name_H-M "C M C 21"
_symmetry_group_IT_number 36
_symmetry_cell_setting 'orthorhombic'
loop_
_space_group_symop_operation_xyz
x,y,z
-x,-y,1/2+z
x,-y,1/2+z
-x,y,z
1/2+x,1/2+y,z
1/2-x,1/2-y,1/2+z
1/2+x,1/2-y,1/2+z
1/2-x,1/2+y,z
loop_
_atom_site_type_symbol
_atom_site_label
_atom_site_fract_x
_atom_site_fract_y
_atom_site_fract_z
Si Si1 0.144576 0.050906 0.200350
Si Si2 0.647696 0.363287 0.966847
Si Si3 0.832100 0.180321 0.031809
Si Si4 0.592848 0.591082 0.860541
Si Si5 0.901672 0.285437 0.304516
Si Si6 0.155506 0.544392 0.267365
Si Si7 0.151641 0.572904 0.483268
Si Si8 0.866787 0.668331 0.088975
O O1 0.131279 0.068983 0.090805
O O2 0.106829 0.937315 0.253306
O O3 0.104260 0.174314 0.235933
O O4 0.243211 0.050220 0.239102
O O5 0.595610 0.460976 0.909190
O O6 0.655985 0.254996 0.891643
O O7 0.742975 0.416151 0.988622
O O8 0.601087 0.293596 0.049788
O O9 0.736834 0.188967 0.074846
O O10 0.878065 0.308474 0.036984
O O11 0.835774 0.156159 0.921916
O O12 0.500000 0.647791 0.876791
O O13 0.870673 0.406808 0.258150
O O14 0.000000 0.301653 0.336493
O O15 0.135059 0.574952 0.373509
O O16 0.112225 0.632439 0.193493
O O17 0.117404 0.451799 0.529026
#
# Coordination Sequence:
#
# PCOD9351325 Si02
#       8
#     8   8   8   8   8   8   8   8
#     4  10  21  39  62  89 119 166 215 250 302 379
#     4  10  19  36  59  83 117 156 198 249 297 367
#     4  10  22  37  58  92 124 156 206 261 305 362
#     4  11  22  39  60  87 121 163 205 254 312 371
#     4  11  22  38  61  89 123 162 204 255 315 377
#     4  11  21  36  64  92 119 160 202 259 309 370
#     4  11  19  37  62  89 122 150 203 258 307 355
#     4  10  20  36  60  95 117 149 207 258 303 363
#
# _framework density 25.510165000000001
#
# number of rings (size 3 to 8) (size 9 to 14) (size 15 to 20)
#    0.000    1.500    5.000    2.250    1.750    1.000 
#    2.250    1.875    0.000    0.000    0.000    0.000 
#    0.000    0.000    0.000    0.000    0.000    0.000 
#
# Total GULP energy -178669.478455 kJ/mol
# GULP energy per Si atom -5583.421202 kJ/mol
# Density = 2.545210 g / cm^3
# Si number density = 25.510165 Si / 1000 Ang^3
#
#
#
# Elastic Constant Matrix: (Units=GPa)
#
#
# Indices 1 2 3 4 5 6 
#
# 1 74.5595 -1.5290 -5.8518 0.0000 0.0000 0.0000
# 2 -1.5290 82.2372 15.6696 0.0000 0.0000 0.0000
# 3 -5.8518 15.6696 128.9055 0.0000 0.0000 0.0000
# 4 0.0000 0.0000 0.0000 43.8194 0.0000 0.0000
# 5 0.0000 0.0000 0.0000 0.0000 -12.1569 0.0000
# 6 0.0000 0.0000 0.0000 0.0000 0.0000 6.6993
#
#
#
# Elastic Compliance Matrix: (Units=1/GPa)
#
#
# Indices 1 2 3 4 5 6 
#
# 1 0.013462 0.000137 0.000594 0.000000 0.000000 0.000000
# 2 0.000137 0.012450 -0.001507 0.000000 0.000000 0.000000
# 3 0.000594 -0.001507 0.007968 0.000000 0.000000 0.000000
# 4 0.000000 0.000000 0.000000 0.022821 0.000000 0.000000
# 5 0.000000 0.000000 0.000000 0.000000 -0.082258 0.000000
# 6 0.000000 0.000000 0.000000 0.000000 0.000000 0.149270
#
#
# Mechanical properties :
#
#
# Convention : Reuss Voigt Hill
#
# Bulk Modulus (GPa) = 30.93326 33.58667 32.25997
# Shear Modulus (GPa) = 36.75401 26.16658 31.46030
#
# Velocity S-wave (km/s) = 3.79985 3.20618 3.51557
# Velocity P-wave (km/s) = 5.60393 5.18659 5.39929
#
# Compressibility (1/GPa) = 0.03232766
#
# Stress axis : x y z
#
# Youngs Moduli (GPa) = 74.28558 80.32344 125.50499
#
# Poissons Ratio (x) = -0.01101 -0.07461
# Poissons Ratio (y) = -0.01018 0.18915
# Poissons Ratio (z) = -0.04416 0.12106
#
# Static dielectric constant tensor:
#      x y z
#    x 2.044720 0.000000 0.000000 
#    y 0.000000 2.076140 0.000000 
#    z 0.000000 0.000000 2.105960 
# 
# From -- ./inp_files/12631.got.cif
#   From: 2010.05.17/outbox.cif.g08.bks.cpg/sg36_7_cif.got.tgz:12631.got - 2010.06.03 17:41:39.
