data_PCOD9351149
_publ_section_title
;
Structure prediction by ZEFSAII (Michael W. Deem and Ramdas Pophale) SiO2 
 PCOD9351149
Probable space group: C M C 21
;
_chemical_formula_sum "Si O2"
_cell_formula_units_Z 64
_cell_length_a 9.676564
_cell_length_b 25.331396
_cell_length_c 13.997739
_cell_angle_alpha 90.000000
_cell_angle_beta 90.000000
_cell_angle_gamma 90.000000
_cell_volume 3431.138026
_symmetry_space_group_name_H-M "C M C 21"
_symmetry_group_IT_number 36
_symmetry_cell_setting 'orthorhombic'
loop_
_space_group_symop_operation_xyz
x,y,z
-x,-y,1/2+z
x,-y,1/2+z
-x,y,z
1/2+x,1/2+y,z
1/2-x,1/2-y,1/2+z
1/2+x,1/2-y,1/2+z
1/2-x,1/2+y,z
loop_
_atom_site_type_symbol
_atom_site_label
_atom_site_fract_x
_atom_site_fract_y
_atom_site_fract_z
Si Si1 0.667060 0.294715 0.978520
Si Si2 0.651843 0.481469 0.015315
Si Si3 0.661296 0.540116 0.290832
Si Si4 0.832861 0.310594 0.585878
Si Si5 0.840801 0.876121 0.140010
Si Si6 0.660271 0.937513 0.277423
Si Si7 0.842054 0.424180 0.505871
Si Si8 0.667094 0.663419 0.269000
O O1 0.500000 0.298984 0.976496
O O2 0.710644 0.314874 0.873860
O O3 0.702491 0.235597 0.010852
O O4 0.711196 0.332144 0.066139
O O5 0.500000 0.505832 0.020597
O O6 0.656683 0.430128 0.079671
O O7 0.756633 0.526660 0.043351
O O8 0.671390 0.462494 0.906347
O O9 0.500000 0.529487 0.265214
O O10 0.759336 0.492504 0.257686
O O11 0.695815 0.600198 0.262401
O O12 0.795632 0.367216 0.541256
O O13 0.750051 0.307287 0.685179
O O14 0.000000 0.308437 0.601415
O O15 0.740159 0.889678 0.226528
O O16 0.000000 0.864361 0.169221
O O17 0.500000 0.940668 0.247926
O O18 0.665194 0.927830 0.391047
O O19 0.000000 0.430455 0.535615
O O20 0.500000 0.669715 0.259940
#
# Coordination Sequence:
#
# PCOD9351149 Si02
#       8
#     8   8   8   8   8   8   8   8
#     4   9  19  39  62  81 109 150 191 230 277 331
#     4   9  17  31  54  79 105 138 180 229 275 321
#     4   9  17  33  55  80 109 143 187 232 275 325
#     4  10  22  39  59  83 112 150 188 227 280 335
#     4  10  19  34  56  82 108 143 189 232 274 324
#     4  10  21  34  51  80 118 155 185 221 276 339
#     4   9  20  37  52  74 113 151 182 217 271 337
#     4  10  20  37  61  85 108 142 188 236 278 326
#
# _framework density 18.652704
#
# number of rings (size 3 to 8) (size 9 to 14) (size 15 to 20)
#    0.000    2.500    1.250    0.375    1.750    3.000 
#    0.000    3.125    0.000    0.000    0.000    0.000 
#    0.000    0.000    0.000    0.000    0.000    0.000 
#
# Total GULP energy -178461.667119 kJ/mol
# GULP energy per Si atom -5576.927097 kJ/mol
# Density = 1.861025 g / cm^3
# Si number density = 18.652704 Si / 1000 Ang^3
#
#
#
# Elastic Constant Matrix: (Units=GPa)
#
#
# Indices 1 2 3 4 5 6 
#
# 1 35.8731 20.5725 19.9046 0.0000 0.0000 0.0000
# 2 20.5725 76.5203 19.9089 0.0000 0.0000 0.0000
# 3 19.9046 19.9089 50.4143 0.0000 0.0000 0.0000
# 4 0.0000 0.0000 0.0000 27.2420 0.0000 0.0000
# 5 0.0000 0.0000 0.0000 0.0000 24.2716 0.0000
# 6 0.0000 0.0000 0.0000 0.0000 0.0000 17.3810
#
#
#
# Elastic Compliance Matrix: (Units=1/GPa)
#
#
# Indices 1 2 3 4 5 6 
#
# 1 0.038970 -0.007215 -0.012537 0.000000 0.000000 0.000000
# 2 -0.007215 0.015901 -0.003431 0.000000 0.000000 0.000000
# 3 -0.012537 -0.003431 0.026140 0.000000 0.000000 0.000000
# 4 0.000000 0.000000 0.000000 0.036708 0.000000 0.000000
# 5 0.000000 0.000000 0.000000 0.000000 0.041200 0.000000
# 6 0.000000 0.000000 0.000000 0.000000 0.000000 0.057534
#
#
# Mechanical properties :
#
#
# Convention : Reuss Voigt Hill
#
# Bulk Modulus (GPa) = 28.86361 31.50885 30.18623
# Shear Modulus (GPa) = 18.22373 20.60704 19.41539
#
# Velocity S-wave (km/s) = 3.12909 3.32742 3.22978
# Velocity P-wave (km/s) = 5.34442 5.62951 5.48881
#
# Compressibility (1/GPa) = 0.03464571
#
# Stress axis : x y z
#
# Youngs Moduli (GPa) = 25.66070 62.88986 38.25527
#
# Poissons Ratio (x) = 0.45377 0.47960
# Poissons Ratio (y) = 0.18515 0.13124
# Poissons Ratio (z) = 0.32170 0.21575
#
# Static dielectric constant tensor:
#      x y z
#    x 1.643140 0.000000 0.000000 
#    y 0.000000 1.631230 0.000000 
#    z 0.000000 0.000000 1.664490 
# 
# From -- ./inp_files/11073.got.cif
#   From: 2010.05.17/outbox.cif.g08.bks.cpg/sg36_6_cif.got.tgz:11073.got - 2010.06.03 17:41:39.
