data_PCOD9351713
_publ_section_title
;
Structure prediction by ZEFSAII (Michael W. Deem and Ramdas Pophale) SiO2 
 PCOD9351713
Probable space group: C M C 21
;
_chemical_formula_sum "Si O2"
_cell_formula_units_Z 56
_cell_length_a 15.266480
_cell_length_b 19.350892
_cell_length_c 9.522855
_cell_angle_alpha 90.000000
_cell_angle_beta 90.000000
_cell_angle_gamma 90.000000
_cell_volume 2813.241878
_symmetry_space_group_name_H-M "C M C 21"
_symmetry_group_IT_number 36
_symmetry_cell_setting 'orthorhombic'
loop_
_space_group_symop_operation_xyz
x,y,z
-x,-y,1/2+z
x,-y,1/2+z
-x,y,z
1/2+x,1/2+y,z
1/2-x,1/2-y,1/2+z
1/2+x,1/2-y,1/2+z
1/2-x,1/2+y,z
loop_
_atom_site_type_symbol
_atom_site_label
_atom_site_fract_x
_atom_site_fract_y
_atom_site_fract_z
Si Si1 0.217798 0.888309 0.184660
Si Si2 0.211262 0.534457 0.170405
Si Si3 0.105493 0.791342 0.996356
Si Si4 0.749028 0.671117 0.998558
Si Si5 0.594676 0.871160 0.195577
Si Si6 0.099220 0.502782 0.909229
Si Si7 0.096406 0.211637 0.190683
O O1 0.141548 0.848165 0.105562
O O2 0.228770 0.855418 0.340790
O O3 0.313507 0.874681 0.114963
O O4 0.217928 0.972206 0.183181
O O5 0.241554 0.603750 0.096801
O O6 0.167857 0.542530 0.322170
O O7 0.131103 0.510939 0.067741
O O8 0.168213 0.723393 0.011813
O O9 0.000000 0.778594 0.011207
O O10 0.121322 0.822033 0.839353
O O11 0.664688 0.707461 0.066041
O O12 0.500000 0.886358 0.128194
O O13 0.602922 0.922590 0.328912
O O14 0.589667 0.791507 0.236450
O O15 0.000000 0.479634 0.894451
O O16 0.000000 0.187508 0.146427
#
# Coordination Sequence:
#
# PCOD9351713 Si02
#       7
#     8   8   8   8   8   8   8
#     4  11  23  40  61  93 126 168 206 258 312 368
#     4  11  22  38  59  89 124 169 210 256 314 370
#     4  11  23  41  66  94 126 165 210 261 315 373
#     4  12  22  41  65  92 126 167 208 260 313 375
#     4   9  16  34  59  86 120 159 195 238 301 369
#     4  10  20  35  57  87 125 163 204 247 306 377
#     4  10  21  37  63  91 119 159 206 252 308 372
#
# _framework density 19.905861000000002
#
# number of rings (size 3 to 8) (size 9 to 14) (size 15 to 20)
#    0.000    1.429    5.714    0.429    2.000    2.286 
#    0.000    0.714    0.000    0.000    0.000    0.000 
#    0.000    0.000    0.000    0.000    0.000    0.000 
#
# Total GULP energy -155894.689456 kJ/mol
# GULP energy per Si atom -5567.667481 kJ/mol
# Density = 1.986055 g / cm^3
# Si number density = 19.905861 Si / 1000 Ang^3
#
#
#
# Elastic Constant Matrix: (Units=GPa)
#
#
# Indices 1 2 3 4 5 6 
#
# 1 112.6081 33.2337 45.9422 0.0000 0.0000 0.0000
# 2 33.2337 71.6446 29.7751 0.0000 0.0000 0.0000
# 3 45.9422 29.7751 87.9057 0.0000 0.0000 0.0000
# 4 0.0000 0.0000 0.0000 29.0503 0.0000 0.0000
# 5 0.0000 0.0000 0.0000 0.0000 26.2681 0.0000
# 6 0.0000 0.0000 0.0000 0.0000 0.0000 16.4983
#
#
#
# Elastic Compliance Matrix: (Units=1/GPa)
#
#
# Indices 1 2 3 4 5 6 
#
# 1 0.011973 -0.003437 -0.005093 0.000000 0.000000 0.000000
# 2 -0.003437 0.017231 -0.004040 0.000000 0.000000 0.000000
# 3 -0.005093 -0.004040 0.015406 0.000000 0.000000 0.000000
# 4 0.000000 0.000000 0.000000 0.034423 0.000000 0.000000
# 5 0.000000 0.000000 0.000000 0.000000 0.038069 0.000000
# 6 0.000000 0.000000 0.000000 0.000000 0.000000 0.060612
#
#
# Mechanical properties :
#
#
# Convention : Reuss Voigt Hill
#
# Bulk Modulus (GPa) = 51.36293 54.45117 52.90705
# Shear Modulus (GPa) = 23.88406 25.24383 24.56394
#
# Velocity S-wave (km/s) = 3.46764 3.56499 3.51665
# Velocity P-wave (km/s) = 6.47238 6.66027 6.56700
#
# Compressibility (1/GPa) = 0.01946929
#
# Stress axis : x y z
#
# Youngs Moduli (GPa) = 83.52390 58.03423 64.90936
#
# Poissons Ratio (x) = 0.19947 0.33059
# Poissons Ratio (y) = 0.28708 0.26224
# Poissons Ratio (z) = 0.42539 0.23447
#
# Static dielectric constant tensor:
#      x y z
#    x 1.734910 0.000000 0.000000 
#    y 0.000000 1.802450 0.000000 
#    z 0.000000 0.000000 1.720640 
# 
# From -- ./inp_files/4187.got.cif
#   From: 2010.05.17/outbox.cif.g08.bks.cpg/sg36_3_cif.got.tgz:4187.got - 2010.06.03 17:41:39.
