data_PCOD9351000
_publ_section_title
;
Structure prediction by ZEFSAII (Michael W. Deem and Ramdas Pophale) SiO2 
 PCOD9351000
Probable space group: C M C 21
;
_chemical_formula_sum "Si O2"
_cell_formula_units_Z 64
_cell_length_a 9.080639
_cell_length_b 20.824680
_cell_length_c 19.676724
_cell_angle_alpha 90.000000
_cell_angle_beta 90.000000
_cell_angle_gamma 90.000000
_cell_volume 3720.896083
_symmetry_space_group_name_H-M "C M C 21"
_symmetry_group_IT_number 36
_symmetry_cell_setting 'orthorhombic'
loop_
_space_group_symop_operation_xyz
x,y,z
-x,-y,1/2+z
x,-y,1/2+z
-x,y,z
1/2+x,1/2+y,z
1/2-x,1/2-y,1/2+z
1/2+x,1/2-y,1/2+z
1/2-x,1/2+y,z
loop_
_atom_site_type_symbol
_atom_site_label
_atom_site_fract_x
_atom_site_fract_y
_atom_site_fract_z
Si Si1 0.324639 0.890507 0.917850
Si Si2 0.676789 0.565399 0.282437
Si Si3 0.824875 0.189219 0.193820
Si Si4 0.675810 0.738360 0.918581
Si Si5 0.675295 0.390139 0.059840
Si Si6 0.674885 0.185083 0.786388
Si Si7 0.177196 0.932339 0.207898
Si Si8 0.174850 0.737857 0.060892
O O1 0.500000 0.897796 0.918109
O O2 0.253708 0.928297 0.855263
O O3 0.290377 0.814371 0.908071
O O4 0.258933 0.908962 0.991174
O O5 0.500000 0.568267 0.292313
O O6 0.719072 0.626423 0.236181
O O7 0.711983 0.500111 0.242657
O O8 0.799874 0.251815 0.240251
O O9 0.737605 0.198953 0.124330
O O10 0.000000 0.185174 0.179559
O O11 0.500000 0.730986 0.918984
O O12 0.748067 0.698425 0.858140
O O13 0.744075 0.720265 0.991138
O O14 0.500000 0.397484 0.048904
O O15 0.717984 0.427633 0.128235
O O16 0.703655 0.314151 0.072629
O O17 0.500000 0.177293 0.795083
O O18 0.743861 0.124436 0.748405
O O19 0.000000 0.922709 0.211173
O O20 0.000000 0.729718 0.054163
#
# Coordination Sequence:
#
# PCOD9351000 Si02
#       8
#     8   8   8   8   8   8   8   8
#     4  10  20  33  54  82 110 142 184 231 278 326
#     4  10  21  38  58  80 112 151 189 226 271 332
#     4  10  20  34  54  81 110 143 182 225 275 329
#     4  10  20  34  54  81 113 146 185 231 278 332
#     4   9  18  33  54  79 107 140 184 229 273 331
#     4  11  21  34  56  83 112 143 181 229 278 327
#     4  10  21  38  58  82 111 148 189 227 273 331
#     4  10  19  32  54  82 111 143 182 232 282 328
#
# _framework density 17.200157000000001
#
# number of rings (size 3 to 8) (size 9 to 14) (size 15 to 20)
#    0.000    2.000    2.500    1.500    0.000    3.500 
#    0.000    1.250    0.000    6.000    0.000    0.000 
#    0.000    0.000    0.000    0.000    0.000    0.000 
#
# Total GULP energy -178644.671720 kJ/mol
# GULP energy per Si atom -5582.645991 kJ/mol
# Density = 1.716101 g / cm^3
# Si number density = 17.200157 Si / 1000 Ang^3
#
#
#
# Elastic Constant Matrix: (Units=GPa)
#
#
# Indices 1 2 3 4 5 6 
#
# 1 47.2641 51.4251 74.4373 0.0000 0.0000 0.0000
# 2 51.4251 96.0030 74.7127 0.0000 0.0000 0.0000
# 3 74.4373 74.7127 185.2391 0.0000 0.0000 0.0000
# 4 0.0000 0.0000 0.0000 26.8453 0.0000 0.0000
# 5 0.0000 0.0000 0.0000 0.0000 35.7787 0.0000
# 6 0.0000 0.0000 0.0000 0.0000 0.0000 22.0970
#
#
#
# Elastic Compliance Matrix: (Units=1/GPa)
#
#
# Indices 1 2 3 4 5 6 
#
# 1 0.096173 -0.031249 -0.026043 0.000000 0.000000 0.000000
# 2 -0.031249 0.025335 0.002339 0.000000 0.000000 0.000000
# 3 -0.026043 0.002339 0.014920 0.000000 0.000000 0.000000
# 4 0.000000 0.000000 0.000000 0.037251 0.000000 0.000000
# 5 0.000000 0.000000 0.000000 0.000000 0.027950 0.000000
# 6 0.000000 0.000000 0.000000 0.000000 0.000000 0.045255
#
#
# Mechanical properties :
#
#
# Convention : Reuss Voigt Hill
#
# Bulk Modulus (GPa) = 37.70376 81.07295 59.38836
# Shear Modulus (GPa) = 13.67498 25.47294 19.57396
#
# Velocity S-wave (km/s) = 2.82272 3.85251 3.37710
# Velocity P-wave (km/s) = 5.70893 8.18697 7.05756
#
# Compressibility (1/GPa) = 0.02652255
#
# Stress axis : x y z
#
# Youngs Moduli (GPa) = 10.39788 39.47110 67.02207
#
# Poissons Ratio (x) = 1.23342 1.74547
# Poissons Ratio (y) = 0.32492 -0.15675
# Poissons Ratio (z) = 0.27079 -0.09231
#
# Static dielectric constant tensor:
#      x y z
#    x 1.568190 0.000000 0.000000 
#    y 0.000000 1.565460 0.000000 
#    z 0.000000 0.000000 1.562530 
# 
# From -- ./inp_files/13803.got.cif
#   From: 2010.05.17/outbox.cif.g08.bks.cpg/sg36_7_cif.got.tgz:13803.got - 2010.06.03 17:41:39.
