data_PCOD9351805
_publ_section_title
;
Structure prediction by ZEFSAII (Michael W. Deem and Ramdas Pophale) SiO2 
 PCOD9351805
Probable space group: C M C 21
;
_chemical_formula_sum "Si O2"
_cell_formula_units_Z 64
_cell_length_a 8.456960
_cell_length_b 23.524862
_cell_length_c 16.484534
_cell_angle_alpha 90.000000
_cell_angle_beta 90.000000
_cell_angle_gamma 90.000000
_cell_volume 3279.578537
_symmetry_space_group_name_H-M "C M C 21"
_symmetry_group_IT_number 36
_symmetry_cell_setting 'orthorhombic'
loop_
_space_group_symop_operation_xyz
x,y,z
-x,-y,1/2+z
x,-y,1/2+z
-x,y,z
1/2+x,1/2+y,z
1/2-x,1/2-y,1/2+z
1/2+x,1/2-y,1/2+z
1/2-x,1/2+y,z
loop_
_atom_site_type_symbol
_atom_site_label
_atom_site_fract_x
_atom_site_fract_y
_atom_site_fract_z
Si Si1 0.314263 0.968505 0.163990
Si Si2 0.806651 0.594734 0.219066
Si Si3 0.680059 0.546757 0.950273
Si Si4 0.820685 0.118470 0.786487
Si Si5 0.684588 0.142903 0.051900
Si Si6 0.811937 0.286976 0.397367
Si Si7 0.813951 0.661238 0.380646
Si Si8 0.814921 0.927376 0.993914
O O1 0.500000 0.974560 0.145859
O O2 0.286185 0.915541 0.223755
O O3 0.258880 0.028963 0.202356
O O4 0.223662 0.951259 0.082538
O O5 0.751620 0.633737 0.142762
O O6 0.757270 0.623266 0.303837
O O7 0.000000 0.594262 0.218855
O O8 0.500000 0.548053 0.983758
O O9 0.678161 0.578839 0.865852
O O10 0.724983 0.481786 0.938281
O O11 0.792907 0.581311 0.009981
O O12 0.760369 0.177928 0.822232
O O13 0.000000 0.123703 0.754988
O O14 0.500000 0.156629 0.060833
O O15 0.750138 0.186573 0.983689
O O16 0.772035 0.221297 0.387989
O O17 0.000000 0.296401 0.396771
O O18 0.783515 0.625398 0.462071
O O19 0.000000 0.671784 0.369947
O O20 0.000000 0.913583 0.987113
#
# Coordination Sequence:
#
# PCOD9351805 Si02
#       8
#     8   8   8   8   8   8   8   8
#     4  11  21  36  59  89 120 148 191 240 291 355
#     4   9  19  36  60  89 116 148 193 243 297 356
#     4   9  18  32  54  84 116 147 184 229 285 347
#     4  10  20  36  58  85 116 152 190 235 291 348
#     4   9  17  34  60  85 111 147 191 240 290 346
#     4  10  21  39  61  84 114 153 202 249 293 348
#     4  11  23  40  60  83 117 159 202 247 297 351
#     4  11  22  37  56  83 120 156 189 233 294 353
#
# _framework density 19.514702
#
# number of rings (size 3 to 8) (size 9 to 14) (size 15 to 20)
#    0.000    2.000    1.250    2.625    0.000    1.500 
#    2.250    3.125    0.000    0.000    0.000    0.000 
#    0.000    0.000    0.000    0.000    0.000    0.000 
#
# Total GULP energy -178441.008938 kJ/mol
# GULP energy per Si atom -5576.281529 kJ/mol
# Density = 1.947029 g / cm^3
# Si number density = 19.514702 Si / 1000 Ang^3
#
#
#
# Elastic Constant Matrix: (Units=GPa)
#
#
# Indices 1 2 3 4 5 6 
#
# 1 15.1600 0.3570 -2.9154 0.0000 0.0000 0.0000
# 2 0.3570 110.1542 32.3656 0.0000 0.0000 0.0000
# 3 -2.9154 32.3656 56.2475 0.0000 0.0000 0.0000
# 4 0.0000 0.0000 0.0000 24.0138 0.0000 0.0000
# 5 0.0000 0.0000 0.0000 0.0000 20.4578 0.0000
# 6 0.0000 0.0000 0.0000 0.0000 0.0000 28.8648
#
#
#
# Elastic Compliance Matrix: (Units=1/GPa)
#
#
# Indices 1 2 3 4 5 6 
#
# 1 0.066829 -0.001485 0.004319 0.000000 0.000000 0.000000
# 2 -0.001485 0.010958 -0.006383 0.000000 0.000000 0.000000
# 3 0.004319 -0.006383 0.021675 0.000000 0.000000 0.000000
# 4 0.000000 0.000000 0.000000 0.041643 0.000000 0.000000
# 5 0.000000 0.000000 0.000000 0.000000 0.048881 0.000000
# 6 0.000000 0.000000 0.000000 0.000000 0.000000 0.034644
#
#
# Mechanical properties :
#
#
# Convention : Reuss Voigt Hill
#
# Bulk Modulus (GPa) = 10.82685 26.79735 18.81210
# Shear Modulus (GPa) = 19.04641 24.78425 21.91533
#
# Velocity S-wave (km/s) = 3.12749 3.56761 3.35478
# Velocity P-wave (km/s) = 4.31297 5.54366 4.96658
#
# Compressibility (1/GPa) = 0.09236299
#
# Stress axis : x y z
#
# Youngs Moduli (GPa) = 14.96366 91.25485 46.13608
#
# Poissons Ratio (x) = 0.13555 -0.19924
# Poissons Ratio (y) = 0.02223 0.29447
# Poissons Ratio (z) = -0.06462 0.58244
#
# Static dielectric constant tensor:
#      x y z
#    x 1.682920 0.000000 0.000000 
#    y 0.000000 1.679940 0.000000 
#    z 0.000000 0.000000 1.716330 
# 
# From -- ./inp_files/11006.got.cif
#   From: 2010.05.17/outbox.cif.g08.bks.cpg/sg36_6_cif.got.tgz:11006.got - 2010.06.03 17:41:39.
