data_PCOD9351346
_publ_section_title
;
Structure prediction by ZEFSAII (Michael W. Deem and Ramdas Pophale) SiO2 
 PCOD9351346
Probable space group: C M C 21
;
_chemical_formula_sum "Si O2"
_cell_formula_units_Z 48
_cell_length_a 7.751476
_cell_length_b 29.789474
_cell_length_c 8.607127
_cell_angle_alpha 90.000000
_cell_angle_beta 90.000000
_cell_angle_gamma 90.000000
_cell_volume 1987.492290
_symmetry_space_group_name_H-M "C M C 21"
_symmetry_group_IT_number 36
_symmetry_cell_setting 'orthorhombic'
loop_
_space_group_symop_operation_xyz
x,y,z
-x,-y,1/2+z
x,-y,1/2+z
-x,y,z
1/2+x,1/2+y,z
1/2-x,1/2-y,1/2+z
1/2+x,1/2-y,1/2+z
1/2-x,1/2+y,z
loop_
_atom_site_type_symbol
_atom_site_label
_atom_site_fract_x
_atom_site_fract_y
_atom_site_fract_z
Si Si1 0.803046 0.765694 0.697070
Si Si2 0.209098 0.106922 0.688743
Si Si3 0.698534 0.685673 0.896117
Si Si4 0.209340 0.064282 0.192990
Si Si5 0.789765 0.978314 0.366603
Si Si6 0.304108 0.151237 0.363362
O O1 0.706124 0.722381 0.759490
O O2 0.723812 0.789969 0.546089
O O3 0.804053 0.804542 0.827134
O O4 0.000000 0.751711 0.661934
O O5 0.272253 0.140094 0.825611
O O6 0.260777 0.056424 0.730804
O O7 0.264626 0.126736 0.524868
O O8 0.000000 0.107961 0.689680
O O9 0.500000 0.675689 0.939758
O O10 0.275035 0.113539 0.231963
O O11 0.000000 0.066877 0.193079
O O12 0.264813 0.028475 0.324467
O O13 0.264673 0.043033 0.029437
O O14 0.000000 0.979549 0.370728
O O15 0.500000 0.166606 0.363638
#
# Coordination Sequence:
#
# PCOD9351346 Si02
#       6
#     8   8   8   8   8   8
#     4  11  23  40  62  86 115 152 191 233 283 340
#     4  10  20  38  62  87 116 151 190 233 283 339
#     4  10  22  39  61  90 119 147 186 235 285 339
#     4  10  19  36  61  88 116 149 191 236 285 339
#     4   9  18  34  62  92 115 146 191 237 280 339
#     4  12  25  39  56  83 117 153 195 240 286 336
#
# _framework density 24.151036000000001
#
# number of rings (size 3 to 8) (size 9 to 14) (size 15 to 20)
#    0.000    1.667    0.000    5.000    0.000   10.000 
#    0.000    5.833    0.000    0.000    0.000    0.000 
#    0.000    0.000    0.000    0.000    0.000    0.000 
#
# Total GULP energy -134300.232092 kJ/mol
# GULP energy per Si atom -5595.843004 kJ/mol
# Density = 2.409607 g / cm^3
# Si number density = 24.151036 Si / 1000 Ang^3
#
#
#
# Elastic Constant Matrix: (Units=GPa)
#
#
# Indices 1 2 3 4 5 6 
#
# 1 50.9210 -4.6217 -2.1357 0.0000 0.0000 0.0000
# 2 -4.6217 94.7415 -11.7924 0.0000 0.0000 0.0000
# 3 -2.1357 -11.7924 63.7829 0.0000 0.0000 0.0000
# 4 0.0000 0.0000 0.0000 43.0642 0.0000 0.0000
# 5 0.0000 0.0000 0.0000 0.0000 10.0205 0.0000
# 6 0.0000 0.0000 0.0000 0.0000 0.0000 5.3451
#
#
#
# Elastic Compliance Matrix: (Units=1/GPa)
#
#
# Indices 1 2 3 4 5 6 
#
# 1 0.019772 0.001072 0.000860 0.000000 0.000000 0.000000
# 2 0.001072 0.010862 0.002044 0.000000 0.000000 0.000000
# 3 0.000860 0.002044 0.016085 0.000000 0.000000 0.000000
# 4 0.000000 0.000000 0.000000 0.023221 0.000000 0.000000
# 5 0.000000 0.000000 0.000000 0.000000 0.099796 0.000000
# 6 0.000000 0.000000 0.000000 0.000000 0.000000 0.187089
#
#
# Mechanical properties :
#
#
# Convention : Reuss Voigt Hill
#
# Bulk Modulus (GPa) = 18.29168 19.14954 18.72061
# Shear Modulus (GPa) = 13.62044 26.88562 20.25303
#
# Velocity S-wave (km/s) = 2.37738 3.34013 2.89900
# Velocity P-wave (km/s) = 3.88924 4.77719 4.35590
#
# Compressibility (1/GPa) = 0.05466967
#
# Stress axis : x y z
#
# Youngs Moduli (GPa) = 50.57761 92.06639 62.17013
#
# Poissons Ratio (x) = -0.09865 -0.05347
# Poissons Ratio (y) = -0.05420 -0.12708
# Poissons Ratio (z) = -0.04350 -0.18819
#
# Static dielectric constant tensor:
#      x y z
#    x 1.919640 0.000000 0.000000 
#    y 0.000000 1.853460 0.000000 
#    z 0.000000 0.000000 1.958860 
# 
# From -- ./inp_files/2694.got.cif
#   From: 2010.05.17/outbox.cif.g08.bks.cpg/sg36_2_cif.got.tgz:2694.got - 2010.06.03 17:41:39.
