data_PCOD9351686
_publ_section_title
;
Structure prediction by ZEFSAII (Michael W. Deem and Ramdas Pophale) SiO2 
 PCOD9351686
Probable space group: C M C 21
;
_chemical_formula_sum "Si O2"
_cell_formula_units_Z 64
_cell_length_a 8.736842
_cell_length_b 29.698185
_cell_length_c 12.533194
_cell_angle_alpha 90.000000
_cell_angle_beta 90.000000
_cell_angle_gamma 90.000000
_cell_volume 3251.967168
_symmetry_space_group_name_H-M "C M C 21"
_symmetry_group_IT_number 36
_symmetry_cell_setting 'orthorhombic'
loop_
_space_group_symop_operation_xyz
x,y,z
-x,-y,1/2+z
x,-y,1/2+z
-x,y,z
1/2+x,1/2+y,z
1/2-x,1/2-y,1/2+z
1/2+x,1/2-y,1/2+z
1/2-x,1/2+y,z
loop_
_atom_site_type_symbol
_atom_site_label
_atom_site_fract_x
_atom_site_fract_y
_atom_site_fract_z
Si Si1 0.182958 0.333393 0.071890
Si Si2 0.825425 0.070288 0.613322
Si Si3 0.679200 0.978484 0.549306
Si Si4 0.173923 0.930734 0.362036
Si Si5 0.314615 0.228459 0.770569
Si Si6 0.683991 0.113217 0.164406
Si Si7 0.684276 0.841592 0.443610
Si Si8 0.183479 0.825139 0.837351
O O1 0.226765 0.385071 0.095691
O O2 0.238164 0.301173 0.169280
O O3 0.000000 0.329144 0.065206
O O4 0.255799 0.322291 0.957682
O O5 0.822726 0.058745 0.738372
O O6 0.000000 0.080288 0.580952
O O7 0.764421 0.025474 0.558696
O O8 0.500000 0.985260 0.568827
O O9 0.710500 0.959776 0.431480
O O10 0.731585 0.937015 0.626195
O O11 0.227903 0.879674 0.377573
O O12 0.000000 0.936487 0.402381
O O13 0.500000 0.228621 0.764712
O O14 0.276288 0.204609 0.883794
O O15 0.263213 0.279995 0.775170
O O16 0.500000 0.112769 0.174129
O O17 0.756089 0.131781 0.272451
O O18 0.723308 0.147523 0.066565
O O19 0.500000 0.847972 0.434262
O O20 0.000000 0.826039 0.839015
#
# Coordination Sequence:
#
# PCOD9351686 Si02
#       8
#     8   8   8   8   8   8   8   8
#     4  11  23  42  65  89 122 162 209 252 300 369
#     4  11  23  39  61  91 124 157 198 252 313 364
#     4  10  22  39  62  88 118 162 210 251 300 366
#     4  10  20  35  56  86 120 152 193 249 307 360
#     4   9  20  38  61  88 118 157 201 250 304 362
#     4   9  20  38  60  87 119 159 207 251 300 364
#     4   9  17  35  61  84 111 151 199 251 298 355
#     4  11  24  40  60  89 128 166 203 254 316 364
#
# _framework density 19.680395999999998
#
# number of rings (size 3 to 8) (size 9 to 14) (size 15 to 20)
#    0.000    2.000    1.250    2.625    1.750    5.000 
#    0.000    5.625    0.000    0.000    0.000    0.000 
#    0.000    0.000    0.000    0.000    0.000    0.000 
#
# Total GULP energy -178544.276352 kJ/mol
# GULP energy per Si atom -5579.508636 kJ/mol
# Density = 1.963560 g / cm^3
# Si number density = 19.680396 Si / 1000 Ang^3
#
#
#
# Elastic Constant Matrix: (Units=GPa)
#
#
# Indices 1 2 3 4 5 6 
#
# 1 19.8568 2.8677 6.1443 0.0000 0.0000 0.0000
# 2 2.8677 77.2024 25.8400 0.0000 0.0000 0.0000
# 3 6.1443 25.8400 59.7420 0.0000 0.0000 0.0000
# 4 0.0000 0.0000 0.0000 17.1827 0.0000 0.0000
# 5 0.0000 0.0000 0.0000 0.0000 25.1931 0.0000
# 6 0.0000 0.0000 0.0000 0.0000 0.0000 21.4454
#
#
#
# Elastic Compliance Matrix: (Units=1/GPa)
#
#
# Indices 1 2 3 4 5 6 
#
# 1 0.052018 -0.000166 -0.005278 0.000000 0.000000 0.000000
# 2 -0.000166 0.015146 -0.006534 0.000000 0.000000 0.000000
# 3 -0.005278 -0.006534 0.020108 0.000000 0.000000 0.000000
# 4 0.000000 0.000000 0.000000 0.058198 0.000000 0.000000
# 5 0.000000 0.000000 0.000000 0.000000 0.039693 0.000000
# 6 0.000000 0.000000 0.000000 0.000000 0.000000 0.046630
#
#
# Mechanical properties :
#
#
# Convention : Reuss Voigt Hill
#
# Bulk Modulus (GPa) = 15.79384 25.16723 20.48053
# Shear Modulus (GPa) = 18.06006 20.89419 19.47712
#
# Velocity S-wave (km/s) = 3.03259 3.26187 3.14932
# Velocity P-wave (km/s) = 4.50608 5.19636 4.86348
#
# Compressibility (1/GPa) = 0.06331581
#
# Stress axis : x y z
#
# Youngs Moduli (GPa) = 19.22419 66.02364 49.73234
#
# Poissons Ratio (x) = 0.01093 0.26250
# Poissons Ratio (y) = 0.00318 0.32495
# Poissons Ratio (z) = 0.10147 0.43140
#
# Static dielectric constant tensor:
#      x y z
#    x 1.687050 0.000000 0.000000 
#    y 0.000000 1.685900 0.000000 
#    z 0.000000 0.000000 1.693580 
# 
# From -- ./inp_files/7178.got.cif
#   From: 2010.05.17/outbox.cif.g08.bks.cpg/sg36_4_cif.got.tgz:7178.got - 2010.06.03 17:41:39.
