data_PCOD9351961
_publ_section_title
;
Structure prediction by ZEFSAII (Michael W. Deem and Ramdas Pophale) SiO2 
 PCOD9351961
Probable space group: C M C 21
;
_chemical_formula_sum "Si O2"
_cell_formula_units_Z 48
_cell_length_a 12.273482
_cell_length_b 8.381878
_cell_length_c 16.595522
_cell_angle_alpha 90.000000
_cell_angle_beta 90.000000
_cell_angle_gamma 90.000000
_cell_volume 1707.261484
_symmetry_space_group_name_H-M "C M C 21"
_symmetry_group_IT_number 36
_symmetry_cell_setting 'orthorhombic'
loop_
_space_group_symop_operation_xyz
x,y,z
-x,-y,1/2+z
x,-y,1/2+z
-x,y,z
1/2+x,1/2+y,z
1/2-x,1/2-y,1/2+z
1/2+x,1/2-y,1/2+z
1/2-x,1/2+y,z
loop_
_atom_site_type_symbol
_atom_site_label
_atom_site_fract_x
_atom_site_fract_y
_atom_site_fract_z
Si Si1 0.840778 0.871203 0.502670
Si Si2 0.882890 0.336710 0.163199
Si Si3 0.621552 0.379710 0.813782
Si Si4 0.373270 0.136148 0.354341
Si Si5 0.154453 0.156419 0.696928
Si Si6 0.612042 0.742227 0.522757
O O1 0.875956 0.790415 0.588425
O O2 0.879909 0.764825 0.427177
O O3 0.710715 0.851481 0.496576
O O4 0.875492 0.054817 0.501502
O O5 0.872694 0.277886 0.257211
O O6 0.766852 0.417895 0.159420
O O7 0.000000 0.414048 0.154443
O O8 0.500000 0.378962 0.853640
O O9 0.739687 0.417621 0.856958
O O10 0.609527 0.506962 0.743011
O O11 0.500000 0.064656 0.354663
O O12 0.360034 0.213107 0.266382
O O13 0.108991 0.235873 0.618256
O O14 0.500000 0.811812 0.491698
#
# Coordination Sequence:
#
# PCOD9351961 Si02
#       6
#     8   8   8   8   8   8
#     4  11  24  41  68 100 133 180 229 278 344 414
#     4   9  18  36  61  88 122 164 215 274 330 390
#     4  10  20  37  62  89 120 164 217 267 326 399
#     4  11  24  39  60  93 133 173 218 277 342 405
#     4  10  21  38  65  94 124 172 227 274 333 407
#     4  11  23  45  72  98 134 179 232 288 341 405
#
# _framework density 28.115199
#
# number of rings (size 3 to 8) (size 9 to 14) (size 15 to 20)
#    0.000    1.667    1.667    3.000    2.333    1.333 
#    0.000    5.000    0.000    0.000    0.000    0.000 
#    0.000    0.000    0.000    0.000    0.000    0.000 
#
# Total GULP energy -133665.258764 kJ/mol
# GULP energy per Si atom -5569.385782 kJ/mol
# Density = 2.805121 g / cm^3
# Si number density = 28.115199 Si / 1000 Ang^3
#
#
#
# Elastic Constant Matrix: (Units=GPa)
#
#
# Indices 1 2 3 4 5 6 
#
# 1 312.5215 39.7435 47.3755 0.0000 0.0000 0.0000
# 2 39.7435 53.2227 28.8537 0.0000 0.0000 0.0000
# 3 47.3755 28.8537 182.8489 0.0000 0.0000 0.0000
# 4 0.0000 0.0000 0.0000 48.5010 0.0000 0.0000
# 5 0.0000 0.0000 0.0000 0.0000 164.8188 0.0000
# 6 0.0000 0.0000 0.0000 0.0000 0.0000 -387.4044
#
#
#
# Elastic Compliance Matrix: (Units=1/GPa)
#
#
# Indices 1 2 3 4 5 6 
#
# 1 0.003586 -0.002378 -0.000554 0.000000 0.000000 0.000000
# 2 -0.002378 0.022123 -0.002875 0.000000 0.000000 0.000000
# 3 -0.000554 -0.002875 0.006066 0.000000 0.000000 0.000000
# 4 0.000000 0.000000 0.000000 0.020618 0.000000 0.000000
# 5 0.000000 0.000000 0.000000 0.000000 0.006067 0.000000
# 6 0.000000 0.000000 0.000000 0.000000 0.000000 -0.002581
#
#
# Mechanical properties :
#
#
# Convention : Reuss Voigt Hill
#
# Bulk Modulus (GPa) = 49.59759 86.72647 68.16203
# Shear Modulus (GPa) = 67.37334 -5.97556 30.69889
#
# Velocity S-wave (km/s) = 4.90054 -1.45945 3.30797
# Velocity P-wave (km/s) = 7.04979 5.29847 6.23592
#
# Compressibility (1/GPa) = 0.02016227
#
# Stress axis : x y z
#
# Youngs Moduli (GPa) = 278.85350 45.20175 164.84767
#
# Poissons Ratio (x) = 0.10747 0.09132
# Poissons Ratio (y) = 0.66299 0.47394
# Poissons Ratio (z) = 0.15448 0.12996
#
# Static dielectric constant tensor:
#      x y z
#    x 2.202930 0.000000 0.000000 
#    y 0.000000 2.441600 0.000000 
#    z 0.000000 0.000000 2.171910 
# 
# From -- ./inp_files/14237.got.cif
#   From: 2010.05.17/outbox.cif.g08.bks.cpg/sg36_8_cif.got.tgz:14237.got - 2010.06.03 17:41:39.
