data_PCOD9351388
_publ_section_title
;
Structure prediction by ZEFSAII (Michael W. Deem and Ramdas Pophale) SiO2 
 PCOD9351388
Probable space group: C M C 21
;
_chemical_formula_sum "Si O2"
_cell_formula_units_Z 64
_cell_length_a 8.311346
_cell_length_b 24.803781
_cell_length_c 15.894046
_cell_angle_alpha 90.000000
_cell_angle_beta 90.000000
_cell_angle_gamma 90.000000
_cell_volume 3276.602182
_symmetry_space_group_name_H-M "C M C 21"
_symmetry_group_IT_number 36
_symmetry_cell_setting 'orthorhombic'
loop_
_space_group_symop_operation_xyz
x,y,z
-x,-y,1/2+z
x,-y,1/2+z
-x,y,z
1/2+x,1/2+y,z
1/2-x,1/2-y,1/2+z
1/2+x,1/2-y,1/2+z
1/2-x,1/2+y,z
loop_
_atom_site_type_symbol
_atom_site_label
_atom_site_fract_x
_atom_site_fract_y
_atom_site_fract_z
Si Si1 0.692786 0.374566 0.538870
Si Si2 0.313287 0.876587 0.723008
Si Si3 0.192982 0.013042 0.953072
Si Si4 0.691452 0.058662 0.608143
Si Si5 0.695121 0.243637 0.270828
Si Si6 0.194830 0.758499 0.462434
Si Si7 0.194843 0.682586 0.615722
Si Si8 0.311005 0.490538 0.767683
O O1 0.500000 0.374952 0.558577
O O2 0.793238 0.379689 0.623273
O O3 0.727324 0.426368 0.482618
O O4 0.731167 0.318126 0.495549
O O5 0.500000 0.882198 0.747868
O O6 0.255395 0.817372 0.748642
O O7 0.215912 0.926834 0.758227
O O8 0.000000 0.006893 0.949707
O O9 0.257658 0.005445 0.859035
O O10 0.252113 0.971226 0.023390
O O11 0.500000 0.061401 0.605021
O O12 0.752110 0.120458 0.615426
O O13 0.738205 0.022846 0.689087
O O14 0.500000 0.245847 0.269189
O O15 0.751363 0.253706 0.366338
O O16 0.754690 0.284926 0.199534
O O17 0.251016 0.714991 0.531971
O O18 0.000000 0.753281 0.459553
O O19 0.000000 0.682398 0.613877
O O20 0.500000 0.502782 0.766112
#
# Coordination Sequence:
#
# PCOD9351388 Si02
#       8
#     8   8   8   8   8   8   8   8
#     4  10  19  37  64  85 111 153 201 245 293 351
#     4  11  22  37  60  90 120 151 196 250 301 347
#     4  10  23  40  61  90 117 156 204 247 296 352
#     4  11  24  40  61  89 122 160 197 246 304 352
#     4  10  22  38  61  89 117 154 198 242 292 349
#     4   9  19  37  61  85 114 157 196 233 289 353
#     4  10  22  40  60  85 120 157 194 236 293 355
#     4  11  24  41  62  87 119 160 204 245 294 357
#
# _framework density 19.532430999999999
#
# number of rings (size 3 to 8) (size 9 to 14) (size 15 to 20)
#    0.000    1.750    2.500    1.125    3.500    2.500 
#    0.000    1.250    0.000    0.000    0.000    0.000 
#    0.000    0.000    0.000    0.000    0.000    0.000 
#
# Total GULP energy -178660.007645 kJ/mol
# GULP energy per Si atom -5583.125239 kJ/mol
# Density = 1.948797 g / cm^3
# Si number density = 19.532431 Si / 1000 Ang^3
#
#
#
# Elastic Constant Matrix: (Units=GPa)
#
#
# Indices 1 2 3 4 5 6 
#
# 1 6.6506 9.4577 4.0309 0.0000 0.0000 0.0000
# 2 9.4577 83.6783 -5.6940 0.0000 0.0000 0.0000
# 3 4.0309 -5.6940 67.3205 0.0000 0.0000 0.0000
# 4 0.0000 0.0000 0.0000 30.6678 0.0000 0.0000
# 5 0.0000 0.0000 0.0000 0.0000 4.2107 0.0000
# 6 0.0000 0.0000 0.0000 0.0000 0.0000 12.2948
#
#
#
# Elastic Compliance Matrix: (Units=1/GPa)
#
#
# Indices 1 2 3 4 5 6 
#
# 1 0.190289 -0.022412 -0.013289 0.000000 0.000000 0.000000
# 2 -0.022412 0.014659 0.002582 0.000000 0.000000 0.000000
# 3 -0.013289 0.002582 0.015868 0.000000 0.000000 0.000000
# 4 0.000000 0.000000 0.000000 0.032608 0.000000 0.000000
# 5 0.000000 0.000000 0.000000 0.000000 0.237490 0.000000
# 6 0.000000 0.000000 0.000000 0.000000 0.000000 0.081335
#
#
# Mechanical properties :
#
#
# Convention : Reuss Voigt Hill
#
# Bulk Modulus (GPa) = 6.46921 19.24874 12.85898
# Shear Modulus (GPa) = 7.24623 19.42497 13.33560
#
# Velocity S-wave (km/s) = 1.92818 3.15699 2.61577
# Velocity P-wave (km/s) = 2.87688 4.81299 3.96493
#
# Compressibility (1/GPa) = 0.15457845
#
# Stress axis : x y z
#
# Youngs Moduli (GPa) = 5.25516 68.21624 63.01828
#
# Poissons Ratio (x) = 1.52883 0.83748
# Poissons Ratio (y) = 0.11778 -0.16270
# Poissons Ratio (z) = 0.06984 -0.17612
#
# Static dielectric constant tensor:
#      x y z
#    x 1.685060 0.000000 0.000000 
#    y 0.000000 1.625880 0.000000 
#    z 0.000000 0.000000 1.680590 
# 
# From -- ./inp_files/10954.got.cif
#   From: 2010.05.17/outbox.cif.g08.bks.cpg/sg36_6_cif.got.tgz:10954.got - 2010.06.03 17:41:39.
