data_PCOD9351249
_publ_section_title
;
Structure prediction by ZEFSAII (Michael W. Deem and Ramdas Pophale) SiO2 
 PCOD9351249
Probable space group: C M C 21
;
_chemical_formula_sum "Si O2"
_cell_formula_units_Z 48
_cell_length_a 7.661339
_cell_length_b 15.282474
_cell_length_c 19.350304
_cell_angle_alpha 90.000000
_cell_angle_beta 90.000000
_cell_angle_gamma 90.000000
_cell_volume 2265.615136
_symmetry_space_group_name_H-M "C M C 21"
_symmetry_group_IT_number 36
_symmetry_cell_setting 'orthorhombic'
loop_
_space_group_symop_operation_xyz
x,y,z
-x,-y,1/2+z
x,-y,1/2+z
-x,y,z
1/2+x,1/2+y,z
1/2-x,1/2-y,1/2+z
1/2+x,1/2-y,1/2+z
1/2-x,1/2+y,z
loop_
_atom_site_type_symbol
_atom_site_label
_atom_site_fract_x
_atom_site_fract_y
_atom_site_fract_z
Si Si1 0.704632 0.740131 0.378300
Si Si2 0.214844 0.851091 0.612946
Si Si3 0.213453 0.901526 0.766214
Si Si4 0.200538 0.312317 0.029015
Si Si5 0.703862 0.508626 0.001755
Si Si6 0.211628 0.935881 0.350977
O O1 0.500000 0.722833 0.390255
O O2 0.769870 0.667501 0.324670
O O3 0.790887 0.732442 0.453363
O O4 0.727797 0.836341 0.347146
O O5 0.271271 0.873550 0.690275
O O6 0.273564 0.757217 0.583720
O O7 0.000000 0.850348 0.612832
O O8 0.275468 0.925661 0.559363
O O9 0.000000 0.899908 0.765713
O O10 0.267941 0.997947 0.790891
O O11 0.282815 0.407718 0.022796
O O12 0.000000 0.327741 0.047234
O O13 0.500000 0.530477 0.996527
O O14 0.774790 0.525692 0.924876
O O15 0.000000 0.935524 0.350508
#
# Coordination Sequence:
#
# PCOD9351249 Si02
#       6
#     8   8   8   8   8   8
#     4  11  21  35  57  84 111 144 186 228 272 325
#     4   9  19  36  56  78 110 149 182 220 276 334
#     4   9  19  36  56  78 110 149 182 220 276 334
#     4  11  21  35  57  84 111 144 186 228 272 325
#     4  10  19  35  57  82 108 141 183 225 272 327
#     4  10  19  35  57  82 108 141 183 225 272 327
#
# _framework density 21.186298000000001
#
# number of rings (size 3 to 8) (size 9 to 14) (size 15 to 20)
#    0.000    2.000    3.333    1.000    0.000    2.000 
#    0.000    0.000    0.000    7.000    0.000    0.000 
#    0.000    0.000    0.000    0.000    0.000    0.000 
#
# Total GULP energy -134055.750153 kJ/mol
# GULP energy per Si atom -5585.656256 kJ/mol
# Density = 2.113808 g / cm^3
# Si number density = 21.186298 Si / 1000 Ang^3
#
#
#
# Elastic Constant Matrix: (Units=GPa)
#
#
# Indices 1 2 3 4 5 6 
#
# 1 36.5096 -10.8148 1.0550 0.0000 0.0000 0.0000
# 2 -10.8148 75.6996 -18.3852 0.0000 0.0000 0.0000
# 3 1.0550 -18.3852 39.3887 0.0000 0.0000 0.0000
# 4 0.0000 0.0000 0.0000 33.0945 0.0000 0.0000
# 5 0.0000 0.0000 0.0000 0.0000 6.2357 0.0000
# 6 0.0000 0.0000 0.0000 0.0000 0.0000 21.4301
#
#
#
# Elastic Compliance Matrix: (Units=1/GPa)
#
#
# Indices 1 2 3 4 5 6 
#
# 1 0.028658 0.004408 0.001290 0.000000 0.000000 0.000000
# 2 0.004408 0.015577 0.007153 0.000000 0.000000 0.000000
# 3 0.001290 0.007153 0.028692 0.000000 0.000000 0.000000
# 4 0.000000 0.000000 0.000000 0.030217 0.000000 0.000000
# 5 0.000000 0.000000 0.000000 0.000000 0.160366 0.000000
# 6 0.000000 0.000000 0.000000 0.000000 0.000000 0.046663
#
#
# Mechanical properties :
#
#
# Convention : Reuss Voigt Hill
#
# Bulk Modulus (GPa) = 10.13918 10.58975 10.36446
# Shear Modulus (GPa) = 15.75549 24.13492 19.94521
#
# Velocity S-wave (km/s) = 2.72998 3.37883 3.07159
# Velocity P-wave (km/s) = 3.83838 4.49791 4.18117
#
# Compressibility (1/GPa) = 0.09862733
#
# Stress axis : x y z
#
# Youngs Moduli (GPa) = 34.89380 64.19734 34.85279
#
# Poissons Ratio (x) = -0.28295 -0.04495
# Poissons Ratio (y) = -0.15379 -0.24929
# Poissons Ratio (z) = -0.04500 -0.45919
#
# Static dielectric constant tensor:
#      x y z
#    x 1.797270 0.000000 0.000000 
#    y 0.000000 1.732760 0.000000 
#    z 0.000000 0.000000 1.737640 
# 
# From -- ./inp_files/13479.got.cif
#   From: 2010.05.17/outbox.cif.g08.bks.cpg/sg36_7_cif.got.tgz:13479.got - 2010.06.03 17:41:39.
