data_PCOD9351730
_publ_section_title
;
Structure prediction by ZEFSAII (Michael W. Deem and Ramdas Pophale) SiO2 
 PCOD9351730
Probable space group: C M C 21
;
_chemical_formula_sum "Si O2"
_cell_formula_units_Z 64
_cell_length_a 9.090872
_cell_length_b 16.560893
_cell_length_c 19.314627
_cell_angle_alpha 90.000000
_cell_angle_beta 90.000000
_cell_angle_gamma 90.000000
_cell_volume 2907.874237
_symmetry_space_group_name_H-M "C M C 21"
_symmetry_group_IT_number 36
_symmetry_cell_setting 'orthorhombic'
loop_
_space_group_symop_operation_xyz
x,y,z
-x,-y,1/2+z
x,-y,1/2+z
-x,y,z
1/2+x,1/2+y,z
1/2-x,1/2-y,1/2+z
1/2+x,1/2-y,1/2+z
1/2-x,1/2+y,z
loop_
_atom_site_type_symbol
_atom_site_label
_atom_site_fract_x
_atom_site_fract_y
_atom_site_fract_z
Si Si1 0.171775 0.751501 0.638710
Si Si2 0.172088 0.512130 0.827867
Si Si3 0.827791 0.500448 0.562082
Si Si4 0.672990 0.340825 0.250812
Si Si5 0.829183 0.155414 0.004708
Si Si6 0.173634 0.082257 0.445158
Si Si7 0.670008 0.232802 0.378877
Si Si8 0.671045 0.907371 0.695549
O O1 0.265822 0.683014 0.675936
O O2 0.194658 0.769972 0.557707
O O3 0.220746 0.836056 0.674100
O O4 0.000000 0.735183 0.650306
O O5 0.238799 0.587944 0.787656
O O6 0.260417 0.487930 0.896036
O O7 0.184423 0.438062 0.773414
O O8 0.000000 0.524549 0.843451
O O9 0.778200 0.415920 0.526732
O O10 0.739142 0.568621 0.521548
O O11 0.801060 0.482347 0.643060
O O12 0.000000 0.515552 0.552442
O O13 0.500000 0.359593 0.249001
O O14 0.692932 0.262730 0.300960
O O15 0.812156 0.188845 0.927889
O O16 0.000000 0.128882 0.014391
O O17 0.226271 0.164363 0.409038
O O18 0.000000 0.077045 0.447147
O O19 0.500000 0.205175 0.385968
O O20 0.500000 0.881878 0.683782
#
# Coordination Sequence:
#
# PCOD9351730 Si02
#       8
#     8   8   8   8   8   8   8   8
#     4  10  20  35  58  86 116 151 188 230 281 338
#     4  11  23  40  61  84 113 149 190 235 285 340
#     4  10  20  37  61  86 115 151 189 230 281 339
#     4  11  23  38  58  84 115 149 187 235 286 337
#     4   9  19  37  60  85 114 148 189 236 283 332
#     4  12  25  39  57  84 116 148 188 235 281 335
#     4  10  22  40  59  79 108 147 188 231 280 331
#     4   9  20  38  60  86 115 149 189 234 283 336
#
# _framework density 22.009204
#
# number of rings (size 3 to 8) (size 9 to 14) (size 15 to 20)
#    0.000    1.750    0.000    4.125    0.000    8.500 
#    0.000    5.000    0.000    0.000    0.000    0.000 
#    0.000    0.000    0.000    0.000    0.000    0.000 
#
# Total GULP energy -179020.398505 kJ/mol
# GULP energy per Si atom -5594.387453 kJ/mol
# Density = 2.195911 g / cm^3
# Si number density = 22.009204 Si / 1000 Ang^3
#
#
#
# Elastic Constant Matrix: (Units=GPa)
#
#
# Indices 1 2 3 4 5 6 
#
# 1 79.4996 14.8125 19.2209 0.0000 0.0000 0.0000
# 2 14.8125 44.0828 -14.4069 0.0000 0.0000 0.0000
# 3 19.2209 -14.4069 76.1986 0.0000 0.0000 0.0000
# 4 0.0000 0.0000 0.0000 28.1894 0.0000 0.0000
# 5 0.0000 0.0000 0.0000 0.0000 24.8385 0.0000
# 6 0.0000 0.0000 0.0000 0.0000 0.0000 32.1569
#
#
#
# Elastic Compliance Matrix: (Units=1/GPa)
#
#
# Indices 1 2 3 4 5 6 
#
# 1 0.015055 -0.006715 -0.005067 0.000000 0.000000 0.000000
# 2 -0.006715 0.027173 0.006831 0.000000 0.000000 0.000000
# 3 -0.005067 0.006831 0.015693 0.000000 0.000000 0.000000
# 4 0.000000 0.000000 0.000000 0.035474 0.000000 0.000000
# 5 0.000000 0.000000 0.000000 0.000000 0.040260 0.000000
# 6 0.000000 0.000000 0.000000 0.000000 0.000000 0.031098
#
#
# Mechanical properties :
#
#
# Convention : Reuss Voigt Hill
#
# Bulk Modulus (GPa) = 20.82421 26.55934 23.69177
# Shear Modulus (GPa) = 26.22454 29.04727 27.63591
#
# Velocity S-wave (km/s) = 3.45559 3.63682 3.54736
# Velocity P-wave (km/s) = 5.04020 5.45241 5.25036
#
# Compressibility (1/GPa) = 0.04802102
#
# Stress axis : x y z
#
# Youngs Moduli (GPa) = 66.42382 36.80069 63.72115
#
# Poissons Ratio (x) = 0.24710 0.32288
# Poissons Ratio (y) = 0.44601 -0.43531
# Poissons Ratio (z) = 0.33657 -0.25140
#
# Static dielectric constant tensor:
#      x y z
#    x 1.735350 0.000000 0.000000 
#    y 0.000000 1.840380 0.000000 
#    z 0.000000 0.000000 1.794160 
# 
# From -- ./inp_files/15740.got.cif
#   From: 2010.05.17/outbox.cif.g08.bks.cpg/sg36_8_cif.got.tgz:15740.got - 2010.06.03 17:41:39.
