data_PCOD9351513
_publ_section_title
;
Structure prediction by ZEFSAII (Michael W. Deem and Ramdas Pophale) SiO2 
 PCOD9351513
Probable space group: C M C 21
;
_chemical_formula_sum "Si O2"
_cell_formula_units_Z 64
_cell_length_a 17.878118
_cell_length_b 9.538968
_cell_length_c 18.478065
_cell_angle_alpha 90.000000
_cell_angle_beta 90.000000
_cell_angle_gamma 90.000000
_cell_volume 3151.226948
_symmetry_space_group_name_H-M "C M C 21"
_symmetry_group_IT_number 36
_symmetry_cell_setting 'orthorhombic'
loop_
_space_group_symop_operation_xyz
x,y,z
-x,-y,1/2+z
x,-y,1/2+z
-x,y,z
1/2+x,1/2+y,z
1/2-x,1/2-y,1/2+z
1/2+x,1/2-y,1/2+z
1/2-x,1/2+y,z
loop_
_atom_site_type_symbol
_atom_site_label
_atom_site_fract_x
_atom_site_fract_y
_atom_site_fract_z
Si Si1 0.088652 0.274318 0.295630
Si Si2 0.910388 0.518780 0.923375
Si Si3 0.687765 0.462274 0.834329
Si Si4 0.328142 0.773788 0.141425
Si Si5 0.671858 0.773788 0.861765
Si Si6 0.910388 0.481220 0.579816
Si Si7 0.687765 0.537726 0.668862
Si Si8 0.088652 0.274318 0.707561
O O1 0.113772 0.389989 0.354204
O O2 0.110267 0.122901 0.328241
O O3 0.134683 0.287280 0.221475
O O4 0.000000 0.288187 0.282255
O O5 0.881776 0.361411 0.913600
O O6 0.000000 0.521932 0.922211
O O7 0.885020 0.574922 0.001595
O O8 0.681442 0.609001 0.875503
O O9 0.749612 0.355095 0.862857
O O10 0.709700 0.500000 0.751595
O O11 0.318558 0.609001 0.127687
O O12 0.249612 0.855095 0.140334
O O13 0.381776 0.861411 0.089591
O O14 0.634683 0.787280 0.781716
O O15 0.886228 0.389989 0.648986
O O16 0.000000 0.478068 0.580979
O O17 0.610267 0.622901 0.674949
O O18 0.000000 0.288187 0.720935
#
# Coordination Sequence:
#
# PCOD9351513 Si02
#       8
#     8   8   8   8   8   8   8   8
#     4  10  20  35  57  83 109 141 179 218 266 320
#     4  10  21  37  56  79 108 140 176 220 267 317
#     4  10  20  33  55  83 111 139 175 225 269 308
#     4  11  20  35  57  80 108 143 180 220 265 316
#     4  11  20  35  57  80 108 143 180 220 265 316
#     4  10  21  37  56  79 108 140 176 220 267 317
#     4  10  20  33  55  83 111 139 175 225 269 308
#     4  10  20  35  57  83 109 141 179 218 266 320
#
# _framework density 20.309550000000002
#
# number of rings (size 3 to 8) (size 9 to 14) (size 15 to 20)
#    0.000    1.750    0.000    7.500    0.000    7.500 
#    0.000    6.250    0.000    3.000    0.000    0.000 
#    0.000    0.000    0.000    0.000    0.000    0.000 
#
# Total GULP energy -178672.913675 kJ/mol
# GULP energy per Si atom -5583.528552 kJ/mol
# Density = 2.026332 g / cm^3
# Si number density = 20.309550 Si / 1000 Ang^3
#
#
#
# Elastic Constant Matrix: (Units=GPa)
#
#
# Indices 1 2 3 4 5 6 
#
# 1 47.9353 23.9590 18.4693 0.0000 0.0000 0.0000
# 2 23.9590 120.1954 17.5406 0.0000 0.0000 0.0000
# 3 18.4693 17.5406 47.8805 0.0000 0.0000 0.0000
# 4 0.0000 0.0000 0.0000 4.4786 0.0000 0.0000
# 5 0.0000 0.0000 0.0000 0.0000 -15.7878 0.0000
# 6 0.0000 0.0000 0.0000 0.0000 0.0000 35.4995
#
#
#
# Elastic Compliance Matrix: (Units=1/GPa)
#
#
# Indices 1 2 3 4 5 6 
#
# 1 0.026169 -0.003955 -0.008646 0.000000 0.000000 0.000000
# 2 -0.003955 0.009387 -0.001913 0.000000 0.000000 0.000000
# 3 -0.008646 -0.001913 0.024921 0.000000 0.000000 0.000000
# 4 0.000000 0.000000 0.000000 0.223286 0.000000 0.000000
# 5 0.000000 0.000000 0.000000 0.000000 -0.063340 0.000000
# 6 0.000000 0.000000 0.000000 0.000000 0.000000 0.028169
#
#
# Mechanical properties :
#
#
# Convention : Reuss Voigt Hill
#
# Bulk Modulus (GPa) = 31.79639 37.32765 34.56202
# Shear Modulus (GPa) = 17.35485 15.24089 16.29787
#
# Velocity S-wave (km/s) = 2.92638 2.74237 2.83587
# Velocity P-wave (km/s) = 5.20655 5.33355 5.27043
#
# Compressibility (1/GPa) = 0.03145011
#
# Stress axis : x y z
#
# Youngs Moduli (GPa) = 38.21284 106.52647 40.12638
#
# Poissons Ratio (x) = 0.42128 0.34692
# Poissons Ratio (y) = 0.15112 0.07678
# Poissons Ratio (z) = 0.33037 0.20384
#
# Static dielectric constant tensor:
#      x y z
#    x 1.723830 0.000000 0.000000 
#    y 0.000000 1.747690 0.000000 
#    z 0.000000 0.000000 1.741260 
# 
# From -- ./inp_files/16246.got.cif
#   From: 2010.05.17/outbox.cif.g08.bks.cpg/sg36_9_cif.got.tgz:16246.got - 2010.06.03 17:41:39.
