data_PCOD9351263
_publ_section_title
;
Structure prediction by ZEFSAII (Michael W. Deem and Ramdas Pophale) SiO2 
 PCOD9351263
Probable space group: C M C 21
;
_chemical_formula_sum "Si O2"
_cell_formula_units_Z 64
_cell_length_a 8.623186
_cell_length_b 20.889505
_cell_length_c 19.803544
_cell_angle_alpha 90.000000
_cell_angle_beta 90.000000
_cell_angle_gamma 90.000000
_cell_volume 3567.293319
_symmetry_space_group_name_H-M "C M C 21"
_symmetry_group_IT_number 36
_symmetry_cell_setting 'orthorhombic'
loop_
_space_group_symop_operation_xyz
x,y,z
-x,-y,1/2+z
x,-y,1/2+z
-x,y,z
1/2+x,1/2+y,z
1/2-x,1/2-y,1/2+z
1/2+x,1/2-y,1/2+z
1/2-x,1/2+y,z
loop_
_atom_site_type_symbol
_atom_site_label
_atom_site_fract_x
_atom_site_fract_y
_atom_site_fract_z
Si Si1 0.813599 0.262292 0.736940
Si Si2 0.686179 0.440558 0.380947
Si Si3 0.184363 0.565933 0.453041
Si Si4 0.685317 0.259433 0.590412
Si Si5 0.812205 0.113280 0.740319
Si Si6 0.814274 0.316854 0.456681
Si Si7 0.814412 0.187921 0.373460
Si Si8 0.686660 0.384780 0.088903
O O1 0.743386 0.279768 0.664455
O O2 0.767401 0.187812 0.750032
O O3 0.750694 0.304273 0.798178
O O4 0.000000 0.264857 0.733872
O O5 0.500000 0.446239 0.380965
O O6 0.757874 0.502884 0.414940
O O7 0.740793 0.428540 0.303639
O O8 0.735523 0.377924 0.422719
O O9 0.243203 0.627924 0.412271
O O10 0.252582 0.571741 0.528501
O O11 0.000000 0.566661 0.456678
O O12 0.500000 0.258571 0.587545
O O13 0.753801 0.303780 0.531886
O O14 0.749382 0.187283 0.579179
O O15 0.764608 0.094166 0.664513
O O16 0.000000 0.112018 0.741161
O O17 0.775583 0.253163 0.413629
O O18 0.000000 0.324569 0.456534
O O19 0.000000 0.181513 0.372225
O O20 0.500000 0.381650 0.086477
#
# Coordination Sequence:
#
# PCOD9351263 Si02
#       8
#     8   8   8   8   8   8   8   8
#     4  10  19  35  58  87 121 154 193 246 300 353
#     4  11  22  40  62  87 119 157 198 245 300 360
#     4  12  25  40  58  86 121 160 202 247 299 357
#     4  11  21  34  56  88 121 156 197 244 299 356
#     4   8  17  33  58  86 113 146 189 236 290 351
#     4  11  22  37  59  88 120 153 195 246 296 348
#     4  11  22  37  60  88 118 153 196 246 298 352
#     4  10  19  36  59  86 115 151 196 246 298 353
#
# _framework density 17.940773
#
# number of rings (size 3 to 8) (size 9 to 14) (size 15 to 20)
#    0.000    1.500    2.500    4.875    0.000    1.000 
#    0.000    3.125    0.000    1.500    0.000    0.000 
#    0.000    0.000    0.000    0.000    0.000    0.000 
#
# Total GULP energy -178772.683678 kJ/mol
# GULP energy per Si atom -5586.646365 kJ/mol
# Density = 1.789994 g / cm^3
# Si number density = 17.940773 Si / 1000 Ang^3
#
#
#
# Elastic Constant Matrix: (Units=GPa)
#
#
# Indices 1 2 3 4 5 6 
#
# 1 67.3235 26.0638 27.5704 0.0000 0.0000 0.0000
# 2 26.0638 77.2465 53.4652 0.0000 0.0000 0.0000
# 3 27.5704 53.4652 158.8445 0.0000 0.0000 0.0000
# 4 0.0000 0.0000 0.0000 29.3939 0.0000 0.0000
# 5 0.0000 0.0000 0.0000 0.0000 28.1973 0.0000
# 6 0.0000 0.0000 0.0000 0.0000 0.0000 27.6294
#
#
#
# Elastic Compliance Matrix: (Units=1/GPa)
#
#
# Indices 1 2 3 4 5 6 
#
# 1 0.017306 -0.004902 -0.001354 0.000000 0.000000 0.000000
# 2 -0.004902 0.018266 -0.005297 0.000000 0.000000 0.000000
# 3 -0.001354 -0.005297 0.008313 0.000000 0.000000 0.000000
# 4 0.000000 0.000000 0.000000 0.034021 0.000000 0.000000
# 5 0.000000 0.000000 0.000000 0.000000 0.035464 0.000000
# 6 0.000000 0.000000 0.000000 0.000000 0.000000 0.036193
#
#
# Mechanical properties :
#
#
# Convention : Reuss Voigt Hill
#
# Bulk Modulus (GPa) = 48.12563 57.51258 52.81910
# Shear Modulus (GPa) = 27.84018 30.13180 28.98599
#
# Velocity S-wave (km/s) = 3.94354 4.10264 4.02387
# Velocity P-wave (km/s) = 6.90060 7.38706 7.14797
#
# Compressibility (1/GPa) = 0.02077895
#
# Stress axis : x y z
#
# Youngs Moduli (GPa) = 57.78378 54.74630 120.28733
#
# Poissons Ratio (x) = 0.26838 0.16284
# Poissons Ratio (y) = 0.28327 0.63720
# Poissons Ratio (z) = 0.07822 0.29001
#
# Static dielectric constant tensor:
#      x y z
#    x 1.599830 0.000000 0.000000 
#    y 0.000000 1.578670 0.000000 
#    z 0.000000 0.000000 1.629090 
# 
# From -- ./inp_files/14040.got.cif
#   From: 2010.05.17/outbox.cif.g08.bks.cpg/sg36_8_cif.got.tgz:14040.got - 2010.06.03 17:41:39.
