data_PCOD9351550
_publ_section_title
;
Structure prediction by ZEFSAII (Michael W. Deem and Ramdas Pophale) SiO2 
 PCOD9351550
Probable space group: C M C 21
;
_chemical_formula_sum "Si O2"
_cell_formula_units_Z 64
_cell_length_a 7.503866
_cell_length_b 23.559605
_cell_length_c 16.335375
_cell_angle_alpha 90.000000
_cell_angle_beta 90.000000
_cell_angle_gamma 90.000000
_cell_volume 2887.900218
_symmetry_space_group_name_H-M "C M C 21"
_symmetry_group_IT_number 36
_symmetry_cell_setting 'orthorhombic'
loop_
_space_group_symop_operation_xyz
x,y,z
-x,-y,1/2+z
x,-y,1/2+z
-x,y,z
1/2+x,1/2+y,z
1/2-x,1/2-y,1/2+z
1/2+x,1/2-y,1/2+z
1/2-x,1/2+y,z
loop_
_atom_site_type_symbol
_atom_site_label
_atom_site_fract_x
_atom_site_fract_y
_atom_site_fract_z
Si Si1 0.280777 0.789198 0.967870
Si Si2 0.784388 0.963180 0.768635
Si Si3 0.218163 0.462482 0.480229
Si Si4 0.293684 0.880284 0.622235
Si Si5 0.293730 0.291774 0.319625
Si Si6 0.200836 0.753768 0.644935
Si Si7 0.795928 0.082910 0.801757
Si Si8 0.793371 0.417417 0.948673
O O1 0.500000 0.788437 0.965323
O O2 0.221196 0.747749 0.893363
O O3 0.218734 0.854172 0.955957
O O4 0.224883 0.769095 0.058533
O O5 0.720444 0.920694 0.699935
O O6 0.719240 0.938296 0.854973
O O7 0.000000 0.964216 0.770732
O O8 0.719809 0.028052 0.754566
O O9 0.275361 0.417545 0.547429
O O10 0.290980 0.440727 0.394132
O O11 0.278592 0.527284 0.496338
O O12 0.000000 0.462869 0.476288
O O13 0.500000 0.866127 0.606373
O O14 0.198175 0.821360 0.636538
O O15 0.500000 0.301834 0.342986
O O16 0.289518 0.261590 0.231274
O O17 0.212748 0.354554 0.305892
O O18 0.000000 0.731117 0.651365
O O19 0.000000 0.089969 0.772636
O O20 0.000000 0.412183 0.972565
#
# Coordination Sequence:
#
# PCOD9351550 Si02
#       8
#     8   8   8   8   8   8   8   8
#     4   9  19  35  57  80 108 146 183 219 271 331
#     4  10  20  34  53  80 108 139 181 229 273 321
#     4   9  19  33  53  79 105 136 181 230 273 320
#     4  11  22  36  53  76 106 142 180 224 277 330
#     4  10  20  37  58  81 112 152 187 221 272 335
#     4  11  23  38  57  84 111 142 187 236 277 328
#     4   9  19  35  55  78 109 145 181 220 272 328
#     4   9  17  34  56  78 105 140 180 223 273 329
#
# _framework density 22.161432000000001
#
# number of rings (size 3 to 8) (size 9 to 14) (size 15 to 20)
#    0.000    2.250    0.000    2.625    0.000    5.000 
#    0.000    3.750    0.000    0.000    0.000    0.000 
#    0.000    0.000    0.000    0.000    0.000    0.000 
#
# Total GULP energy -178522.115266 kJ/mol
# GULP energy per Si atom -5578.816102 kJ/mol
# Density = 2.211099 g / cm^3
# Si number density = 22.161432 Si / 1000 Ang^3
#
#
#
# Elastic Constant Matrix: (Units=GPa)
#
#
# Indices 1 2 3 4 5 6 
#
# 1 63.5628 0.3905 -12.8261 0.0000 0.0000 0.0000
# 2 0.3905 162.2740 30.8791 0.0000 0.0000 0.0000
# 3 -12.8261 30.8791 62.0391 0.0000 0.0000 0.0000
# 4 0.0000 0.0000 0.0000 32.3067 0.0000 0.0000
# 5 0.0000 0.0000 0.0000 0.0000 20.2270 0.0000
# 6 0.0000 0.0000 0.0000 0.0000 0.0000 10.2623
#
#
#
# Elastic Compliance Matrix: (Units=1/GPa)
#
#
# Indices 1 2 3 4 5 6 
#
# 1 0.016502 -0.000761 0.003790 0.000000 0.000000 0.000000
# 2 -0.000761 0.006842 -0.003563 0.000000 0.000000 0.000000
# 3 0.003790 -0.003563 0.018676 0.000000 0.000000 0.000000
# 4 0.000000 0.000000 0.000000 0.030953 0.000000 0.000000
# 5 0.000000 0.000000 0.000000 0.000000 0.049439 0.000000
# 6 0.000000 0.000000 0.000000 0.000000 0.000000 0.097444
#
#
# Mechanical properties :
#
#
# Convention : Reuss Voigt Hill
#
# Bulk Modulus (GPa) = 24.41813 36.08475 30.25144
# Shear Modulus (GPa) = 21.31520 30.52136 25.91828
#
# Velocity S-wave (km/s) = 3.10468 3.71513 3.42354
# Velocity P-wave (km/s) = 4.88818 5.89245 5.41365
#
# Compressibility (1/GPa) = 0.04095318
#
# Stress axis : x y z
#
# Youngs Moduli (GPa) = 60.59864 146.15095 53.54489
#
# Poissons Ratio (x) = 0.11122 -0.20296
# Poissons Ratio (y) = 0.04612 0.19078
# Poissons Ratio (z) = -0.22970 0.52073
#
# Static dielectric constant tensor:
#      x y z
#    x -0.263540 0.000000 0.000000 
#    y 0.000000 1.825900 0.000000 
#    z 0.000000 0.000000 1.776730 
# 
# From -- ./inp_files/11054.got.cif
#   From: 2010.05.17/outbox.cif.g08.bks.cpg/sg36_6_cif.got.tgz:11054.got - 2010.06.03 17:41:39.
