data_PCOD9351703
_publ_section_title
;
Structure prediction by ZEFSAII (Michael W. Deem and Ramdas Pophale) SiO2 
 PCOD9351703
Probable space group: C M C 21
;
_chemical_formula_sum "Si O2"
_cell_formula_units_Z 64
_cell_length_a 8.954741
_cell_length_b 25.547800
_cell_length_c 14.286244
_cell_angle_alpha 90.000000
_cell_angle_beta 90.000000
_cell_angle_gamma 90.000000
_cell_volume 3268.320215
_symmetry_space_group_name_H-M "C M C 21"
_symmetry_group_IT_number 36
_symmetry_cell_setting 'orthorhombic'
loop_
_space_group_symop_operation_xyz
x,y,z
-x,-y,1/2+z
x,-y,1/2+z
-x,y,z
1/2+x,1/2+y,z
1/2-x,1/2-y,1/2+z
1/2+x,1/2-y,1/2+z
1/2-x,1/2+y,z
loop_
_atom_site_type_symbol
_atom_site_label
_atom_site_fract_x
_atom_site_fract_y
_atom_site_fract_z
Si Si1 0.818181 0.040596 0.349710
Si Si2 0.324404 0.828089 0.376022
Si Si3 0.179266 0.907471 0.653798
Si Si4 0.179548 0.933960 0.447234
Si Si5 0.675034 0.814918 0.154484
Si Si6 0.823451 0.871467 0.994986
Si Si7 0.172109 0.705819 0.166170
Si Si8 0.171285 0.721601 0.390772
O O1 0.769042 0.062828 0.248545
O O2 0.771080 0.080052 0.432217
O O3 0.000000 0.041039 0.347429
O O4 0.773356 0.982823 0.382867
O O5 0.500000 0.821325 0.395814
O O6 0.262637 0.881927 0.415263
O O7 0.303542 0.826342 0.263925
O O8 0.229383 0.779351 0.413347
O O9 0.209024 0.939769 0.558597
O O10 0.250419 0.849618 0.644923
O O11 0.000000 0.900642 0.661292
O O12 0.000000 0.927522 0.437158
O O13 0.500000 0.811041 0.136920
O O14 0.749210 0.758799 0.130571
O O15 0.745331 0.861101 0.093410
O O16 0.780656 0.820387 0.935609
O O17 0.000000 0.875777 0.008353
O O18 0.175349 0.712609 0.279022
O O19 0.000000 0.704668 0.135215
O O20 0.000000 0.714116 0.421209
#
# Coordination Sequence:
#
# PCOD9351703 Si02
#       8
#     8   8   8   8   8   8   8   8
#     4   9  20  39  61  87 119 158 203 247 299 358
#     4  10  22  40  59  83 119 159 197 247 303 356
#     4  10  20  37  60  85 117 155 196 247 302 354
#     4  10  22  39  62  89 116 156 204 250 300 358
#     4  10  22  38  57  84 122 163 200 242 303 362
#     4  11  21  35  59  89 119 157 201 246 296 352
#     4  10  20  35  57  86 118 154 200 246 295 354
#     4  10  20  35  57  85 118 156 195 243 298 356
#
# _framework density 19.581924999999998
#
# number of rings (size 3 to 8) (size 9 to 14) (size 15 to 20)
#    0.000    2.000    1.250    1.875    1.750    4.000 
#    0.000    4.375    0.000    0.000    0.000    0.000 
#    0.000    0.000    0.000    0.000    0.000    0.000 
#
# Total GULP energy -178699.112284 kJ/mol
# GULP energy per Si atom -5584.347259 kJ/mol
# Density = 1.953736 g / cm^3
# Si number density = 19.581925 Si / 1000 Ang^3
#
#
#
# Elastic Constant Matrix: (Units=GPa)
#
#
# Indices 1 2 3 4 5 6 
#
# 1 34.1382 7.1966 24.9789 0.0000 0.0000 0.0000
# 2 7.1966 85.1593 22.0469 0.0000 0.0000 0.0000
# 3 24.9789 22.0469 78.1697 0.0000 0.0000 0.0000
# 4 0.0000 0.0000 0.0000 25.5249 0.0000 0.0000
# 5 0.0000 0.0000 0.0000 0.0000 24.5882 0.0000
# 6 0.0000 0.0000 0.0000 0.0000 0.0000 23.2276
#
#
#
# Elastic Compliance Matrix: (Units=1/GPa)
#
#
# Indices 1 2 3 4 5 6 
#
# 1 0.038232 -0.000073 -0.012196 0.000000 0.000000 0.000000
# 2 -0.000073 0.012668 -0.003549 0.000000 0.000000 0.000000
# 3 -0.012196 -0.003549 0.017691 0.000000 0.000000 0.000000
# 4 0.000000 0.000000 0.000000 0.039177 0.000000 0.000000
# 5 0.000000 0.000000 0.000000 0.000000 0.040670 0.000000
# 6 0.000000 0.000000 0.000000 0.000000 0.000000 0.043052
#
#
# Mechanical properties :
#
#
# Convention : Reuss Voigt Hill
#
# Bulk Modulus (GPa) = 27.06146 33.99023 30.52584
# Shear Modulus (GPa) = 21.23625 24.21778 22.72702
#
# Velocity S-wave (km/s) = 3.29672 3.52055 3.41047
# Velocity P-wave (km/s) = 5.32360 5.82420 5.57952
#
# Compressibility (1/GPa) = 0.03695292
#
# Stress axis : x y z
#
# Youngs Moduli (GPa) = 26.15596 78.94039 56.52585
#
# Poissons Ratio (x) = 0.00579 0.68941
# Poissons Ratio (y) = 0.00192 0.20063
# Poissons Ratio (z) = 0.31901 0.28019
#
# Static dielectric constant tensor:
#      x y z
#    x 1.656990 0.000000 0.000000 
#    y 0.000000 1.647880 0.000000 
#    z 0.000000 0.000000 1.741030 
# 
# From -- ./inp_files/11009.got.cif
#   From: 2010.05.17/outbox.cif.g08.bks.cpg/sg36_6_cif.got.tgz:11009.got - 2010.06.03 17:41:39.
