data_PCOD9351934
_publ_section_title
;
Structure prediction by ZEFSAII (Michael W. Deem and Ramdas Pophale) SiO2 
 PCOD9351934
Probable space group: C M C 21
;
_chemical_formula_sum "Si O2"
_cell_formula_units_Z 64
_cell_length_a 8.794113
_cell_length_b 29.729807
_cell_length_c 12.458392
_cell_angle_alpha 90.000000
_cell_angle_beta 90.000000
_cell_angle_gamma 90.000000
_cell_volume 3257.212729
_symmetry_space_group_name_H-M "C M C 21"
_symmetry_group_IT_number 36
_symmetry_cell_setting 'orthorhombic'
loop_
_space_group_symop_operation_xyz
x,y,z
-x,-y,1/2+z
x,-y,1/2+z
-x,y,z
1/2+x,1/2+y,z
1/2-x,1/2-y,1/2+z
1/2+x,1/2-y,1/2+z
1/2-x,1/2+y,z
loop_
_atom_site_type_symbol
_atom_site_label
_atom_site_fract_x
_atom_site_fract_y
_atom_site_fract_z
Si Si1 0.170680 0.333355 0.424710
Si Si2 0.674799 0.221972 0.710744
Si Si3 0.683641 0.082090 0.204336
Si Si4 0.823399 0.684790 0.169664
Si Si5 0.181850 0.430531 0.950576
Si Si6 0.317409 0.364744 0.111113
Si Si7 0.183348 0.977067 0.510560
Si Si8 0.822009 0.085806 0.825495
O O1 0.183626 0.297350 0.331008
O O2 0.184275 0.312465 0.540880
O O3 0.293536 0.371620 0.402944
O O4 0.000000 0.354125 0.417399
O O5 0.734416 0.272478 0.711890
O O6 0.767501 0.186006 0.639184
O O7 0.000000 0.279310 0.175248
O O8 0.500000 0.080825 0.190327
O O9 0.730959 0.134519 0.196995
O O10 0.721082 0.066104 0.324473
O O11 0.756615 0.052382 0.110215
O O12 0.000000 0.687884 0.203301
O O13 0.000000 0.431382 0.960283
O O14 0.245673 0.385150 0.004072
O O15 0.255228 0.472455 0.012765
O O16 0.500000 0.366841 0.106999
O O17 0.260958 0.396744 0.210844
O O18 0.238219 0.955386 0.396658
O O19 0.000000 0.976724 0.512228
O O20 0.000000 0.077494 0.808724
#
# Coordination Sequence:
#
# PCOD9351934 Si02
#       8
#     8   8   8   8   8   8   8   8
#     4   9  18  34  56  81 111 149 197 246 297 354
#     4  10  21  36  57  88 120 157 204 252 303 363
#     4  10  23  43  64  90 124 161 205 255 308 367
#     4  10  20  37  60  85 117 157 199 249 306 363
#     4  11  25  42  61  90 126 165 207 251 308 367
#     4  10  21  40  62  87 121 161 203 250 306 361
#     4  11  23  39  62  91 121 156 201 252 307 367
#     4   9  19  35  58  86 114 146 192 247 299 352
#
# _framework density 19.648703000000001
#
# number of rings (size 3 to 8) (size 9 to 14) (size 15 to 20)
#    0.000    2.000    1.250    1.500    1.750    4.500 
#    0.000    2.500    0.000    0.000    0.000    0.000 
#    0.000    0.000    0.000    0.000    0.000    0.000 
#
# Total GULP energy -178547.490485 kJ/mol
# GULP energy per Si atom -5579.609078 kJ/mol
# Density = 1.960398 g / cm^3
# Si number density = 19.648703 Si / 1000 Ang^3
#
#
#
# Elastic Constant Matrix: (Units=GPa)
#
#
# Indices 1 2 3 4 5 6 
#
# 1 39.3340 29.9171 26.4706 0.0000 0.0000 0.0000
# 2 29.9171 108.3887 29.8980 0.0000 0.0000 0.0000
# 3 26.4706 29.8980 57.9405 0.0000 0.0000 0.0000
# 4 0.0000 0.0000 0.0000 10.9800 0.0000 0.0000
# 5 0.0000 0.0000 0.0000 0.0000 23.8293 0.0000
# 6 0.0000 0.0000 0.0000 0.0000 0.0000 28.2327
#
#
#
# Elastic Compliance Matrix: (Units=1/GPa)
#
#
# Indices 1 2 3 4 5 6 
#
# 1 0.040988 -0.007168 -0.015027 0.000000 0.000000 0.000000
# 2 -0.007168 0.012011 -0.002923 0.000000 0.000000 0.000000
# 3 -0.015027 -0.002923 0.025632 0.000000 0.000000 0.000000
# 4 0.000000 0.000000 0.000000 0.091075 0.000000 0.000000
# 5 0.000000 0.000000 0.000000 0.000000 0.041965 0.000000
# 6 0.000000 0.000000 0.000000 0.000000 0.000000 0.035420
#
#
# Mechanical properties :
#
#
# Convention : Reuss Voigt Hill
#
# Bulk Modulus (GPa) = 35.21701 42.02608 38.62154
# Shear Modulus (GPa) = 16.29767 20.56688 18.43228
#
# Velocity S-wave (km/s) = 2.88315 3.23883 3.06615
# Velocity P-wave (km/s) = 5.38940 5.95163 5.67748
#
# Compressibility (1/GPa) = 0.02839537
#
# Stress axis : x y z
#
# Youngs Moduli (GPa) = 24.39733 83.25775 39.01307
#
# Poissons Ratio (x) = 0.59683 0.58624
# Poissons Ratio (y) = 0.17489 0.11403
# Poissons Ratio (z) = 0.36661 0.24335
#
# Static dielectric constant tensor:
#      x y z
#    x 1.684010 0.000000 0.000000 
#    y 0.000000 1.676430 0.000000 
#    z 0.000000 0.000000 1.698730 
# 
# From -- ./inp_files/7176.got.cif
#   From: 2010.05.17/outbox.cif.g08.bks.cpg/sg36_4_cif.got.tgz:7176.got - 2010.06.03 17:41:39.
