data_PCOD9351942
_publ_section_title
;
Structure prediction by ZEFSAII (Michael W. Deem and Ramdas Pophale) SiO2 
 PCOD9351942
Probable space group: C M C 21
;
_chemical_formula_sum "Si O2"
_cell_formula_units_Z 48
_cell_length_a 8.475448
_cell_length_b 24.496726
_cell_length_c 12.257980
_cell_angle_alpha 90.000000
_cell_angle_beta 90.000000
_cell_angle_gamma 90.000000
_cell_volume 2545.010724
_symmetry_space_group_name_H-M "C M C 21"
_symmetry_group_IT_number 36
_symmetry_cell_setting 'orthorhombic'
loop_
_space_group_symop_operation_xyz
x,y,z
-x,-y,1/2+z
x,-y,1/2+z
-x,y,z
1/2+x,1/2+y,z
1/2-x,1/2-y,1/2+z
1/2+x,1/2-y,1/2+z
1/2-x,1/2+y,z
loop_
_atom_site_type_symbol
_atom_site_label
_atom_site_fract_x
_atom_site_fract_y
_atom_site_fract_z
Si Si1 0.807667 0.330524 0.450190
Si Si2 0.188546 0.610908 0.530169
Si Si3 0.688988 0.137925 0.193221
Si Si4 0.308877 0.920991 0.274529
Si Si5 0.687037 0.540205 0.334971
Si Si6 0.811164 0.208745 0.389137
O O1 0.757207 0.347361 0.571608
O O2 0.758590 0.375074 0.361135
O O3 0.756826 0.269612 0.418064
O O4 0.000000 0.329855 0.451028
O O5 0.238615 0.595941 0.652268
O O6 0.233874 0.563414 0.445070
O O7 0.265942 0.666003 0.483801
O O8 0.000000 0.617982 0.528548
O O9 0.500000 0.131850 0.193562
O O10 0.762678 0.082321 0.239950
O O11 0.735893 0.184998 0.278774
O O12 0.500000 0.924118 0.276460
O O13 0.242316 0.979685 0.306851
O O14 0.500000 0.542413 0.348420
O O15 0.000000 0.208750 0.376170
#
# Coordination Sequence:
#
# PCOD9351942 Si02
#       6
#     8   8   8   8   8   8
#     4   9  21  38  59  86 116 149 190 236 284 335
#     4  10  21  38  62  86 113 153 196 234 280 346
#     4  10  20  38  61  85 113 153 196 232 280 347
#     4  10  22  40  61  85 113 152 197 237 280 339
#     4  11  23  39  59  86 119 150 187 240 294 342
#     4  10  20  37  60  86 118 151 186 237 290 335
#
# _framework density 18.860430999999998
#
# number of rings (size 3 to 8) (size 9 to 14) (size 15 to 20)
#    0.000    2.000    0.000    5.000    4.667    1.333 
#    0.000    5.000    0.000    0.000    0.000    0.000 
#    0.000    0.000    0.000    0.000    0.000    0.000 
#
# Total GULP energy -134081.329511 kJ/mol
# GULP energy per Si atom -5586.722063 kJ/mol
# Density = 1.881750 g / cm^3
# Si number density = 18.860431 Si / 1000 Ang^3
#
#
#
# Elastic Constant Matrix: (Units=GPa)
#
#
# Indices 1 2 3 4 5 6 
#
# 1 16.9882 -7.8643 -4.6731 0.0000 0.0000 0.0000
# 2 -7.8643 141.9174 84.0041 0.0000 0.0000 0.0000
# 3 -4.6731 84.0041 137.9936 0.0000 0.0000 0.0000
# 4 0.0000 0.0000 0.0000 10.0802 0.0000 0.0000
# 5 0.0000 0.0000 0.0000 0.0000 6.3639 0.0000
# 6 0.0000 0.0000 0.0000 0.0000 0.0000 28.5281
#
#
#
# Elastic Compliance Matrix: (Units=1/GPa)
#
#
# Indices 1 2 3 4 5 6 
#
# 1 0.060414 0.003341 0.000012 0.000000 0.000000 0.000000
# 2 0.003341 0.011200 -0.006705 0.000000 0.000000 0.000000
# 3 0.000012 -0.006705 0.011329 0.000000 0.000000 0.000000
# 4 0.000000 0.000000 0.000000 0.099205 0.000000 0.000000
# 5 0.000000 0.000000 0.000000 0.000000 0.157137 0.000000
# 6 0.000000 0.000000 0.000000 0.000000 0.000000 0.035053
#
#
# Mechanical properties :
#
#
# Convention : Reuss Voigt Hill
#
# Bulk Modulus (GPa) = 13.11663 48.87028 30.99345
# Shear Modulus (GPa) = 12.30145 24.02326 18.16235
#
# Velocity S-wave (km/s) = 2.55666 3.57282 3.10657
# Velocity P-wave (km/s) = 3.96043 6.55651 5.41631
#
# Compressibility (1/GPa) = 0.07623912
#
# Stress axis : x y z
#
# Youngs Moduli (GPa) = 16.55236 89.28250 88.26965
#
# Poissons Ratio (x) = -0.29825 -0.00109
# Poissons Ratio (y) = -0.05529 0.59186
# Poissons Ratio (z) = -0.00020 0.59865
#
# Static dielectric constant tensor:
#      x y z
#    x 1.647500 0.000000 0.000000 
#    y 0.000000 1.622170 0.000000 
#    z 0.000000 0.000000 1.637190 
# 
# From -- ./inp_files/6730.got.cif
#   From: 2010.05.17/outbox.cif.g08.bks.cpg/sg36_4_cif.got.tgz:6730.got - 2010.06.03 17:41:39.
