data_PCOD9351982
_publ_section_title
;
Structure prediction by ZEFSAII (Michael W. Deem and Ramdas Pophale) SiO2 
 PCOD9351982
Probable space group: C M C 21
;
_chemical_formula_sum "Si O2"
_cell_formula_units_Z 40
_cell_length_a 12.368603
_cell_length_b 8.760617
_cell_length_c 17.992318
_cell_angle_alpha 90.000000
_cell_angle_beta 90.000000
_cell_angle_gamma 90.000000
_cell_volume 1949.586291
_symmetry_space_group_name_H-M "C M C 21"
_symmetry_group_IT_number 36
_symmetry_cell_setting 'orthorhombic'
loop_
_space_group_symop_operation_xyz
x,y,z
-x,-y,1/2+z
x,-y,1/2+z
-x,y,z
1/2+x,1/2+y,z
1/2-x,1/2-y,1/2+z
1/2+x,1/2-y,1/2+z
1/2-x,1/2+y,z
loop_
_atom_site_type_symbol
_atom_site_label
_atom_site_fract_x
_atom_site_fract_y
_atom_site_fract_z
Si Si1 0.874449 0.719374 0.357750
Si Si2 0.718742 0.486472 0.147260
Si Si3 0.810572 0.238732 0.250182
Si Si4 0.671445 0.123224 0.902030
Si Si5 0.119979 0.712174 0.064819
O O1 0.813101 0.706110 0.278550
O O2 0.801177 0.846808 0.398550
O O3 0.857199 0.554851 0.396804
O O4 0.000000 0.754379 0.352659
O O5 0.799438 0.377011 0.193260
O O6 0.653554 0.587900 0.207415
O O7 0.789751 0.600804 0.098407
O O8 0.646489 0.379336 0.095883
O O9 0.866571 0.292328 0.326150
O O10 0.627805 0.198878 0.976118
O O11 0.000000 0.665671 0.088514
#
# Coordination Sequence:
#
# PCOD9351982 Si02
#       5
#     8   8   8   8   8
#     4  10  20  37  64  90 119 158 202 254 313 354
#     4  10  21  40  61  89 130 159 200 255 309 365
#     4   9  18  38  62  89 121 160 199 260 300 351
#     4  10  20  39  64  93 122 160 210 260 296 359
#     4  11  24  42  64  89 126 171 202 247 317 371
#
# _framework density 20.517173
#
# number of rings (size 3 to 8) (size 9 to 14) (size 15 to 20)
#    1.200    0.800    2.000    1.800    0.000    3.200 
#    0.000   11.000    0.000    0.000    0.000    0.000 
#    0.000    0.000    0.000    0.000    0.000    0.000 
#
# Total GULP energy -111476.841653 kJ/mol
# GULP energy per Si atom -5573.842083 kJ/mol
# Density = 2.047047 g / cm^3
# Si number density = 20.517173 Si / 1000 Ang^3
#
#
#
# Elastic Constant Matrix: (Units=GPa)
#
#
# Indices 1 2 3 4 5 6 
#
# 1 80.9736 -6.2181 -0.2766 0.0000 0.0000 0.0000
# 2 -6.2181 48.2104 12.7820 0.0000 0.0000 0.0000
# 3 -0.2766 12.7820 84.1923 0.0000 0.0000 0.0000
# 4 0.0000 0.0000 0.0000 28.0726 0.0000 0.0000
# 5 0.0000 0.0000 0.0000 0.0000 4.0303 0.0000
# 6 0.0000 0.0000 0.0000 0.0000 0.0000 7.2777
#
#
#
# Elastic Compliance Matrix: (Units=1/GPa)
#
#
# Indices 1 2 3 4 5 6 
#
# 1 0.012477 0.001665 -0.000212 0.000000 0.000000 0.000000
# 2 0.001665 0.021835 -0.003309 0.000000 0.000000 0.000000
# 3 -0.000212 -0.003309 0.012379 0.000000 0.000000 0.000000
# 4 0.000000 0.000000 0.000000 0.035622 0.000000 0.000000
# 5 0.000000 0.000000 0.000000 0.000000 0.248119 0.000000
# 6 0.000000 0.000000 0.000000 0.000000 0.000000 0.137405
#
#
# Mechanical properties :
#
#
# Convention : Reuss Voigt Hill
#
# Bulk Modulus (GPa) = 23.26713 25.10565 24.18639
# Shear Modulus (GPa) = 10.29071 21.68207 15.98639
#
# Velocity S-wave (km/s) = 2.24200 3.25434 2.79439
# Velocity P-wave (km/s) = 4.25053 5.13653 4.71439
#
# Compressibility (1/GPa) = 0.04297908
#
# Stress axis : x y z
#
# Youngs Moduli (GPa) = 80.14827 45.79880 80.77992
#
# Poissons Ratio (x) = -0.07627 0.01711
# Poissons Ratio (y) = -0.13348 0.26734
# Poissons Ratio (z) = 0.01698 0.15157
#
# Static dielectric constant tensor:
#      x y z
#    x 1.713390 0.000000 0.000000 
#    y 0.000000 1.735510 0.000000 
#    z 0.000000 0.000000 1.766090 
# 
# From -- ./inp_files/14524.got.cif
#   From: 2010.05.17/outbox.cif.g08.bks.cpg/sg36_8_cif.got.tgz:14524.got - 2010.06.03 17:41:39.
