data_PCOD9351498
_publ_section_title
;
Structure prediction by ZEFSAII (Michael W. Deem and Ramdas Pophale) SiO2 
 PCOD9351498
Probable space group: C M C 21
;
_chemical_formula_sum "Si O2"
_cell_formula_units_Z 52
_cell_length_a 7.806871
_cell_length_b 36.141089
_cell_length_c 6.928611
_cell_angle_alpha 90.000000
_cell_angle_beta 90.000000
_cell_angle_gamma 90.000000
_cell_volume 1954.899415
_symmetry_space_group_name_H-M "C M C 21"
_symmetry_group_IT_number 36
_symmetry_cell_setting 'orthorhombic'
loop_
_space_group_symop_operation_xyz
x,y,z
-x,-y,1/2+z
x,-y,1/2+z
-x,y,z
1/2+x,1/2+y,z
1/2-x,1/2-y,1/2+z
1/2+x,1/2-y,1/2+z
1/2-x,1/2+y,z
loop_
_atom_site_type_symbol
_atom_site_label
_atom_site_fract_x
_atom_site_fract_y
_atom_site_fract_z
Si Si1 0.295629 0.721115 0.154960
Si Si2 0.704413 0.855245 0.537380
Si Si3 0.689691 0.566291 0.934159
Si Si4 0.500000 0.985327 0.371938
Si Si5 0.190161 0.043745 0.389527
Si Si6 0.800926 0.378878 0.973617
Si Si7 0.797712 0.803477 0.068616
O O1 0.500000 0.723840 0.159778
O O2 0.252201 0.688070 0.004795
O O3 0.225958 0.705608 0.355490
O O4 0.227224 0.762753 0.154513
O O5 0.500000 0.858455 0.523369
O O6 0.788673 0.889454 0.426972
O O7 0.756729 0.864885 0.760261
O O8 0.500000 0.555852 0.869238
O O9 0.704526 0.554610 0.162118
O O10 0.848797 0.545491 0.841559
O O11 0.348377 0.016256 0.423666
O O12 0.204799 0.082627 0.503007
O O13 0.000000 0.027965 0.423200
O O14 0.783578 0.343265 0.112785
O O15 0.000000 0.388459 0.960266
O O16 0.000000 0.810655 0.064451
#
# Coordination Sequence:
#
# PCOD9351498 Si02
#       7
#     8   8   8   4   8   8   8
#     4  10  20  33  52  80 112 145 185 231 281 335
#     4   9  16  30  52  77 104 136 174 221 276 333
#     4  10  20  34  53  78 108 141 180 228 279 331
#     4  12  20  32  52  80 108 136 176 228 284 332
#     4  10  20  34  53  78 108 141 180 228 279 331
#     4   9  16  30  52  77 104 136 174 221 276 333
#     4  10  20  33  52  80 112 145 185 231 281 335
#
# _framework density 26.599831999999999
#
# number of rings (size 3 to 8) (size 9 to 14) (size 15 to 20)
#    0.000    2.154    1.538    2.769    0.000    5.538 
#    0.000    0.000    0.000    3.692    0.000    0.000 
#    0.000    0.000    0.000    0.000    0.000    0.000 
#
# Total GULP energy -144901.805926 kJ/mol
# GULP energy per Si atom -5573.146382 kJ/mol
# Density = 2.653929 g / cm^3
# Si number density = 26.599832 Si / 1000 Ang^3
#
#
#
# Elastic Constant Matrix: (Units=GPa)
#
#
# Indices 1 2 3 4 5 6 
#
# 1 167.9599 83.9671 7.5449 0.0000 0.0000 0.0000
# 2 83.9671 225.6259 42.0071 0.0000 0.0000 0.0000
# 3 7.5449 42.0071 57.7542 0.0000 0.0000 0.0000
# 4 0.0000 0.0000 0.0000 -129.2271 0.0000 0.0000
# 5 0.0000 0.0000 0.0000 0.0000 -4.9061 0.0000
# 6 0.0000 0.0000 0.0000 0.0000 0.0000 46.0272
#
#
#
# Elastic Compliance Matrix: (Units=1/GPa)
#
#
# Indices 1 2 3 4 5 6 
#
# 1 0.007385 -0.002971 0.001196 0.000000 0.000000 0.000000
# 2 -0.002971 0.006322 -0.004210 0.000000 0.000000 0.000000
# 3 0.001196 -0.004210 0.020220 0.000000 0.000000 0.000000
# 4 0.000000 0.000000 0.000000 -0.007738 0.000000 0.000000
# 5 0.000000 0.000000 0.000000 0.000000 -0.203829 0.000000
# 6 0.000000 0.000000 0.000000 0.000000 0.000000 0.021726
#
#
# Mechanical properties :
#
#
# Convention : Reuss Voigt Hill
#
# Bulk Modulus (GPa) = 45.54151 79.81980 62.68065
# Shear Modulus (GPa) = -36.59664 3.56687 -16.51489
#
# Velocity S-wave (km/s) = -3.71323 1.15924 -2.49442
# Velocity P-wave (km/s) = 1.10724 5.64487 3.91399
#
# Compressibility (1/GPa) = 0.02195799
#
# Stress axis : x y z
#
# Youngs Moduli (GPa) = 135.40128 158.18622 49.45478
#
# Poissons Ratio (x) = 0.47001 -0.05916
# Poissons Ratio (y) = 0.40231 0.20820
# Poissons Ratio (z) = -0.16198 0.66594
#
# Static dielectric constant tensor:
#      x y z
#    x 1.919200 0.000000 0.000000 
#    y 0.000000 2.118870 0.000000 
#    z 0.000000 0.000000 2.309690 
# 
# From -- ./inp_files/6995.got.cif
#   From: 2010.05.17/outbox.cif.g08.bks.cpg/sg36_4_cif.got.tgz:6995.got - 2010.06.03 17:41:39.
