data_PCOD9351663
_publ_section_title
;
Structure prediction by ZEFSAII (Michael W. Deem and Ramdas Pophale) SiO2 
 PCOD9351663
Probable space group: C M C 21
;
_chemical_formula_sum "Si O2"
_cell_formula_units_Z 64
_cell_length_a 8.932920
_cell_length_b 29.895116
_cell_length_c 12.571034
_cell_angle_alpha 90.000000
_cell_angle_beta 90.000000
_cell_angle_gamma 90.000000
_cell_volume 3357.103173
_symmetry_space_group_name_H-M "C M C 21"
_symmetry_group_IT_number 36
_symmetry_cell_setting 'orthorhombic'
loop_
_space_group_symop_operation_xyz
x,y,z
-x,-y,1/2+z
x,-y,1/2+z
-x,y,z
1/2+x,1/2+y,z
1/2-x,1/2-y,1/2+z
1/2+x,1/2-y,1/2+z
1/2-x,1/2+y,z
loop_
_atom_site_type_symbol
_atom_site_label
_atom_site_fract_x
_atom_site_fract_y
_atom_site_fract_z
Si Si1 0.678781 0.343509 0.026120
Si Si2 0.170294 0.569540 0.603181
Si Si3 0.320820 0.729880 0.692874
Si Si4 0.180747 0.821127 0.628448
Si Si5 0.822743 0.977463 0.916222
Si Si6 0.180805 0.112562 0.304312
Si Si7 0.828351 0.432028 0.351273
Si Si8 0.680822 0.664201 0.885931
O O1 0.500000 0.352120 0.039119
O O2 0.773433 0.379835 0.090557
O O3 0.709271 0.296357 0.081821
O O4 0.714962 0.353700 0.902870
O O5 0.282005 0.540803 0.532411
O O6 0.173555 0.557632 0.725818
O O7 0.000000 0.565027 0.562947
O O8 0.500000 0.735994 0.701297
O O9 0.241052 0.777299 0.687233
O O10 0.273046 0.698489 0.792162
O O11 0.231939 0.864952 0.694697
O O12 0.226929 0.821173 0.504889
O O13 0.000000 0.820568 0.630782
O O14 0.767129 0.937235 0.837585
O O15 0.000000 0.981588 0.902325
O O16 0.748040 0.025281 0.903519
O O17 0.000000 0.109637 0.299912
O O18 0.744395 0.385314 0.368037
O O19 0.000000 0.427320 0.386332
O O20 0.500000 0.662069 0.882314
#
# Coordination Sequence:
#
# PCOD9351663 Si02
#       8
#     8   8   8   8   8   8   8   8
#     4   9  17  33  57  78 104 144 190 239 284 342
#     4  10  20  35  55  83 115 146 189 245 298 346
#     4  10  21  36  56  83 114 149 193 239 290 351
#     4  10  22  38  58  84 117 153 194 241 292 349
#     4  10  21  37  60  85 115 158 204 243 291 356
#     4   8  17  35  56  81 109 145 192 237 283 341
#     4  11  23  38  59  88 120 153 194 247 304 355
#     4  10  22  40  59  84 118 154 196 243 292 356
#
# _framework density 19.064055
#
# number of rings (size 3 to 8) (size 9 to 14) (size 15 to 20)
#    0.000    2.250    1.250    1.875    1.750    4.000 
#    0.000    4.375    0.000    0.000    0.000    0.000 
#    0.000    0.000    0.000    0.000    0.000    0.000 
#
# Total GULP energy -178440.579013 kJ/mol
# GULP energy per Si atom -5576.268094 kJ/mol
# Density = 1.902066 g / cm^3
# Si number density = 19.064055 Si / 1000 Ang^3
#
#
#
# Elastic Constant Matrix: (Units=GPa)
#
#
# Indices 1 2 3 4 5 6 
#
# 1 9.9361 15.5982 10.9074 0.0000 0.0000 0.0000
# 2 15.5982 105.9262 39.1705 0.0000 0.0000 0.0000
# 3 10.9074 39.1705 63.7411 0.0000 0.0000 0.0000
# 4 0.0000 0.0000 0.0000 18.6929 0.0000 0.0000
# 5 0.0000 0.0000 0.0000 0.0000 17.7522 0.0000
# 6 0.0000 0.0000 0.0000 0.0000 0.0000 26.9895
#
#
#
# Elastic Compliance Matrix: (Units=1/GPa)
#
#
# Indices 1 2 3 4 5 6 
#
# 1 0.140786 -0.015300 -0.014689 0.000000 0.000000 0.000000
# 2 -0.015300 0.013879 -0.005911 0.000000 0.000000 0.000000
# 3 -0.014689 -0.005911 0.021835 0.000000 0.000000 0.000000
# 4 0.000000 0.000000 0.000000 0.053496 0.000000 0.000000
# 5 0.000000 0.000000 0.000000 0.000000 0.056331 0.000000
# 6 0.000000 0.000000 0.000000 0.000000 0.000000 0.037051
#
#
# Mechanical properties :
#
#
# Convention : Reuss Voigt Hill
#
# Bulk Modulus (GPa) = 9.55110 34.55062 22.05086
# Shear Modulus (GPa) = 11.62577 20.28208 15.95392
#
# Velocity S-wave (km/s) = 2.47215 3.26527 2.89599
# Velocity P-wave (km/s) = 3.62899 5.69024 4.77223
#
# Compressibility (1/GPa) = 0.10469995
#
# Stress axis : x y z
#
# Youngs Moduli (GPa) = 7.10297 72.04931 45.79870
#
# Poissons Ratio (x) = 1.10232 0.67275
# Poissons Ratio (y) = 0.10867 0.27072
# Poissons Ratio (z) = 0.10434 0.42590
#
# Static dielectric constant tensor:
#      x y z
#    x 1.661970 0.000000 0.000000 
#    y 0.000000 1.641680 0.000000 
#    z 0.000000 0.000000 1.688400 
# 
# From -- ./inp_files/7150.got.cif
#   From: 2010.05.17/outbox.cif.g08.bks.cpg/sg36_4_cif.got.tgz:7150.got - 2010.06.03 17:41:39.
