data_PCOD9351517
_publ_section_title
;
Structure prediction by ZEFSAII (Michael W. Deem and Ramdas Pophale) SiO2 
 PCOD9351517
Probable space group: C M C 21
;
_chemical_formula_sum "Si O2"
_cell_formula_units_Z 64
_cell_length_a 8.970815
_cell_length_b 20.466676
_cell_length_c 20.021170
_cell_angle_alpha 90.000000
_cell_angle_beta 90.000000
_cell_angle_gamma 90.000000
_cell_volume 3675.942152
_symmetry_space_group_name_H-M "C M C 21"
_symmetry_group_IT_number 36
_symmetry_cell_setting 'orthorhombic'
loop_
_space_group_symop_operation_xyz
x,y,z
-x,-y,1/2+z
x,-y,1/2+z
-x,y,z
1/2+x,1/2+y,z
1/2-x,1/2-y,1/2+z
1/2+x,1/2-y,1/2+z
1/2-x,1/2+y,z
loop_
_atom_site_type_symbol
_atom_site_label
_atom_site_fract_x
_atom_site_fract_y
_atom_site_fract_z
Si Si1 0.177787 0.271744 0.472060
Si Si2 0.322574 0.921016 0.454805
Si Si3 0.823109 0.270857 0.832587
Si Si4 0.824521 0.906215 0.838952
Si Si5 0.176269 0.052722 0.493899
Si Si6 0.177757 0.167600 0.715841
Si Si7 0.321480 0.551321 0.812685
Si Si8 0.677384 0.830685 0.072781
O O1 0.208145 0.348641 0.482178
O O2 0.238054 0.252012 0.399108
O O3 0.255395 0.226464 0.526659
O O4 0.000000 0.261079 0.473968
O O5 0.500000 0.931646 0.454971
O O6 0.262656 0.924346 0.378779
O O7 0.242145 0.979852 0.493344
O O8 0.772068 0.344579 0.818000
O O9 0.789535 0.222774 0.771195
O O10 0.000000 0.267981 0.845154
O O11 0.802994 0.919969 0.918193
O O12 0.000000 0.892346 0.828788
O O13 0.786821 0.974825 0.803538
O O14 0.258609 0.101495 0.543544
O O15 0.000000 0.051803 0.507324
O O16 0.211902 0.098204 0.750949
O O17 0.267280 0.177265 0.648301
O O18 0.000000 0.169552 0.701826
O O19 0.500000 0.555624 0.826209
O O20 0.500000 0.830305 0.068448
#
# Coordination Sequence:
#
# PCOD9351517 Si02
#       8
#     8   8   8   8   8   8   8   8
#     4  11  22  37  58  85 119 156 192 241 297 345
#     4  10  20  33  56  88 117 145 187 241 286 334
#     4  11  21  34  58  87 115 151 194 242 287 343
#     4   9  18  32  55  84 114 145 183 233 284 337
#     4  10  20  36  58  83 115 152 187 233 291 348
#     4  10  22  40  59  81 114 156 198 239 294 354
#     4   9  18  35  57  81 111 151 190 229 283 346
#     4  12  25  39  59  85 115 154 201 246 292 353
#
# _framework density 17.410502000000001
#
# number of rings (size 3 to 8) (size 9 to 14) (size 15 to 20)
#    0.000    1.750    2.500    3.375    0.000    5.000 
#    0.000    1.250    0.000    3.000    0.000    0.000 
#    0.000    0.000    0.000    0.000    0.000    0.000 
#
# Total GULP energy -178714.663751 kJ/mol
# GULP energy per Si atom -5584.833242 kJ/mol
# Density = 1.737087 g / cm^3
# Si number density = 17.410502 Si / 1000 Ang^3
#
#
#
# Elastic Constant Matrix: (Units=GPa)
#
#
# Indices 1 2 3 4 5 6 
#
# 1 95.8636 83.7970 69.0788 0.0000 0.0000 0.0000
# 2 83.7970 147.3068 73.6893 0.0000 0.0000 0.0000
# 3 69.0788 73.6893 93.6606 0.0000 0.0000 0.0000
# 4 0.0000 0.0000 0.0000 18.3907 0.0000 0.0000
# 5 0.0000 0.0000 0.0000 0.0000 28.6519 0.0000
# 6 0.0000 0.0000 0.0000 0.0000 0.0000 31.1325
#
#
#
# Elastic Compliance Matrix: (Units=1/GPa)
#
#
# Indices 1 2 3 4 5 6 
#
# 1 0.028403 -0.009363 -0.013582 0.000000 0.000000 0.000000
# 2 -0.009363 0.014281 -0.004330 0.000000 0.000000 0.000000
# 3 -0.013582 -0.004330 0.024101 0.000000 0.000000 0.000000
# 4 0.000000 0.000000 0.000000 0.054375 0.000000 0.000000
# 5 0.000000 0.000000 0.000000 0.000000 0.034902 0.000000
# 6 0.000000 0.000000 0.000000 0.000000 0.000000 0.032121
#
#
# Mechanical properties :
#
#
# Convention : Reuss Voigt Hill
#
# Bulk Modulus (GPa) = 81.73494 87.77348 84.75421
# Shear Modulus (GPa) = 20.25841 22.98610 21.62225
#
# Velocity S-wave (km/s) = 3.41482 3.63746 3.52790
# Velocity P-wave (km/s) = 7.91174 8.25621 8.08581
#
# Compressibility (1/GPa) = 0.01223467
#
# Stress axis : x y z
#
# Youngs Moduli (GPa) = 35.20745 70.02325 41.49225
#
# Poissons Ratio (x) = 0.65564 0.56354
# Poissons Ratio (y) = 0.32965 0.17967
# Poissons Ratio (z) = 0.47818 0.30321
#
# Static dielectric constant tensor:
#      x y z
#    x 1.579260 0.000000 0.000000 
#    y 0.000000 1.603240 0.000000 
#    z 0.000000 0.000000 1.557420 
# 
# From -- ./inp_files/13847.got.cif
#   From: 2010.05.17/outbox.cif.g08.bks.cpg/sg36_7_cif.got.tgz:13847.got - 2010.06.03 17:41:39.
