data_PCOD9351976
_publ_section_title
;
Structure prediction by ZEFSAII (Michael W. Deem and Ramdas Pophale) SiO2 
 PCOD9351976
Probable space group: C M C 21
;
_chemical_formula_sum "Si O2"
_cell_formula_units_Z 40
_cell_length_a 10.870607
_cell_length_b 18.600082
_cell_length_c 8.182782
_cell_angle_alpha 90.000000
_cell_angle_beta 90.000000
_cell_angle_gamma 90.000000
_cell_volume 1654.510910
_symmetry_space_group_name_H-M "C M C 21"
_symmetry_group_IT_number 36
_symmetry_cell_setting 'orthorhombic'
loop_
_space_group_symop_operation_xyz
x,y,z
-x,-y,1/2+z
x,-y,1/2+z
-x,y,z
1/2+x,1/2+y,z
1/2-x,1/2-y,1/2+z
1/2+x,1/2-y,1/2+z
1/2-x,1/2+y,z
loop_
_atom_site_type_symbol
_atom_site_label
_atom_site_fract_x
_atom_site_fract_y
_atom_site_fract_z
Si Si1 0.364229 0.177279 0.373700
Si Si2 0.275760 0.889564 0.394784
Si Si3 0.500000 0.529942 0.210014
Si Si4 0.773000 0.540554 0.250978
Si Si5 0.500000 0.609707 0.865655
Si Si6 0.634111 0.243718 0.733116
O O1 0.500000 0.198348 0.311303
O O2 0.352348 0.091151 0.367147
O O3 0.352554 0.207444 0.556094
O O4 0.249368 0.205950 0.269403
O O5 0.290184 0.928226 0.569019
O O6 0.136048 0.857434 0.373485
O O7 0.360880 0.822084 0.360671
O O8 0.295878 0.955833 0.270263
O O9 0.628184 0.550691 0.292379
O O10 0.500000 0.443314 0.211260
O O11 0.500000 0.560140 0.027973
O O12 0.500000 0.280491 0.738900
#
# Coordination Sequence:
#
# PCOD9351976 Si02
#       6
#     8   8   4   8   4   8
#     4  11  26  46  67  94 129 170 217 267 323 388
#     4  10  20  37  63  95 131 169 214 265 319 379
#     4   8  16  30  52  86 124 160 199 248 303 362
#     4  10  20  37  63  95 131 169 214 265 319 379
#     4   8  16  30  52  86 124 160 199 248 303 362
#     4  11  26  46  67  94 129 170 217 267 323 388
#
# _framework density 24.176328999999999
#
# number of rings (size 3 to 8) (size 9 to 14) (size 15 to 20)
#    0.000    2.000    0.000    2.400    2.800    5.600 
#    0.000    0.000    0.000    0.000    0.000    0.000 
#    0.000    0.000    0.000    0.000    0.000    0.000 
#
# Total GULP energy -111816.090752 kJ/mol
# GULP energy per Si atom -5590.804538 kJ/mol
# Density = 2.412130 g / cm^3
# Si number density = 24.176329 Si / 1000 Ang^3
#
#
#
# Elastic Constant Matrix: (Units=GPa)
#
#
# Indices 1 2 3 4 5 6 
#
# 1 102.3788 10.0291 33.3917 0.0000 0.0000 0.0000
# 2 10.0291 78.7331 14.0859 0.0000 0.0000 0.0000
# 3 33.3917 14.0859 45.2540 0.0000 0.0000 0.0000
# 4 0.0000 0.0000 0.0000 35.9896 0.0000 0.0000
# 5 0.0000 0.0000 0.0000 0.0000 21.2502 0.0000
# 6 0.0000 0.0000 0.0000 0.0000 0.0000 30.1197
#
#
#
# Elastic Compliance Matrix: (Units=1/GPa)
#
#
# Indices 1 2 3 4 5 6 
#
# 1 0.012864 0.000063 -0.009511 0.000000 0.000000 0.000000
# 2 0.000063 0.013450 -0.004233 0.000000 0.000000 0.000000
# 3 -0.009511 -0.004233 0.030433 0.000000 0.000000 0.000000
# 4 0.000000 0.000000 0.000000 0.027786 0.000000 0.000000
# 5 0.000000 0.000000 0.000000 0.000000 0.047058 0.000000
# 6 0.000000 0.000000 0.000000 0.000000 0.000000 0.033201
#
#
# Mechanical properties :
#
#
# Convention : Reuss Voigt Hill
#
# Bulk Modulus (GPa) = 34.03155 37.93101 35.98128
# Shear Modulus (GPa) = 24.75857 28.72919 26.74388
#
# Velocity S-wave (km/s) = 3.20360 3.45094 3.32957
# Velocity P-wave (km/s) = 5.27172 5.62157 5.44945
#
# Compressibility (1/GPa) = 0.02938450
#
# Stress axis : x y z
#
# Youngs Moduli (GPa) = 77.73826 74.34696 32.85874
#
# Poissons Ratio (x) = -0.00469 0.31253
# Poissons Ratio (y) = -0.00490 0.13910
# Poissons Ratio (z) = 0.73940 0.31472
#
# Static dielectric constant tensor:
#      x y z
#    x 1.954300 0.000000 0.000000 
#    y 0.000000 1.933360 0.000000 
#    z 0.000000 0.000000 1.923070 
# 
# From -- ./inp_files/3105.got.cif
#   From: 2010.05.17/outbox.cif.g08.bks.cpg/sg36_2_cif.got.tgz:3105.got - 2010.06.03 17:41:39.
