data_PCOD9351382
_publ_section_title
;
Structure prediction by ZEFSAII (Michael W. Deem and Ramdas Pophale) SiO2 
 PCOD9351382
Probable space group: C M C 21
;
_chemical_formula_sum "Si O2"
_cell_formula_units_Z 64
_cell_length_a 7.711217
_cell_length_b 20.031911
_cell_length_c 18.099418
_cell_angle_alpha 90.000000
_cell_angle_beta 90.000000
_cell_angle_gamma 90.000000
_cell_volume 2795.824567
_symmetry_space_group_name_H-M "C M C 21"
_symmetry_group_IT_number 36
_symmetry_cell_setting 'orthorhombic'
loop_
_space_group_symop_operation_xyz
x,y,z
-x,-y,1/2+z
x,-y,1/2+z
-x,y,z
1/2+x,1/2+y,z
1/2-x,1/2-y,1/2+z
1/2+x,1/2-y,1/2+z
1/2-x,1/2+y,z
loop_
_atom_site_type_symbol
_atom_site_label
_atom_site_fract_x
_atom_site_fract_y
_atom_site_fract_z
Si Si1 0.709050 0.951315 0.530800
Si Si2 0.799535 0.885131 0.243543
Si Si3 0.709973 0.362277 0.789980
Si Si4 0.211811 0.167015 0.585130
Si Si5 0.206671 0.922025 0.946645
Si Si6 0.201163 0.726009 0.848160
Si Si7 0.287444 0.799906 0.511209
Si Si8 0.798664 0.479948 0.691029
O O1 0.500000 0.949084 0.535342
O O2 0.771204 0.875455 0.523908
O O3 0.755818 0.001114 0.465013
O O4 0.775517 0.981660 0.608232
O O5 0.729208 0.860765 0.163957
O O6 0.711193 0.845241 0.309218
O O7 0.786469 0.964849 0.243220
O O8 0.000000 0.865869 0.248008
O O9 0.500000 0.365905 0.783874
O O10 0.767660 0.396368 0.867278
O O11 0.769199 0.285471 0.796352
O O12 0.781037 0.406040 0.723309
O O13 0.272597 0.122131 0.515824
O O14 0.263014 0.243500 0.569856
O O15 0.000000 0.163848 0.585320
O O16 0.000000 0.912781 0.945433
O O17 0.275282 0.723249 0.930313
O O18 0.000000 0.743711 0.859157
O O19 0.500000 0.801281 0.510487
O O20 0.000000 0.497773 0.687950
#
# Coordination Sequence:
#
# PCOD9351382 Si02
#       8
#     8   8   8   8   8   8   8   8
#     4  10  22  37  58  87 117 150 192 242 291 346
#     4  11  23  38  61  87 117 154 197 245 293 349
#     4  10  22  39  61  87 118 157 199 241 291 352
#     4   9  17  34  61  84 106 146 191 234 285 344
#     4  10  19  37  62  85 111 148 194 239 286 346
#     4  10  21  39  61  86 119 155 191 236 292 354
#     4   9  18  36  60  84 113 149 192 234 286 348
#     4  11  24  40  58  84 121 159 198 243 292 347
#
# _framework density 22.891276999999999
#
# number of rings (size 3 to 8) (size 9 to 14) (size 15 to 20)
#    0.000    2.000    2.500    0.750    3.500    1.500 
#    0.000    0.000    0.000    2.250    0.000    0.000 
#    0.000    0.000    0.000    0.000    0.000    0.000 
#
# Total GULP energy -178828.356383 kJ/mol
# GULP energy per Si atom -5588.386137 kJ/mol
# Density = 2.283918 g / cm^3
# Si number density = 22.891277 Si / 1000 Ang^3
#
#
#
# Elastic Constant Matrix: (Units=GPa)
#
#
# Indices 1 2 3 4 5 6 
#
# 1 37.3054 -4.8390 1.1579 0.0000 0.0000 0.0000
# 2 -4.8390 95.8267 -21.5973 0.0000 0.0000 0.0000
# 3 1.1579 -21.5973 17.3030 0.0000 0.0000 0.0000
# 4 0.0000 0.0000 0.0000 39.9123 0.0000 0.0000
# 5 0.0000 0.0000 0.0000 0.0000 8.3425 0.0000
# 6 0.0000 0.0000 0.0000 0.0000 0.0000 8.8521
#
#
#
# Elastic Compliance Matrix: (Units=1/GPa)
#
#
# Indices 1 2 3 4 5 6 
#
# 1 0.026983 0.001330 -0.000146 0.000000 0.000000 0.000000
# 2 0.001330 0.014586 0.018117 0.000000 0.000000 0.000000
# 3 -0.000146 0.018117 0.080417 0.000000 0.000000 0.000000
# 4 0.000000 0.000000 0.000000 0.025055 0.000000 0.000000
# 5 0.000000 0.000000 0.000000 0.000000 0.119868 0.000000
# 6 0.000000 0.000000 0.000000 0.000000 0.000000 0.112968
#
#
# Mechanical properties :
#
#
# Convention : Reuss Voigt Hill
#
# Bulk Modulus (GPa) = 6.22719 11.09758 8.66239
# Shear Modulus (GPa) = 12.66451 23.13561 17.90006
#
# Velocity S-wave (km/s) = 2.35467 3.18256 2.79939
# Velocity P-wave (km/s) = 3.18102 4.28525 3.77374
#
# Compressibility (1/GPa) = 0.16058602
#
# Stress axis : x y z
#
# Youngs Moduli (GPa) = 37.06070 68.55980 12.43524
#
# Poissons Ratio (x) = -0.09116 0.00182
# Poissons Ratio (y) = -0.04928 -0.22529
# Poissons Ratio (z) = 0.00541 -1.24209
#
# Static dielectric constant tensor:
#      x y z
#    x 1.855330 0.000000 0.000000 
#    y 0.000000 1.846950 0.000000 
#    z 0.000000 0.000000 1.831000 
# 
# From -- ./inp_files/13874.got.cif
#   From: 2010.05.17/outbox.cif.g08.bks.cpg/sg36_7_cif.got.tgz:13874.got - 2010.06.03 17:41:39.
