data_PCOD9351469
_publ_section_title
;
Structure prediction by ZEFSAII (Michael W. Deem and Ramdas Pophale) SiO2 
 PCOD9351469
Probable space group: C M C 21
;
_chemical_formula_sum "Si O2"
_cell_formula_units_Z 64
_cell_length_a 7.860940
_cell_length_b 14.700452
_cell_length_c 29.247786
_cell_angle_alpha 90.000000
_cell_angle_beta 90.000000
_cell_angle_gamma 90.000000
_cell_volume 3379.855758
_symmetry_space_group_name_H-M "C M C 21"
_symmetry_group_IT_number 36
_symmetry_cell_setting 'orthorhombic'
loop_
_space_group_symop_operation_xyz
x,y,z
-x,-y,1/2+z
x,-y,1/2+z
-x,y,z
1/2+x,1/2+y,z
1/2-x,1/2-y,1/2+z
1/2+x,1/2-y,1/2+z
1/2-x,1/2+y,z
loop_
_atom_site_type_symbol
_atom_site_label
_atom_site_fract_x
_atom_site_fract_y
_atom_site_fract_z
Si Si1 0.204225 0.641861 0.718780
Si Si2 0.291891 0.996976 0.644938
Si Si3 0.295917 0.353112 0.967567
Si Si4 0.705732 0.002888 0.292542
Si Si5 0.701700 0.495063 0.397999
Si Si6 0.293871 0.998725 0.040613
Si Si7 0.701492 0.850984 0.469530
Si Si8 0.204222 0.352347 0.718992
O O1 0.262370 0.585268 0.674195
O O2 0.263263 0.585043 0.763226
O O3 0.250164 0.747084 0.718892
O O4 0.000000 0.636189 0.718852
O O5 0.500000 0.996861 0.644052
O O6 0.233590 0.997335 0.592745
O O7 0.237586 0.909016 0.674419
O O8 0.500000 0.347308 0.962176
O O9 0.231262 0.417558 0.926402
O O10 0.226869 0.250719 0.967898
O O11 0.258083 0.407521 0.014013
O O12 0.500000 0.002873 0.292751
O O13 0.762983 0.001617 0.344561
O O14 0.763473 0.091152 0.263544
O O15 0.500000 0.491116 0.405005
O O16 0.775121 0.405589 0.422374
O O17 0.500000 0.001590 0.040892
O O18 0.230411 0.083139 0.009612
O O19 0.500000 0.842787 0.478082
O O20 0.000000 0.358211 0.719069
#
# Coordination Sequence:
#
# PCOD9351469 Si02
#       8
#     8   8   8   8   8   8   8   8
#     4   9  18  33  51  70  96 128 158 194 240 283
#     4   8  16  32  50  70  99 131 160 192 236 286
#     4   9  19  34  49  70 100 127 155 198 248 287
#     4   9  19  35  51  68  96 131 160 191 238 291
#     4  10  20  33  50  72  97 124 158 202 242 280
#     4   9  17  31  52  73  94 127 167 198 228 280
#     4   9  18  33  51  70  96 130 162 193 238 292
#     4   9  18  33  52  73  98 128 162 198 234 281
#
# _framework density 18.93572
#
# number of rings (size 3 to 8) (size 9 to 14) (size 15 to 20)
#    0.000    3.000    0.000    1.875    0.000    4.000 
#    0.000    8.125    0.000    0.000    0.000    0.000 
#    0.000    0.000    0.000    0.000    0.000    0.000 
#
# Total GULP energy -178390.702929 kJ/mol
# GULP energy per Si atom -5574.709467 kJ/mol
# Density = 1.889262 g / cm^3
# Si number density = 18.935720 Si / 1000 Ang^3
#
#
#
# Elastic Constant Matrix: (Units=GPa)
#
#
# Indices 1 2 3 4 5 6 
#
# 1 8.4707 3.9952 -8.0304 0.0000 0.0000 0.0000
# 2 3.9952 194.0904 90.0466 0.0000 0.0000 0.0000
# 3 -8.0304 90.0466 164.1870 0.0000 0.0000 0.0000
# 4 0.0000 0.0000 0.0000 7.3605 0.0000 0.0000
# 5 0.0000 0.0000 0.0000 0.0000 16.4208 0.0000
# 6 0.0000 0.0000 0.0000 0.0000 0.0000 18.5449
#
#
#
# Elastic Compliance Matrix: (Units=1/GPa)
#
#
# Indices 1 2 3 4 5 6 
#
# 1 0.131745 -0.007647 0.010638 0.000000 0.000000 0.000000
# 2 -0.007647 0.007354 -0.004407 0.000000 0.000000 0.000000
# 3 0.010638 -0.004407 0.009028 0.000000 0.000000 0.000000
# 4 0.000000 0.000000 0.000000 0.135860 0.000000 0.000000
# 5 0.000000 0.000000 0.000000 0.000000 0.060898 0.000000
# 6 0.000000 0.000000 0.000000 0.000000 0.000000 0.053923
#
#
# Mechanical properties :
#
#
# Convention : Reuss Voigt Hill
#
# Bulk Modulus (GPa) = 6.88259 59.86342 33.37301
# Shear Modulus (GPa) = 11.10927 27.18103 19.14515
#
# Velocity S-wave (km/s) = 2.42478 3.79283 3.18317
# Velocity P-wave (km/s) = 3.38851 7.13185 5.58325
#
# Compressibility (1/GPa) = 0.14529408
#
# Stress axis : x y z
#
# Youngs Moduli (GPa) = 7.59040 135.97184 110.76481
#
# Poissons Ratio (x) = 1.03979 -1.17827
# Poissons Ratio (y) = 0.05804 0.48819
# Poissons Ratio (z) = -0.08074 0.59929
#
# Static dielectric constant tensor:
#      x y z
#    x 1.691470 0.000000 0.000000 
#    y 0.000000 1.655340 0.000000 
#    z 0.000000 0.000000 1.637790 
# 
# From -- ./inp_files/16872.got.cif
#   From: 2010.05.17/outbox.cif.g08.bks.cpg/sg36_9_cif.got.tgz:16872.got - 2010.06.03 17:41:39.
