data_PCOD9351335
_publ_section_title
;
Structure prediction by ZEFSAII (Michael W. Deem and Ramdas Pophale) SiO2 
 PCOD9351335
Probable space group: C M C 21
;
_chemical_formula_sum "Si O2"
_cell_formula_units_Z 64
_cell_length_a 8.127724
_cell_length_b 22.071747
_cell_length_c 14.326081
_cell_angle_alpha 90.000000
_cell_angle_beta 90.000000
_cell_angle_gamma 90.000000
_cell_volume 2569.999620
_symmetry_space_group_name_H-M "C M C 21"
_symmetry_group_IT_number 36
_symmetry_cell_setting 'orthorhombic'
loop_
_space_group_symop_operation_xyz
x,y,z
-x,-y,1/2+z
x,-y,1/2+z
-x,y,z
1/2+x,1/2+y,z
1/2-x,1/2-y,1/2+z
1/2+x,1/2-y,1/2+z
1/2-x,1/2+y,z
loop_
_atom_site_type_symbol
_atom_site_label
_atom_site_fract_x
_atom_site_fract_y
_atom_site_fract_z
Si Si1 0.695166 0.403764 0.578220
Si Si2 0.694289 0.900547 0.908691
Si Si3 0.306134 0.326056 0.742964
Si Si4 0.191556 0.783023 0.017048
Si Si5 0.304500 0.978388 0.188640
Si Si6 0.187214 0.210367 0.855484
Si Si7 0.309114 0.845856 0.182567
Si Si8 0.303678 0.471012 0.401495
O O1 0.500000 0.392954 0.570641
O O2 0.761082 0.349565 0.643679
O O3 0.721560 0.465227 0.638102
O O4 0.756616 0.419793 0.474338
O O5 0.500000 0.906289 0.890999
O O6 0.788045 0.882934 0.813404
O O7 0.724836 0.843675 0.975857
O O8 0.763639 0.963501 0.946370
O O9 0.500000 0.309155 0.735428
O O10 0.212760 0.273616 0.799128
O O11 0.265711 0.726613 0.961037
O O12 0.000000 0.784569 0.994588
O O13 0.221158 0.792093 0.126325
O O14 0.500000 0.981979 0.169890
O O15 0.242153 0.912019 0.157777
O O16 0.277646 0.976339 0.300177
O O17 0.290385 0.164499 0.793015
O O18 0.000000 0.190512 0.851760
O O19 0.500000 0.843174 0.158291
O O20 0.500000 0.464290 0.389971
#
# Coordination Sequence:
#
# PCOD9351335 Si02
#       8
#     8   8   8   8   8   8   8   8
#     4  10  22  38  60  88 121 162 204 246 302 368
#     4  11  20  33  56  87 120 157 201 251 303 357
#     4  10  19  36  60  85 115 154 197 251 305 356
#     4  11  22  39  65  95 123 161 210 260 312 368
#     4  11  24  40  62  91 125 164 203 254 311 364
#     4  11  23  41  65  93 122 162 207 257 313 370
#     4  11  24  44  65  91 127 166 209 261 313 372
#     4  11  22  37  57  86 123 164 205 246 303 371
#
# _framework density 24.902729000000001
#
# number of rings (size 3 to 8) (size 9 to 14) (size 15 to 20)
#    0.000    1.250    1.250    7.125    0.000    5.500 
#    2.250    0.000    0.000    0.000    0.000    0.000 
#    0.000    0.000    0.000    0.000    0.000    0.000 
#
# Total GULP energy -179104.734919 kJ/mol
# GULP energy per Si atom -5597.022966 kJ/mol
# Density = 2.484605 g / cm^3
# Si number density = 24.902729 Si / 1000 Ang^3
#
#
#
# Elastic Constant Matrix: (Units=GPa)
#
#
# Indices 1 2 3 4 5 6 
#
# 1 64.3479 -12.6963 -16.9655 0.0000 0.0000 0.0000
# 2 -12.6963 75.5553 7.9793 0.0000 0.0000 0.0000
# 3 -16.9655 7.9793 119.4106 0.0000 0.0000 0.0000
# 4 0.0000 0.0000 0.0000 49.6111 0.0000 0.0000
# 5 0.0000 0.0000 0.0000 0.0000 22.4489 0.0000
# 6 0.0000 0.0000 0.0000 0.0000 0.0000 17.1570
#
#
#
# Elastic Compliance Matrix: (Units=1/GPa)
#
#
# Indices 1 2 3 4 5 6 
#
# 1 0.016624 0.002562 0.002191 0.000000 0.000000 0.000000
# 2 0.002562 0.013724 -0.000553 0.000000 0.000000 0.000000
# 3 0.002191 -0.000553 0.008723 0.000000 0.000000 0.000000
# 4 0.000000 0.000000 0.000000 0.020157 0.000000 0.000000
# 5 0.000000 0.000000 0.000000 0.000000 0.044546 0.000000
# 6 0.000000 0.000000 0.000000 0.000000 0.000000 0.058285
#
#
# Mechanical properties :
#
#
# Convention : Reuss Voigt Hill
#
# Bulk Modulus (GPa) = 21.06603 23.99432 22.53017
# Shear Modulus (GPa) = 29.50160 36.57647 33.03904
#
# Velocity S-wave (km/s) = 3.44564 3.83662 3.64637
# Velocity P-wave (km/s) = 4.93028 5.41131 5.17639
#
# Compressibility (1/GPa) = 0.04746980
#
# Stress axis : x y z
#
# Youngs Moduli (GPa) = 60.15540 72.86360 114.64391
#
# Poissons Ratio (x) = -0.18668 -0.25114
# Poissons Ratio (y) = -0.15412 0.06341
# Poissons Ratio (z) = -0.13178 0.04030
#
# Static dielectric constant tensor:
#      x y z
#    x 1.839930 0.000000 0.000000 
#    y 0.000000 2.019310 0.000000 
#    z 0.000000 0.000000 2.055930 
# 
# From -- ./inp_files/10869.got.cif
#   From: 2010.05.17/outbox.cif.g08.bks.cpg/sg36_6_cif.got.tgz:10869.got - 2010.06.03 17:41:39.
