data_PCOD9351519
_publ_section_title
;
Structure prediction by ZEFSAII (Michael W. Deem and Ramdas Pophale) SiO2 
 PCOD9351519
Probable space group: C M C 21
;
_chemical_formula_sum "Si O2"
_cell_formula_units_Z 64
_cell_length_a 18.515611
_cell_length_b 21.304110
_cell_length_c 7.175002
_cell_angle_alpha 90.000000
_cell_angle_beta 90.000000
_cell_angle_gamma 90.000000
_cell_volume 2830.241341
_symmetry_space_group_name_H-M "C M C 21"
_symmetry_group_IT_number 36
_symmetry_cell_setting 'orthorhombic'
loop_
_space_group_symop_operation_xyz
x,y,z
-x,-y,1/2+z
x,-y,1/2+z
-x,y,z
1/2+x,1/2+y,z
1/2-x,1/2-y,1/2+z
1/2+x,1/2-y,1/2+z
1/2-x,1/2+y,z
loop_
_atom_site_type_symbol
_atom_site_label
_atom_site_fract_x
_atom_site_fract_y
_atom_site_fract_z
Si Si1 0.286899 0.548384 0.823640
Si Si2 0.806752 0.179701 0.844580
Si Si3 0.357643 0.817633 0.409492
Si Si4 0.416509 0.310458 0.995287
Si Si5 0.127471 0.449556 0.488096
Si Si6 0.183080 0.909971 0.902735
Si Si7 0.418053 0.081333 0.388495
Si Si8 0.816048 0.681502 0.351824
O O1 0.319776 0.609883 0.930464
O O2 0.206830 0.539771 0.906138
O O3 0.290662 0.572469 0.612410
O O4 0.319680 0.478942 0.814756
O O5 0.719945 0.177902 0.808471
O O6 0.863141 0.185823 0.674436
O O7 0.812152 0.248586 0.936510
O O8 0.398936 0.752718 0.379039
O O9 0.398719 0.884757 0.391343
O O10 0.338983 0.813190 0.633304
O O11 0.500000 0.309520 0.049061
O O12 0.392750 0.373961 0.891919
O O13 0.127892 0.433828 0.704452
O O14 0.083779 0.514280 0.487095
O O15 0.241771 0.857360 0.845616
O O16 0.500000 0.098357 0.343830
O O17 0.375073 0.140723 0.464497
#
# Coordination Sequence:
#
# PCOD9351519 Si02
#       8
#     8   8   8   8   8   8   8   8
#     4  10  21  35  59  86 113 150 203 255 296 356
#     4   9  19  36  57  90 114 151 199 247 295 366
#     4   9  19  35  59  90 114 157 199 243 295 366
#     4  10  21  38  62  90 120 156 201 257 314 360
#     4  10  20  34  53  80 115 151 196 241 292 358
#     4  11  21  37  59  89 117 156 202 254 299 367
#     4  11  22  34  51  80 116 159 196 237 296 355
#     4  10  20  33  58  83 116 154 198 246 290 358
#
# _framework density 22.612912000000001
#
# number of rings (size 3 to 8) (size 9 to 14) (size 15 to 20)
#    0.000    2.000    2.500    1.125    3.500    5.000 
#    0.000    2.500    0.000    0.750    0.000    0.000 
#    0.000    0.000    0.000    0.000    0.000    0.000 
#
# Total GULP energy -178247.980724 kJ/mol
# GULP energy per Si atom -5570.249398 kJ/mol
# Density = 2.256144 g / cm^3
# Si number density = 22.612912 Si / 1000 Ang^3
#
#
#
# Elastic Constant Matrix: (Units=GPa)
#
#
# Indices 1 2 3 4 5 6 
#
# 1 81.0540 50.1830 -8.3616 0.0000 0.0000 0.0000
# 2 50.1830 242.8393 7.0744 0.0000 0.0000 0.0000
# 3 -8.3616 7.0744 17.2698 0.0000 0.0000 0.0000
# 4 0.0000 0.0000 0.0000 21.0633 0.0000 0.0000
# 5 0.0000 0.0000 0.0000 0.0000 10.5921 0.0000
# 6 0.0000 0.0000 0.0000 0.0000 0.0000 17.8799
#
#
#
# Elastic Compliance Matrix: (Units=1/GPa)
#
#
# Indices 1 2 3 4 5 6 
#
# 1 0.015378 -0.003436 0.008853 0.000000 0.000000 0.000000
# 2 -0.003436 0.004935 -0.003685 0.000000 0.000000 0.000000
# 3 0.008853 -0.003685 0.063701 0.000000 0.000000 0.000000
# 4 0.000000 0.000000 0.000000 0.047476 0.000000 0.000000
# 5 0.000000 0.000000 0.000000 0.000000 0.094410 0.000000
# 6 0.000000 0.000000 0.000000 0.000000 0.000000 0.055929
#
#
# Mechanical properties :
#
#
# Convention : Reuss Voigt Hill
#
# Bulk Modulus (GPa) = 11.43142 48.77274 30.10208
# Shear Modulus (GPa) = 16.25892 29.39155 22.82523
#
# Velocity S-wave (km/s) = 2.68435 3.60914 3.18054
# Velocity P-wave (km/s) = 3.83065 6.24365 5.17963
#
# Compressibility (1/GPa) = 0.08747819
#
# Stress axis : x y z
#
# Youngs Moduli (GPa) = 65.02819 202.62128 15.69840
#
# Poissons Ratio (x) = 0.69616 -0.13898
# Poissons Ratio (y) = 0.22342 0.05785
# Poissons Ratio (z) = -0.57570 0.74671
#
# Static dielectric constant tensor:
#      x y z
#    x 1.807240 0.000000 0.000000 
#    y 0.000000 2.028910 0.000000 
#    z 0.000000 0.000000 1.963040 
# 
# From -- ./inp_files/4932.got.cif
#   From: 2010.05.17/outbox.cif.g08.bks.cpg/sg36_3_cif.got.tgz:4932.got - 2010.06.03 17:41:39.
