data_PCOD9351386
_publ_section_title
;
Structure prediction by ZEFSAII (Michael W. Deem and Ramdas Pophale) SiO2 
 PCOD9351386
Probable space group: C M C 21
;
_chemical_formula_sum "Si O2"
_cell_formula_units_Z 64
_cell_length_a 8.487202
_cell_length_b 23.480020
_cell_length_c 16.709290
_cell_angle_alpha 90.000000
_cell_angle_beta 90.000000
_cell_angle_gamma 90.000000
_cell_volume 3329.821842
_symmetry_space_group_name_H-M "C M C 21"
_symmetry_group_IT_number 36
_symmetry_cell_setting 'orthorhombic'
loop_
_space_group_symop_operation_xyz
x,y,z
-x,-y,1/2+z
x,-y,1/2+z
-x,y,z
1/2+x,1/2+y,z
1/2-x,1/2-y,1/2+z
1/2+x,1/2-y,1/2+z
1/2-x,1/2+y,z
loop_
_atom_site_type_symbol
_atom_site_label
_atom_site_fract_x
_atom_site_fract_y
_atom_site_fract_z
Si Si1 0.808846 0.906261 0.851350
Si Si2 0.184704 0.855664 0.015873
Si Si3 0.311994 0.718712 0.664165
Si Si4 0.690320 0.345176 0.687185
Si Si5 0.815817 0.065495 0.063612
Si Si6 0.686914 0.031210 0.895464
Si Si7 0.177547 0.950181 0.146883
Si Si8 0.680285 0.122268 0.774452
O O1 0.756776 0.877698 0.767983
O O2 0.000000 0.905679 0.853067
O O3 0.758652 0.971885 0.864099
O O4 0.750173 0.868777 0.927740
O O5 0.248827 0.809638 0.080175
O O6 0.190723 0.915336 0.064219
O O7 0.000000 0.841177 0.005036
O O8 0.500000 0.722119 0.658043
O O9 0.242624 0.780170 0.682469
O O10 0.269486 0.675373 0.735820
O O11 0.500000 0.348031 0.687078
O O12 0.744585 0.378188 0.607283
O O13 0.000000 0.072039 0.040453
O O14 0.810906 0.016327 0.130608
O O15 0.723013 0.042257 0.987973
O O16 0.500000 0.028309 0.881752
O O17 0.747031 0.088047 0.849985
O O18 0.306341 0.925880 0.205892
O O19 0.000000 0.937355 0.178178
O O20 0.500000 0.139059 0.789299
#
# Coordination Sequence:
#
# PCOD9351386 Si02
#       8
#     8   8   8   8   8   8   8   8
#     4  10  19  37  63  86 113 149 190 236 286 347
#     4   8  15  31  57  84 105 139 186 229 271 327
#     4  10  21  39  60  80 111 151 194 235 279 338
#     4  10  22  38  59  86 115 153 195 238 288 339
#     4  10  20  36  56  80 116 155 188 225 277 345
#     4  11  23  36  54  87 121 148 185 234 289 340
#     4   9  16  31  56  84 110 141 185 223 271 337
#     4  10  21  36  55  81 113 146 183 232 283 333
#
# _framework density 19.220247000000001
#
# number of rings (size 3 to 8) (size 9 to 14) (size 15 to 20)
#    0.000    2.250    1.250    2.625    0.000    4.500 
#    2.250    0.625    0.000    0.000    0.000    0.000 
#    0.000    0.000    0.000    0.000    0.000    0.000 
#
# Total GULP energy -178359.823901 kJ/mol
# GULP energy per Si atom -5573.744497 kJ/mol
# Density = 1.917650 g / cm^3
# Si number density = 19.220247 Si / 1000 Ang^3
#
#
#
# Elastic Constant Matrix: (Units=GPa)
#
#
# Indices 1 2 3 4 5 6 
#
# 1 10.6785 11.4288 11.8849 0.0000 0.0000 0.0000
# 2 11.4288 121.0035 49.8249 0.0000 0.0000 0.0000
# 3 11.8849 49.8249 58.4929 0.0000 0.0000 0.0000
# 4 0.0000 0.0000 0.0000 25.2594 0.0000 0.0000
# 5 0.0000 0.0000 0.0000 0.0000 16.9650 0.0000
# 6 0.0000 0.0000 0.0000 0.0000 0.0000 26.6726
#
#
#
# Elastic Compliance Matrix: (Units=1/GPa)
#
#
# Indices 1 2 3 4 5 6 
#
# 1 0.121331 -0.002015 -0.022936 0.000000 0.000000 0.000000
# 2 -0.002015 0.012762 -0.010462 0.000000 0.000000 0.000000
# 3 -0.022936 -0.010462 0.030668 0.000000 0.000000 0.000000
# 4 0.000000 0.000000 0.000000 0.039589 0.000000 0.000000
# 5 0.000000 0.000000 0.000000 0.000000 0.058945 0.000000
# 6 0.000000 0.000000 0.000000 0.000000 0.000000 0.037492
#
#
# Mechanical properties :
#
#
# Convention : Reuss Voigt Hill
#
# Bulk Modulus (GPa) = 10.64569 37.38357 24.01463
# Shear Modulus (GPa) = 12.40930 21.58183 16.99556
#
# Velocity S-wave (km/s) = 2.54370 3.35456 2.97687
# Velocity P-wave (km/s) = 3.76537 5.87336 4.93328
#
# Compressibility (1/GPa) = 0.09393474
#
# Stress axis : x y z
#
# Youngs Moduli (GPa) = 8.24194 78.35591 32.60768
#
# Poissons Ratio (x) = 0.15792 0.74789
# Poissons Ratio (y) = 0.01661 0.34113
# Poissons Ratio (z) = 0.18904 0.81972
#
# Static dielectric constant tensor:
#      x y z
#    x 1.683060 0.000000 0.000000 
#    y 0.000000 1.652950 0.000000 
#    z 0.000000 0.000000 1.714920 
# 
# From -- ./inp_files/11071.got.cif
#   From: 2010.05.17/outbox.cif.g08.bks.cpg/sg36_6_cif.got.tgz:11071.got - 2010.06.03 17:41:39.
