data_PCOD9351342
_publ_section_title
;
Structure prediction by ZEFSAII (Michael W. Deem and Ramdas Pophale) SiO2 
 PCOD9351342
Probable space group: C M C 21
;
_chemical_formula_sum "Si O2"
_cell_formula_units_Z 64
_cell_length_a 7.921257
_cell_length_b 31.810208
_cell_length_c 11.577091
_cell_angle_alpha 90.000000
_cell_angle_beta 90.000000
_cell_angle_gamma 90.000000
_cell_volume 2917.158723
_symmetry_space_group_name_H-M "C M C 21"
_symmetry_group_IT_number 36
_symmetry_cell_setting 'orthorhombic'
loop_
_space_group_symop_operation_xyz
x,y,z
-x,-y,1/2+z
x,-y,1/2+z
-x,y,z
1/2+x,1/2+y,z
1/2-x,1/2-y,1/2+z
1/2+x,1/2-y,1/2+z
1/2-x,1/2+y,z
loop_
_atom_site_type_symbol
_atom_site_label
_atom_site_fract_x
_atom_site_fract_y
_atom_site_fract_z
Si Si1 0.809149 0.262292 0.095560
Si Si2 0.204507 0.580237 0.098842
Si Si3 0.693174 0.647898 0.540047
Si Si4 0.296553 0.724110 0.852713
Si Si5 0.197705 0.069543 0.715392
Si Si6 0.303094 0.991316 0.028327
Si Si7 0.298695 0.369282 0.398238
Si Si8 0.295376 0.082156 0.362590
O O1 0.802908 0.312376 0.073516
O O2 0.741755 0.255923 0.226707
O O3 0.000000 0.246489 0.099569
O O4 0.733128 0.243841 0.974847
O O5 0.271990 0.537528 0.039353
O O6 0.258353 0.579576 0.231151
O O7 0.000000 0.579278 0.097453
O O8 0.263628 0.621292 0.031040
O O9 0.500000 0.662596 0.543317
O O10 0.709108 0.609586 0.629753
O O11 0.736507 0.625505 0.420201
O O12 0.500000 0.724136 0.859461
O O13 0.235792 0.675546 0.854469
O O14 0.288865 0.031207 0.653306
O O15 0.271746 0.090051 0.830654
O O16 0.000000 0.058127 0.728187
O O17 0.500000 0.996083 0.999379
O O18 0.230513 0.957871 0.936874
O O19 0.500000 0.369560 0.376961
O O20 0.500000 0.081606 0.369324
#
# Coordination Sequence:
#
# PCOD9351342 Si02
#       8
#     8   8   8   8   8   8   8   8
#     4  11  23  39  65  97 124 159 204 253 307 368
#     4  10  22  36  54  82 116 153 192 243 300 351
#     4  10  19  36  61  84 112 149 188 235 292 349
#     4  10  23  44  64  88 127 163 202 255 310 368
#     4   9  18  34  57  81 107 143 187 232 279 336
#     4   9  19  34  55  80 110 149 188 236 291 342
#     4  10  21  39  59  81 114 154 191 238 292 351
#     4   9  19  36  53  79 116 148 192 244 289 351
#
# _framework density 21.939156000000001
#
# number of rings (size 3 to 8) (size 9 to 14) (size 15 to 20)
#    0.000    2.250    1.250    0.750    1.750    4.500 
#    0.000    2.500    0.000    0.000    0.000    0.000 
#    0.000    0.000    0.000    0.000    0.000    0.000 
#
# Total GULP energy -178460.927075 kJ/mol
# GULP energy per Si atom -5576.903971 kJ/mol
# Density = 2.188922 g / cm^3
# Si number density = 21.939156 Si / 1000 Ang^3
#
#
#
# Elastic Constant Matrix: (Units=GPa)
#
#
# Indices 1 2 3 4 5 6 
#
# 1 16.8277 0.2227 5.8880 0.0000 0.0000 0.0000
# 2 0.2227 43.6934 42.7155 0.0000 0.0000 0.0000
# 3 5.8880 42.7155 151.9001 0.0000 0.0000 0.0000
# 4 0.0000 0.0000 0.0000 27.5751 0.0000 0.0000
# 5 0.0000 0.0000 0.0000 0.0000 27.6358 0.0000
# 6 0.0000 0.0000 0.0000 0.0000 0.0000 20.8507
#
#
#
# Elastic Compliance Matrix: (Units=1/GPa)
#
#
# Indices 1 2 3 4 5 6 
#
# 1 0.060479 0.002736 -0.003114 0.000000 0.000000 0.000000
# 2 0.002736 0.031688 -0.009017 0.000000 0.000000 0.000000
# 3 -0.003114 -0.009017 0.009240 0.000000 0.000000 0.000000
# 4 0.000000 0.000000 0.000000 0.036265 0.000000 0.000000
# 5 0.000000 0.000000 0.000000 0.000000 0.036185 0.000000
# 6 0.000000 0.000000 0.000000 0.000000 0.000000 0.047960
#
#
# Mechanical properties :
#
#
# Convention : Reuss Voigt Hill
#
# Bulk Modulus (GPa) = 12.10407 34.45261 23.27834
# Shear Modulus (GPa) = 18.64664 26.11865 22.38265
#
# Velocity S-wave (km/s) = 2.91851 3.45411 3.19755
# Velocity P-wave (km/s) = 4.10926 5.62545 4.92604
#
# Compressibility (1/GPa) = 0.08261683
#
# Stress axis : x y z
#
# Youngs Moduli (GPa) = 16.53466 31.55778 108.22989
#
# Poissons Ratio (x) = -0.08633 0.33698
# Poissons Ratio (y) = -0.04523 0.97590
# Poissons Ratio (z) = 0.05148 0.28455
#
# Static dielectric constant tensor:
#      x y z
#    x 1.802850 0.000000 0.000000 
#    y 0.000000 1.786520 0.000000 
#    z 0.000000 0.000000 1.863820 
# 
# From -- ./inp_files/7069.got.cif
#   From: 2010.05.17/outbox.cif.g08.bks.cpg/sg36_4_cif.got.tgz:7069.got - 2010.06.03 17:41:39.
