data_PCOD9351507
_publ_section_title
;
Structure prediction by ZEFSAII (Michael W. Deem and Ramdas Pophale) SiO2 
 PCOD9351507
Probable space group: C M C 21
;
_chemical_formula_sum "Si O2"
_cell_formula_units_Z 40
_cell_length_a 14.169348
_cell_length_b 21.690339
_cell_length_c 5.334632
_cell_angle_alpha 90.000000
_cell_angle_beta 90.000000
_cell_angle_gamma 90.000000
_cell_volume 1639.534924
_symmetry_space_group_name_H-M "C M C 21"
_symmetry_group_IT_number 36
_symmetry_cell_setting 'orthorhombic'
loop_
_space_group_symop_operation_xyz
x,y,z
-x,-y,1/2+z
x,-y,1/2+z
-x,y,z
1/2+x,1/2+y,z
1/2-x,1/2-y,1/2+z
1/2+x,1/2-y,1/2+z
1/2-x,1/2+y,z
loop_
_atom_site_type_symbol
_atom_site_label
_atom_site_fract_x
_atom_site_fract_y
_atom_site_fract_z
Si Si1 0.889521 0.857140 0.006580
Si Si2 0.390123 0.094844 0.752659
Si Si3 0.210881 0.604258 0.249457
Si Si4 0.386142 0.535190 0.841721
Si Si5 0.892158 0.712800 0.041343
O O1 0.000000 0.867495 0.945961
O O2 0.820302 0.887118 0.806679
O O3 0.867775 0.893627 0.264828
O O4 0.872441 0.784495 0.019266
O O5 0.500000 0.076272 0.768058
O O6 0.342540 0.077956 0.492014
O O7 0.387628 0.169970 0.791897
O O8 0.329245 0.073970 0.994796
O O9 0.175215 0.675160 0.222243
O O10 0.352872 0.502140 0.094295
O O11 0.500000 0.530511 0.855011
O O12 0.000000 0.706715 0.133324
#
# Coordination Sequence:
#
# PCOD9351507 Si02
#       5
#     8   8   8   8   8
#     4  10  21  37  56  84 114 153 192 224 274 335
#     4   9  18  34  53  75 109 148 184 222 261 311
#     4  10  20  33  54  77 113 147 183 224 266 324
#     4   9  19  38  57  74 102 141 187 239 281 316
#     4   8  18  34  51  76 110 145 181 221 261 318
#
# _framework density 24.397161000000001
#
# number of rings (size 3 to 8) (size 9 to 14) (size 15 to 20)
#    1.200    1.600    0.000    1.200    2.800    1.600 
#    3.600    3.000    0.000    0.000    0.000    0.000 
#    0.000   27.200    0.000    0.000    0.000    0.000 
#
# Total GULP energy -111619.046682 kJ/mol
# GULP energy per Si atom -5580.952334 kJ/mol
# Density = 2.434163 g / cm^3
# Si number density = 24.397161 Si / 1000 Ang^3
#
#
#
# Elastic Constant Matrix: (Units=GPa)
#
#
# Indices 1 2 3 4 5 6 
#
# 1 105.3007 12.2069 46.3320 0.0000 0.0000 0.0000
# 2 12.2069 106.4575 0.3687 0.0000 0.0000 0.0000
# 3 46.3320 0.3687 145.8211 0.0000 0.0000 0.0000
# 4 0.0000 0.0000 0.0000 13.3398 0.0000 0.0000
# 5 0.0000 0.0000 0.0000 0.0000 18.2271 0.0000
# 6 0.0000 0.0000 0.0000 0.0000 0.0000 14.2125
#
#
#
# Elastic Compliance Matrix: (Units=1/GPa)
#
#
# Indices 1 2 3 4 5 6 
#
# 1 0.011210 -0.001273 -0.003559 0.000000 0.000000 0.000000
# 2 -0.001273 0.009538 0.000380 0.000000 0.000000 0.000000
# 3 -0.003559 0.000380 0.007987 0.000000 0.000000 0.000000
# 4 0.000000 0.000000 0.000000 0.074963 0.000000 0.000000
# 5 0.000000 0.000000 0.000000 0.000000 0.054863 0.000000
# 6 0.000000 0.000000 0.000000 0.000000 0.000000 0.070360
#
#
# Mechanical properties :
#
#
# Convention : Reuss Voigt Hill
#
# Bulk Modulus (GPa) = 50.42102 52.82161 51.62132
# Shear Modulus (GPa) = 20.45525 29.06734 24.76129
#
# Velocity S-wave (km/s) = 2.89870 3.45544 3.18925
# Velocity P-wave (km/s) = 5.64933 6.13334 5.89630
#
# Compressibility (1/GPa) = 0.01983300
#
# Stress axis : x y z
#
# Youngs Moduli (GPa) = 89.20656 104.84289 125.19698
#
# Poissons Ratio (x) = 0.13347 0.44552
# Poissons Ratio (y) = 0.11357 -0.04762
# Poissons Ratio (z) = 0.31744 -0.03988
#
# Static dielectric constant tensor:
#      x y z
#    x 1.954790 0.000000 0.000000 
#    y 0.000000 1.968590 0.000000 
#    z 0.000000 0.000000 1.975360 
# 
# From -- ./inp_files/786.got.cif
#   From: 2010.05.17/outbox.cif.g08.bks.cpg/sg36_1_cif.got.tgz:786.got - 2010.06.03 17:41:39.
