data_PCOD9351083
_publ_section_title
;
Structure prediction by ZEFSAII (Michael W. Deem and Ramdas Pophale) SiO2 
 PCOD9351083
Probable space group: C M C 21
;
_chemical_formula_sum "Si O2"
_cell_formula_units_Z 64
_cell_length_a 8.774841
_cell_length_b 20.471682
_cell_length_c 20.180938
_cell_angle_alpha 90.000000
_cell_angle_beta 90.000000
_cell_angle_gamma 90.000000
_cell_volume 3625.218025
_symmetry_space_group_name_H-M "C M C 21"
_symmetry_group_IT_number 36
_symmetry_cell_setting 'orthorhombic'
loop_
_space_group_symop_operation_xyz
x,y,z
-x,-y,1/2+z
x,-y,1/2+z
-x,y,z
1/2+x,1/2+y,z
1/2-x,1/2-y,1/2+z
1/2+x,1/2-y,1/2+z
1/2-x,1/2+y,z
loop_
_atom_site_type_symbol
_atom_site_label
_atom_site_fract_x
_atom_site_fract_y
_atom_site_fract_z
Si Si1 0.181003 0.665081 0.437180
Si Si2 0.818385 0.416704 0.158490
Si Si3 0.817375 0.729522 0.680065
Si Si4 0.817438 0.833427 0.792363
Si Si5 0.319268 0.551074 0.516704
Si Si6 0.317547 0.406724 0.557310
Si Si7 0.317777 0.058803 0.200881
Si Si8 0.818409 0.270098 0.538705
O O1 0.242523 0.675940 0.363519
O O2 0.232058 0.593791 0.462940
O O3 0.253322 0.717354 0.487576
O O4 0.000000 0.670559 0.439494
O O5 0.785246 0.347080 0.191256
O O6 0.729899 0.422882 0.089220
O O7 0.783947 0.481276 0.201000
O O8 0.000000 0.418644 0.143457
O O9 0.774482 0.775762 0.741012
O O10 0.735793 0.751014 0.612619
O O11 0.000000 0.736711 0.669821
O O12 0.760301 0.900236 0.758614
O O13 0.000000 0.834148 0.798749
O O14 0.500000 0.559719 0.508296
O O15 0.284483 0.473813 0.518191
O O16 0.500000 0.400619 0.564162
O O17 0.245460 0.415308 0.630433
O O18 0.248679 0.342005 0.525359
O O19 0.500000 0.067817 0.203057
O O20 0.000000 0.270897 0.535690
#
# Coordination Sequence:
#
# PCOD9351083 Si02
#       8
#     8   8   8   8   8   8   8   8
#     4  12  25  41  60  82 117 159 201 246 302 360
#     4   9  18  33  56  85 116 149 188 234 286 341
#     4  10  20  36  59  86 117 155 194 241 295 347
#     4  11  23  39  59  83 117 157 200 246 298 354
#     4  10  20  35  57  86 116 148 191 240 292 347
#     4  10  20  35  57  86 119 151 188 240 294 344
#     4  10  19  33  55  85 117 150 191 237 286 345
#     4  12  23  36  59  89 119 153 199 248 293 352
#
# _framework density 17.654109999999999
#
# number of rings (size 3 to 8) (size 9 to 14) (size 15 to 20)
#    0.000    1.500    2.500    3.750    0.000    2.500 
#    0.000    1.250    0.000    4.500    0.000    0.000 
#    0.000    0.000    0.000    0.000    0.000    0.000 
#
# Total GULP energy -178759.601442 kJ/mol
# GULP energy per Si atom -5586.237545 kJ/mol
# Density = 1.761393 g / cm^3
# Si number density = 17.654110 Si / 1000 Ang^3
#
#
#
# Elastic Constant Matrix: (Units=GPa)
#
#
# Indices 1 2 3 4 5 6 
#
# 1 79.1856 58.5724 45.6500 0.0000 0.0000 0.0000
# 2 58.5724 134.3376 59.7629 0.0000 0.0000 0.0000
# 3 45.6500 59.7629 96.3019 0.0000 0.0000 0.0000
# 4 0.0000 0.0000 0.0000 22.3354 0.0000 0.0000
# 5 0.0000 0.0000 0.0000 0.0000 30.6920 0.0000
# 6 0.0000 0.0000 0.0000 0.0000 0.0000 26.1777
#
#
#
# Elastic Compliance Matrix: (Units=1/GPa)
#
#
# Indices 1 2 3 4 5 6 
#
# 1 0.020772 -0.006460 -0.005838 0.000000 0.000000 0.000000
# 2 -0.006460 0.012292 -0.004566 0.000000 0.000000 0.000000
# 3 -0.005838 -0.004566 0.015985 0.000000 0.000000 0.000000
# 4 0.000000 0.000000 0.000000 0.044772 0.000000 0.000000
# 5 0.000000 0.000000 0.000000 0.000000 0.032582 0.000000
# 6 0.000000 0.000000 0.000000 0.000000 0.000000 0.038200
#
#
# Mechanical properties :
#
#
# Convention : Reuss Voigt Hill
#
# Bulk Modulus (GPa) = 65.26662 70.86617 68.06639
# Shear Modulus (GPa) = 24.57764 25.56369 25.07067
#
# Velocity S-wave (km/s) = 3.73524 3.80943 3.77251
# Velocity P-wave (km/s) = 7.46006 7.71865 7.59046
#
# Compressibility (1/GPa) = 0.01532177
#
# Stress axis : x y z
#
# Youngs Moduli (GPa) = 48.14117 81.35604 62.55959
#
# Poissons Ratio (x) = 0.52554 0.36521
# Poissons Ratio (y) = 0.31098 0.28563
# Poissons Ratio (z) = 0.28104 0.37146
#
# Static dielectric constant tensor:
#      x y z
#    x 1.588940 0.000000 0.000000 
#    y 0.000000 1.624960 0.000000 
#    z 0.000000 0.000000 1.558770 
# 
# From -- ./inp_files/13826.got.cif
#   From: 2010.05.17/outbox.cif.g08.bks.cpg/sg36_7_cif.got.tgz:13826.got - 2010.06.03 17:41:39.
