data_PCOD9351928
_publ_section_title
;
Structure prediction by ZEFSAII (Michael W. Deem and Ramdas Pophale) SiO2 
 PCOD9351928
Probable space group: C M C 21
;
_chemical_formula_sum "Si O2"
_cell_formula_units_Z 64
_cell_length_a 17.985409
_cell_length_b 13.038028
_cell_length_c 15.323857
_cell_angle_alpha 90.000000
_cell_angle_beta 90.000000
_cell_angle_gamma 90.000000
_cell_volume 3593.356602
_symmetry_space_group_name_H-M "C M C 21"
_symmetry_group_IT_number 36
_symmetry_cell_setting 'orthorhombic'
loop_
_space_group_symop_operation_xyz
x,y,z
-x,-y,1/2+z
x,-y,1/2+z
-x,y,z
1/2+x,1/2+y,z
1/2-x,1/2-y,1/2+z
1/2+x,1/2-y,1/2+z
1/2-x,1/2+y,z
loop_
_atom_site_type_symbol
_atom_site_label
_atom_site_fract_x
_atom_site_fract_y
_atom_site_fract_z
Si Si1 0.412389 0.265468 0.639000
Si Si2 0.664447 0.458945 0.733018
Si Si3 0.266389 0.986908 0.568844
Si Si4 0.808797 0.191984 0.978900
Si Si5 0.260940 0.890266 0.899297
Si Si6 0.916399 0.381976 0.818348
Si Si7 0.413638 0.359738 0.328163
Si Si8 0.416578 0.964856 0.154903
O O1 0.500000 0.282387 0.621633
O O2 0.379896 0.361099 0.693794
O O3 0.365035 0.258058 0.549314
O O4 0.404729 0.153699 0.683867
O O5 0.720711 0.497980 0.658229
O O6 0.711215 0.422834 0.817636
O O7 0.612682 0.554062 0.760544
O O8 0.239028 0.058520 0.490392
O O9 0.351886 0.007132 0.588537
O O10 0.248452 0.874332 0.533834
O O11 0.763504 0.269926 0.918872
O O12 0.861866 0.129801 0.913339
O O13 0.347476 0.914997 0.878075
O O14 0.905758 0.259948 0.798406
O O15 0.912950 0.453922 0.733586
O O16 0.000000 0.391536 0.856200
O O17 0.500000 0.374857 0.349607
O O18 0.500000 0.969201 0.117486
#
# Coordination Sequence:
#
# PCOD9351928 Si02
#       8
#     8   8   8   8   8   8   8   8
#     4  10  21  37  59  87 117 154 197 242 295 350
#     4  11  23  37  60  88 121 155 194 244 297 349
#     4  11  22  37  57  89 118 150 197 240 292 352
#     4  10  21  36  59  87 113 149 198 245 288 348
#     4  11  21  37  57  86 119 154 191 243 294 351
#     4   9  20  36  58  86 111 151 198 240 289 343
#     4  10  20  37  60  83 114 152 195 239 289 349
#     4  10  20  37  60  86 119 153 194 243 292 350
#
# _framework density 17.810645000000001
#
# number of rings (size 3 to 8) (size 9 to 14) (size 15 to 20)
#    0.000    1.750    3.750    0.750    0.000    5.000 
#    0.000    0.000    0.000    1.500    0.000    0.000 
#    0.000    0.000    0.000    0.000    0.000    0.000 
#
# Total GULP energy -178316.521245 kJ/mol
# GULP energy per Si atom -5572.391289 kJ/mol
# Density = 1.777011 g / cm^3
# Si number density = 17.810645 Si / 1000 Ang^3
#
#
#
# Elastic Constant Matrix: (Units=GPa)
#
#
# Indices 1 2 3 4 5 6 
#
# 1 74.9534 49.0739 27.1699 0.0000 0.0000 0.0000
# 2 49.0739 71.1678 32.3179 0.0000 0.0000 0.0000
# 3 27.1699 32.3179 75.3107 0.0000 0.0000 0.0000
# 4 0.0000 0.0000 0.0000 31.0381 0.0000 0.0000
# 5 0.0000 0.0000 0.0000 0.0000 13.2015 0.0000
# 6 0.0000 0.0000 0.0000 0.0000 0.0000 26.9504
#
#
#
# Elastic Compliance Matrix: (Units=1/GPa)
#
#
# Indices 1 2 3 4 5 6 
#
# 1 0.024557 -0.016035 -0.001978 0.000000 0.000000 0.000000
# 2 -0.016035 0.027923 -0.006197 0.000000 0.000000 0.000000
# 3 -0.001978 -0.006197 0.016652 0.000000 0.000000 0.000000
# 4 0.000000 0.000000 0.000000 0.032219 0.000000 0.000000
# 5 0.000000 0.000000 0.000000 0.000000 0.075749 0.000000
# 6 0.000000 0.000000 0.000000 0.000000 0.000000 0.037105
#
#
# Mechanical properties :
#
#
# Convention : Reuss Voigt Hill
#
# Bulk Modulus (GPa) = 48.28669 48.72835 48.50752
# Shear Modulus (GPa) = 18.55083 21.76267 20.15675
#
# Velocity S-wave (km/s) = 3.23082 3.49935 3.36776
# Velocity P-wave (km/s) = 6.40996 6.61406 6.51281
#
# Compressibility (1/GPa) = 0.02070964
#
# Stress axis : x y z
#
# Youngs Moduli (GPa) = 40.72084 35.81313 60.05445
#
# Poissons Ratio (x) = 0.57427 0.11881
# Poissons Ratio (y) = 0.65297 0.37218
# Poissons Ratio (z) = 0.08056 0.22195
#
# Static dielectric constant tensor:
#      x y z
#    x 1.614710 0.000000 0.000000 
#    y 0.000000 1.649110 0.000000 
#    z 0.000000 0.000000 1.603150 
# 
# From -- ./inp_files/12638.got.cif
#   From: 2010.05.17/outbox.cif.g08.bks.cpg/sg36_7_cif.got.tgz:12638.got - 2010.06.03 17:41:39.
