data_PCOD9351448
_publ_section_title
;
Structure prediction by ZEFSAII (Michael W. Deem and Ramdas Pophale) SiO2 
 PCOD9351448
Probable space group: C M C 21
;
_chemical_formula_sum "Si O2"
_cell_formula_units_Z 64
_cell_length_a 7.449043
_cell_length_b 21.514504
_cell_length_c 18.184006
_cell_angle_alpha 90.000000
_cell_angle_beta 90.000000
_cell_angle_gamma 90.000000
_cell_volume 2914.213633
_symmetry_space_group_name_H-M "C M C 21"
_symmetry_group_IT_number 36
_symmetry_cell_setting 'orthorhombic'
loop_
_space_group_symop_operation_xyz
x,y,z
-x,-y,1/2+z
x,-y,1/2+z
-x,y,z
1/2+x,1/2+y,z
1/2-x,1/2-y,1/2+z
1/2+x,1/2-y,1/2+z
1/2-x,1/2+y,z
loop_
_atom_site_type_symbol
_atom_site_label
_atom_site_fract_x
_atom_site_fract_y
_atom_site_fract_z
Si Si1 0.203421 0.511332 0.194400
Si Si2 0.785198 0.006922 0.524471
Si Si3 0.213624 0.356912 0.034925
Si Si4 0.206946 0.877424 0.483524
Si Si5 0.721188 0.751511 0.925289
Si Si6 0.216225 0.621435 0.700541
Si Si7 0.719221 0.143067 0.154128
Si Si8 0.787115 0.747015 0.263474
O O1 0.202060 0.498658 0.106051
O O2 0.284783 0.446889 0.224179
O O3 0.280428 0.580735 0.197512
O O4 0.000000 0.515928 0.222634
O O5 0.718782 0.947460 0.478559
O O6 0.000000 0.000537 0.533383
O O7 0.746658 0.076173 0.497444
O O8 0.284482 0.361949 0.118304
O O9 0.000000 0.348839 0.041078
O O10 0.282272 0.299653 0.987372
O O11 0.285179 0.818337 0.442010
O O12 0.214702 0.860836 0.570507
O O13 0.000000 0.881355 0.459947
O O14 0.500000 0.751010 0.926958
O O15 0.779131 0.771137 0.844034
O O16 0.256905 0.680153 0.750519
O O17 0.000000 0.615398 0.696259
O O18 0.500000 0.141316 0.150221
O O19 0.781259 0.204308 0.197005
O O20 0.000000 0.736701 0.263775
#
# Coordination Sequence:
#
# PCOD9351448 Si02
#       8
#     8   8   8   8   8   8   8   8
#     4   8  15  29  47  66  91 121 150 182 224 274
#     4   9  16  26  45  73  96 112 142 191 236 268
#     4   9  17  31  51  70  90 121 156 187 223 272
#     4   9  17  31  51  70  90 121 156 187 223 272
#     4   9  18  33  49  65  90 126 162 187 217 271
#     4   9  17  30  49  70  91 118 151 186 226 273
#     4   9  17  30  49  72  94 116 149 193 233 266
#     4  10  20  32  47  68  94 123 154 191 230 266
#
# _framework density 21.961326
#
# number of rings (size 3 to 8) (size 9 to 14) (size 15 to 20)
#    0.000    3.000    0.000    1.875    0.000    4.000 
#    0.000    3.125    0.000    1.500    0.000    0.000 
#    0.000    0.000    0.000    0.000    0.000    0.000 
#
# Total GULP energy -178381.102384 kJ/mol
# GULP energy per Si atom -5574.409449 kJ/mol
# Density = 2.191134 g / cm^3
# Si number density = 21.961326 Si / 1000 Ang^3
#
#
#
# Elastic Constant Matrix: (Units=GPa)
#
#
# Indices 1 2 3 4 5 6 
#
# 1 71.5559 -14.1023 -6.1979 0.0000 0.0000 0.0000
# 2 -14.1023 74.9905 -4.2440 0.0000 0.0000 0.0000
# 3 -6.1979 -4.2440 20.4845 0.0000 0.0000 0.0000
# 4 0.0000 0.0000 0.0000 0.9093 0.0000 0.0000
# 5 0.0000 0.0000 0.0000 0.0000 6.1657 0.0000
# 6 0.0000 0.0000 0.0000 0.0000 0.0000 16.7686
#
#
#
# Elastic Compliance Matrix: (Units=1/GPa)
#
#
# Indices 1 2 3 4 5 6 
#
# 1 0.015041 0.003123 0.005198 0.000000 0.000000 0.000000
# 2 0.003123 0.014142 0.003875 0.000000 0.000000 0.000000
# 3 0.005198 0.003875 0.051193 0.000000 0.000000 0.000000
# 4 0.000000 0.000000 0.000000 1.099716 0.000000 0.000000
# 5 0.000000 0.000000 0.000000 0.000000 0.162188 0.000000
# 6 0.000000 0.000000 0.000000 0.000000 0.000000 0.059635
#
#
# Mechanical properties :
#
#
# Convention : Reuss Voigt Hill
#
# Bulk Modulus (GPa) = 9.54515 13.10471 11.32493
# Shear Modulus (GPa) = 3.53996 17.54040 10.54018
#
# Velocity S-wave (km/s) = 1.27099 2.82919 2.19314
# Velocity P-wave (km/s) = 2.55140 4.08075 3.40310
#
# Compressibility (1/GPa) = 0.10476526
#
# Stress axis : x y z
#
# Youngs Moduli (GPa) = 66.48623 70.71365 19.53400
#
# Poissons Ratio (x) = -0.22081 -0.10153
# Poissons Ratio (y) = -0.20761 -0.07569
# Poissons Ratio (z) = -0.34558 -0.27399
#
# Static dielectric constant tensor:
#      x y z
#    x 1.857190 0.000000 0.000000 
#    y 0.000000 1.860130 0.000000 
#    z 0.000000 0.000000 1.766110 
# 
# From -- ./inp_files/15821.got.cif
#   From: 2010.05.17/outbox.cif.g08.bks.cpg/sg36_8_cif.got.tgz:15821.got - 2010.06.03 17:41:39.
