data_PCOD9351055
_publ_section_title
;
Structure prediction by ZEFSAII (Michael W. Deem and Ramdas Pophale) SiO2 
 PCOD9351055
Probable space group: C M C 21
;
_chemical_formula_sum "Si O2"
_cell_formula_units_Z 64
_cell_length_a 8.720081
_cell_length_b 22.018077
_cell_length_c 14.473060
_cell_angle_alpha 90.000000
_cell_angle_beta 90.000000
_cell_angle_gamma 90.000000
_cell_volume 2778.819052
_symmetry_space_group_name_H-M "C M C 21"
_symmetry_group_IT_number 36
_symmetry_cell_setting 'orthorhombic'
loop_
_space_group_symop_operation_xyz
x,y,z
-x,-y,1/2+z
x,-y,1/2+z
-x,y,z
1/2+x,1/2+y,z
1/2-x,1/2-y,1/2+z
1/2+x,1/2-y,1/2+z
1/2-x,1/2+y,z
loop_
_atom_site_type_symbol
_atom_site_label
_atom_site_fract_x
_atom_site_fract_y
_atom_site_fract_z
Si Si1 0.820909 0.031779 0.598400
Si Si2 0.318756 0.780229 0.057667
Si Si3 0.185689 0.654369 0.378061
Si Si4 0.815666 0.227755 0.762213
Si Si5 0.176998 0.658133 0.045615
Si Si6 0.184039 0.096649 0.769772
Si Si7 0.676078 0.032074 0.932570
Si Si8 0.821072 0.906946 0.715438
O O1 0.734251 0.017832 0.504389
O O2 0.811411 0.971755 0.664063
O O3 0.000000 0.041972 0.577503
O O4 0.757687 0.083290 0.666350
O O5 0.500000 0.787076 0.071978
O O6 0.267145 0.830849 0.983296
O O7 0.284468 0.713384 0.014864
O O8 0.234926 0.776029 0.155663
O O9 0.237221 0.714142 0.319561
O O10 0.255528 0.599389 0.318768
O O11 0.000000 0.650106 0.376592
O O12 0.762479 0.162785 0.802081
O O13 0.000000 0.229709 0.765302
O O14 0.190689 0.596462 0.987079
O O15 0.000000 0.677907 0.044004
O O16 0.225070 0.637771 0.148910
O O17 0.231395 0.044618 0.840173
O O18 0.000000 0.096774 0.764425
O O19 0.500000 0.021027 0.909859
O O20 0.000000 0.889535 0.715418
#
# Coordination Sequence:
#
# PCOD9351055 Si02
#       8
#     8   8   8   8   8   8   8   8
#     4   9  20  39  61  85 113 149 196 243 285 338
#     4  11  22  35  54  83 116 153 191 230 280 342
#     4  10  21  36  54  80 116 151 184 227 286 347
#     4  10  21  38  59  83 114 154 192 236 288 341
#     4  10  19  33  54  80 113 148 185 233 283 334
#     4  10  21  40  63  85 115 156 197 240 290 344
#     4  10  21  36  59  90 117 150 194 242 294 343
#     4  10  19  33  56  82 106 139 187 237 280 329
#
# _framework density 23.031365999999998
#
# number of rings (size 3 to 8) (size 9 to 14) (size 15 to 20)
#    0.000    2.000    1.250    2.250    0.000    5.000 
#    2.250    0.000    0.000    0.000    0.000    0.000 
#    0.000    0.000    0.000    0.000    0.000    0.000 
#
# Total GULP energy -178858.156592 kJ/mol
# GULP energy per Si atom -5589.317393 kJ/mol
# Density = 2.297895 g / cm^3
# Si number density = 23.031366 Si / 1000 Ang^3
#
#
#
# Elastic Constant Matrix: (Units=GPa)
#
#
# Indices 1 2 3 4 5 6 
#
# 1 -0.7620 -0.1527 -0.2436 0.0000 0.0000 0.0000
# 2 -0.1527 52.0272 3.8528 0.0000 0.0000 0.0000
# 3 -0.2436 3.8528 100.9038 0.0000 0.0000 0.0000
# 4 0.0000 0.0000 0.0000 39.6983 0.0000 0.0000
# 5 0.0000 0.0000 0.0000 0.0000 25.9036 0.0000
# 6 0.0000 0.0000 0.0000 0.0000 0.0000 12.8910
#
#
#
# Elastic Compliance Matrix: (Units=1/GPa)
#
#
# Indices 1 2 3 4 5 6 
#
# 1 -1.310569 -0.003624 -0.003026 0.000000 0.000000 0.000000
# 2 -0.003624 0.019265 -0.000744 0.000000 0.000000 0.000000
# 3 -0.003026 -0.000744 0.009932 0.000000 0.000000 0.000000
# 4 0.000000 0.000000 0.000000 0.025190 0.000000 0.000000
# 5 0.000000 0.000000 0.000000 0.000000 0.038605 0.000000
# 6 0.000000 0.000000 0.000000 0.000000 0.000000 0.077573
#
#
# Mechanical properties :
#
#
# Convention : Reuss Voigt Hill
#
# Bulk Modulus (GPa) = -0.77151 17.67575 8.45212
# Shear Modulus (GPa) = -3.21075 25.61275 11.20100
#
# Velocity S-wave (km/s) = -1.18199 3.33841 2.20770
# Velocity P-wave (km/s) = 1.48274 4.74881 3.19004
#
# Compressibility (1/GPa) = -1.29616014
#
# Stress axis : x y z
#
# Youngs Moduli (GPa) = -0.76303 51.90708 100.68925
#
# Poissons Ratio (x) = 0.18809 0.30471
# Poissons Ratio (y) = -0.00276 0.07495
# Poissons Ratio (z) = -0.00231 0.03864
#
# Static dielectric constant tensor:
#      x y z
#    x 1.769500 0.000000 0.000000 
#    y 0.000000 1.956210 0.000000 
#    z 0.000000 0.000000 1.870030 
# 
# From -- ./inp_files/10894.got.cif
#   From: 2010.05.17/outbox.cif.g08.bks.cpg/sg36_6_cif.got.tgz:10894.got - 2010.06.03 17:41:39.
