data_PCOD9351813
_publ_section_title
;
Structure prediction by ZEFSAII (Michael W. Deem and Ramdas Pophale) SiO2 
 PCOD9351813
Probable space group: C M C 21
;
_chemical_formula_sum "Si O2"
_cell_formula_units_Z 60
_cell_length_a 11.823013
_cell_length_b 29.332519
_cell_length_c 8.718930
_cell_angle_alpha 90.000000
_cell_angle_beta 90.000000
_cell_angle_gamma 90.000000
_cell_volume 3023.714056
_symmetry_space_group_name_H-M "C M C 21"
_symmetry_group_IT_number 36
_symmetry_cell_setting 'orthorhombic'
loop_
_space_group_symop_operation_xyz
x,y,z
-x,-y,1/2+z
x,-y,1/2+z
-x,y,z
1/2+x,1/2+y,z
1/2-x,1/2-y,1/2+z
1/2+x,1/2-y,1/2+z
1/2-x,1/2+y,z
loop_
_atom_site_type_symbol
_atom_site_label
_atom_site_fract_x
_atom_site_fract_y
_atom_site_fract_z
Si Si1 0.370886 0.061609 0.623040
Si Si2 0.270722 0.014936 0.913911
Si Si3 0.367639 0.715520 0.444741
Si Si4 0.000000 0.141250 0.878286
Si Si5 0.633156 0.448266 0.694592
Si Si6 0.324496 0.347271 0.661749
Si Si7 0.778239 0.857664 0.174126
Si Si8 0.634100 0.822556 0.455020
O O1 0.500000 0.077216 0.610665
O O2 0.341847 0.044878 0.795229
O O3 0.278383 0.100071 0.586703
O O4 0.349123 0.018688 0.512324
O O5 0.186118 0.983749 0.813396
O O6 0.197350 0.044442 0.032938
O O7 0.500000 0.711948 0.487148
O O8 0.351654 0.693357 0.277804
O O9 0.297900 0.685310 0.564066
O O10 0.337542 0.768622 0.449634
O O11 0.101858 0.130846 0.753007
O O12 0.097396 0.153213 0.010369
O O13 0.500000 0.456154 0.673379
O O14 0.651272 0.395831 0.740537
O O15 0.196585 0.343386 0.602275
O O16 0.687653 0.844910 0.304715
O O17 0.500000 0.828183 0.459694
#
# Coordination Sequence:
#
# PCOD9351813 Si02
#       8
#     8   8   8   4   8   8   8   8
#     4  11  23  41  64  86 124 161 211 247 304 358
#     4  10  23  40  59  91 119 163 201 259 298 364
#     4  11  21  39  62  92 124 158 204 257 309 358
#     4  10  20  36  58  90 114 156 200 240 302 364
#     4  11  21  38  60  89 126 156 203 246 315 365
#     4  11  21  38  63  87 122 161 203 250 305 371
#     4  11  22  39  63  91 122 159 206 250 310 365
#     4  10  23  40  61  86 126 161 209 246 304 361
#
# _framework density 19.843146999999998
#
# number of rings (size 3 to 8) (size 9 to 14) (size 15 to 20)
#    0.000    1.333    2.000    4.400    0.000    0.000 
#    6.000    6.000    1.467    0.000    0.000    0.000 
#    0.000    0.000    0.000    0.000    0.000    0.000 
#
# Total GULP energy -167127.655210 kJ/mol
# GULP energy per Si atom -5570.921840 kJ/mol
# Density = 1.979798 g / cm^3
# Si number density = 19.843147 Si / 1000 Ang^3
#
#
#
# Elastic Constant Matrix: (Units=GPa)
#
#
# Indices 1 2 3 4 5 6 
#
# 1 117.9331 23.3670 17.0409 0.0000 0.0000 0.0000
# 2 23.3670 46.7780 -2.6820 0.0000 0.0000 0.0000
# 3 17.0409 -2.6820 36.4310 0.0000 0.0000 0.0000
# 4 0.0000 0.0000 0.0000 3.9362 0.0000 0.0000
# 5 0.0000 0.0000 0.0000 0.0000 15.0868 0.0000
# 6 0.0000 0.0000 0.0000 0.0000 0.0000 18.3713
#
#
#
# Elastic Compliance Matrix: (Units=1/GPa)
#
#
# Indices 1 2 3 4 5 6 
#
# 1 0.010315 -0.005452 -0.005226 0.000000 0.000000 0.000000
# 2 -0.005452 0.024350 0.004343 0.000000 0.000000 0.000000
# 3 -0.005226 0.004343 0.030213 0.000000 0.000000 0.000000
# 4 0.000000 0.000000 0.000000 0.254050 0.000000 0.000000
# 5 0.000000 0.000000 0.000000 0.000000 0.066283 0.000000
# 6 0.000000 0.000000 0.000000 0.000000 0.000000 0.054433
#
#
# Mechanical properties :
#
#
# Convention : Reuss Voigt Hill
#
# Bulk Modulus (GPa) = 19.15436 30.73264 24.94350
# Shear Modulus (GPa) = 10.64468 18.37327 14.50898
#
# Velocity S-wave (km/s) = 2.31863 3.04620 2.70697
# Velocity P-wave (km/s) = 4.10389 5.28147 4.72947
#
# Compressibility (1/GPa) = 0.05220743
#
# Stress axis : x y z
#
# Youngs Moduli (GPa) = 96.94771 41.06754 33.09782
#
# Poissons Ratio (x) = 0.22391 0.17298
# Poissons Ratio (y) = 0.52858 -0.14374
# Poissons Ratio (z) = 0.50667 -0.17835
#
# Static dielectric constant tensor:
#      x y z
#    x 1.668530 0.000000 0.000000 
#    y 0.000000 1.723400 0.000000 
#    z 0.000000 0.000000 1.690520 
# 
# From -- ./inp_files/3478.got.cif
#   From: 2010.05.17/outbox.cif.g08.bks.cpg/sg36_2_cif.got.tgz:3478.got - 2010.06.03 17:41:39.
