data_PCOD9351213
_publ_section_title
;
Structure prediction by ZEFSAII (Michael W. Deem and Ramdas Pophale) SiO2 
 PCOD9351213
Probable space group: C M C 21
;
_chemical_formula_sum "Si O2"
_cell_formula_units_Z 64
_cell_length_a 7.632151
_cell_length_b 25.964543
_cell_length_c 14.482343
_cell_angle_alpha 90.000000
_cell_angle_beta 90.000000
_cell_angle_gamma 90.000000
_cell_volume 2869.898031
_symmetry_space_group_name_H-M "C M C 21"
_symmetry_group_IT_number 36
_symmetry_cell_setting 'orthorhombic'
loop_
_space_group_symop_operation_xyz
x,y,z
-x,-y,1/2+z
x,-y,1/2+z
-x,y,z
1/2+x,1/2+y,z
1/2-x,1/2-y,1/2+z
1/2+x,1/2-y,1/2+z
1/2-x,1/2+y,z
loop_
_atom_site_type_symbol
_atom_site_label
_atom_site_fract_x
_atom_site_fract_y
_atom_site_fract_z
Si Si1 0.214018 0.811986 0.182150
Si Si2 0.705844 0.564217 0.973430
Si Si3 0.288624 0.211155 0.284625
Si Si4 0.695844 0.128929 0.141132
Si Si5 0.289479 0.663003 0.483563
Si Si6 0.285692 0.580976 0.767335
Si Si7 0.296746 0.531754 0.248646
Si Si8 0.703095 0.453283 0.970692
O O1 0.271661 0.767501 0.252382
O O2 0.268192 0.806427 0.075203
O O3 0.271859 0.868263 0.215281
O O4 0.000000 0.811384 0.183918
O O5 0.500000 0.554254 0.959559
O O6 0.722228 0.609520 0.046566
O O7 0.775198 0.580525 0.873570
O O8 0.778797 0.508221 0.005056
O O9 0.500000 0.210281 0.279478
O O10 0.219792 0.171649 0.206620
O O11 0.247977 0.190957 0.386898
O O12 0.500000 0.146427 0.118477
O O13 0.693287 0.077539 0.202815
O O14 0.500000 0.658958 0.487628
O O15 0.221151 0.603703 0.487666
O O16 0.500000 0.581027 0.766288
O O17 0.234237 0.525734 0.726508
O O18 0.500000 0.536831 0.218142
O O19 0.295165 0.539022 0.359367
O O20 0.500000 0.450456 0.003546
#
# Coordination Sequence:
#
# PCOD9351213 Si02
#       8
#     8   8   8   8   8   8   8   8
#     4   9  19  35  57  82 106 138 181 225 271 318
#     4   9  18  32  53  81 110 139 175 222 271 318
#     4  10  22  39  54  74 112 152 182 217 264 320
#     4  11  22  33  47  74 111 151 183 209 256 320
#     4  10  19  34  59  85 104 133 181 231 271 316
#     4   8  16  32  55  82 106 131 171 225 277 317
#     4   9  16  30  54  79 104 132 170 224 272 314
#     4   8  15  29  51  81 107 128 167 223 274 311
#
# _framework density 22.300446000000001
#
# number of rings (size 3 to 8) (size 9 to 14) (size 15 to 20)
#    0.000    2.750    1.250    1.875    1.750    1.500 
#    0.000    3.750    0.000    1.500    0.000    0.000 
#    0.000    0.000    0.000    0.000    0.000    0.000 
#
# Total GULP energy -178505.542137 kJ/mol
# GULP energy per Si atom -5578.298192 kJ/mol
# Density = 2.224969 g / cm^3
# Si number density = 22.300446 Si / 1000 Ang^3
#
#
#
# Elastic Constant Matrix: (Units=GPa)
#
#
# Indices 1 2 3 4 5 6 
#
# 1 39.5753 0.4494 -0.3068 0.0000 0.0000 0.0000
# 2 0.4494 112.8759 36.8224 0.0000 0.0000 0.0000
# 3 -0.3068 36.8224 83.9608 0.0000 0.0000 0.0000
# 4 0.0000 0.0000 0.0000 24.7905 0.0000 0.0000
# 5 0.0000 0.0000 0.0000 0.0000-4399.5403 0.0000
# 6 0.0000 0.0000 0.0000 0.0000 0.0000 6.3967
#
#
#
# Elastic Compliance Matrix: (Units=1/GPa)
#
#
# Indices 1 2 3 4 5 6 
#
# 1 0.025271 -0.000153 0.000159 0.000000 0.000000 0.000000
# 2 -0.000153 0.010339 -0.004535 0.000000 0.000000 0.000000
# 3 0.000159 -0.004535 0.013900 0.000000 0.000000 0.000000
# 4 0.000000 0.000000 0.000000 0.040338 0.000000 0.000000
# 5 0.000000 0.000000 0.000000 0.000000 -0.000227 0.000000
# 6 0.000000 0.000000 0.000000 0.000000 0.000000 0.156330
#
#
# Mechanical properties :
#
#
# Convention : Reuss Voigt Hill
#
# Bulk Modulus (GPa) = 24.71964 34.48247 29.60105
# Shear Modulus (GPa) = 18.62248 -860.37416 -420.87584
#
# Velocity S-wave (km/s) = 2.89290 -19.66336 -13.75280
# Velocity P-wave (km/s) = 4.71883 22.36145 15.45585
#
# Compressibility (1/GPa) = 0.04045367
#
# Stress axis : x y z
#
# Youngs Moduli (GPa) = 39.57064 96.71819 71.94341
#
# Poissons Ratio (x) = 0.01476 -0.01146
# Poissons Ratio (y) = 0.00604 0.32627
# Poissons Ratio (z) = -0.00630 0.43862
#
# Static dielectric constant tensor:
#      x y z
#    x 7.764590 0.000000 0.000000 
#    y 0.000000 1.821950 0.000000 
#    z 0.000000 0.000000 1.822100 
# 
# From -- ./inp_files/11056.got.cif
#   From: 2010.05.17/outbox.cif.g08.bks.cpg/sg36_6_cif.got.tgz:11056.got - 2010.06.03 17:41:39.
