data_PCOD9351790
_publ_section_title
;
Structure prediction by ZEFSAII (Michael W. Deem and Ramdas Pophale) SiO2 
 PCOD9351790
Probable space group: C M C 21
;
_chemical_formula_sum "Si O2"
_cell_formula_units_Z 64
_cell_length_a 8.758668
_cell_length_b 14.848242
_cell_length_c 25.190920
_cell_angle_alpha 90.000000
_cell_angle_beta 90.000000
_cell_angle_gamma 90.000000
_cell_volume 3276.099854
_symmetry_space_group_name_H-M "C M C 21"
_symmetry_group_IT_number 36
_symmetry_cell_setting 'orthorhombic'
loop_
_space_group_symop_operation_xyz
x,y,z
-x,-y,1/2+z
x,-y,1/2+z
-x,y,z
1/2+x,1/2+y,z
1/2-x,1/2-y,1/2+z
1/2+x,1/2-y,1/2+z
1/2-x,1/2+y,z
loop_
_atom_site_type_symbol
_atom_site_label
_atom_site_fract_x
_atom_site_fract_y
_atom_site_fract_z
Si Si1 0.324438 0.392772 0.137800
Si Si2 0.682960 0.735233 0.935279
Si Si3 0.323603 0.388767 0.623832
Si Si4 0.685547 0.578846 0.009236
Si Si5 0.817008 0.267753 0.319485
Si Si6 0.185571 0.128212 0.521223
Si Si7 0.682522 0.131085 0.234166
Si Si8 0.817345 0.424350 0.246717
O O1 0.500000 0.365187 0.145291
O O2 0.323451 0.501669 0.129117
O O3 0.265596 0.352877 0.082246
O O4 0.235032 0.377937 0.191953
O O5 0.500000 0.739608 0.933562
O O6 0.748849 0.750312 0.877080
O O7 0.729843 0.637738 0.958835
O O8 0.744865 0.806416 0.977889
O O9 0.500000 0.359025 0.627774
O O10 0.261999 0.374674 0.564334
O O11 0.230347 0.350724 0.673247
O O12 0.500000 0.578814 0.012648
O O13 0.731958 0.474837 0.008100
O O14 0.760757 0.196389 0.276031
O O15 0.766167 0.364991 0.296445
O O16 0.000000 0.265929 0.322444
O O17 0.000000 0.132438 0.520455
O O18 0.500000 0.136915 0.238984
O O19 0.733824 0.028059 0.246401
O O20 0.000000 0.426059 0.246675
#
# Coordination Sequence:
#
# PCOD9351790 Si02
#       8
#     8   8   8   8   8   8   8   8
#     4   8  15  29  54  84 112 140 175 214 258 316
#     4  11  23  38  55  79 106 137 181 231 270 308
#     4   8  14  30  55  82 110 143 177 210 256 322
#     4   8  17  35  58  80 108 144 180 215 260 318
#     4  11  24  41  56  74 103 144 186 222 264 322
#     4   9  18  36  58  81 110 145 178 213 260 320
#     4  10  20  36  57  84 113 139 172 222 271 313
#     4   9  20  37  57  80 110 142 175 219 271 317
#
# _framework density 19.535423000000002
#
# number of rings (size 3 to 8) (size 9 to 14) (size 15 to 20)
#    0.000    2.750    0.000    2.625    0.000    4.000 
#    0.000   10.625    0.000    0.000    0.000    0.000 
#    0.000    0.000    0.000    0.000    0.000    0.000 
#
# Total GULP energy -178553.974023 kJ/mol
# GULP energy per Si atom -5579.811688 kJ/mol
# Density = 1.949096 g / cm^3
# Si number density = 19.535423 Si / 1000 Ang^3
#
#
#
# Elastic Constant Matrix: (Units=GPa)
#
#
# Indices 1 2 3 4 5 6 
#
# 1 23.4771 5.6289 13.0069 0.0000 0.0000 0.0000
# 2 5.6289 40.2514 3.8923 0.0000 0.0000 0.0000
# 3 13.0069 3.8923 80.9162 0.0000 0.0000 0.0000
# 4 0.0000 0.0000 0.0000 30.2328 0.0000 0.0000
# 5 0.0000 0.0000 0.0000 0.0000 32.2417 0.0000
# 6 0.0000 0.0000 0.0000 0.0000 0.0000 17.6346
#
#
#
# Elastic Compliance Matrix: (Units=1/GPa)
#
#
# Indices 1 2 3 4 5 6 
#
# 1 0.048166 -0.006015 -0.007453 0.000000 0.000000 0.000000
# 2 -0.006015 0.025711 -0.000270 0.000000 0.000000 0.000000
# 3 -0.007453 -0.000270 0.013569 0.000000 0.000000 0.000000
# 4 0.000000 0.000000 0.000000 0.033077 0.000000 0.000000
# 5 0.000000 0.000000 0.000000 0.000000 0.031016 0.000000
# 6 0.000000 0.000000 0.000000 0.000000 0.000000 0.056707
#
#
# Mechanical properties :
#
#
# Convention : Reuss Voigt Hill
#
# Bulk Modulus (GPa) = 16.67483 21.07788 18.87636
# Shear Modulus (GPa) = 19.55325 24.16292 21.85808
#
# Velocity S-wave (km/s) = 3.16715 3.52074 3.34862
# Velocity P-wave (km/s) = 4.68281 5.22881 4.96332
#
# Compressibility (1/GPa) = 0.05997063
#
# Stress axis : x y z
#
# Youngs Moduli (GPa) = 20.76151 38.89363 73.69474
#
# Poissons Ratio (x) = 0.23395 0.54925
# Poissons Ratio (y) = 0.12488 0.01989
# Poissons Ratio (z) = 0.15474 0.01050
#
# Static dielectric constant tensor:
#      x y z
#    x 1.658580 0.000000 0.000000 
#    y 0.000000 1.720550 0.000000 
#    z 0.000000 0.000000 1.670300 
# 
# From -- ./inp_files/16674.got.cif
#   From: 2010.05.17/outbox.cif.g08.bks.cpg/sg36_9_cif.got.tgz:16674.got - 2010.06.03 17:41:39.
