data_PCOD9351111
_publ_section_title
;
Structure prediction by ZEFSAII (Michael W. Deem and Ramdas Pophale) SiO2 
 PCOD9351111
Probable space group: C M C 21
;
_chemical_formula_sum "Si O2"
_cell_formula_units_Z 64
_cell_length_a 10.988138
_cell_length_b 14.574527
_cell_length_c 19.751849
_cell_angle_alpha 90.000000
_cell_angle_beta 90.000000
_cell_angle_gamma 90.000000
_cell_volume 3163.197662
_symmetry_space_group_name_H-M "C M C 21"
_symmetry_group_IT_number 36
_symmetry_cell_setting 'orthorhombic'
loop_
_space_group_symop_operation_xyz
x,y,z
-x,-y,1/2+z
x,-y,1/2+z
-x,y,z
1/2+x,1/2+y,z
1/2-x,1/2-y,1/2+z
1/2+x,1/2-y,1/2+z
1/2-x,1/2+y,z
loop_
_atom_site_type_symbol
_atom_site_label
_atom_site_fract_x
_atom_site_fract_y
_atom_site_fract_z
Si Si1 0.291296 0.467364 0.673610
Si Si2 0.722195 0.272154 0.623879
Si Si3 0.358664 0.198972 0.985322
Si Si4 0.141097 0.230194 0.878578
Si Si5 0.140796 0.491268 0.938430
Si Si6 0.636132 0.656955 0.735721
Si Si7 0.638336 0.087236 0.569321
Si Si8 0.361423 0.926083 0.804231
O O1 0.336893 0.371269 0.640784
O O2 0.363943 0.553399 0.705926
O O3 0.212296 0.520354 0.617699
O O4 0.211114 0.431833 0.735738
O O5 0.821439 0.284869 0.563555
O O6 0.779359 0.222804 0.690188
O O7 0.639082 0.191307 0.594148
O O8 0.500000 0.231122 0.972586
O O9 0.248438 0.229635 0.934557
O O10 0.358548 0.090293 0.971388
O O11 0.166435 0.161523 0.815471
O O12 0.141461 0.327313 0.839676
O O13 0.000000 0.215482 0.903930
O O14 0.193776 0.489252 0.863694
O O15 0.000000 0.463167 0.927085
O O16 0.193038 0.422404 0.994046
O O17 0.500000 0.694961 0.729594
O O18 0.500000 0.054166 0.567121
O O19 0.500000 0.953030 0.787882
#
# Coordination Sequence:
#
# PCOD9351111 Si02
#       8
#     8   8   8   8   8   8   8   8
#     4  11  21  36  60  90 119 155 202 255 306 363
#     4  11  22  37  61  90 123 159 202 255 314 372
#     4  11  22  37  61  90 124 162 205 259 315 370
#     4  10  21  39  62  88 122 167 212 255 308 376
#     4   9  18  33  54  82 114 151 196 249 296 346
#     4  10  22  40  61  87 124 166 207 254 314 379
#     4  10  21  37  59  88 121 156 202 253 301 361
#     4  10  19  33  58  85 114 152 201 250 295 353
#
# _framework density 20.232690999999999
#
# number of rings (size 3 to 8) (size 9 to 14) (size 15 to 20)
#    0.000    1.750    2.500    2.250    0.000    3.000 
#    0.000    3.125    0.000    2.250    0.000    0.000 
#    0.000    0.000    0.000    0.000    0.000    0.000 
#
# Total GULP energy -178138.001285 kJ/mol
# GULP energy per Si atom -5566.812540 kJ/mol
# Density = 2.018664 g / cm^3
# Si number density = 20.232691 Si / 1000 Ang^3
#
#
#
# Elastic Constant Matrix: (Units=GPa)
#
#
# Indices 1 2 3 4 5 6 
#
# 1 70.4023 15.5842 37.2749 0.0000 0.0000 0.0000
# 2 15.5842 109.1754 16.2600 0.0000 0.0000 0.0000
# 3 37.2749 16.2600 80.4160 0.0000 0.0000 0.0000
# 4 0.0000 0.0000 0.0000 36.3062 0.0000 0.0000
# 5 0.0000 0.0000 0.0000 0.0000 43.1706 0.0000
# 6 0.0000 0.0000 0.0000 0.0000 0.0000 12.4971
#
#
#
# Elastic Compliance Matrix: (Units=1/GPa)
#
#
# Indices 1 2 3 4 5 6 
#
# 1 0.019043 -0.001447 -0.008534 0.000000 0.000000 0.000000
# 2 -0.001447 0.009554 -0.001261 0.000000 0.000000 0.000000
# 3 -0.008534 -0.001261 0.016646 0.000000 0.000000 0.000000
# 4 0.000000 0.000000 0.000000 0.027544 0.000000 0.000000
# 5 0.000000 0.000000 0.000000 0.000000 0.023164 0.000000
# 6 0.000000 0.000000 0.000000 0.000000 0.000000 0.080018
#
#
# Mechanical properties :
#
#
# Convention : Reuss Voigt Hill
#
# Bulk Modulus (GPa) = 43.94037 44.24801 44.09419
# Shear Modulus (GPa) = 24.26716 31.11975 27.69345
#
# Velocity S-wave (km/s) = 3.46700 3.92611 3.70367
# Velocity P-wave (km/s) = 6.14747 6.51686 6.33486
#
# Compressibility (1/GPa) = 0.02275812
#
# Stress axis : x y z
#
# Youngs Moduli (GPa) = 52.51284 104.66866 60.07392
#
# Poissons Ratio (x) = 0.15148 0.51269
# Poissons Ratio (y) = 0.07600 0.07575
# Poissons Ratio (z) = 0.44816 0.13198
#
# Static dielectric constant tensor:
#      x y z
#    x 1.704640 0.000000 0.000000 
#    y 0.000000 1.761370 0.000000 
#    z 0.000000 0.000000 1.762500 
# 
# From -- ./inp_files/14399.got.cif
#   From: 2010.05.17/outbox.cif.g08.bks.cpg/sg36_8_cif.got.tgz:14399.got - 2010.06.03 17:41:39.
