data_PCOD9351709
_publ_section_title
;
Structure prediction by ZEFSAII (Michael W. Deem and Ramdas Pophale) SiO2 
 PCOD9351709
Probable space group: C M C 21
;
_chemical_formula_sum "Si O2"
_cell_formula_units_Z 64
_cell_length_a 9.019992
_cell_length_b 29.105197
_cell_length_c 12.632214
_cell_angle_alpha 90.000000
_cell_angle_beta 90.000000
_cell_angle_gamma 90.000000
_cell_volume 3316.318013
_symmetry_space_group_name_H-M "C M C 21"
_symmetry_group_IT_number 36
_symmetry_cell_setting 'orthorhombic'
loop_
_space_group_symop_operation_xyz
x,y,z
-x,-y,1/2+z
x,-y,1/2+z
-x,y,z
1/2+x,1/2+y,z
1/2-x,1/2-y,1/2+z
1/2+x,1/2-y,1/2+z
1/2-x,1/2+y,z
loop_
_atom_site_type_symbol
_atom_site_label
_atom_site_fract_x
_atom_site_fract_y
_atom_site_fract_z
Si Si1 0.168959 0.332387 0.923680
Si Si2 0.823554 0.121983 0.621604
Si Si3 0.327452 0.573378 0.094934
Si Si4 0.823355 0.322670 0.296282
Si Si5 0.823065 0.333241 0.538629
Si Si6 0.174886 0.027957 0.504421
Si Si7 0.823166 0.220487 0.234772
Si Si8 0.833749 0.568619 0.310899
O O1 0.255634 0.299350 0.843866
O O2 0.161815 0.380726 0.861264
O O3 0.000000 0.316571 0.943305
O O4 0.250774 0.344960 0.032659
O O5 0.759263 0.136845 0.734492
O O6 0.790786 0.069296 0.586951
O O7 0.000000 0.127723 0.620346
O O8 0.500000 0.585653 0.082391
O O9 0.282536 0.569557 0.216953
O O10 0.228024 0.613959 0.048112
O O11 0.303229 0.523008 0.047325
O O12 0.782722 0.317586 0.419853
O O13 0.792508 0.274810 0.236680
O O14 0.000000 0.331014 0.292308
O O15 0.746837 0.304708 0.633161
O O16 0.000000 0.329634 0.552002
O O17 0.276527 0.035779 0.402967
O O18 0.000000 0.033479 0.476994
O O19 0.000000 0.213227 0.234731
O O20 0.000000 0.557033 0.273952
#
# Coordination Sequence:
#
# PCOD9351709 Si02
#       8
#     8   8   8   8   8   8   8   8
#     4  10  20  36  60  88 119 154 197 254 307 358
#     4  10  21  39  63  89 121 161 208 254 307 367
#     4  11  22  38  62  89 122 162 205 257 308 366
#     4  10  25  44  61  88 128 166 204 253 314 373
#     4  11  24  43  63  90 127 163 204 257 314 372
#     4   9  21  39  59  87 121 161 207 254 306 365
#     4  11  23  40  63  91 119 158 206 252 307 371
#     4  10  20  35  57  86 117 153 199 251 307 364
#
# _framework density 19.298508999999999
#
# number of rings (size 3 to 8) (size 9 to 14) (size 15 to 20)
#    0.000    1.750    1.250    2.250    1.750    5.500 
#    0.000    3.750    0.000    0.000    0.000    0.000 
#    0.000    0.000    0.000    0.000    0.000    0.000 
#
# Total GULP energy -178720.927055 kJ/mol
# GULP energy per Si atom -5585.028970 kJ/mol
# Density = 1.925459 g / cm^3
# Si number density = 19.298509 Si / 1000 Ang^3
#
#
#
# Elastic Constant Matrix: (Units=GPa)
#
#
# Indices 1 2 3 4 5 6 
#
# 1 49.6015 39.1512 26.2921 0.0000 0.0000 0.0000
# 2 39.1512 68.0414 35.0962 0.0000 0.0000 0.0000
# 3 26.2921 35.0962 64.3287 0.0000 0.0000 0.0000
# 4 0.0000 0.0000 0.0000 12.8662 0.0000 0.0000
# 5 0.0000 0.0000 0.0000 0.0000 29.4827 0.0000
# 6 0.0000 0.0000 0.0000 0.0000 0.0000 12.8537
#
#
#
# Elastic Compliance Matrix: (Units=1/GPa)
#
#
# Indices 1 2 3 4 5 6 
#
# 1 0.038067 -0.019314 -0.005021 0.000000 0.000000 0.000000
# 2 -0.019314 0.030252 -0.008611 0.000000 0.000000 0.000000
# 3 -0.005021 -0.008611 0.022295 0.000000 0.000000 0.000000
# 4 0.000000 0.000000 0.000000 0.077723 0.000000 0.000000
# 5 0.000000 0.000000 0.000000 0.000000 0.033918 0.000000
# 6 0.000000 0.000000 0.000000 0.000000 0.000000 0.077799
#
#
# Mechanical properties :
#
#
# Convention : Reuss Voigt Hill
#
# Bulk Modulus (GPa) = 40.44971 42.56119 41.50545
# Shear Modulus (GPa) = 14.11686 16.46933 15.29310
#
# Velocity S-wave (km/s) = 2.70756 2.92447 2.81810
# Velocity P-wave (km/s) = 5.54797 5.78838 5.66945
#
# Compressibility (1/GPa) = 0.02472206
#
# Stress axis : x y z
#
# Youngs Moduli (GPa) = 26.26939 33.05609 44.85257
#
# Poissons Ratio (x) = 0.63844 0.22523
# Poissons Ratio (y) = 0.50736 0.38621
# Poissons Ratio (z) = 0.13191 0.28463
#
# Static dielectric constant tensor:
#      x y z
#    x 1.657400 0.000000 0.000000 
#    y 0.000000 1.666490 0.000000 
#    z 0.000000 0.000000 1.668480 
# 
# From -- ./inp_files/7157.got.cif
#   From: 2010.05.17/outbox.cif.g08.bks.cpg/sg36_4_cif.got.tgz:7157.got - 2010.06.03 17:41:39.
