data_PCOD9351503
_publ_section_title
;
Structure prediction by ZEFSAII (Michael W. Deem and Ramdas Pophale) SiO2 
 PCOD9351503
Probable space group: C M C 21
;
_chemical_formula_sum "Si O2"
_cell_formula_units_Z 64
_cell_length_a 8.786152
_cell_length_b 14.465601
_cell_length_c 28.819201
_cell_angle_alpha 90.000000
_cell_angle_beta 90.000000
_cell_angle_gamma 90.000000
_cell_volume 3662.833101
_symmetry_space_group_name_H-M "C M C 21"
_symmetry_group_IT_number 36
_symmetry_cell_setting 'orthorhombic'
loop_
_space_group_symop_operation_xyz
x,y,z
-x,-y,1/2+z
x,-y,1/2+z
-x,y,z
1/2+x,1/2+y,z
1/2-x,1/2-y,1/2+z
1/2+x,1/2-y,1/2+z
1/2-x,1/2+y,z
loop_
_atom_site_type_symbol
_atom_site_label
_atom_site_fract_x
_atom_site_fract_y
_atom_site_fract_z
Si Si1 0.317934 0.013763 0.036530
Si Si2 0.818672 0.997669 0.138025
Si Si3 0.183199 0.338489 0.459130
Si Si4 0.317790 0.000799 0.787253
Si Si5 0.317143 0.854580 0.206852
Si Si6 0.183027 0.366149 0.958557
Si Si7 0.682018 0.514224 0.889248
Si Si8 0.816155 0.142262 0.217687
O O1 0.500000 0.014367 0.042372
O O2 0.242130 0.011093 0.086444
O O3 0.276662 0.103001 0.005412
O O4 0.278828 0.924709 0.004939
O O5 0.753409 0.906380 0.162788
O O6 0.000000 0.992237 0.137210
O O7 0.775550 0.082832 0.171955
O O8 0.250680 0.236303 0.460331
O O9 0.250195 0.397559 0.416498
O O10 0.000000 0.336165 0.455474
O O11 0.500000 0.998706 0.792849
O O12 0.277861 0.084852 0.752254
O O13 0.238608 0.012583 0.836555
O O14 0.260634 0.908935 0.761001
O O15 0.500000 0.856690 0.202062
O O16 0.269709 0.748542 0.212319
O O17 0.253200 0.424806 0.916305
O O18 0.000000 0.364508 0.954083
O O19 0.500000 0.515249 0.891662
O O20 0.000000 0.138590 0.223176
#
# Coordination Sequence:
#
# PCOD9351503 Si02
#       8
#     8   8   8   8   8   8   8   8
#     4   9  20  37  55  76 108 144 178 217 265 322
#     4  10  20  33  53  79 107 137 176 223 266 314
#     4  10  21  38  58  82 111 143 180 225 273 325
#     4  10  20  35  55  79 106 138 177 223 270 321
#     4   9  19  36  56  75 103 141 177 216 267 321
#     4  10  21  38  58  81 108 141 182 228 273 323
#     4  11  22  37  57  80 110 147 182 223 270 322
#     4   9  19  36  54  76 105 139 178 219 266 322
#
# _framework density 17.472812999999999
#
# number of rings (size 3 to 8) (size 9 to 14) (size 15 to 20)
#    0.000    2.250    0.000    3.375    0.000    6.500 
#    0.000    7.500    0.000    0.000    0.000    0.000 
#    0.000    0.000    0.000    0.000    0.000    0.000 
#
# Total GULP energy -178642.873315 kJ/mol
# GULP energy per Si atom -5582.589791 kJ/mol
# Density = 1.743304 g / cm^3
# Si number density = 17.472813 Si / 1000 Ang^3
#
#
#
# Elastic Constant Matrix: (Units=GPa)
#
#
# Indices 1 2 3 4 5 6 
#
# 1 61.8865 47.4051 52.3833 0.0000 0.0000 0.0000
# 2 47.4051 153.9659 57.8139 0.0000 0.0000 0.0000
# 3 52.3833 57.8139 137.4683 0.0000 0.0000 0.0000
# 4 0.0000 0.0000 0.0000 6.1521 0.0000 0.0000
# 5 0.0000 0.0000 0.0000 0.0000 34.2149 0.0000
# 6 0.0000 0.0000 0.0000 0.0000 0.0000 28.8896
#
#
#
# Elastic Compliance Matrix: (Units=1/GPa)
#
#
# Indices 1 2 3 4 5 6 
#
# 1 0.027057 -0.005295 -0.008083 0.000000 0.000000 0.000000
# 2 -0.005295 0.008749 -0.001662 0.000000 0.000000 0.000000
# 3 -0.008083 -0.001662 0.011053 0.000000 0.000000 0.000000
# 4 0.000000 0.000000 0.000000 0.162545 0.000000 0.000000
# 5 0.000000 0.000000 0.000000 0.000000 0.029227 0.000000
# 6 0.000000 0.000000 0.000000 0.000000 0.000000 0.034615
#
#
# Mechanical properties :
#
#
# Convention : Reuss Voigt Hill
#
# Bulk Modulus (GPa) = 59.59863 74.28059 66.93961
# Shear Modulus (GPa) = 16.18540 26.89921 21.54230
#
# Velocity S-wave (km/s) = 3.04685 3.92789 3.51508
# Velocity P-wave (km/s) = 6.82357 7.94830 7.40731
#
# Compressibility (1/GPa) = 0.01677891
#
# Stress axis : x y z
#
# Youngs Moduli (GPa) = 36.95922 114.29396 90.46955
#
# Poissons Ratio (x) = 0.60523 0.73128
# Poissons Ratio (y) = 0.19571 0.15034
# Poissons Ratio (z) = 0.29875 0.18993
#
# Static dielectric constant tensor:
#      x y z
#    x 1.582910 0.000000 0.000000 
#    y 0.000000 1.577460 0.000000 
#    z 0.000000 0.000000 1.566230 
# 
# From -- ./inp_files/16677.got.cif
#   From: 2010.05.17/outbox.cif.g08.bks.cpg/sg36_9_cif.got.tgz:16677.got - 2010.06.03 17:41:39.
