data_PCOD9351070
_publ_section_title
;
Structure prediction by ZEFSAII (Michael W. Deem and Ramdas Pophale) SiO2 
 PCOD9351070
Probable space group: C M C 21
;
_chemical_formula_sum "Si O2"
_cell_formula_units_Z 44
_cell_length_a 24.736954
_cell_length_b 14.518996
_cell_length_c 5.442674
_cell_angle_alpha 90.000000
_cell_angle_beta 90.000000
_cell_angle_gamma 90.000000
_cell_volume 1954.767587
_symmetry_space_group_name_H-M "C M C 21"
_symmetry_group_IT_number 36
_symmetry_cell_setting 'orthorhombic'
loop_
_space_group_symop_operation_xyz
x,y,z
-x,-y,1/2+z
x,-y,1/2+z
-x,y,z
1/2+x,1/2+y,z
1/2-x,1/2-y,1/2+z
1/2+x,1/2-y,1/2+z
1/2-x,1/2+y,z
loop_
_atom_site_type_symbol
_atom_site_label
_atom_site_fract_x
_atom_site_fract_y
_atom_site_fract_z
Si Si1 0.436667 0.440850 0.483570
Si Si2 0.377629 0.747977 0.936362
Si Si3 0.898284 0.653647 0.936199
Si Si4 0.255333 0.831457 0.941047
Si Si5 0.279962 0.871318 0.440171
Si Si6 0.000000 0.538610 0.092101
O O1 0.430122 0.497547 0.737456
O O2 0.500000 0.407177 0.480539
O O3 0.393546 0.357891 0.474128
O O4 0.397116 0.776139 0.665084
O O5 0.315356 0.784524 0.942783
O O6 0.403387 0.800494 0.169719
O O7 0.841552 0.597429 0.939272
O O8 0.947010 0.588270 0.994836
O O9 0.251107 0.890048 0.695310
O O10 0.217152 0.742397 0.938641
O O11 0.250307 0.890018 0.186651
O O12 0.000000 0.455340 0.889579
#
# Coordination Sequence:
#
# PCOD9351070 Si02
#       6
#     8   8   8   8   8   4
#     4  10  21  34  48  70 105 143 165 196 247 291
#     4  10  19  33  55  81 102 132 178 219 247 299
#     4  10  21  34  56  79  98 134 177 220 256 304
#     4   8  14  25  46  73 102 126 155 211 261 292
#     4   8  14  27  45  73 101 123 161 207 260 306
#     4  12  26  42  56  76 108 142 172 222 286 328
#
# _framework density 22.509070999999999
#
# number of rings (size 3 to 8) (size 9 to 14) (size 15 to 20)
#    0.000    2.545    0.000    2.182    2.545    0.000 
#    0.000    0.000    0.000    2.182    0.000    0.000 
#    0.000    0.000    0.000    0.000    0.000    0.000 
#
# Total GULP energy -122635.316930 kJ/mol
# GULP energy per Si atom -5574.332588 kJ/mol
# Density = 2.245784 g / cm^3
# Si number density = 22.509071 Si / 1000 Ang^3
#
#
#
# Elastic Constant Matrix: (Units=GPa)
#
#
# Indices 1 2 3 4 5 6 
#
# 1 39.5501 3.8625 -4.8646 0.0000 0.0000 0.0000
# 2 3.8625 32.4122 6.0858 0.0000 0.0000 0.0000
# 3 -4.8646 6.0858 181.8334 0.0000 0.0000 0.0000
# 4 0.0000 0.0000 0.0000 18.4325 0.0000 0.0000
# 5 0.0000 0.0000 0.0000 0.0000 67.7267 0.0000
# 6 0.0000 0.0000 0.0000 0.0000 0.0000 43.7663
#
#
#
# Elastic Compliance Matrix: (Units=1/GPa)
#
#
# Indices 1 2 3 4 5 6 
#
# 1 0.025696 -0.003211 0.000795 0.000000 0.000000 0.000000
# 2 -0.003211 0.031449 -0.001138 0.000000 0.000000 0.000000
# 3 0.000795 -0.001138 0.005559 0.000000 0.000000 0.000000
# 4 0.000000 0.000000 0.000000 0.054252 0.000000 0.000000
# 5 0.000000 0.000000 0.000000 0.000000 0.014765 0.000000
# 6 0.000000 0.000000 0.000000 0.000000 0.000000 0.022849
#
#
# Mechanical properties :
#
#
# Convention : Reuss Voigt Hill
#
# Bulk Modulus (GPa) = 17.98759 29.32923 23.65841
# Shear Modulus (GPa) = 27.74533 42.56592 35.15562
#
# Velocity S-wave (km/s) = 3.51469 4.35335 3.95630
# Velocity P-wave (km/s) = 4.94766 6.19089 5.60386
#
# Compressibility (1/GPa) = 0.05559388
#
# Stress axis : x y z
#
# Youngs Moduli (GPa) = 38.91689 31.79752 179.89139
#
# Poissons Ratio (x) = 0.10211 -0.14300
# Poissons Ratio (y) = 0.12498 0.20480
# Poissons Ratio (z) = -0.03094 0.03620
#
# Static dielectric constant tensor:
#      x y z
#    x 1.815190 0.000000 0.000000 
#    y 0.000000 1.852270 0.000000 
#    z 0.000000 0.000000 1.989940 
# 
# From -- ./inp_files/1722.got.cif
#   From: 2010.05.17/outbox.cif.g08.bks.cpg/sg36_1_cif.got.tgz:1722.got - 2010.06.03 17:41:39.
