data_PCOD9351565
_publ_section_title
;
Structure prediction by ZEFSAII (Michael W. Deem and Ramdas Pophale) SiO2 
 PCOD9351565
Probable space group: C M C 21
;
_chemical_formula_sum "Si O2"
_cell_formula_units_Z 64
_cell_length_a 8.701614
_cell_length_b 20.708072
_cell_length_c 20.261698
_cell_angle_alpha 90.000000
_cell_angle_beta 90.000000
_cell_angle_gamma 90.000000
_cell_volume 3651.029302
_symmetry_space_group_name_H-M "C M C 21"
_symmetry_group_IT_number 36
_symmetry_cell_setting 'orthorhombic'
loop_
_space_group_symop_operation_xyz
x,y,z
-x,-y,1/2+z
x,-y,1/2+z
-x,y,z
1/2+x,1/2+y,z
1/2-x,1/2-y,1/2+z
1/2+x,1/2-y,1/2+z
1/2-x,1/2+y,z
loop_
_atom_site_type_symbol
_atom_site_label
_atom_site_fract_x
_atom_site_fract_y
_atom_site_fract_z
Si Si1 0.316146 0.419221 0.498210
Si Si2 0.184403 0.979309 0.245666
Si Si3 0.186714 0.024499 0.392034
Si Si4 0.685754 0.331823 0.871127
Si Si5 0.183456 0.340539 0.258558
Si Si6 0.315917 0.083517 0.143942
Si Si7 0.683948 0.205309 0.228932
Si Si8 0.684112 0.807746 0.411178
O O1 0.500000 0.422769 0.502897
O O2 0.260662 0.476280 0.449136
O O3 0.245131 0.424895 0.570324
O O4 0.267778 0.352487 0.463481
O O5 0.235671 0.000487 0.319463
O O6 0.249691 0.029179 0.192613
O O7 0.000000 0.981241 0.243952
O O8 0.241932 0.906656 0.234249
O O9 0.232208 0.099171 0.400244
O O10 0.000000 0.022566 0.392293
O O11 0.500000 0.331252 0.863198
O O12 0.757632 0.322918 0.798802
O O13 0.725828 0.268055 0.912743
O O14 0.244271 0.276336 0.222762
O O15 0.221555 0.331249 0.336593
O O16 0.000000 0.343710 0.253137
O O17 0.500000 0.079722 0.144740
O O18 0.271397 0.153751 0.173171
O O19 0.500000 0.210820 0.230524
O O20 0.500000 0.813571 0.419800
#
# Coordination Sequence:
#
# PCOD9351565 Si02
#       8
#     8   8   8   8   8   8   8   8
#     4  11  22  37  57  81 111 152 194 236 287 345
#     4  11  20  35  60  87 116 150 191 238 285 339
#     4   9  18  33  56  85 113 144 188 235 280 334
#     4   9  17  33  56  82 111 142 180 228 284 333
#     4  10  20  34  56  85 116 146 183 231 286 337
#     4  11  24  40  56  81 116 154 195 239 290 348
#     4  10  20  34  54  81 111 144 188 235 280 333
#     4   9  18  32  53  80 110 144 179 226 282 337
#
# _framework density 17.529302000000001
#
# number of rings (size 3 to 8) (size 9 to 14) (size 15 to 20)
#    0.000    2.000    2.500    2.625    0.000    3.500 
#    0.000    2.500    0.000    6.000    0.000    0.000 
#    0.000    0.000    0.000    0.000    0.000    0.000 
#
# Total GULP energy -178603.722337 kJ/mol
# GULP energy per Si atom -5581.366323 kJ/mol
# Density = 1.748940 g / cm^3
# Si number density = 17.529302 Si / 1000 Ang^3
#
#
#
# Elastic Constant Matrix: (Units=GPa)
#
#
# Indices 1 2 3 4 5 6 
#
# 1 42.2846 45.5785 43.0036 0.0000 0.0000 0.0000
# 2 45.5785 169.0928 85.0219 0.0000 0.0000 0.0000
# 3 43.0036 85.0219 117.6260 0.0000 0.0000 0.0000
# 4 0.0000 0.0000 0.0000 23.8868 0.0000 0.0000
# 5 0.0000 0.0000 0.0000 0.0000 26.0697 0.0000
# 6 0.0000 0.0000 0.0000 0.0000 0.0000 28.1112
#
#
#
# Elastic Compliance Matrix: (Units=1/GPa)
#
#
# Indices 1 2 3 4 5 6 
#
# 1 0.040633 -0.005472 -0.010900 0.000000 0.000000 0.000000
# 2 -0.005472 0.010027 -0.005247 0.000000 0.000000 0.000000
# 3 -0.010900 -0.005247 0.016279 0.000000 0.000000 0.000000
# 4 0.000000 0.000000 0.000000 0.041864 0.000000 0.000000
# 5 0.000000 0.000000 0.000000 0.000000 0.038359 0.000000
# 6 0.000000 0.000000 0.000000 0.000000 0.000000 0.035573
#
#
# Mechanical properties :
#
#
# Convention : Reuss Voigt Hill
#
# Bulk Modulus (GPa) = 42.19242 75.13458 58.66350
# Shear Modulus (GPa) = 21.37903 25.97350 23.67627
#
# Velocity S-wave (km/s) = 3.49609 3.85349 3.67913
# Velocity P-wave (km/s) = 6.35758 7.92177 7.18238
#
# Compressibility (1/GPa) = 0.02370094
#
# Stress axis : x y z
#
# Youngs Moduli (GPa) = 24.61074 99.72794 61.42704
#
# Poissons Ratio (x) = 0.54568 0.66956
# Poissons Ratio (y) = 0.13466 0.32233
# Poissons Ratio (z) = 0.26826 0.52332
#
# Static dielectric constant tensor:
#      x y z
#    x 1.592590 0.000000 0.000000 
#    y 0.000000 1.606640 0.000000 
#    z 0.000000 0.000000 1.564640 
# 
# From -- ./inp_files/13962.got.cif
#   From: 2010.05.17/outbox.cif.g08.bks.cpg/sg36_7_cif.got.tgz:13962.got - 2010.06.03 17:41:39.
