data_PCOD9351004
_publ_section_title
;
Structure prediction by ZEFSAII (Michael W. Deem and Ramdas Pophale) SiO2 
 PCOD9351004
Probable space group: C M C 21
;
_chemical_formula_sum "Si O2"
_cell_formula_units_Z 64
_cell_length_a 7.906392
_cell_length_b 22.184942
_cell_length_c 14.435100
_cell_angle_alpha 90.000000
_cell_angle_beta 90.000000
_cell_angle_gamma 90.000000
_cell_volume 2531.957650
_symmetry_space_group_name_H-M "C M C 21"
_symmetry_group_IT_number 36
_symmetry_cell_setting 'orthorhombic'
loop_
_space_group_symop_operation_xyz
x,y,z
-x,-y,1/2+z
x,-y,1/2+z
-x,y,z
1/2+x,1/2+y,z
1/2-x,1/2-y,1/2+z
1/2+x,1/2-y,1/2+z
1/2-x,1/2+y,z
loop_
_atom_site_type_symbol
_atom_site_label
_atom_site_fract_x
_atom_site_fract_y
_atom_site_fract_z
Si Si1 0.703212 0.405032 0.706870
Si Si2 0.301141 0.028218 0.377285
Si Si3 0.799634 0.398066 0.357273
Si Si4 0.804550 0.219997 0.749705
Si Si5 0.695960 0.143461 0.589791
Si Si6 0.794936 0.163873 0.035972
Si Si7 0.207413 0.283569 0.925069
Si Si8 0.804541 0.018573 0.589462
O O1 0.500000 0.404206 0.706517
O O2 0.752823 0.415659 0.812840
O O3 0.760010 0.349879 0.641133
O O4 0.768158 0.464925 0.651717
O O5 0.500000 0.022835 0.368351
O O6 0.264034 0.028070 0.486000
O O7 0.229068 0.964757 0.338315
O O8 0.706902 0.341980 0.309863
O O9 0.776397 0.387267 0.467436
O O10 0.000000 0.393693 0.333269
O O11 0.709651 0.201166 0.656851
O O12 0.000000 0.232289 0.728471
O O13 0.734524 0.270359 0.820589
O O14 0.500000 0.127867 0.580276
O O15 0.765307 0.161589 0.488993
O O16 0.783983 0.085157 0.632203
O O17 0.742529 0.225605 0.986996
O O18 0.000000 0.161763 0.032945
O O19 0.000000 0.285560 0.921581
O O20 0.000000 0.003607 0.578681
#
# Coordination Sequence:
#
# PCOD9351004 Si02
#       8
#     8   8   8   8   8   8   8   8
#     4  10  21  36  58  85 115 151 193 238 288 348
#     4  11  23  36  54  83 121 158 190 234 292 350
#     4  10  19  32  54  84 114 148 189 238 288 338
#     4  10  20  37  61  87 113 152 201 244 286 345
#     4  11  22  39  60  86 120 156 192 242 299 347
#     4   9  17  35  59  81 107 144 187 237 287 340
#     4   8  18  37  61  83 112 149 190 239 295 344
#     4  11  23  40  61  87 118 158 200 240 287 348
#
# _framework density 25.276883000000002
#
# number of rings (size 3 to 8) (size 9 to 14) (size 15 to 20)
#    0.000    2.000    1.250    3.375    0.000    5.000 
#    2.250    6.250    0.000    0.000    0.000    0.000 
#    0.000    0.000    0.000    0.000    0.000    0.000 
#
# Total GULP energy -178869.781856 kJ/mol
# GULP energy per Si atom -5589.680683 kJ/mol
# Density = 2.521935 g / cm^3
# Si number density = 25.276883 Si / 1000 Ang^3
#
#
#
# Elastic Constant Matrix: (Units=GPa)
#
#
# Indices 1 2 3 4 5 6 
#
# 1 41.3990 -5.4549 -9.4017 0.0000 0.0000 0.0000
# 2 -5.4549 60.7663 14.6408 0.0000 0.0000 0.0000
# 3 -9.4017 14.6408 133.5474 0.0000 0.0000 0.0000
# 4 0.0000 0.0000 0.0000 48.1538 0.0000 0.0000
# 5 0.0000 0.0000 0.0000 0.0000 23.9683 0.0000
# 6 0.0000 0.0000 0.0000 0.0000 0.0000 10.3231
#
#
#
# Elastic Compliance Matrix: (Units=1/GPa)
#
#
# Indices 1 2 3 4 5 6 
#
# 1 0.024749 0.001851 0.001539 0.000000 0.000000 0.000000
# 2 0.001851 0.017041 -0.001738 0.000000 0.000000 0.000000
# 3 0.001539 -0.001738 0.007787 0.000000 0.000000 0.000000
# 4 0.000000 0.000000 0.000000 0.020767 0.000000 0.000000
# 5 0.000000 0.000000 0.000000 0.000000 0.041722 0.000000
# 6 0.000000 0.000000 0.000000 0.000000 0.000000 0.096870
#
#
# Mechanical properties :
#
#
# Convention : Reuss Voigt Hill
#
# Bulk Modulus (GPa) = 18.91030 26.14235 22.52632
# Shear Modulus (GPa) = 22.39555 32.21760 27.30657
#
# Velocity S-wave (km/s) = 2.97982 3.57401 3.29035
# Velocity P-wave (km/s) = 4.39734 5.23414 4.83388
#
# Compressibility (1/GPa) = 0.05288124
#
# Stress axis : x y z
#
# Youngs Moduli (GPa) = 40.40627 58.68080 128.42106
#
# Poissons Ratio (x) = -0.10860 -0.19769
# Poissons Ratio (y) = -0.07478 0.22319
# Poissons Ratio (z) = -0.06220 0.10198
#
# Static dielectric constant tensor:
#      x y z
#    x 1.882310 0.000000 0.000000 
#    y 0.000000 2.059970 0.000000 
#    z 0.000000 0.000000 2.076140 
# 
# From -- ./inp_files/10927.got.cif
#   From: 2010.05.17/outbox.cif.g08.bks.cpg/sg36_6_cif.got.tgz:10927.got - 2010.06.03 17:41:39.
