data_PCOD9351082
_publ_section_title
;
Structure prediction by ZEFSAII (Michael W. Deem and Ramdas Pophale) SiO2 
 PCOD9351082
Probable space group: C M C 21
;
_chemical_formula_sum "Si O2"
_cell_formula_units_Z 64
_cell_length_a 9.396890
_cell_length_b 24.999720
_cell_length_c 14.257533
_cell_angle_alpha 90.000000
_cell_angle_beta 90.000000
_cell_angle_gamma 90.000000
_cell_volume 3349.374218
_symmetry_space_group_name_H-M "C M C 21"
_symmetry_group_IT_number 36
_symmetry_cell_setting 'orthorhombic'
loop_
_space_group_symop_operation_xyz
x,y,z
-x,-y,1/2+z
x,-y,1/2+z
-x,y,z
1/2+x,1/2+y,z
1/2-x,1/2-y,1/2+z
1/2+x,1/2-y,1/2+z
1/2-x,1/2+y,z
loop_
_atom_site_type_symbol
_atom_site_label
_atom_site_fract_x
_atom_site_fract_y
_atom_site_fract_z
Si Si1 0.657601 0.769752 0.755490
Si Si2 0.336229 0.117713 0.150105
Si Si3 0.664845 0.170390 0.764913
Si Si4 0.667968 0.813850 0.487328
Si Si5 0.328654 0.457405 0.791084
Si Si6 0.330300 0.567187 0.696573
Si Si7 0.333734 0.793223 0.977500
Si Si8 0.170806 0.094900 0.490489
O O1 0.500000 0.745651 0.742993
O O2 0.665869 0.824262 0.699015
O O3 0.773091 0.726167 0.727921
O O4 0.672102 0.786090 0.864368
O O5 0.500000 0.098193 0.149709
O O6 0.238386 0.079793 0.211086
O O7 0.288820 0.133513 0.045564
O O8 0.500000 0.164486 0.741934
O O9 0.681903 0.174754 0.877305
O O10 0.752551 0.120717 0.727700
O O11 0.500000 0.804209 0.506842
O O12 0.755762 0.760614 0.512595
O O13 0.500000 0.454646 0.786978
O O14 0.286100 0.517468 0.761757
O O15 0.286644 0.435696 0.894391
O O16 0.500000 0.573571 0.706653
O O17 0.302003 0.560731 0.584939
O O18 0.500000 0.795593 0.005081
O O19 0.252153 0.848391 0.999501
O O20 0.000000 0.105010 0.485385
#
# Coordination Sequence:
#
# PCOD9351082 Si02
#       8
#     8   8   8   8   8   8   8   8
#     4   9  18  33  54  81 115 152 185 226 283 342
#     4  10  20  36  58  84 116 154 190 229 285 345
#     4  10  21  37  56  83 117 150 191 240 283 332
#     4   9  20  36  55  83 120 159 191 227 286 347
#     4  10  22  40  61  85 113 149 196 243 284 335
#     4  10  23  41  60  83 113 153 194 234 291 350
#     4  10  19  33  55  85 116 148 192 237 279 332
#     4  10  21  38  59  82 112 149 187 234 289 343
#
# _framework density 19.108046000000002
#
# number of rings (size 3 to 8) (size 9 to 14) (size 15 to 20)
#    0.000    2.250    1.250    0.750    1.750    4.000 
#    0.000    1.250    0.000    0.000    0.000    0.000 
#    0.000    0.000    0.000    0.000    0.000    0.000 
#
# Total GULP energy -178558.571884 kJ/mol
# GULP energy per Si atom -5579.955371 kJ/mol
# Density = 1.906456 g / cm^3
# Si number density = 19.108046 Si / 1000 Ang^3
#
#
#
# Elastic Constant Matrix: (Units=GPa)
#
#
# Indices 1 2 3 4 5 6 
#
# 1 32.2517 28.0817 24.2355 0.0000 0.0000 0.0000
# 2 28.0817 76.3468 24.8666 0.0000 0.0000 0.0000
# 3 24.2355 24.8666 62.4567 0.0000 0.0000 0.0000
# 4 0.0000 0.0000 0.0000 19.2810 0.0000 0.0000
# 5 0.0000 0.0000 0.0000 0.0000 22.3956 0.0000
# 6 0.0000 0.0000 0.0000 0.0000 0.0000 27.3787
#
#
#
# Elastic Compliance Matrix: (Units=1/GPa)
#
#
# Indices 1 2 3 4 5 6 
#
# 1 0.056388 -0.015642 -0.015653 0.000000 0.000000 0.000000
# 2 -0.015642 0.019389 -0.001650 0.000000 0.000000 0.000000
# 3 -0.015653 -0.001650 0.022742 0.000000 0.000000 0.000000
# 4 0.000000 0.000000 0.000000 0.051865 0.000000 0.000000
# 5 0.000000 0.000000 0.000000 0.000000 0.044652 0.000000
# 6 0.000000 0.000000 0.000000 0.000000 0.000000 0.036525
#
#
# Mechanical properties :
#
#
# Convention : Reuss Voigt Hill
#
# Bulk Modulus (GPa) = 30.64746 36.15809 33.40278
# Shear Modulus (GPa) = 16.21658 20.06915 18.14286
#
# Velocity S-wave (km/s) = 2.91637 3.24435 3.08472
# Velocity P-wave (km/s) = 5.23585 5.74443 5.49602
#
# Compressibility (1/GPa) = 0.03262913
#
# Stress axis : x y z
#
# Youngs Moduli (GPa) = 17.73417 51.57561 43.97189
#
# Poissons Ratio (x) = 0.80677 0.68829
# Poissons Ratio (y) = 0.27741 0.07254
# Poissons Ratio (z) = 0.27759 0.08509
#
# Static dielectric constant tensor:
#      x y z
#    x 1.650430 0.000000 0.000000 
#    y 0.000000 1.622070 0.000000 
#    z 0.000000 0.000000 1.725220 
# 
# From -- ./inp_files/10890.got.cif
#   From: 2010.05.17/outbox.cif.g08.bks.cpg/sg36_6_cif.got.tgz:10890.got - 2010.06.03 17:41:39.
