data_PCOD9351654
_publ_section_title
;
Structure prediction by ZEFSAII (Michael W. Deem and Ramdas Pophale) SiO2 
 PCOD9351654
Probable space group: C M C 21
;
_chemical_formula_sum "Si O2"
_cell_formula_units_Z 48
_cell_length_a 8.852034
_cell_length_b 18.824514
_cell_length_c 16.539051
_cell_angle_alpha 90.000000
_cell_angle_beta 90.000000
_cell_angle_gamma 90.000000
_cell_volume 2755.988699
_symmetry_space_group_name_H-M "C M C 21"
_symmetry_group_IT_number 36
_symmetry_cell_setting 'orthorhombic'
loop_
_space_group_symop_operation_xyz
x,y,z
-x,-y,1/2+z
x,-y,1/2+z
-x,y,z
1/2+x,1/2+y,z
1/2-x,1/2-y,1/2+z
1/2+x,1/2-y,1/2+z
1/2-x,1/2+y,z
loop_
_atom_site_type_symbol
_atom_site_label
_atom_site_fract_x
_atom_site_fract_y
_atom_site_fract_z
Si Si1 0.182133 0.922452 0.178240
Si Si2 0.327288 0.290245 0.277064
Si Si3 0.327288 0.209755 0.103404
Si Si4 0.320933 0.339204 0.854134
Si Si5 0.182133 0.422452 0.702228
Si Si6 0.179067 0.660796 0.526334
O O1 0.220528 0.869674 0.253160
O O2 0.248648 0.886825 0.097305
O O3 0.000000 0.923949 0.172875
O O4 0.250000 0.000000 0.190234
O O5 0.500000 0.289958 0.307981
O O6 0.329937 0.250000 0.190234
O O7 0.223068 0.242421 0.333307
O O8 0.500000 0.210042 0.072487
O O9 0.279472 0.130326 0.127307
O O10 0.223068 0.257579 0.047161
O O11 0.500000 0.347778 0.854668
O O12 0.248648 0.386825 0.783163
O O13 0.250000 0.358005 0.940234
O O14 0.000000 0.423948 0.707593
O O15 0.000000 0.652222 0.525801
#
# Coordination Sequence:
#
# PCOD9351654 Si02
#       6
#     8   8   8   8   8   8
#     4  10  20  35  55  79 108 140 175 214 260 315
#     4   8  16  32  52  74 101 132 167 208 252 303
#     4   8  16  32  52  74 101 132 167 208 252 303
#     4  11  21  34  54  78 105 137 175 219 264 310
#     4  10  20  35  55  79 108 140 175 214 260 315
#     4  11  21  34  54  78 105 137 175 219 264 310
#
# _framework density 17.416616000000001
#
# number of rings (size 3 to 8) (size 9 to 14) (size 15 to 20)
#    0.000    2.333    0.000    6.000    0.000    7.333 
#    0.000    1.667    0.000    8.000    0.000    0.000 
#    0.000    0.000    0.000    0.000    0.000    0.000 
#
# Total GULP energy -133834.047217 kJ/mol
# GULP energy per Si atom -5576.418634 kJ/mol
# Density = 1.737698 g / cm^3
# Si number density = 17.416616 Si / 1000 Ang^3
#
#
#
# Elastic Constant Matrix: (Units=GPa)
#
#
# Indices 1 2 3 4 5 6 
#
# 1 105.1041 51.9718 48.1076 0.0000 0.0000 0.0000
# 2 51.9718 141.4405 36.4193 0.0000 0.0000 0.0000
# 3 48.1076 36.4193 73.9824 0.0000 0.0000 0.0000
# 4 0.0000 0.0000 0.0000 15.0747 0.0000 0.0000
# 5 0.0000 0.0000 0.0000 0.0000 26.7640 0.0000
# 6 0.0000 0.0000 0.0000 0.0000 0.0000 29.0105
#
#
#
# Elastic Compliance Matrix: (Units=1/GPa)
#
#
# Indices 1 2 3 4 5 6 
#
# 1 0.014850 -0.003401 -0.007982 0.000000 0.000000 0.000000
# 2 -0.003401 0.008875 -0.002157 0.000000 0.000000 0.000000
# 3 -0.007982 -0.002157 0.019769 0.000000 0.000000 0.000000
# 4 0.000000 0.000000 0.000000 0.066336 0.000000 0.000000
# 5 0.000000 0.000000 0.000000 0.000000 0.037364 0.000000
# 6 0.000000 0.000000 0.000000 0.000000 0.000000 0.034470
#
#
# Mechanical properties :
#
#
# Convention : Reuss Voigt Hill
#
# Bulk Modulus (GPa) = 60.92670 65.94717 63.43693
# Shear Modulus (GPa) = 23.34097 26.43841 24.88969
#
# Velocity S-wave (km/s) = 3.66478 3.90038 3.78442
# Velocity P-wave (km/s) = 7.27773 7.63090 7.45641
#
# Compressibility (1/GPa) = 0.01641317
#
# Stress axis : x y z
#
# Youngs Moduli (GPa) = 67.34216 112.67114 50.58450
#
# Poissons Ratio (x) = 0.38322 0.40375
# Poissons Ratio (y) = 0.22905 0.10913
# Poissons Ratio (z) = 0.53750 0.24308
#
# Static dielectric constant tensor:
#      x y z
#    x 1.577410 0.000000 0.000000 
#    y 0.000000 1.614730 0.000000 
#    z 0.000000 0.000000 1.582110 
# 
# From -- ./inp_files/10407.got.cif
#   From: 2010.05.17/outbox.cif.g08.bks.cpg/sg36_6_cif.got.tgz:10407.got - 2010.06.03 17:41:39.
