data_PCOD9351068
_publ_section_title
;
Structure prediction by ZEFSAII (Michael W. Deem and Ramdas Pophale) SiO2 
 PCOD9351068
Probable space group: C M C 21
;
_chemical_formula_sum "Si O2"
_cell_formula_units_Z 64
_cell_length_a 7.633760
_cell_length_b 30.679993
_cell_length_c 12.480069
_cell_angle_alpha 90.000000
_cell_angle_beta 90.000000
_cell_angle_gamma 90.000000
_cell_volume 2922.878378
_symmetry_space_group_name_H-M "C M C 21"
_symmetry_group_IT_number 36
_symmetry_cell_setting 'orthorhombic'
loop_
_space_group_symop_operation_xyz
x,y,z
-x,-y,1/2+z
x,-y,1/2+z
-x,y,z
1/2+x,1/2+y,z
1/2-x,1/2-y,1/2+z
1/2+x,1/2-y,1/2+z
1/2-x,1/2+y,z
loop_
_atom_site_type_symbol
_atom_site_label
_atom_site_fract_x
_atom_site_fract_y
_atom_site_fract_z
Si Si1 0.785177 0.431201 0.270690
Si Si2 0.712085 0.675134 0.269962
Si Si3 0.702197 0.862735 0.436285
Si Si4 0.208541 0.088095 0.151457
Si Si5 0.291477 0.276185 0.558819
Si Si6 0.301011 0.182701 0.506210
Si Si7 0.714678 0.915303 0.028500
Si Si8 0.291670 0.024481 0.332355
O O1 0.721911 0.388316 0.334177
O O2 0.736962 0.432694 0.145848
O O3 0.724917 0.475058 0.330424
O O4 0.000000 0.430691 0.273951
O O5 0.500000 0.677899 0.281476
O O6 0.757175 0.626150 0.235390
O O7 0.769619 0.704555 0.171219
O O8 0.802519 0.687533 0.378634
O O9 0.500000 0.855422 0.413030
O O10 0.717484 0.896090 0.537549
O O11 0.768075 0.815247 0.472986
O O12 0.262111 0.044762 0.213946
O O13 0.000000 0.088496 0.138315
O O14 0.500000 0.270700 0.565066
O O15 0.216188 0.227971 0.543043
O O16 0.500000 0.180203 0.549685
O O17 0.221925 0.134865 0.523992
O O18 0.500000 0.914277 0.021842
O O19 0.777320 0.944737 0.928420
O O20 0.500000 0.022369 0.348424
#
# Coordination Sequence:
#
# PCOD9351068 Si02
#       8
#     8   8   8   8   8   8   8   8
#     4   9  20  34  54  85 116 145 181 230 281 327
#     4   9  18  33  51  73 103 138 178 225 273 318
#     4  10  20  35  57  83 109 144 192 234 273 329
#     4  10  20  35  55  78 109 145 180 230 284 329
#     4   9  20  36  53  77 110 148 183 225 285 336
#     4  10  19  33  55  79 106 143 183 222 272 333
#     4   9  18  33  53  82 115 143 178 228 281 328
#     4  10  19  33  58  85 108 140 185 230 271 328
#
# _framework density 21.896225999999999
#
# number of rings (size 3 to 8) (size 9 to 14) (size 15 to 20)
#    0.000    2.500    1.250    1.500    1.750    3.500 
#    0.000    3.750    0.000    3.750    0.000    0.000 
#    0.000    0.000    0.000    0.000    0.000    0.000 
#
# Total GULP energy -178450.695999 kJ/mol
# GULP energy per Si atom -5576.584250 kJ/mol
# Density = 2.184639 g / cm^3
# Si number density = 21.896226 Si / 1000 Ang^3
#
#
#
# Elastic Constant Matrix: (Units=GPa)
#
#
# Indices 1 2 3 4 5 6 
#
# 1 37.7399 4.0245 -7.6174 0.0000 0.0000 0.0000
# 2 4.0245 140.0095 38.1519 0.0000 0.0000 0.0000
# 3 -7.6174 38.1519 60.9920 0.0000 0.0000 0.0000
# 4 0.0000 0.0000 0.0000 9.2086 0.0000 0.0000
# 5 0.0000 0.0000 0.0000 0.0000 -1.9242 0.0000
# 6 0.0000 0.0000 0.0000 0.0000 0.0000 17.6529
#
#
#
# Elastic Compliance Matrix: (Units=1/GPa)
#
#
# Indices 1 2 3 4 5 6 
#
# 1 0.027683 -0.002095 0.004768 0.000000 0.000000 0.000000
# 2 -0.002095 0.008768 -0.005747 0.000000 0.000000 0.000000
# 3 0.004768 -0.005747 0.020586 0.000000 0.000000 0.000000
# 4 0.000000 0.000000 0.000000 0.108594 0.000000 0.000000
# 5 0.000000 0.000000 0.000000 0.000000 -0.519697 0.000000
# 6 0.000000 0.000000 0.000000 0.000000 0.000000 0.056648
#
#
# Mechanical properties :
#
#
# Convention : Reuss Voigt Hill
#
# Bulk Modulus (GPa) = 19.65033 34.20658 26.92846
# Shear Modulus (GPa) = -18.22770 18.59963 0.18597
#
# Velocity S-wave (km/s) = -2.88837 2.91769 0.29174
# Velocity P-wave (km/s) = 1.45937 5.19678 3.52681
#
# Compressibility (1/GPa) = 0.05088973
#
# Stress axis : x y z
#
# Youngs Moduli (GPa) = 36.12337 114.04472 48.57757
#
# Poissons Ratio (x) = 0.23892 -0.23161
# Poissons Ratio (y) = 0.07568 0.27915
# Poissons Ratio (z) = -0.17223 0.65536
#
# Static dielectric constant tensor:
#      x y z
#    x 1.831190 0.000000 0.000000 
#    y 0.000000 1.842500 0.000000 
#    z 0.000000 0.000000 1.781790 
# 
# From -- ./inp_files/7227.got.cif
#   From: 2010.05.17/outbox.cif.g08.bks.cpg/sg36_4_cif.got.tgz:7227.got - 2010.06.03 17:41:39.
