data_PCOD9351695
_publ_section_title
;
Structure prediction by ZEFSAII (Michael W. Deem and Ramdas Pophale) SiO2 
 PCOD9351695
Probable space group: C M C 21
;
_chemical_formula_sum "Si O2"
_cell_formula_units_Z 40
_cell_length_a 7.599753
_cell_length_b 28.807297
_cell_length_c 8.325041
_cell_angle_alpha 90.000000
_cell_angle_beta 90.000000
_cell_angle_gamma 90.000000
_cell_volume 1822.587422
_symmetry_space_group_name_H-M "C M C 21"
_symmetry_group_IT_number 36
_symmetry_cell_setting 'orthorhombic'
loop_
_space_group_symop_operation_xyz
x,y,z
-x,-y,1/2+z
x,-y,1/2+z
-x,y,z
1/2+x,1/2+y,z
1/2-x,1/2-y,1/2+z
1/2+x,1/2-y,1/2+z
1/2-x,1/2+y,z
loop_
_atom_site_type_symbol
_atom_site_label
_atom_site_fract_x
_atom_site_fract_y
_atom_site_fract_z
Si Si1 0.299647 0.410188 0.014500
Si Si2 0.500000 0.069312 0.038161
Si Si3 0.701395 0.866112 0.338570
Si Si4 0.286319 0.779676 0.527225
Si Si5 0.000000 0.472956 0.892467
Si Si6 0.292158 0.685869 0.382102
O O1 0.500000 0.420490 0.965303
O O2 0.298072 0.393255 0.199008
O O3 0.171010 0.452618 0.981713
O O4 0.224483 0.365361 0.918623
O O5 0.500000 0.046413 0.211455
O O6 0.333214 0.102150 0.996547
O O7 0.500000 0.028221 0.907161
O O8 0.500000 0.858824 0.278080
O O9 0.775955 0.816860 0.394090
O O10 0.500000 0.780023 0.519340
O O11 0.221678 0.727872 0.491275
O O12 0.233487 0.797897 0.700708
O O13 0.500000 0.682458 0.416910
#
# Coordination Sequence:
#
# PCOD9351695 Si02
#       6
#     8   4   8   8   4   8
#     4  11  23  39  63  93 126 165 208 254 317 373
#     4  10  22  40  70  96 120 166 210 256 323 368
#     4   9  19  38  61  91 116 160 205 250 313 368
#     4  10  20  35  57  83 118 161 211 251 313 369
#     4  12  22  44  68  90 132 160 206 268 307 380
#     4  10  22  35  51  86 121 158 208 257 305 373
#
# _framework density 21.946822000000001
#
# number of rings (size 3 to 8) (size 9 to 14) (size 15 to 20)
#    0.600    1.200    1.000    3.600    1.400    1.600 
#    0.000    5.000    0.000    0.000    0.000    0.000 
#    0.000    0.000    0.000    0.000    0.000    0.000 
#
# Total GULP energy -111705.205129 kJ/mol
# GULP energy per Si atom -5585.260256 kJ/mol
# Density = 2.189687 g / cm^3
# Si number density = 21.946822 Si / 1000 Ang^3
#
#
#
# Elastic Constant Matrix: (Units=GPa)
#
#
# Indices 1 2 3 4 5 6 
#
# 1 67.9180 14.5217 -7.7657 0.0000 0.0000 0.0000
# 2 14.5217 74.6973 -18.5150 0.0000 0.0000 0.0000
# 3 -7.7657 -18.5150 59.3619 0.0000 0.0000 0.0000
# 4 0.0000 0.0000 0.0000 41.5043 0.0000 0.0000
# 5 0.0000 0.0000 0.0000 0.0000 21.7241 0.0000
# 6 0.0000 0.0000 0.0000 0.0000 0.0000 -20.6115
#
#
#
# Elastic Compliance Matrix: (Units=1/GPa)
#
#
# Indices 1 2 3 4 5 6 
#
# 1 0.015437 -0.002710 0.001174 0.000000 0.000000 0.000000
# 2 -0.002710 0.014985 0.004319 0.000000 0.000000 0.000000
# 3 0.001174 0.004319 0.018347 0.000000 0.000000 0.000000
# 4 0.000000 0.000000 0.000000 0.024094 0.000000 0.000000
# 5 0.000000 0.000000 0.000000 0.000000 0.046032 0.000000
# 6 0.000000 0.000000 0.000000 0.000000 0.000000 -0.048516
#
#
# Mechanical properties :
#
#
# Convention : Reuss Voigt Hill
#
# Bulk Modulus (GPa) = 18.40414 19.82879 19.11646
# Shear Modulus (GPa) = 60.29679 22.77244 41.53461
#
# Velocity S-wave (km/s) = 5.24725 3.22470 4.35502
# Velocity P-wave (km/s) = 6.71681 4.78743 5.83245
#
# Compressibility (1/GPa) = 0.05433560
#
# Stress axis : x y z
#
# Youngs Moduli (GPa) = 64.77798 66.73416 54.50597
#
# Poissons Ratio (x) = 0.18085 -0.06400
# Poissons Ratio (y) = 0.17555 -0.23542
# Poissons Ratio (z) = -0.07606 -0.28824
#
# Static dielectric constant tensor:
#      x y z
#    x 1.800500 0.000000 0.000000 
#    y 0.000000 1.795220 0.000000 
#    z 0.000000 0.000000 1.805610 
# 
# From -- ./inp_files/2572.got.cif
#   From: 2010.05.17/outbox.cif.g08.bks.cpg/sg36_2_cif.got.tgz:2572.got - 2010.06.03 17:41:39.
