data_PCOD9351638
_publ_section_title
;
Structure prediction by ZEFSAII (Michael W. Deem and Ramdas Pophale) SiO2 
 PCOD9351638
Probable space group: C M C 21
;
_chemical_formula_sum "Si O2"
_cell_formula_units_Z 64
_cell_length_a 8.971345
_cell_length_b 14.396474
_cell_length_c 26.207418
_cell_angle_alpha 90.000000
_cell_angle_beta 90.000000
_cell_angle_gamma 90.000000
_cell_volume 3384.838335
_symmetry_space_group_name_H-M "C M C 21"
_symmetry_group_IT_number 36
_symmetry_cell_setting 'orthorhombic'
loop_
_space_group_symop_operation_xyz
x,y,z
-x,-y,1/2+z
x,-y,1/2+z
-x,y,z
1/2+x,1/2+y,z
1/2-x,1/2-y,1/2+z
1/2+x,1/2-y,1/2+z
1/2-x,1/2+y,z
loop_
_atom_site_type_symbol
_atom_site_label
_atom_site_fract_x
_atom_site_fract_y
_atom_site_fract_z
Si Si1 0.328668 0.177958 0.007200
Si Si2 0.178339 0.993534 0.982696
Si Si3 0.823818 0.650583 0.549731
Si Si4 0.321109 0.529976 0.790462
Si Si5 0.822124 0.114788 0.380826
Si Si6 0.327858 0.785356 0.620258
Si Si7 0.678765 0.116756 0.222861
Si Si8 0.678608 0.261167 0.313747
O O1 0.500000 0.197129 0.992172
O O2 0.229834 0.270749 0.008846
O O3 0.329845 0.154582 0.068102
O O4 0.255374 0.093372 0.977994
O O5 0.220164 0.929217 0.934732
O O6 0.000000 0.003220 0.984337
O O7 0.238612 0.941534 0.032839
O O8 0.766892 0.695698 0.602863
O O9 0.000000 0.638381 0.549179
O O10 0.500000 0.532360 0.784660
O O11 0.285608 0.463266 0.838305
O O12 0.251394 0.478792 0.741662
O O13 0.269346 0.634376 0.802284
O O14 0.747085 0.210146 0.362848
O O15 0.000000 0.128122 0.380730
O O16 0.500000 0.757291 0.630212
O O17 0.272158 0.843117 0.668295
O O18 0.500000 0.105142 0.221418
O O19 0.713617 0.195215 0.265366
O O20 0.500000 0.263558 0.319607
#
# Coordination Sequence:
#
# PCOD9351638 Si02
#       8
#     8   8   8   8   8   8   8   8
#     4   9  19  36  54  75 106 141 176 221 263 310
#     4  11  21  35  54  78 106 143 183 222 267 318
#     4  10  20  35  54  76 104 139 179 222 267 314
#     4   9  18  34  52  76 106 133 170 218 258 309
#     4   9  20  35  52  74 105 137 169 215 266 309
#     4   8  17  35  54  73 108 143 172 218 264 310
#     4   9  17  33  54  76 105 139 171 208 258 311
#     4   9  18  33  54  78 104 135 172 212 259 313
#
# _framework density 18.907844999999998
#
# number of rings (size 3 to 8) (size 9 to 14) (size 15 to 20)
#    0.750    2.000    0.000    1.500    0.000    3.000 
#    2.250    1.250    0.000    0.000    0.000    0.000 
#    0.000    0.000    0.000    0.000    0.000    0.000 
#
# Total GULP energy -178225.196248 kJ/mol
# GULP energy per Si atom -5569.537383 kJ/mol
# Density = 1.886481 g / cm^3
# Si number density = 18.907845 Si / 1000 Ang^3
#
#
#
# Elastic Constant Matrix: (Units=GPa)
#
#
# Indices 1 2 3 4 5 6 
#
# 1 35.6520 4.9322 5.6210 0.0000 0.0000 0.0000
# 2 4.9322 62.2581 -14.0391 0.0000 0.0000 0.0000
# 3 5.6210 -14.0391 24.6065 0.0000 0.0000 0.0000
# 4 0.0000 0.0000 0.0000 12.8085 0.0000 0.0000
# 5 0.0000 0.0000 0.0000 0.0000 21.2142 0.0000
# 6 0.0000 0.0000 0.0000 0.0000 0.0000 24.1102
#
#
#
# Elastic Compliance Matrix: (Units=1/GPa)
#
#
# Indices 1 2 3 4 5 6 
#
# 1 0.030169 -0.004526 -0.009474 0.000000 0.000000 0.000000
# 2 -0.004526 0.019113 0.011939 0.000000 0.000000 0.000000
# 3 -0.009474 0.011939 0.049616 0.000000 0.000000 0.000000
# 4 0.000000 0.000000 0.000000 0.078073 0.000000 0.000000
# 5 0.000000 0.000000 0.000000 0.000000 0.047138 0.000000
# 6 0.000000 0.000000 0.000000 0.000000 0.000000 0.041476
#
#
# Mechanical properties :
#
#
# Convention : Reuss Voigt Hill
#
# Bulk Modulus (GPa) = 10.55146 12.83832 11.69489
# Shear Modulus (GPa) = 16.59474 20.02674 18.31074
#
# Velocity S-wave (km/s) = 2.96575 3.25803 3.11532
# Velocity P-wave (km/s) = 4.16175 4.57796 4.37481
#
# Compressibility (1/GPa) = 0.09477359
#
# Stress axis : x y z
#
# Youngs Moduli (GPa) = 33.14672 52.32060 20.15497
#
# Poissons Ratio (x) = 0.23683 0.19095
# Poissons Ratio (y) = 0.15004 -0.24063
# Poissons Ratio (z) = 0.31404 -0.62465
#
# Static dielectric constant tensor:
#      x y z
#    x 1.632920 0.000000 0.000000 
#    y 0.000000 1.665410 0.000000 
#    z 0.000000 0.000000 1.682500 
# 
# From -- ./inp_files/17353.got.cif
#   From: 2010.05.17/outbox.cif.g08.bks.cpg/sg36_9_cif.got.tgz:17353.got - 2010.06.03 17:41:39.
