data_PCOD9351451
_publ_section_title
;
Structure prediction by ZEFSAII (Michael W. Deem and Ramdas Pophale) SiO2 
 PCOD9351451
Probable space group: C M C 21
;
_chemical_formula_sum "Si O2"
_cell_formula_units_Z 64
_cell_length_a 23.233917
_cell_length_b 16.687903
_cell_length_c 9.307495
_cell_angle_alpha 90.000000
_cell_angle_beta 90.000000
_cell_angle_gamma 90.000000
_cell_volume 3608.751786
_symmetry_space_group_name_H-M "C M C 21"
_symmetry_group_IT_number 36
_symmetry_cell_setting 'orthorhombic'
loop_
_space_group_symop_operation_xyz
x,y,z
-x,-y,1/2+z
x,-y,1/2+z
-x,y,z
1/2+x,1/2+y,z
1/2-x,1/2-y,1/2+z
1/2+x,1/2-y,1/2+z
1/2-x,1/2+y,z
loop_
_atom_site_type_symbol
_atom_site_label
_atom_site_fract_x
_atom_site_fract_y
_atom_site_fract_z
Si Si1 0.434542 0.951149 0.872680
Si Si2 0.741445 0.462746 0.481172
Si Si3 0.815329 0.190069 0.080150
Si Si4 0.386798 0.834655 0.115632
Si Si5 0.732654 0.237548 0.306155
Si Si6 0.435065 0.139185 0.927412
Si Si7 0.847486 0.616366 0.152941
Si Si8 0.741979 0.099879 0.672380
O O1 0.500000 0.937282 0.821966
O O2 0.389124 0.940108 0.745013
O O3 0.431455 0.042024 0.927610
O O4 0.418914 0.888265 0.997759
O O5 0.690898 0.401619 0.530548
O O6 0.798702 0.429529 0.562208
O O7 0.753043 0.456805 0.312401
O O8 0.733917 0.552319 0.537061
O O9 0.872453 0.243417 0.067420
O O10 0.791178 0.201184 0.241213
O O11 0.770820 0.235556 0.970698
O O12 0.420019 0.834890 0.266103
O O13 0.324081 0.874955 0.144651
O O14 0.684032 0.174528 0.264998
O O15 0.724737 0.320696 0.220556
O O16 0.500000 0.162650 0.965354
O O17 0.387040 0.164987 0.041161
#
# Coordination Sequence:
#
# PCOD9351451 Si02
#       8
#     8   8   8   8   8   8   8   8
#     4  11  22  34  49  68  93 129 170 205 236 270
#     4  10  20  32  49  73  98 125 158 194 236 288
#     4   9  19  33  48  69  95 125 161 196 233 285
#     4  11  20  34  50  67  97 134 163 196 238 280
#     4   9  19  33  48  69  95 125 161 196 233 285
#     4  11  22  34  47  70  99 127 166 207 234 270
#     4  11  20  34  50  67  97 134 163 196 238 280
#     4  10  20  32  49  73  98 125 158 194 236 288
#
# _framework density 17.734663999999999
#
# number of rings (size 3 to 8) (size 9 to 14) (size 15 to 20)
#    0.000    1.750    2.500    3.000    3.500    3.000 
#    0.000    0.000    0.000    0.000    0.000    0.000 
#    0.000    6.000    0.000    0.000    0.000    0.000 
#
# Total GULP energy -178600.385958 kJ/mol
# GULP energy per Si atom -5581.262061 kJ/mol
# Density = 1.769430 g / cm^3
# Si number density = 17.734664 Si / 1000 Ang^3
#
#
#
# Elastic Constant Matrix: (Units=GPa)
#
#
# Indices 1 2 3 4 5 6 
#
# 1 40.7337 15.9128 -5.2955 0.0000 0.0000 0.0000
# 2 15.9128 27.9155 -3.0957 0.0000 0.0000 0.0000
# 3 -5.2955 -3.0957 44.7543 0.0000 0.0000 0.0000
# 4 0.0000 0.0000 0.0000 27.9981 0.0000 0.0000
# 5 0.0000 0.0000 0.0000 0.0000 15.8291 0.0000
# 6 0.0000 0.0000 0.0000 0.0000 0.0000 15.3592
#
#
#
# Elastic Compliance Matrix: (Units=1/GPa)
#
#
# Indices 1 2 3 4 5 6 
#
# 1 0.031865 -0.017883 0.002533 0.000000 0.000000 0.000000
# 2 -0.017883 0.046136 0.001075 0.000000 0.000000 0.000000
# 3 0.002533 0.001075 0.022718 0.000000 0.000000 0.000000
# 4 0.000000 0.000000 0.000000 0.035717 0.000000 0.000000
# 5 0.000000 0.000000 0.000000 0.000000 0.063175 0.000000
# 6 0.000000 0.000000 0.000000 0.000000 0.000000 0.065108
#
#
# Mechanical properties :
#
#
# Convention : Reuss Voigt Hill
#
# Bulk Modulus (GPa) = 13.85618 14.27186 14.06402
# Shear Modulus (GPa) = 15.75671 18.89605 17.32638
#
# Velocity S-wave (km/s) = 2.98395 3.26772 3.12906
# Velocity P-wave (km/s) = 4.43869 4.72252 4.58281
#
# Compressibility (1/GPa) = 0.07216995
#
# Stress axis : x y z
#
# Youngs Moduli (GPa) = 31.38213 21.67513 44.01722
#
# Poissons Ratio (x) = 0.38762 -0.11151
# Poissons Ratio (y) = 0.56122 -0.04733
# Poissons Ratio (z) = -0.07950 -0.02331
#
# Static dielectric constant tensor:
#      x y z
#    x 1.600070 0.000000 0.000000 
#    y 0.000000 1.638360 0.000000 
#    z 0.000000 0.000000 1.646080 
# 
# From -- ./inp_files/5338.got.cif
#   From: 2010.05.17/outbox.cif.g08.bks.cpg/sg36_3_cif.got.tgz:5338.got - 2010.06.03 17:41:39.
