data_PCOD9351651
_publ_section_title
;
Structure prediction by ZEFSAII (Michael W. Deem and Ramdas Pophale) SiO2 
 PCOD9351651
Probable space group: C M C 21
;
_chemical_formula_sum "Si O2"
_cell_formula_units_Z 64
_cell_length_a 12.375787
_cell_length_b 8.330576
_cell_length_c 32.801727
_cell_angle_alpha 90.000000
_cell_angle_beta 90.000000
_cell_angle_gamma 90.000000
_cell_volume 3381.773890
_symmetry_space_group_name_H-M "C M C 21"
_symmetry_group_IT_number 36
_symmetry_cell_setting 'orthorhombic'
loop_
_space_group_symop_operation_xyz
x,y,z
-x,-y,1/2+z
x,-y,1/2+z
-x,y,z
1/2+x,1/2+y,z
1/2-x,1/2-y,1/2+z
1/2+x,1/2-y,1/2+z
1/2-x,1/2+y,z
loop_
_atom_site_type_symbol
_atom_site_label
_atom_site_fract_x
_atom_site_fract_y
_atom_site_fract_z
Si Si1 0.879488 0.854909 0.259010
Si Si2 0.379399 0.492307 0.911821
Si Si3 0.193898 0.694089 0.554868
Si Si4 0.620512 0.354909 0.161786
Si Si5 0.693898 0.194088 0.865927
Si Si6 0.193859 0.556522 0.115910
Si Si7 0.306141 0.056523 0.304885
Si Si8 0.120602 0.007693 0.008975
O O1 0.866405 0.861371 0.210398
O O2 0.870675 0.670941 0.274369
O O3 0.000000 0.915364 0.269643
O O4 0.786469 0.959671 0.280404
O O5 0.500000 0.552446 0.901237
O O6 0.370515 0.308100 0.896605
O O7 0.286602 0.597086 0.890299
O O8 0.366075 0.500000 0.960398
O O9 0.135847 0.568831 0.585397
O O10 0.249853 0.818933 0.585386
O O11 0.286602 0.597086 0.530496
O O12 0.129485 0.808100 0.524191
O O13 0.500000 0.415363 0.151152
O O14 0.713531 0.459670 0.140392
O O15 0.629325 0.170940 0.146427
O O16 0.749852 0.318933 0.835409
O O17 0.635847 0.068830 0.835398
O O18 0.000000 0.947554 0.019558
#
# Coordination Sequence:
#
# PCOD9351651 Si02
#       8
#     8   8   8   8   8   8   8   8
#     4  10  20  35  55  77 104 137 170 210 258 305
#     4  10  20  35  55  77 104 138 173 213 260 307
#     4   9  19  34  53  77 104 135 171 213 255 302
#     4  10  20  35  55  77 104 137 170 210 258 305
#     4   9  19  34  53  77 104 135 171 213 255 302
#     4   9  19  34  53  77 104 135 171 212 254 303
#     4   9  19  34  53  77 104 135 171 212 254 303
#     4  10  20  35  55  77 104 138 173 213 260 307
#
# _framework density 18.924979
#
# number of rings (size 3 to 8) (size 9 to 14) (size 15 to 20)
#    0.000    2.500    0.000    1.500    0.000   10.000 
#    0.000    7.500    0.000   27.000    0.000    0.000 
#    0.000    0.000    0.000    0.000    0.000    0.000 
#
# Total GULP energy -178185.334863 kJ/mol
# GULP energy per Si atom -5568.291714 kJ/mol
# Density = 1.888190 g / cm^3
# Si number density = 18.924979 Si / 1000 Ang^3
#
#
#
# Elastic Constant Matrix: (Units=GPa)
#
#
# Indices 1 2 3 4 5 6 
#
# 1 82.1515 18.9878 38.6567 0.0000 0.0000 0.0000
# 2 18.9878 77.7295 28.5257 0.0000 0.0000 0.0000
# 3 38.6567 28.5257 82.3462 0.0000 0.0000 0.0000
# 4 0.0000 0.0000 0.0000 34.0654 0.0000 0.0000
# 5 0.0000 0.0000 0.0000 0.0000 -31.1072 0.0000
# 6 0.0000 0.0000 0.0000 0.0000 0.0000 23.3752
#
#
#
# Elastic Compliance Matrix: (Units=1/GPa)
#
#
# Indices 1 2 3 4 5 6 
#
# 1 0.015737 -0.001298 -0.006938 0.000000 0.000000 0.000000
# 2 -0.001298 0.014846 -0.004533 0.000000 0.000000 0.000000
# 3 -0.006938 -0.004533 0.016971 0.000000 0.000000 0.000000
# 4 0.000000 0.000000 0.000000 0.029355 0.000000 0.000000
# 5 0.000000 0.000000 0.000000 0.000000 -0.032147 0.000000
# 6 0.000000 0.000000 0.000000 0.000000 0.000000 0.042780
#
#
# Mechanical properties :
#
#
# Convention : Reuss Voigt Hill
#
# Bulk Modulus (GPa) = 45.42285 46.06308 45.74296
# Shear Modulus (GPa) = 41.52094 15.67048 28.59571
#
# Velocity S-wave (km/s) = 4.68907 2.88068 3.89138
# Velocity P-wave (km/s) = 7.30549 5.95458 6.66435
#
# Compressibility (1/GPa) = 0.02201535
#
# Stress axis : x y z
#
# Youngs Moduli (GPa) = 63.54278 67.35847 58.92302
#
# Poissons Ratio (x) = 0.08744 0.40881
# Poissons Ratio (y) = 0.08249 0.26712
# Poissons Ratio (z) = 0.44087 0.30536
#
# Static dielectric constant tensor:
#      x y z
#    x 1.682060 0.000000 0.000000 
#    y 0.000000 1.678000 0.000000 
#    z 0.000000 0.000000 1.657430 
# 
# From -- ./inp_files/17391.got.cif
#   From: 2010.05.17/outbox.cif.g08.bks.cpg/sg36_9_cif.got.tgz:17391.got - 2010.06.03 17:41:39.
