data_PCOD9351612
_publ_section_title
;
Structure prediction by ZEFSAII (Michael W. Deem and Ramdas Pophale) SiO2 
 PCOD9351612
Probable space group: C M C 21
;
_chemical_formula_sum "Si O2"
_cell_formula_units_Z 56
_cell_length_a 16.616539
_cell_length_b 32.467792
_cell_length_c 4.995707
_cell_angle_alpha 90.000000
_cell_angle_beta 90.000000
_cell_angle_gamma 90.000000
_cell_volume 2695.195577
_symmetry_space_group_name_H-M "C M C 21"
_symmetry_group_IT_number 36
_symmetry_cell_setting 'orthorhombic'
loop_
_space_group_symop_operation_xyz
x,y,z
-x,-y,1/2+z
x,-y,1/2+z
-x,y,z
1/2+x,1/2+y,z
1/2-x,1/2-y,1/2+z
1/2+x,1/2-y,1/2+z
1/2-x,1/2+y,z
loop_
_atom_site_type_symbol
_atom_site_label
_atom_site_fract_x
_atom_site_fract_y
_atom_site_fract_z
Si Si1 0.258589 0.473635 0.517220
Si Si2 0.908228 0.360046 0.832235
Si Si3 0.843016 0.219439 0.383931
Si Si4 0.318304 0.109469 0.819148
Si Si5 0.591508 0.579729 0.083544
Si Si6 0.355794 0.369677 0.096264
Si Si7 0.850427 0.728383 0.382505
O O1 0.245530 0.511645 0.318495
O O2 0.203554 0.435694 0.426698
O O3 0.349885 0.456871 0.491200
O O4 0.851967 0.365681 0.572977
O O5 0.896865 0.313530 0.937881
O O6 0.000000 0.367803 0.756827
O O7 0.879818 0.389259 0.073346
O O8 0.874061 0.175413 0.481724
O O9 0.869503 0.254559 0.590211
O O10 0.745235 0.218463 0.395580
O O11 0.866348 0.234915 0.091089
O O12 0.236066 0.128768 0.701389
O O13 0.500000 0.567156 0.132252
O O14 0.630017 0.598982 0.351526
O O15 0.594670 0.614187 0.850508
#
# Coordination Sequence:
#
# PCOD9351612 Si02
#       7
#     8   8   8   8   8   8   8
#     4  11  23  41  68  97 121 158 201 254 310 368
#     4  12  24  41  64  93 130 167 210 270 330 374
#     4  10  20  34  58  86 119 160 214 265 309 352
#     4  11  23  41  67  93 124 162 215 261 308 384
#     4  11  24  40  61  95 133 168 208 253 311 378
#     4  11  21  39  65  89 123 175 222 261 300 363
#     4  10  21  34  56  89 119 158 208 272 314 363
#
# _framework density 20.777712000000001
#
# number of rings (size 3 to 8) (size 9 to 14) (size 15 to 20)
#    0.000    1.143    1.429    6.857    4.000    0.571 
#    0.000    4.286    0.000    8.571    0.000    0.000 
#    0.000    0.000    0.000    0.000    0.000    0.000 
#
# Total GULP energy -156582.209743 kJ/mol
# GULP energy per Si atom -5592.221777 kJ/mol
# Density = 2.073042 g / cm^3
# Si number density = 20.777712 Si / 1000 Ang^3
#
#
#
# Elastic Constant Matrix: (Units=GPa)
#
#
# Indices 1 2 3 4 5 6 
#
# 1 60.5566 18.1625 20.1195 0.0000 0.0000 0.0000
# 2 18.1625 56.5395 5.1225 0.0000 0.0000 0.0000
# 3 20.1195 5.1225 101.6939 0.0000 0.0000 0.0000
# 4 0.0000 0.0000 0.0000 39.5658 0.0000 0.0000
# 5 0.0000 0.0000 0.0000 0.0000 -36.1555 0.0000
# 6 0.0000 0.0000 0.0000 0.0000 0.0000 20.1244
#
#
#
# Elastic Compliance Matrix: (Units=1/GPa)
#
#
# Indices 1 2 3 4 5 6 
#
# 1 0.019474 -0.005934 -0.003554 0.000000 0.000000 0.000000
# 2 -0.005934 0.019576 0.000188 0.000000 0.000000 0.000000
# 3 -0.003554 0.000188 0.010527 0.000000 0.000000 0.000000
# 4 0.000000 0.000000 0.000000 0.025274 0.000000 0.000000
# 5 0.000000 0.000000 0.000000 0.000000 -0.027658 0.000000
# 6 0.000000 0.000000 0.000000 0.000000 0.000000 0.049691
#
#
# Mechanical properties :
#
#
# Convention : Reuss Voigt Hill
#
# Bulk Modulus (GPa) = 32.28166 33.95546 33.11856
# Shear Modulus (GPa) = 39.74275 16.39930 28.07103
#
# Velocity S-wave (km/s) = 4.37825 2.81245 3.67960
# Velocity P-wave (km/s) = 6.41321 5.18886 5.83324
#
# Compressibility (1/GPa) = 0.03097734
#
# Stress axis : x y z
#
# Youngs Moduli (GPa) = 51.35073 51.08332 94.99310
#
# Poissons Ratio (x) = 0.30312 0.33760
# Poissons Ratio (y) = 0.30470 -0.01785
# Poissons Ratio (z) = 0.18250 -0.00960
#
# Static dielectric constant tensor:
#      x y z
#    x 1.751890 0.000000 0.000000 
#    y 0.000000 1.733540 0.000000 
#    z 0.000000 0.000000 1.728330 
# 
# From -- ./inp_files/946.got.cif
#   From: 2010.05.17/outbox.cif.g08.bks.cpg/sg36_1_cif.got.tgz:946.got - 2010.06.03 17:41:39.
