data_PCOD9351011
_publ_section_title
;
Structure prediction by ZEFSAII (Michael W. Deem and Ramdas Pophale) SiO2 
 PCOD9351011
Probable space group: C M C 21
;
_chemical_formula_sum "Si O2"
_cell_formula_units_Z 64
_cell_length_a 8.672293
_cell_length_b 20.706694
_cell_length_c 20.286871
_cell_angle_alpha 90.000000
_cell_angle_beta 90.000000
_cell_angle_gamma 90.000000
_cell_volume 3643.005070
_symmetry_space_group_name_H-M "C M C 21"
_symmetry_group_IT_number 36
_symmetry_cell_setting 'orthorhombic'
loop_
_space_group_symop_operation_xyz
x,y,z
-x,-y,1/2+z
x,-y,1/2+z
-x,y,z
1/2+x,1/2+y,z
1/2-x,1/2-y,1/2+z
1/2+x,1/2-y,1/2+z
1/2-x,1/2+y,z
loop_
_atom_site_type_symbol
_atom_site_label
_atom_site_fract_x
_atom_site_fract_y
_atom_site_fract_z
Si Si1 0.185094 0.336475 0.643200
Si Si2 0.686086 0.666051 0.756274
Si Si3 0.313627 0.479877 0.270106
Si Si4 0.687049 0.418540 0.015781
Si Si5 0.185717 0.025948 0.123067
Si Si6 0.816628 0.585188 0.370562
Si Si7 0.313236 0.697391 0.605865
Si Si8 0.316321 0.301192 0.786754
O O1 0.244584 0.403285 0.614197
O O2 0.234201 0.272202 0.603348
O O3 0.250794 0.327477 0.717017
O O4 0.000000 0.336967 0.647382
O O5 0.500000 0.672275 0.759597
O O6 0.728973 0.594993 0.781091
O O7 0.729430 0.671704 0.678734
O O8 0.760743 0.727228 0.792035
O O9 0.500000 0.484617 0.274162
O O10 0.269281 0.499861 0.195549
O O11 0.240908 0.528757 0.321871
O O12 0.500000 0.417869 0.010877
O O13 0.730007 0.475579 0.066407
O O14 0.739414 0.351316 0.049551
O O15 0.757258 0.427048 0.944111
O O16 0.000000 0.030446 0.122941
O O17 0.747546 0.652183 0.343092
O O18 0.000000 0.588452 0.368818
O O19 0.500000 0.696094 0.604066
O O20 0.500000 0.304424 0.785238
#
# Coordination Sequence:
#
# PCOD9351011 Si02
#       8
#     8   8   8   8   8   8   8   8
#     4  10  19  32  55  85 115 144 180 234 286 330
#     4   9  17  33  58  87 114 140 178 231 285 336
#     4  10  19  35  60  87 115 149 188 234 287 346
#     4  10  20  38  60  81 109 152 195 235 286 349
#     4  10  19  33  58  87 114 147 190 233 280 344
#     4  12  25  39  55  81 116 155 196 241 287 342
#     4   8  15  31  55  81 107 139 180 223 275 334
#     4  11  21  35  55  81 112 148 189 233 282 339
#
# _framework density 17.567913000000001
#
# number of rings (size 3 to 8) (size 9 to 14) (size 15 to 20)
#    0.000    2.000    2.500    3.375    0.000    1.000 
#    0.000    4.375    0.000    3.000    0.000    0.000 
#    0.000    0.000    0.000    0.000    0.000    0.000 
#
# Total GULP energy -178595.315410 kJ/mol
# GULP energy per Si atom -5581.103607 kJ/mol
# Density = 1.752793 g / cm^3
# Si number density = 17.567913 Si / 1000 Ang^3
#
#
#
# Elastic Constant Matrix: (Units=GPa)
#
#
# Indices 1 2 3 4 5 6 
#
# 1 45.4418 52.0127 40.7605 0.0000 0.0000 0.0000
# 2 52.0127 167.2888 81.4440 0.0000 0.0000 0.0000
# 3 40.7605 81.4440 116.9643 0.0000 0.0000 0.0000
# 4 0.0000 0.0000 0.0000 26.0216 0.0000 0.0000
# 5 0.0000 0.0000 0.0000 0.0000 18.9813 0.0000
# 6 0.0000 0.0000 0.0000 0.0000 0.0000 30.0086
#
#
#
# Elastic Compliance Matrix: (Units=1/GPa)
#
#
# Indices 1 2 3 4 5 6 
#
# 1 0.038186 -0.008160 -0.007625 0.000000 0.000000 0.000000
# 2 -0.008160 0.010787 -0.004668 0.000000 0.000000 0.000000
# 3 -0.007625 -0.004668 0.014457 0.000000 0.000000 0.000000
# 4 0.000000 0.000000 0.000000 0.038430 0.000000 0.000000
# 5 0.000000 0.000000 0.000000 0.000000 0.052683 0.000000
# 6 0.000000 0.000000 0.000000 0.000000 0.000000 0.033324
#
#
# Mechanical properties :
#
#
# Convention : Reuss Voigt Hill
#
# Bulk Modulus (GPa) = 44.39673 75.34771 59.87222
# Shear Modulus (GPa) = 21.16121 25.36750 23.26436
#
# Velocity S-wave (km/s) = 3.47441 3.80408 3.64298
# Velocity P-wave (km/s) = 6.43597 7.89159 7.20066
#
# Compressibility (1/GPa) = 0.02252418
#
# Stress axis : x y z
#
# Youngs Moduli (GPa) = 26.18750 92.70204 69.17076
#
# Poissons Ratio (x) = 0.75648 0.52744
# Poissons Ratio (y) = 0.21370 0.32286
# Poissons Ratio (z) = 0.19968 0.43269
#
# Static dielectric constant tensor:
#      x y z
#    x 1.592310 0.000000 0.000000 
#    y 0.000000 1.610290 0.000000 
#    z 0.000000 0.000000 1.568740 
# 
# From -- ./inp_files/13921.got.cif
#   From: 2010.05.17/outbox.cif.g08.bks.cpg/sg36_7_cif.got.tgz:13921.got - 2010.06.03 17:41:39.
