data_PCOD9351038
_publ_section_title
;
Structure prediction by ZEFSAII (Michael W. Deem and Ramdas Pophale) SiO2 
 PCOD9351038
Probable space group: C M C 21
;
_chemical_formula_sum "Si O2"
_cell_formula_units_Z 64
_cell_length_a 21.338948
_cell_length_b 27.129164
_cell_length_c 5.409128
_cell_angle_alpha 90.000000
_cell_angle_beta 90.000000
_cell_angle_gamma 90.000000
_cell_volume 3131.386498
_symmetry_space_group_name_H-M "C M C 21"
_symmetry_group_IT_number 36
_symmetry_cell_setting 'orthorhombic'
loop_
_space_group_symop_operation_xyz
x,y,z
-x,-y,1/2+z
x,-y,1/2+z
-x,y,z
1/2+x,1/2+y,z
1/2-x,1/2-y,1/2+z
1/2+x,1/2-y,1/2+z
1/2-x,1/2+y,z
loop_
_atom_site_type_symbol
_atom_site_label
_atom_site_fract_x
_atom_site_fract_y
_atom_site_fract_z
Si Si1 0.231483 0.377656 0.274610
Si Si2 0.690809 0.016417 0.827862
Si Si3 0.071725 0.713826 0.024547
Si Si4 0.844282 0.122299 0.438404
Si Si5 0.809776 0.802230 0.570238
Si Si6 0.852068 0.695622 0.520955
Si Si7 0.430893 0.677597 0.735564
Si Si8 0.332794 0.477383 0.736432
O O1 0.200636 0.426013 0.387919
O O2 0.253028 0.333230 0.452535
O O3 0.186333 0.353588 0.072396
O O4 0.294715 0.395801 0.141132
O O5 0.659506 0.010227 0.559689
O O6 0.758855 0.990969 0.768946
O O7 0.112253 0.694992 0.259119
O O8 0.069335 0.772623 0.072585
O O9 0.000000 0.695676 0.034960
O O10 0.101864 0.702907 0.757615
O O11 0.818894 0.174913 0.341041
O O12 0.910611 0.132660 0.561288
O O13 0.842181 0.081243 0.228422
O O14 0.806549 0.743753 0.536315
O O15 0.874991 0.816057 0.431471
O O16 0.500000 0.672461 0.845949
O O17 0.359846 0.502596 0.493764
#
# Coordination Sequence:
#
# PCOD9351038 Si02
#       8
#     8   8   8   8   8   8   8   8
#     4  11  24  33  55  83 125 153 187 236 294 366
#     4  10  19  35  53  77 107 153 191 232 279 338
#     4  10  21  42  61  80 113 156 199 244 280 329
#     4  11  20  34  56  78 108 151 186 233 289 343
#     4  10  22  34  51  79 116 158 186 230 296 349
#     4  11  24  37  56  88 119 157 193 233 285 355
#     4   9  20  36  54  78 103 142 204 247 275 326
#     4  10  19  33  53  75 100 140 189 225 278 338
#
# _framework density 20.438233
#
# number of rings (size 3 to 8) (size 9 to 14) (size 15 to 20)
#    0.000    1.750    3.750    1.875    5.250    1.000 
#    0.000    0.000    0.000    0.750    0.000    0.000 
#    0.000   10.000    0.000    0.000    0.000    0.000 
#
# Total GULP energy -178565.741843 kJ/mol
# GULP energy per Si atom -5580.179433 kJ/mol
# Density = 2.039171 g / cm^3
# Si number density = 20.438233 Si / 1000 Ang^3
#
#
#
# Elastic Constant Matrix: (Units=GPa)
#
#
# Indices 1 2 3 4 5 6 
#
# 1 45.1468 20.0752 14.2037 0.0000 0.0000 0.0000
# 2 20.0752 77.6753 2.3820 0.0000 0.0000 0.0000
# 3 14.2037 2.3820 97.8290 0.0000 0.0000 0.0000
# 4 0.0000 0.0000 0.0000 32.5651 0.0000 0.0000
# 5 0.0000 0.0000 0.0000 0.0000 17.9151 0.0000
# 6 0.0000 0.0000 0.0000 0.0000 0.0000 8.6843
#
#
#
# Elastic Compliance Matrix: (Units=1/GPa)
#
#
# Indices 1 2 3 4 5 6 
#
# 1 0.026268 -0.006677 -0.003651 0.000000 0.000000 0.000000
# 2 -0.006677 0.014581 0.000614 0.000000 0.000000 0.000000
# 3 -0.003651 0.000614 0.010737 0.000000 0.000000 0.000000
# 4 0.000000 0.000000 0.000000 0.030708 0.000000 0.000000
# 5 0.000000 0.000000 0.000000 0.000000 0.055819 0.000000
# 6 0.000000 0.000000 0.000000 0.000000 0.000000 0.115151
#
#
# Mechanical properties :
#
#
# Convention : Reuss Voigt Hill
#
# Bulk Modulus (GPa) = 31.09629 32.66367 31.87998
# Shear Modulus (GPa) = 17.64229 24.09891 20.87060
#
# Velocity S-wave (km/s) = 2.94121 3.43754 3.19902
# Velocity P-wave (km/s) = 5.17514 5.63666 5.41082
#
# Compressibility (1/GPa) = 0.03215818
#
# Stress axis : x y z
#
# Youngs Moduli (GPa) = 38.06959 68.58278 93.13529
#
# Poissons Ratio (x) = 0.45792 0.34006
# Poissons Ratio (y) = 0.25419 -0.05722
# Poissons Ratio (z) = 0.13900 -0.04214
#
# Static dielectric constant tensor:
#      x y z
#    x 1.719960 0.000000 0.000000 
#    y 0.000000 1.738100 0.000000 
#    z 0.000000 0.000000 1.839840 
# 
# From -- ./inp_files/1483.got.cif
#   From: 2010.05.17/outbox.cif.g08.bks.cpg/sg36_1_cif.got.tgz:1483.got - 2010.06.03 17:41:39.
