data_PCOD9351716
_publ_section_title
;
Structure prediction by ZEFSAII (Michael W. Deem and Ramdas Pophale) SiO2 
 PCOD9351716
Probable space group: C M C 21
;
_chemical_formula_sum "Si O2"
_cell_formula_units_Z 64
_cell_length_a 17.278814
_cell_length_b 16.625800
_cell_length_c 8.851835
_cell_angle_alpha 90.000000
_cell_angle_beta 90.000000
_cell_angle_gamma 90.000000
_cell_volume 2542.902984
_symmetry_space_group_name_H-M "C M C 21"
_symmetry_group_IT_number 36
_symmetry_cell_setting 'orthorhombic'
loop_
_space_group_symop_operation_xyz
x,y,z
-x,-y,1/2+z
x,-y,1/2+z
-x,y,z
1/2+x,1/2+y,z
1/2-x,1/2-y,1/2+z
1/2+x,1/2-y,1/2+z
1/2-x,1/2+y,z
loop_
_atom_site_type_symbol
_atom_site_label
_atom_site_fract_x
_atom_site_fract_y
_atom_site_fract_z
Si Si1 0.593896 0.546006 0.321870
Si Si2 0.161342 0.435994 0.489668
Si Si3 0.379651 0.207983 0.432811
Si Si4 0.721887 0.206156 0.181795
Si Si5 0.087353 0.808432 0.019496
Si Si6 0.876146 0.699188 0.750324
Si Si7 0.592799 0.605701 0.990402
Si Si8 0.416143 0.947592 0.796716
O O1 0.500000 0.543925 0.314917
O O2 0.612025 0.602953 0.465328
O O3 0.623686 0.457642 0.366569
O O4 0.618961 0.580880 0.159951
O O5 0.220581 0.376815 0.584018
O O6 0.137621 0.375850 0.356286
O O7 0.157163 0.518871 0.393630
O O8 0.101952 0.457969 0.621635
O O9 0.294011 0.196391 0.361244
O O10 0.411029 0.174936 0.591705
O O11 0.392646 0.303168 0.441633
O O12 0.420474 0.148352 0.316193
O O13 0.799602 0.257408 0.183773
O O14 0.651921 0.261341 0.114688
O O15 0.082551 0.762533 0.858008
O O16 0.000000 0.810677 0.086135
O O17 0.500000 0.597008 0.993560
O O18 0.500000 0.983496 0.836521
#
# Coordination Sequence:
#
# PCOD9351716 Si02
#       8
#     8   8   8   8   8   8   8   8
#     4   9  19  35  57  86 130 167 212 293 362 431
#     4  10  23  42  70  99 140 198 245 295 366 435
#     4  11  22  37  65  93 138 186 243 293 370 449
#     4  10  24  42  69  98 142 193 242 305 378 450
#     4  10  21  39  67 101 134 178 246 305 369 451
#     4  11  22  43  70  94 142 194 244 307 373 446
#     4  10  20  35  57  90 131 174 222 284 370 442
#     4  11  23  41  67 109 154 192 242 314 379 454
#
# _framework density 25.168087
#
# number of rings (size 3 to 8) (size 9 to 14) (size 15 to 20)
#    0.000    1.750    1.250    3.000    1.750    7.500 
#    0.000    0.000   27.500    0.000    0.000    0.000 
#    0.000    0.000    0.000    0.000    0.000    0.000 
#
# Total GULP energy -178361.119586 kJ/mol
# GULP energy per Si atom -5573.784987 kJ/mol
# Density = 2.511080 g / cm^3
# Si number density = 25.168087 Si / 1000 Ang^3
#
#
#
# Elastic Constant Matrix: (Units=GPa)
#
#
# Indices 1 2 3 4 5 6 
#
# 1 72.9980 17.8044 22.0869 0.0000 0.0000 0.0000
# 2 17.8044 156.3657 52.8174 0.0000 0.0000 0.0000
# 3 22.0869 52.8174 137.7138 0.0000 0.0000 0.0000
# 4 0.0000 0.0000 0.0000 49.3420 0.0000 0.0000
# 5 0.0000 0.0000 0.0000 0.0000 55.6180 0.0000
# 6 0.0000 0.0000 0.0000 0.0000 0.0000 11.5280
#
#
#
# Elastic Compliance Matrix: (Units=1/GPa)
#
#
# Indices 1 2 3 4 5 6 
#
# 1 0.014532 -0.000996 -0.001948 0.000000 0.000000 0.000000
# 2 -0.000996 0.007415 -0.002684 0.000000 0.000000 0.000000
# 3 -0.001948 -0.002684 0.008603 0.000000 0.000000 0.000000
# 4 0.000000 0.000000 0.000000 0.020267 0.000000 0.000000
# 5 0.000000 0.000000 0.000000 0.000000 0.017980 0.000000
# 6 0.000000 0.000000 0.000000 0.000000 0.000000 0.086745
#
#
# Mechanical properties :
#
#
# Convention : Reuss Voigt Hill
#
# Bulk Modulus (GPa) = 51.83456 61.38831 56.61143
# Shear Modulus (GPa) = 28.86322 41.58886 35.22604
#
# Velocity S-wave (km/s) = 3.39014 4.06944 3.74522
# Velocity P-wave (km/s) = 5.99701 6.82090 6.42218
#
# Compressibility (1/GPa) = 0.01929215
#
# Stress axis : x y z
#
# Youngs Moduli (GPa) = 68.81566 134.85444 116.23299
#
# Poissons Ratio (x) = 0.13438 0.22647
# Poissons Ratio (y) = 0.06857 0.31199
# Poissons Ratio (z) = 0.13408 0.36198
#
# Static dielectric constant tensor:
#      x y z
#    x 1.514910 0.000000 0.000000 
#    y 0.000000 2.061400 0.000000 
#    z 0.000000 0.000000 2.050240 
# 
# From -- ./inp_files/5332.got.cif
#   From: 2010.05.17/outbox.cif.g08.bks.cpg/sg36_3_cif.got.tgz:5332.got - 2010.06.03 17:41:39.
