data_PCOD9351738
_publ_section_title
;
Structure prediction by ZEFSAII (Michael W. Deem and Ramdas Pophale) SiO2 
 PCOD9351738
Probable space group: C M C 21
;
_chemical_formula_sum "Si O2"
_cell_formula_units_Z 64
_cell_length_a 8.940658
_cell_length_b 33.476375
_cell_length_c 10.660880
_cell_angle_alpha 90.000000
_cell_angle_beta 90.000000
_cell_angle_gamma 90.000000
_cell_volume 3190.810125
_symmetry_space_group_name_H-M "C M C 21"
_symmetry_group_IT_number 36
_symmetry_cell_setting 'orthorhombic'
loop_
_space_group_symop_operation_xyz
x,y,z
-x,-y,1/2+z
x,-y,1/2+z
-x,y,z
1/2+x,1/2+y,z
1/2-x,1/2-y,1/2+z
1/2+x,1/2-y,1/2+z
1/2-x,1/2+y,z
loop_
_atom_site_type_symbol
_atom_site_label
_atom_site_fract_x
_atom_site_fract_y
_atom_site_fract_z
Si Si1 0.826874 0.958827 0.944260
Si Si2 0.322829 0.262407 0.679647
Si Si3 0.326370 0.162908 0.304496
Si Si4 0.819143 0.712276 0.923159
Si Si5 0.820461 0.382819 0.057240
Si Si6 0.835641 0.576238 0.221519
Si Si7 0.182158 0.627661 0.837674
Si Si8 0.670630 0.956089 0.442853
O O1 0.794345 0.940385 0.807642
O O2 0.000000 0.960233 0.975253
O O3 0.759490 0.002942 0.937847
O O4 0.745454 0.926989 0.034919
O O5 0.500000 0.258581 0.661046
O O6 0.277886 0.303645 0.747691
O O7 0.247083 0.264005 0.542227
O O8 0.278173 0.230130 0.786257
O O9 0.500000 0.176878 0.311568
O O10 0.279638 0.146004 0.441064
O O11 0.324534 0.123866 0.216328
O O12 0.770564 0.665679 0.920056
O O13 0.000000 0.713761 0.933105
O O14 0.777376 0.366035 0.192363
O O15 0.000000 0.385917 0.054372
O O16 0.000000 0.568032 0.282097
O O17 0.835621 0.556687 0.087373
O O18 0.234452 0.583345 0.875222
O O19 0.000000 0.626411 0.847300
O O20 0.500000 0.962902 0.396849
#
# Coordination Sequence:
#
# PCOD9351738 Si02
#       8
#     8   8   8   8   8   8   8   8
#     4  11  23  36  52  81 121 154 184 236 303 365
#     4  11  24  39  63  96 129 164 204 253 312 374
#     4   9  18  35  62  88 116 153 197 246 297 354
#     4  10  23  43  65  92 127 165 210 259 310 367
#     4   9  19  37  62  88 113 154 207 250 291 352
#     4   9  19  37  59  80 104 146 200 241 279 341
#     4   9  19  38  64  88 112 151 205 259 300 344
#     4  10  20  35  59  83 106 143 197 250 290 343
#
# _framework density 20.057603
#
# number of rings (size 3 to 8) (size 9 to 14) (size 15 to 20)
#    0.000    2.250    0.000    3.000    3.500    5.500 
#    0.000    2.500    0.000    0.000    0.000    0.000 
#    0.000    0.000    0.000    0.000    0.000    0.000 
#
# Total GULP energy -178501.629923 kJ/mol
# GULP energy per Si atom -5578.175935 kJ/mol
# Density = 2.001195 g / cm^3
# Si number density = 20.057603 Si / 1000 Ang^3
#
#
#
# Elastic Constant Matrix: (Units=GPa)
#
#
# Indices 1 2 3 4 5 6 
#
# 1 24.6819 12.2537 20.0182 0.0000 0.0000 0.0000
# 2 12.2537 66.5028 33.6157 0.0000 0.0000 0.0000
# 3 20.0182 33.6157 86.1770 0.0000 0.0000 0.0000
# 4 0.0000 0.0000 0.0000 15.9788 0.0000 0.0000
# 5 0.0000 0.0000 0.0000 0.0000 16.9125 0.0000
# 6 0.0000 0.0000 0.0000 0.0000 0.0000 15.9358
#
#
#
# Elastic Compliance Matrix: (Units=1/GPa)
#
#
# Indices 1 2 3 4 5 6 
#
# 1 0.050860 -0.004234 -0.010163 0.000000 0.000000 0.000000
# 2 -0.004234 0.019083 -0.006460 0.000000 0.000000 0.000000
# 3 -0.010163 -0.006460 0.016485 0.000000 0.000000 0.000000
# 4 0.000000 0.000000 0.000000 0.062583 0.000000 0.000000
# 5 0.000000 0.000000 0.000000 0.000000 0.059128 0.000000
# 6 0.000000 0.000000 0.000000 0.000000 0.000000 0.062752
#
#
# Mechanical properties :
#
#
# Convention : Reuss Voigt Hill
#
# Bulk Modulus (GPa) = 22.36479 34.34856 28.35668
# Shear Modulus (GPa) = 15.26675 17.19701 16.23188
#
# Velocity S-wave (km/s) = 2.76188 2.93128 2.84784
# Velocity P-wave (km/s) = 4.62008 5.34964 4.99819
#
# Compressibility (1/GPa) = 0.04471313
#
# Stress axis : x y z
#
# Youngs Moduli (GPa) = 19.66176 52.40374 60.66239
#
# Poissons Ratio (x) = 0.22190 0.61649
# Poissons Ratio (y) = 0.08326 0.39188
# Poissons Ratio (z) = 0.19982 0.33853
#
# Static dielectric constant tensor:
#      x y z
#    x 1.709510 0.000000 0.000000 
#    y 0.000000 1.727030 0.000000 
#    z 0.000000 0.000000 1.730410 
# 
# From -- ./inp_files/7254.got.cif
#   From: 2010.05.17/outbox.cif.g08.bks.cpg/sg36_4_cif.got.tgz:7254.got - 2010.06.03 17:41:39.
