data_PCOD9351204
_publ_section_title
;
Structure prediction by ZEFSAII (Michael W. Deem and Ramdas Pophale) SiO2 
 PCOD9351204
Probable space group: C M C 21
;
_chemical_formula_sum "Si O2"
_cell_formula_units_Z 64
_cell_length_a 8.789296
_cell_length_b 20.917292
_cell_length_c 19.622239
_cell_angle_alpha 90.000000
_cell_angle_beta 90.000000
_cell_angle_gamma 90.000000
_cell_volume 3607.514711
_symmetry_space_group_name_H-M "C M C 21"
_symmetry_group_IT_number 36
_symmetry_cell_setting 'orthorhombic'
loop_
_space_group_symop_operation_xyz
x,y,z
-x,-y,1/2+z
x,-y,1/2+z
-x,y,z
1/2+x,1/2+y,z
1/2-x,1/2-y,1/2+z
1/2+x,1/2-y,1/2+z
1/2-x,1/2+y,z
loop_
_atom_site_type_symbol
_atom_site_label
_atom_site_fract_x
_atom_site_fract_y
_atom_site_fract_z
Si Si1 0.818324 0.063421 0.987780
Si Si2 0.319031 0.304937 0.410538
Si Si3 0.181037 0.183684 0.488676
Si Si4 0.681590 0.759446 0.119739
Si Si5 0.317900 0.940107 0.915395
Si Si6 0.182092 0.380040 0.775136
Si Si7 0.818248 0.382551 0.619995
Si Si8 0.180459 0.260729 0.277113
O O1 0.780583 0.128539 0.946927
O O2 0.000000 0.059336 0.993636
O O3 0.755350 0.002877 0.947399
O O4 0.746256 0.070870 0.062614
O O5 0.500000 0.294648 0.416117
O O6 0.234631 0.246468 0.447490
O O7 0.268102 0.302904 0.332114
O O8 0.237538 0.195263 0.565589
O O9 0.258720 0.122020 0.455538
O O10 0.000000 0.177769 0.485536
O O11 0.500000 0.759446 0.108461
O O12 0.743230 0.687289 0.109810
O O13 0.712010 0.777288 0.198318
O O14 0.500000 0.943894 0.920887
O O15 0.278424 0.928192 0.835841
O O16 0.215856 0.402187 0.698124
O O17 0.266082 0.312680 0.786470
O O18 0.000000 0.367834 0.778953
O O19 0.000000 0.376627 0.612851
O O20 0.000000 0.264966 0.288610
#
# Coordination Sequence:
#
# PCOD9351204 Si02
#       8
#     8   8   8   8   8   8   8   8
#     4  11  24  40  58  84 119 157 197 243 290 348
#     4  11  22  37  58  83 117 154 192 240 292 341
#     4  12  23  36  59  88 116 150 195 240 287 348
#     4  10  20  35  55  85 120 153 191 242 296 344
#     4  11  23  40  61  85 118 156 193 241 294 349
#     4   9  19  35  57  84 114 149 190 236 291 349
#     4  10  19  34  58  86 113 149 195 240 288 350
#     4  10  20  33  56  87 117 150 193 242 290 345
#
# _framework density 17.740745
#
# number of rings (size 3 to 8) (size 9 to 14) (size 15 to 20)
#    0.000    1.500    2.500    3.375    0.000    4.000 
#    0.000    1.250    0.000    4.500    0.000    0.000 
#    0.000    0.000    0.000    0.000    0.000    0.000 
#
# Total GULP energy -178774.132106 kJ/mol
# GULP energy per Si atom -5586.691628 kJ/mol
# Density = 1.770037 g / cm^3
# Si number density = 17.740745 Si / 1000 Ang^3
#
#
#
# Elastic Constant Matrix: (Units=GPa)
#
#
# Indices 1 2 3 4 5 6 
#
# 1 47.2493 29.8659 38.3922 0.0000 0.0000 0.0000
# 2 29.8659 80.8288 51.0894 0.0000 0.0000 0.0000
# 3 38.3922 51.0894 125.5544 0.0000 0.0000 0.0000
# 4 0.0000 0.0000 0.0000 28.8835 0.0000 0.0000
# 5 0.0000 0.0000 0.0000 0.0000 29.4533 0.0000
# 6 0.0000 0.0000 0.0000 0.0000 0.0000 29.3201
#
#
#
# Elastic Compliance Matrix: (Units=1/GPa)
#
#
# Indices 1 2 3 4 5 6 
#
# 1 0.031123 -0.007384 -0.006512 0.000000 0.000000 0.000000
# 2 -0.007384 0.018407 -0.005232 0.000000 0.000000 0.000000
# 3 -0.006512 -0.005232 0.012085 0.000000 0.000000 0.000000
# 4 0.000000 0.000000 0.000000 0.034622 0.000000 0.000000
# 5 0.000000 0.000000 0.000000 0.000000 0.033952 0.000000
# 6 0.000000 0.000000 0.000000 0.000000 0.000000 0.034106
#
#
# Mechanical properties :
#
#
# Convention : Reuss Voigt Hill
#
# Bulk Modulus (GPa) = 42.81040 54.70307 48.75673
# Shear Modulus (GPa) = 23.77122 26.48372 25.12747
#
# Velocity S-wave (km/s) = 3.66447 3.86789 3.76755
# Velocity P-wave (km/s) = 6.48752 7.13086 6.81678
#
# Compressibility (1/GPa) = 0.02335881
#
# Stress axis : x y z
#
# Youngs Moduli (GPa) = 32.13052 54.32656 82.74628
#
# Poissons Ratio (x) = 0.40112 0.53888
# Poissons Ratio (y) = 0.23724 0.43296
# Poissons Ratio (z) = 0.20925 0.28425
#
# Static dielectric constant tensor:
#      x y z
#    x 1.590310 0.000000 0.000000 
#    y 0.000000 1.560890 0.000000 
#    z 0.000000 0.000000 1.635300 
# 
# From -- ./inp_files/15657.got.cif
#   From: 2010.05.17/outbox.cif.g08.bks.cpg/sg36_8_cif.got.tgz:15657.got - 2010.06.03 17:41:39.
