data_PCOD9351205
_publ_section_title
;
Structure prediction by ZEFSAII (Michael W. Deem and Ramdas Pophale) SiO2 
 PCOD9351205
Probable space group: C M C 21
;
_chemical_formula_sum "Si O2"
_cell_formula_units_Z 64
_cell_length_a 8.059881
_cell_length_b 15.112045
_cell_length_c 23.683282
_cell_angle_alpha 90.000000
_cell_angle_beta 90.000000
_cell_angle_gamma 90.000000
_cell_volume 2884.654166
_symmetry_space_group_name_H-M "C M C 21"
_symmetry_group_IT_number 36
_symmetry_cell_setting 'orthorhombic'
loop_
_space_group_symop_operation_xyz
x,y,z
-x,-y,1/2+z
x,-y,1/2+z
-x,y,z
1/2+x,1/2+y,z
1/2-x,1/2-y,1/2+z
1/2+x,1/2-y,1/2+z
1/2-x,1/2+y,z
loop_
_atom_site_type_symbol
_atom_site_label
_atom_site_fract_x
_atom_site_fract_y
_atom_site_fract_z
Si Si1 0.195821 0.807993 0.214320
Si Si2 0.299949 0.689881 0.395086
Si Si3 0.302635 0.448949 0.803485
Si Si4 0.699645 0.574099 0.060678
Si Si5 0.806834 0.645225 0.832680
Si Si6 0.700191 0.240411 0.596200
Si Si7 0.798799 0.010423 0.182752
Si Si8 0.197136 0.400865 0.010394
O O1 0.288053 0.799991 0.273822
O O2 0.241257 0.748932 0.160540
O O3 0.238143 0.907334 0.192960
O O4 0.000000 0.803567 0.225359
O O5 0.500000 0.693471 0.390388
O O6 0.234447 0.621170 0.347928
O O7 0.239624 0.788938 0.380751
O O8 0.257910 0.649671 0.455347
O O9 0.500000 0.435012 0.800093
O O10 0.277259 0.550162 0.824085
O O11 0.235872 0.441559 0.739497
O O12 0.500000 0.571843 0.061035
O O13 0.750650 0.676136 0.057800
O O14 0.762692 0.541881 0.122242
O O15 0.755804 0.503428 0.014756
O O16 0.000000 0.626927 0.842603
O O17 0.500000 0.237987 0.598771
O O18 0.763006 0.151902 0.565503
O O19 0.000000 0.019326 0.181664
O O20 0.000000 0.394925 0.011441
#
# Coordination Sequence:
#
# PCOD9351205 Si02
#       8
#     8   8   8   8   8   8   8   8
#     4  10  19  34  58  87 120 156 191 236 291 347
#     4  10  23  41  63  84 111 159 204 234 280 353
#     4   9  19  37  59  86 116 150 194 236 284 343
#     4  10  20  37  61  85 113 154 197 234 286 358
#     4  10  21  37  59  89 120 152 192 240 291 345
#     4  10  22  37  58  87 116 152 195 243 295 345
#     4   8  15  30  56  84 111 145 183 229 279 338
#     4  11  24  41  58  84 121 152 192 250 296 333
#
# _framework density 22.186368999999999
#
# number of rings (size 3 to 8) (size 9 to 14) (size 15 to 20)
#    0.000    2.250    1.250    1.875    1.750    3.500 
#    0.000    3.750    0.000    0.000    0.000    0.000 
#    0.000    0.000    0.000    0.000    0.000    0.000 
#
# Total GULP energy -178679.977737 kJ/mol
# GULP energy per Si atom -5583.749304 kJ/mol
# Density = 2.213587 g / cm^3
# Si number density = 22.186369 Si / 1000 Ang^3
#
#
#
# Elastic Constant Matrix: (Units=GPa)
#
#
# Indices 1 2 3 4 5 6 
#
# 1 14.1599 1.6350 -8.5329 0.0000 0.0000 0.0000
# 2 1.6350 49.8511 -6.0510 0.0000 0.0000 0.0000
# 3 -8.5329 -6.0510 31.4807 0.0000 0.0000 0.0000
# 4 0.0000 0.0000 0.0000 32.2966 0.0000 0.0000
# 5 0.0000 0.0000 0.0000 0.0000 23.5067 0.0000
# 6 0.0000 0.0000 0.0000 0.0000 0.0000 15.8296
#
#
#
# Elastic Compliance Matrix: (Units=1/GPa)
#
#
# Indices 1 2 3 4 5 6 
#
# 1 0.084409 0.000009 0.022881 0.000000 0.000000 0.000000
# 2 0.000009 0.020539 0.003950 0.000000 0.000000 0.000000
# 3 0.022881 0.003950 0.038727 0.000000 0.000000 0.000000
# 4 0.000000 0.000000 0.000000 0.030963 0.000000 0.000000
# 5 0.000000 0.000000 0.000000 0.000000 0.042541 0.000000
# 6 0.000000 0.000000 0.000000 0.000000 0.000000 0.063173
#
#
# Mechanical properties :
#
#
# Convention : Reuss Voigt Hill
#
# Bulk Modulus (GPa) = 5.06700 7.73266 6.39983
# Shear Modulus (GPa) = 17.09655 21.55595 19.32625
#
# Velocity S-wave (km/s) = 2.77896 3.12041 2.95462
# Velocity P-wave (km/s) = 3.54762 4.05900 3.81189
#
# Compressibility (1/GPa) = 0.19735526
#
# Stress axis : x y z
#
# Youngs Moduli (GPa) = 11.84703 48.68801 25.82197
#
# Poissons Ratio (x) = -0.00043 -0.59083
# Poissons Ratio (y) = -0.00011 -0.10200
# Poissons Ratio (z) = -0.27107 -0.19233
#
# Static dielectric constant tensor:
#      x y z
#    x 1.777390 0.000000 0.000000 
#    y 0.000000 1.852030 0.000000 
#    z 0.000000 0.000000 1.830150 
# 
# From -- ./inp_files/16695.got.cif
#   From: 2010.05.17/outbox.cif.g08.bks.cpg/sg36_9_cif.got.tgz:16695.got - 2010.06.03 17:41:39.
