data_PCOD9351454
_publ_section_title
;
Structure prediction by ZEFSAII (Michael W. Deem and Ramdas Pophale) SiO2 
 PCOD9351454
Probable space group: C M C 21
;
_chemical_formula_sum "Si O2"
_cell_formula_units_Z 52
_cell_length_a 7.704303
_cell_length_b 35.413326
_cell_length_c 7.519430
_cell_angle_alpha 90.000000
_cell_angle_beta 90.000000
_cell_angle_gamma 90.000000
_cell_volume 2051.563637
_symmetry_space_group_name_H-M "C M C 21"
_symmetry_group_IT_number 36
_symmetry_cell_setting 'orthorhombic'
loop_
_space_group_symop_operation_xyz
x,y,z
-x,-y,1/2+z
x,-y,1/2+z
-x,y,z
1/2+x,1/2+y,z
1/2-x,1/2-y,1/2+z
1/2+x,1/2-y,1/2+z
1/2-x,1/2+y,z
loop_
_atom_site_type_symbol
_atom_site_label
_atom_site_fract_x
_atom_site_fract_y
_atom_site_fract_z
Si Si1 0.301291 0.117879 0.284780
Si Si2 0.500000 0.019159 0.639957
Si Si3 0.704502 0.351822 0.403847
Si Si4 0.292205 0.805319 0.879506
Si Si5 0.700429 0.427021 0.232008
Si Si6 0.793305 0.725061 0.005197
Si Si7 0.690516 0.458694 0.638721
O O1 0.500000 0.109776 0.331896
O O2 0.300463 0.136051 0.085138
O O3 0.224222 0.152127 0.402536
O O4 0.203133 0.078708 0.259384
O O5 0.348417 0.986615 0.673357
O O6 0.655137 0.050772 0.624256
O O7 0.500000 0.357233 0.436026
O O8 0.752751 0.383322 0.260143
O O9 0.736938 0.307652 0.366717
O O10 0.500000 0.810083 0.869068
O O11 0.221597 0.790649 0.690414
O O12 0.261638 0.768251 0.993804
O O13 0.500000 0.429471 0.171882
O O14 0.707138 0.444868 0.433170
O O15 0.000000 0.724592 0.007187
O O16 0.500000 0.476317 0.663031
#
# Coordination Sequence:
#
# PCOD9351454 Si02
#       7
#     8   4   8   8   8   8   8
#     4   9  16  30  51  76 103 135 174 221 274 328
#     4  12  20  30  54  78 106 136 170 228 282 326
#     4   9  17  30  50  75 103 134 172 221 272 326
#     4   9  19  33  51  78 112 142 180 229 275 328
#     4   9  20  34  51  77 106 138 178 224 276 329
#     4  10  20  32  52  80 109 143 185 227 277 334
#     4  10  20  34  52  78 107 139 180 225 276 330
#
# _framework density 25.346520000000002
#
# number of rings (size 3 to 8) (size 9 to 14) (size 15 to 20)
#    0.000    2.462    0.769    4.154    4.308    3.692 
#    0.000    0.000    0.000    3.692    0.000    8.615 
#    0.000    0.000    0.000    0.000    0.000    0.000 
#
# Total GULP energy -144769.566751 kJ/mol
# GULP energy per Si atom -5568.060260 kJ/mol
# Density = 2.528883 g / cm^3
# Si number density = 25.346520 Si / 1000 Ang^3
#
#
#
# Elastic Constant Matrix: (Units=GPa)
#
#
# Indices 1 2 3 4 5 6 
#
# 1 128.5919 21.0215 33.4697 0.0000 0.0000 0.0000
# 2 21.0215 47.9476 131.9381 0.0000 0.0000 0.0000
# 3 33.4697 131.9381 3.6261 0.0000 0.0000 0.0000
# 4 0.0000 0.0000 0.0000 -108.3130 0.0000 0.0000
# 5 0.0000 0.0000 0.0000 0.0000 6.9390 0.0000
# 6 0.0000 0.0000 0.0000 0.0000 0.0000 113.0585
#
#
#
# Elastic Compliance Matrix: (Units=1/GPa)
#
#
# Indices 1 2 3 4 5 6 
#
# 1 0.008263 -0.002081 -0.000560 0.000000 0.000000 0.000000
# 2 -0.002081 0.000314 0.007797 0.000000 0.000000 0.000000
# 3 -0.000560 0.007797 -0.002744 0.000000 0.000000 0.000000
# 4 0.000000 0.000000 0.000000 -0.009233 0.000000 0.000000
# 5 0.000000 0.000000 0.000000 0.000000 0.144114 0.000000
# 6 0.000000 0.000000 0.000000 0.000000 0.000000 0.008845
#
#
# Mechanical properties :
#
#
# Convention : Reuss Voigt Hill
#
# Bulk Modulus (GPa) = 61.94368 61.44715 61.69542
# Shear Modulus (GPa) = 34.57161 1.91930 18.24546
#
# Velocity S-wave (km/s) = 3.69719 0.87113 2.68590
# Velocity P-wave (km/s) = 6.53585 5.03063 5.83201
#
# Compressibility (1/GPa) = 0.01614370
#
# Stress axis : x y z
#
# Youngs Moduli (GPa) = 121.02855 3189.57825 -364.40703
#
# Poissons Ratio (x) = 6.63628 -0.20419
# Poissons Ratio (y) = 0.25181 2.84124
# Poissons Ratio (z) = 0.06782 -24.86875
#
# Static dielectric constant tensor:
#      x y z
#    x 1.899430 0.000000 0.000000 
#    y 0.000000 2.069090 0.000000 
#    z 0.000000 0.000000 2.130030 
# 
# From -- ./inp_files/6872.got.cif
#   From: 2010.05.17/outbox.cif.g08.bks.cpg/sg36_4_cif.got.tgz:6872.got - 2010.06.03 17:41:39.
