data_PCOD9351539
_publ_section_title
;
Structure prediction by ZEFSAII (Michael W. Deem and Ramdas Pophale) SiO2 
 PCOD9351539
Probable space group: C M C 21
;
_chemical_formula_sum "Si O2"
_cell_formula_units_Z 64
_cell_length_a 8.644038
_cell_length_b 20.595015
_cell_length_c 20.621027
_cell_angle_alpha 90.000000
_cell_angle_beta 90.000000
_cell_angle_gamma 90.000000
_cell_volume 3671.039613
_symmetry_space_group_name_H-M "C M C 21"
_symmetry_group_IT_number 36
_symmetry_cell_setting 'orthorhombic'
loop_
_space_group_symop_operation_xyz
x,y,z
-x,-y,1/2+z
x,-y,1/2+z
-x,y,z
1/2+x,1/2+y,z
1/2-x,1/2-y,1/2+z
1/2+x,1/2-y,1/2+z
1/2-x,1/2+y,z
loop_
_atom_site_type_symbol
_atom_site_label
_atom_site_fract_x
_atom_site_fract_y
_atom_site_fract_z
Si Si1 0.813237 0.825316 0.691780
Si Si2 0.814612 0.424716 0.587176
Si Si3 0.813614 0.826582 0.841327
Si Si4 0.312000 0.927002 0.089272
Si Si5 0.685437 0.069223 0.441305
Si Si6 0.686928 0.823456 0.342754
Si Si7 0.184062 0.073821 0.944440
Si Si8 0.311489 0.176694 0.694183
O O1 0.742203 0.874761 0.640927
O O2 0.769914 0.840058 0.766422
O O3 0.765883 0.750684 0.678509
O O4 0.000000 0.828262 0.687744
O O5 0.766481 0.498774 0.603961
O O6 0.747025 0.409888 0.516203
O O7 0.000000 0.423499 0.582816
O O8 0.741310 0.877560 0.890469
O O9 0.770390 0.751735 0.856017
O O10 0.000000 0.830520 0.845140
O O11 0.500000 0.924982 0.090780
O O12 0.255340 0.875251 0.141767
O O13 0.265612 0.912939 0.015033
O O14 0.500000 0.064943 0.440446
O O15 0.752070 0.997758 0.427274
O O16 0.500000 0.827679 0.346075
O O17 0.758678 0.873251 0.393111
O O18 0.733893 0.838120 0.268327
O O19 0.000000 0.071879 0.945910
O O20 0.500000 0.175932 0.693609
#
# Coordination Sequence:
#
# PCOD9351539 Si02
#       8
#     8   8   8   8   8   8   8   8
#     4   9  18  33  53  77 105 137 170 207 255 311
#     4  10  20  34  52  76 105 135 171 217 263 311
#     4   9  19  35  53  76 109 143 174 212 260 314
#     4   8  16  31  50  73  98 126 167 213 253 299
#     4  10  20  34  53  77 105 137 177 223 265 311
#     4   9  18  34  55  78 106 139 173 213 261 313
#     4  11  22  36  54  75 103 139 177 220 268 317
#     4   8  15  31  54  76 101 134 169 207 255 308
#
# _framework density 17.433752999999999
#
# number of rings (size 3 to 8) (size 9 to 14) (size 15 to 20)
#    0.000    2.750    0.000    4.125    0.000    3.000 
#    0.000    4.375    0.000    7.500    0.000    0.000 
#    0.000    0.000    0.000    0.000    0.000    0.000 
#
# Total GULP energy -178458.343436 kJ/mol
# GULP energy per Si atom -5576.823232 kJ/mol
# Density = 1.739407 g / cm^3
# Si number density = 17.433753 Si / 1000 Ang^3
#
#
#
# Elastic Constant Matrix: (Units=GPa)
#
#
# Indices 1 2 3 4 5 6 
#
# 1 44.0890 50.4854 50.7007 0.0000 0.0000 0.0000
# 2 50.4854 159.0110 148.3406 0.0000 0.0000 0.0000
# 3 50.7007 148.3406 161.5057 0.0000 0.0000 0.0000
# 4 0.0000 0.0000 0.0000 43.6170 0.0000 0.0000
# 5 0.0000 0.0000 0.0000 0.0000 23.9766 0.0000
# 6 0.0000 0.0000 0.0000 0.0000 0.0000 23.2748
#
#
#
# Elastic Compliance Matrix: (Units=1/GPa)
#
#
# Indices 1 2 3 4 5 6 
#
# 1 0.036366 -0.006259 -0.005668 0.000000 0.000000 0.000000
# 2 -0.006259 0.045009 -0.039376 0.000000 0.000000 0.000000
# 3 -0.005668 -0.039376 0.044137 0.000000 0.000000 0.000000
# 4 0.000000 0.000000 0.000000 0.022927 0.000000 0.000000
# 5 0.000000 0.000000 0.000000 0.000000 0.041707 0.000000
# 6 0.000000 0.000000 0.000000 0.000000 0.000000 0.042965
#
#
# Mechanical properties :
#
#
# Convention : Reuss Voigt Hill
#
# Bulk Modulus (GPa) = 43.65293 95.96212 69.80752
# Shear Modulus (GPa) = 14.56239 25.84562 20.20400
#
# Velocity S-wave (km/s) = 2.89329 3.85451 3.40796
# Velocity P-wave (km/s) = 6.02123 8.65870 7.45749
#
# Compressibility (1/GPa) = 0.02290797
#
# Stress axis : x y z
#
# Youngs Moduli (GPa) = 27.49855 22.21764 22.65683
#
# Poissons Ratio (x) = 0.13905 0.12841
# Poissons Ratio (y) = 0.17211 0.89213
# Poissons Ratio (z) = 0.15585 0.87483
#
# Static dielectric constant tensor:
#      x y z
#    x 1.588700 0.000000 0.000000 
#    y 0.000000 1.574860 0.000000 
#    z 0.000000 0.000000 1.575680 
# 
# From -- ./inp_files/15588.got.cif
#   From: 2010.05.17/outbox.cif.g08.bks.cpg/sg36_8_cif.got.tgz:15588.got - 2010.06.03 17:41:39.
