data_PCOD9351300
_publ_section_title
;
Structure prediction by ZEFSAII (Michael W. Deem and Ramdas Pophale) SiO2 
 PCOD9351300
Probable space group: C M C 21
;
_chemical_formula_sum "Si O2"
_cell_formula_units_Z 52
_cell_length_a 8.050637
_cell_length_b 19.912788
_cell_length_c 15.854671
_cell_angle_alpha 90.000000
_cell_angle_beta 90.000000
_cell_angle_gamma 90.000000
_cell_volume 2541.672262
_symmetry_space_group_name_H-M "C M C 21"
_symmetry_group_IT_number 36
_symmetry_cell_setting 'orthorhombic'
loop_
_space_group_symop_operation_xyz
x,y,z
-x,-y,1/2+z
x,-y,1/2+z
-x,y,z
1/2+x,1/2+y,z
1/2-x,1/2-y,1/2+z
1/2+x,1/2-y,1/2+z
1/2-x,1/2+y,z
loop_
_atom_site_type_symbol
_atom_site_label
_atom_site_fract_x
_atom_site_fract_y
_atom_site_fract_z
Si Si1 0.000000 0.067677 0.536700
Si Si2 0.500000 0.541482 0.891097
Si Si3 0.802558 0.671929 0.539819
Si Si4 0.313166 0.079513 0.269283
Si Si5 0.298033 0.320264 0.222376
Si Si6 0.699049 0.784111 0.862722
Si Si7 0.500000 0.523323 0.201384
Si Si8 0.679095 0.929531 0.335942
O O1 0.831290 0.111537 0.534448
O O2 0.000000 0.027040 0.624071
O O3 0.000000 0.017449 0.457901
O O4 0.500000 0.513320 0.793989
O O5 0.666623 0.584650 0.896453
O O6 0.769691 0.701863 0.632102
O O7 0.756814 0.719160 0.460741
O O8 0.000000 0.653540 0.532082
O O9 0.500000 0.092943 0.236237
O O10 0.261267 0.141334 0.328418
O O11 0.168347 0.066730 0.202220
O O12 0.325619 0.009781 0.321352
O O13 0.500000 0.324010 0.219935
O O14 0.239793 0.270884 0.296900
O O15 0.221076 0.392111 0.248310
O O16 0.500000 0.778523 0.859113
O O17 0.500000 0.907659 0.366670
#
# Coordination Sequence:
#
# PCOD9351300 Si02
#       8
#     4   4   8   8   8   8   4   8
#     4  12  24  38  66  98 126 170 212 260 326 382
#     4  10  20  36  58  86 126 158 198 259 310 361
#     4  11  22  40  61  91 127 164 219 268 309 385
#     4   9  18  36  59  84 118 158 200 254 308 368
#     4  11  21  40  65  92 128 170 214 268 321 382
#     4   9  21  40  65  90 122 171 217 263 321 378
#     4  10  20  34  56  88 120 154 198 247 312 365
#     4  10  19  35  61  89 120 161 204 254 313 377
#
# _framework density 20.458971999999999
#
# number of rings (size 3 to 8) (size 9 to 14) (size 15 to 20)
#    0.000    1.846    1.538    4.154    0.000    3.692 
#    5.538    1.538    0.000    1.846    0.000    0.000 
#    0.000    0.000    0.000    0.000    0.000    0.000 
#
# Total GULP energy -144924.174258 kJ/mol
# GULP energy per Si atom -5574.006702 kJ/mol
# Density = 2.041241 g / cm^3
# Si number density = 20.458972 Si / 1000 Ang^3
#
#
#
# Elastic Constant Matrix: (Units=GPa)
#
#
# Indices 1 2 3 4 5 6 
#
# 1 152.9798 3.1181 31.1533 0.0000 0.0000 0.0000
# 2 3.1181 49.0755 46.1796 0.0000 0.0000 0.0000
# 3 31.1533 46.1796 133.8872 0.0000 0.0000 0.0000
# 4 0.0000 0.0000 0.0000 33.7832 0.0000 0.0000
# 5 0.0000 0.0000 0.0000 0.0000 23.3485 0.0000
# 6 0.0000 0.0000 0.0000 0.0000 0.0000 17.2546
#
#
#
# Elastic Compliance Matrix: (Units=1/GPa)
#
#
# Indices 1 2 3 4 5 6 
#
# 1 0.006946 0.001598 -0.002167 0.000000 0.000000 0.000000
# 2 0.001598 0.030536 -0.010904 0.000000 0.000000 0.000000
# 3 -0.002167 -0.010904 0.011734 0.000000 0.000000 0.000000
# 4 0.000000 0.000000 0.000000 0.029600 0.000000 0.000000
# 5 0.000000 0.000000 0.000000 0.000000 0.042829 0.000000
# 6 0.000000 0.000000 0.000000 0.000000 0.000000 0.057955
#
#
# Mechanical properties :
#
#
# Convention : Reuss Voigt Hill
#
# Bulk Modulus (GPa) = 38.06748 55.20495 46.63622
# Shear Modulus (GPa) = 23.66256 31.91002 27.78629
#
# Velocity S-wave (km/s) = 3.40455 3.95360 3.68930
# Velocity P-wave (km/s) = 5.83967 6.91976 6.40253
#
# Compressibility (1/GPa) = 0.02626914
#
# Stress axis : x y z
#
# Youngs Moduli (GPa) = 143.97594 32.74828 85.22031
#
# Poissons Ratio (x) = -0.05234 0.18470
# Poissons Ratio (y) = -0.23010 0.92926
# Poissons Ratio (z) = 0.31205 0.35709
#
# Static dielectric constant tensor:
#      x y z
#    x 1.838880 0.000000 0.000000 
#    y 0.000000 1.758320 0.000000 
#    z 0.000000 0.000000 1.725430 
# 
# From -- ./inp_files/10621.got.cif
#   From: 2010.05.17/outbox.cif.g08.bks.cpg/sg36_6_cif.got.tgz:10621.got - 2010.06.03 17:41:39.
