data_PCOD9351175
_publ_section_title
;
Structure prediction by ZEFSAII (Michael W. Deem and Ramdas Pophale) SiO2 
 PCOD9351175
Probable space group: C M C 21
;
_chemical_formula_sum "Si O2"
_cell_formula_units_Z 64
_cell_length_a 7.639522
_cell_length_b 15.837513
_cell_length_c 24.836278
_cell_angle_alpha 90.000000
_cell_angle_beta 90.000000
_cell_angle_gamma 90.000000
_cell_volume 3004.966831
_symmetry_space_group_name_H-M "C M C 21"
_symmetry_group_IT_number 36
_symmetry_cell_setting 'orthorhombic'
loop_
_space_group_symop_operation_xyz
x,y,z
-x,-y,1/2+z
x,-y,1/2+z
-x,y,z
1/2+x,1/2+y,z
1/2-x,1/2-y,1/2+z
1/2+x,1/2-y,1/2+z
1/2-x,1/2+y,z
loop_
_atom_site_type_symbol
_atom_site_label
_atom_site_fract_x
_atom_site_fract_y
_atom_site_fract_z
Si Si1 0.285959 0.406759 0.292010
Si Si2 0.789142 0.910791 0.024759
Si Si3 0.298534 0.643509 0.409597
Si Si4 0.203261 0.165401 0.906039
Si Si5 0.711996 0.403942 0.791618
Si Si6 0.214732 0.752228 0.095057
Si Si7 0.207281 0.598946 0.019968
Si Si8 0.708025 0.254455 0.217305
O O1 0.500000 0.406823 0.291564
O O2 0.232491 0.382802 0.352921
O O3 0.230596 0.501367 0.277367
O O4 0.223343 0.333645 0.251887
O O5 0.729116 0.837765 0.065057
O O6 0.000000 0.903482 0.022501
O O7 0.744537 0.005532 0.041091
O O8 0.719386 0.893282 0.964363
O O9 0.500000 0.613730 0.408302
O O10 0.295927 0.744876 0.413903
O O11 0.222435 0.617911 0.351902
O O12 0.000000 0.186131 0.896694
O O13 0.217299 0.111337 0.960183
O O14 0.500000 0.402695 0.792880
O O15 0.765148 0.331321 0.750421
O O16 0.272557 0.672082 0.059748
O O17 0.276297 0.749069 0.156554
O O18 0.000000 0.750706 0.095478
O O19 0.000000 0.609968 0.014529
O O20 0.500000 0.267933 0.212898
#
# Coordination Sequence:
#
# PCOD9351175 Si02
#       8
#     8   8   8   8   8   8   8   8
#     4   9  19  35  56  81 111 144 182 224 272 329
#     4  10  20  38  60  84 111 148 188 228 278 338
#     4  10  19  34  57  82 116 149 178 224 287 338
#     4  11  20  34  58  86 112 146 188 229 276 338
#     4  10  20  35  56  83 113 145 177 225 284 331
#     4   9  20  38  59  78 109 151 188 228 284 332
#     4  11  22  38  57  84 115 148 184 230 286 337
#     4  10  20  38  59  80 107 147 193 234 271 323
#
# _framework density 21.298069999999999
#
# number of rings (size 3 to 8) (size 9 to 14) (size 15 to 20)
#    0.000    2.000    2.500    1.500    0.000    3.500 
#    0.000    6.250    0.000    0.000    0.000    0.000 
#    0.000    0.000    0.000    0.000    0.000    0.000 
#
# Total GULP energy -178793.828511 kJ/mol
# GULP energy per Si atom -5587.307141 kJ/mol
# Density = 2.124959 g / cm^3
# Si number density = 21.298070 Si / 1000 Ang^3
#
#
#
# Elastic Constant Matrix: (Units=GPa)
#
#
# Indices 1 2 3 4 5 6 
#
# 1 41.1997 -8.1321 7.9725 0.0000 0.0000 0.0000
# 2 -8.1321 184.6698 91.6999 0.0000 0.0000 0.0000
# 3 7.9725 91.6999 170.6836 0.0000 0.0000 0.0000
# 4 0.0000 0.0000 0.0000 1.9860 0.0000 0.0000
# 5 0.0000 0.0000 0.0000 0.0000 13.2624 0.0000
# 6 0.0000 0.0000 0.0000 0.0000 0.0000 10.9268
#
#
#
# Elastic Compliance Matrix: (Units=1/GPa)
#
#
# Indices 1 2 3 4 5 6 
#
# 1 0.025196 0.002310 -0.002418 0.000000 0.000000 0.000000
# 2 0.002310 0.007597 -0.004189 0.000000 0.000000 0.000000
# 3 -0.002418 -0.004189 0.008223 0.000000 0.000000 0.000000
# 4 0.000000 0.000000 0.000000 0.503526 0.000000 0.000000
# 5 0.000000 0.000000 0.000000 0.000000 0.075401 0.000000
# 6 0.000000 0.000000 0.000000 0.000000 0.000000 0.091518
#
#
# Mechanical properties :
#
#
# Convention : Reuss Voigt Hill
#
# Bulk Modulus (GPa) = 30.84419 64.40374 47.62396
# Shear Modulus (GPa) = 6.84123 25.56923 16.20523
#
# Velocity S-wave (km/s) = 1.79419 3.46864 2.76139
# Velocity P-wave (km/s) = 4.33656 6.80785 5.70757
#
# Compressibility (1/GPa) = 0.03242102
#
# Stress axis : x y z
#
# Youngs Moduli (GPa) = 39.68895 131.62859 121.61700
#
# Poissons Ratio (x) = -0.30409 0.29408
# Poissons Ratio (y) = -0.09169 0.50951
# Poissons Ratio (z) = 0.09597 0.55145
#
# Static dielectric constant tensor:
#      x y z
#    x 1.828180 0.000000 0.000000 
#    y 0.000000 1.736630 0.000000 
#    z 0.000000 0.000000 1.748960 
# 
# From -- ./inp_files/15742.got.cif
#   From: 2010.05.17/outbox.cif.g08.bks.cpg/sg36_8_cif.got.tgz:15742.got - 2010.06.03 17:41:39.
