data_PCOD9351235
_publ_section_title
;
Structure prediction by ZEFSAII (Michael W. Deem and Ramdas Pophale) SiO2 
 PCOD9351235
Probable space group: C M C 21
;
_chemical_formula_sum "Si O2"
_cell_formula_units_Z 40
_cell_length_a 13.744320
_cell_length_b 21.801324
_cell_length_c 5.559789
_cell_angle_alpha 90.000000
_cell_angle_beta 90.000000
_cell_angle_gamma 90.000000
_cell_volume 1665.959492
_symmetry_space_group_name_H-M "C M C 21"
_symmetry_group_IT_number 36
_symmetry_cell_setting 'orthorhombic'
loop_
_space_group_symop_operation_xyz
x,y,z
-x,-y,1/2+z
x,-y,1/2+z
-x,y,z
1/2+x,1/2+y,z
1/2-x,1/2-y,1/2+z
1/2+x,1/2-y,1/2+z
1/2-x,1/2+y,z
loop_
_atom_site_type_symbol
_atom_site_label
_atom_site_fract_x
_atom_site_fract_y
_atom_site_fract_z
Si Si1 0.115280 0.262712 0.229850
Si Si2 0.135886 0.474228 0.365898
Si Si3 0.351847 0.521781 0.468492
Si Si4 0.272048 0.652969 0.433033
Si Si5 0.395682 0.140096 0.099237
O O1 0.156264 0.194660 0.272040
O O2 0.113661 0.291984 0.497665
O O3 0.000000 0.265108 0.146686
O O4 0.199984 0.301054 0.086270
O O5 0.098071 0.502133 0.121361
O O6 0.249121 0.488466 0.404787
O O7 0.111727 0.402672 0.365479
O O8 0.396737 0.488064 0.701230
O O9 0.331613 0.594081 0.530709
O O10 0.192141 0.621419 0.263740
O O11 0.500000 0.132390 0.217486
#
# Coordination Sequence:
#
# PCOD9351235 Si02
#       5
#     8   8   8   8   8
#     4  11  25  42  64  98 130 174 235 281 344 424
#     4  10  19  35  54  85 126 165 210 260 320 408
#     4  10  20  36  63  94 127 175 226 275 345 424
#     4  12  22  41  69  88 135 180 218 286 350 400
#     4  11  23  38  58  89 127 168 212 262 329 408
#
# _framework density 24.010186999999998
#
# number of rings (size 3 to 8) (size 9 to 14) (size 15 to 20)
#    0.000    1.200    6.000    3.000    0.000    0.800 
#    0.000    0.000    0.000    1.200    0.000    0.000 
#    0.000    0.000    0.000    0.000    0.000    0.000 
#
# Total GULP energy -111375.174763 kJ/mol
# GULP energy per Si atom -5568.758738 kJ/mol
# Density = 2.395554 g / cm^3
# Si number density = 24.010187 Si / 1000 Ang^3
#
#
#
# Elastic Constant Matrix: (Units=GPa)
#
#
# Indices 1 2 3 4 5 6 
#
# 1 134.0334 25.3814 22.0868 0.0000 0.0000 0.0000
# 2 25.3814 121.3967 24.0607 0.0000 0.0000 0.0000
# 3 22.0868 24.0607 121.9706 0.0000 0.0000 0.0000
# 4 0.0000 0.0000 0.0000 43.4475 0.0000 0.0000
# 5 0.0000 0.0000 0.0000 0.0000 -15.4888 0.0000
# 6 0.0000 0.0000 0.0000 0.0000 0.0000 -44.7544
#
#
#
# Elastic Compliance Matrix: (Units=1/GPa)
#
#
# Indices 1 2 3 4 5 6 
#
# 1 0.007921 -0.001428 -0.001153 0.000000 0.000000 0.000000
# 2 -0.001428 0.008830 -0.001483 0.000000 0.000000 0.000000
# 3 -0.001153 -0.001483 0.008700 0.000000 0.000000 0.000000
# 4 0.000000 0.000000 0.000000 0.023016 0.000000 0.000000
# 5 0.000000 0.000000 0.000000 0.000000 -0.064563 0.000000
# 6 0.000000 0.000000 0.000000 0.000000 0.000000 -0.022344
#
#
# Mechanical properties :
#
#
# Convention : Reuss Voigt Hill
#
# Bulk Modulus (GPa) = 57.72456 57.82872 57.77664
# Shear Modulus (GPa) = -203.77051 17.03231 -93.36910
#
# Velocity S-wave (km/s) = -9.22240 2.66631 -6.24273
# Velocity P-wave (km/s) = 9.45037 5.79795 5.27699
#
# Compressibility (1/GPa) = 0.01732365
#
# Stress axis : x y z
#
# Youngs Moduli (GPa) = 126.24449 113.25103 114.94188
#
# Poissons Ratio (x) = 0.16168 0.13250
# Poissons Ratio (y) = 0.18023 0.17050
# Poissons Ratio (z) = 0.14553 0.16799
#
# Static dielectric constant tensor:
#      x y z
#    x 1.931890 0.000000 0.000000 
#    y 0.000000 1.930220 0.000000 
#    z 0.000000 0.000000 2.001370 
# 
# From -- ./inp_files/742.got.cif
#   From: 2010.05.17/outbox.cif.g08.bks.cpg/sg36_1_cif.got.tgz:742.got - 2010.06.03 17:41:39.
