data_PCOD9351650
_publ_section_title
;
Structure prediction by ZEFSAII (Michael W. Deem and Ramdas Pophale) SiO2 
 PCOD9351650
Probable space group: C M C 21
;
_chemical_formula_sum "Si O2"
_cell_formula_units_Z 64
_cell_length_a 22.578776
_cell_length_b 7.447397
_cell_length_c 15.448265
_cell_angle_alpha 90.000000
_cell_angle_beta 90.000000
_cell_angle_gamma 90.000000
_cell_volume 2597.673783
_symmetry_space_group_name_H-M "C M C 21"
_symmetry_group_IT_number 36
_symmetry_cell_setting 'orthorhombic'
loop_
_space_group_symop_operation_xyz
x,y,z
-x,-y,1/2+z
x,-y,1/2+z
-x,y,z
1/2+x,1/2+y,z
1/2-x,1/2-y,1/2+z
1/2+x,1/2-y,1/2+z
1/2-x,1/2+y,z
loop_
_atom_site_type_symbol
_atom_site_label
_atom_site_fract_x
_atom_site_fract_y
_atom_site_fract_z
Si Si1 0.936887 0.970681 0.364390
Si Si2 0.185141 0.962530 0.607914
Si Si3 0.307608 0.919804 0.856520
Si Si4 0.935580 0.555153 0.660806
Si Si5 0.184584 0.956887 0.416135
Si Si6 0.563169 0.485599 0.658470
Si Si7 0.564619 0.958310 0.867363
Si Si8 0.807727 0.588051 0.668687
O O1 0.877365 0.057063 0.401341
O O2 0.937244 0.757141 0.382741
O O3 0.000000 0.044693 0.395302
O O4 0.935538 0.987669 0.261190
O O5 0.182198 0.878581 0.512578
O O6 0.123468 0.065442 0.620723
O O7 0.184516 0.801904 0.676957
O O8 0.246722 0.062872 0.617790
O O9 0.315991 0.706232 0.848513
O O10 0.368132 0.001931 0.896953
O O11 0.246031 0.942386 0.906150
O O12 0.300208 0.003880 0.762578
O O13 0.937312 0.770244 0.644913
O O14 0.934659 0.507333 0.764099
O O15 0.869015 0.508305 0.629733
O O16 0.000000 0.486528 0.628825
O O17 0.500000 0.555920 0.625575
O O18 0.500000 0.025828 0.899452
#
# Coordination Sequence:
#
# PCOD9351650 Si02
#       8
#     8   8   8   8   8   8   8   8
#     4   9  18  33  53  76 102 134 173 213 254 308
#     4  11  22  35  52  77 109 140 174 221 274 320
#     4  10  20  35  55  77 103 140 181 219 261 321
#     4   8  15  29  50  76 100 124 163 213 256 297
#     4  11  22  35  52  77 109 140 174 221 274 320
#     4   9  18  33  53  76 102 134 173 213 254 308
#     4   8  15  29  50  76 100 124 163 213 256 297
#     4  10  20  35  55  77 103 140 181 219 261 321
#
# _framework density 24.637426999999999
#
# number of rings (size 3 to 8) (size 9 to 14) (size 15 to 20)
#    0.000    2.500    0.000    2.250    0.000    4.500 
#    0.000    0.000    0.000    2.250    0.000    0.000 
#    0.000   10.000    0.000    0.000    0.000    0.000 
#
# Total GULP energy -178417.910584 kJ/mol
# GULP energy per Si atom -5575.559706 kJ/mol
# Density = 2.458135 g / cm^3
# Si number density = 24.637427 Si / 1000 Ang^3
#
#
#
# Elastic Constant Matrix: (Units=GPa)
#
#
# Indices 1 2 3 4 5 6 
#
# 1 351.3935 27.7613 39.8528 0.0000 0.0000 0.0000
# 2 27.7613 58.5835 -6.0023 0.0000 0.0000 0.0000
# 3 39.8528 -6.0023 45.4048 0.0000 0.0000 0.0000
# 4 0.0000 0.0000 0.0000 12.0250 0.0000 0.0000
# 5 0.0000 0.0000 0.0000 0.0000 -11.2732 0.0000
# 6 0.0000 0.0000 0.0000 0.0000 0.0000 13.8258
#
#
#
# Elastic Compliance Matrix: (Units=1/GPa)
#
#
# Indices 1 2 3 4 5 6 
#
# 1 0.003361 -0.001921 -0.003204 0.000000 0.000000 0.000000
# 2 -0.001921 0.018402 0.004119 0.000000 0.000000 0.000000
# 3 -0.003204 0.004119 0.025381 0.000000 0.000000 0.000000
# 4 0.000000 0.000000 0.000000 0.083160 0.000000 0.000000
# 5 0.000000 0.000000 0.000000 0.000000 -0.088706 0.000000
# 6 0.000000 0.000000 0.000000 0.000000 0.000000 0.072329
#
#
# Mechanical properties :
#
#
# Convention : Reuss Voigt Hill
#
# Bulk Modulus (GPa) = 22.15757 64.28949 43.22353
# Shear Modulus (GPa) = 38.17322 29.16686 33.67004
#
# Velocity S-wave (km/s) = 3.94051 3.44444 3.70079
# Velocity P-wave (km/s) = 5.45128 6.47841 5.98691
#
# Compressibility (1/GPa) = 0.04513131
#
# Stress axis : x y z
#
# Youngs Moduli (GPa) = 297.53583 54.34210 39.39995
#
# Poissons Ratio (x) = 0.10439 0.12623
# Poissons Ratio (y) = 0.57155 -0.16228
# Poissons Ratio (z) = 0.95328 -0.22382
#
# Static dielectric constant tensor:
#      x y z
#    x 2.097080 0.000000 0.000000 
#    y 0.000000 2.011750 0.000000 
#    z 0.000000 0.000000 1.794620 
# 
# From -- ./inp_files/15049.got.cif
#   From: 2010.05.17/outbox.cif.g08.bks.cpg/sg36_8_cif.got.tgz:15049.got - 2010.06.03 17:41:39.
