data_PCOD9351626
_publ_section_title
;
Structure prediction by ZEFSAII (Michael W. Deem and Ramdas Pophale) SiO2 
 PCOD9351626
Probable space group: C M C 21
;
_chemical_formula_sum "Si O2"
_cell_formula_units_Z 60
_cell_length_a 32.060302
_cell_length_b 10.389983
_cell_length_c 10.025510
_cell_angle_alpha 90.000000
_cell_angle_beta 90.000000
_cell_angle_gamma 90.000000
_cell_volume 3339.557461
_symmetry_space_group_name_H-M "C M C 21"
_symmetry_group_IT_number 36
_symmetry_cell_setting 'orthorhombic'
loop_
_space_group_symop_operation_xyz
x,y,z
-x,-y,1/2+z
x,-y,1/2+z
-x,y,z
1/2+x,1/2+y,z
1/2-x,1/2-y,1/2+z
1/2+x,1/2-y,1/2+z
1/2-x,1/2+y,z
loop_
_atom_site_type_symbol
_atom_site_label
_atom_site_fract_x
_atom_site_fract_y
_atom_site_fract_z
Si Si1 0.159228 0.379424 0.562410
Si Si2 0.000000 0.977563 0.582844
Si Si3 0.637322 0.698121 0.791449
Si Si4 0.205409 0.007604 0.332444
Si Si5 0.436214 0.495768 0.833628
Si Si6 0.134576 0.791508 0.837564
Si Si7 0.755793 0.856816 0.580872
Si Si8 0.832996 0.316911 0.067524
O O1 0.134537 0.302085 0.675284
O O2 0.139090 0.337419 0.422958
O O3 0.207143 0.333288 0.567842
O O4 0.161201 0.531673 0.582839
O O5 0.963855 0.979703 0.464146
O O6 0.963957 0.979774 0.701650
O O7 0.675916 0.600685 0.765606
O O8 0.596371 0.612190 0.809722
O O9 0.649130 0.770191 0.927342
O O10 0.229499 0.943954 0.455644
O O11 0.172253 0.113991 0.381885
O O12 0.234415 0.071553 0.220438
O O13 0.408070 0.368195 0.855367
O O14 0.143226 0.758899 0.684132
O O15 0.784855 0.729796 0.576933
#
# Coordination Sequence:
#
# PCOD9351626 Si02
#       8
#     8   4   8   8   8   8   8   8
#     4  12  24  33  54  79 110 158 210 237 283 326
#     4  10  20  34  68 106 116 132 164 230 296 350
#     4  10  21  38  57  80 116 154 185 233 295 342
#     4   9  20  37  56  75 104 154 196 249 302 323
#     4  10  20  39  64  96 122 136 176 224 292 359
#     4  10  21  38  57  80 116 154 185 233 295 342
#     4  10  23  34  53  74 111 146 208 268 282 308
#     4  10  23  37  51  81 110 159 208 241 285 321
#
# _framework density 17.966452
#
# number of rings (size 3 to 8) (size 9 to 14) (size 15 to 20)
#    0.000    1.867    0.000    3.200    7.467    6.400 
#    0.000    0.000    0.000    0.000    0.000   65.333 
#    0.000    0.000    0.000    0.000    0.000    0.000 
#
# Total GULP energy -167072.207386 kJ/mol
# GULP energy per Si atom -5569.073580 kJ/mol
# Density = 1.792556 g / cm^3
# Si number density = 17.966452 Si / 1000 Ang^3
#
#
#
# Elastic Constant Matrix: (Units=GPa)
#
#
# Indices 1 2 3 4 5 6 
#
# 1 91.2666 13.6548 21.2713 0.0000 0.0000 0.0000
# 2 13.6548 73.2559 -4.6611 0.0000 0.0000 0.0000
# 3 21.2713 -4.6611 75.5694 0.0000 0.0000 0.0000
# 4 0.0000 0.0000 0.0000 22.5895 0.0000 0.0000
# 5 0.0000 0.0000 0.0000 0.0000 15.5942 0.0000
# 6 0.0000 0.0000 0.0000 0.0000 0.0000 -0.6787
#
#
#
# Elastic Compliance Matrix: (Units=1/GPa)
#
#
# Indices 1 2 3 4 5 6 
#
# 1 0.012164 -0.002495 -0.003578 0.000000 0.000000 0.000000
# 2 -0.002495 0.014216 0.001579 0.000000 0.000000 0.000000
# 3 -0.003578 0.001579 0.014337 0.000000 0.000000 0.000000
# 4 0.000000 0.000000 0.000000 0.044268 0.000000 0.000000
# 5 0.000000 0.000000 0.000000 0.000000 0.064126 0.000000
# 6 0.000000 0.000000 0.000000 0.000000 0.000000 -1.473390
#
#
# Mechanical properties :
#
#
# Convention : Reuss Voigt Hill
#
# Bulk Modulus (GPa) = 31.51557 33.40246 32.45902
# Shear Modulus (GPa) = -3.83226 21.48946 8.82860
#
# Velocity S-wave (km/s) = -1.46207 3.46220 2.21914
# Velocity P-wave (km/s) = 3.83787 5.88340 4.96707
#
# Compressibility (1/GPa) = 0.03173034
#
# Stress axis : x y z
#
# Youngs Moduli (GPa) = 82.20926 70.34169 69.74780
#
# Poissons Ratio (x) = 0.17550 0.24955
# Poissons Ratio (y) = 0.20511 -0.11014
# Poissons Ratio (z) = 0.29413 -0.11108
#
# Static dielectric constant tensor:
#      x y z
#    x 1.589160 0.000000 0.000000 
#    y 0.000000 1.629360 0.000000 
#    z 0.000000 0.000000 1.613420 
# 
# From -- ./inp_files/6062.got.cif
#   From: 2010.05.17/outbox.cif.g08.bks.cpg/sg36_4_cif.got.tgz:6062.got - 2010.06.03 17:41:39.
