data_PCOD9351504
_publ_section_title
;
Structure prediction by ZEFSAII (Michael W. Deem and Ramdas Pophale) SiO2 
 PCOD9351504
Probable space group: C M C 21
;
_chemical_formula_sum "Si O2"
_cell_formula_units_Z 64
_cell_length_a 9.658402
_cell_length_b 25.014086
_cell_length_c 13.959413
_cell_angle_alpha 90.000000
_cell_angle_beta 90.000000
_cell_angle_gamma 90.000000
_cell_volume 3372.539715
_symmetry_space_group_name_H-M "C M C 21"
_symmetry_group_IT_number 36
_symmetry_cell_setting 'orthorhombic'
loop_
_space_group_symop_operation_xyz
x,y,z
-x,-y,1/2+z
x,-y,1/2+z
-x,y,z
1/2+x,1/2+y,z
1/2-x,1/2-y,1/2+z
1/2+x,1/2-y,1/2+z
1/2-x,1/2+y,z
loop_
_atom_site_type_symbol
_atom_site_label
_atom_site_fract_x
_atom_site_fract_y
_atom_site_fract_z
Si Si1 0.658627 0.953085 0.545410
Si Si2 0.837879 0.810613 0.329296
Si Si3 0.657138 0.431882 0.263143
Si Si4 0.342148 0.446513 0.036067
Si Si5 0.835134 0.779977 0.735274
Si Si6 0.655620 0.970877 0.774444
Si Si7 0.338425 0.621406 0.362847
Si Si8 0.333478 0.656405 0.038731
O O1 0.500000 0.947400 0.510763
O O2 0.748258 0.899058 0.532716
O O3 0.737783 0.006052 0.508613
O O4 0.651686 0.964260 0.659607
O O5 0.820646 0.872474 0.300295
O O6 0.747674 0.773152 0.261182
O O7 0.803877 0.809351 0.442779
O O8 0.000000 0.796836 0.318085
O O9 0.500000 0.448646 0.289359
O O10 0.769083 0.473857 0.299009
O O11 0.667064 0.433356 0.147936
O O12 0.500000 0.465110 0.017212
O O13 0.320079 0.393124 0.973950
O O14 0.803536 0.820731 0.822581
O O15 0.800168 0.810663 0.635840
O O16 0.000000 0.769698 0.732903
O O17 0.500000 0.968749 0.811747
O O18 0.746803 0.922165 0.810318
O O19 0.500000 0.612870 0.338285
O O20 0.500000 0.644956 0.039806
#
# Coordination Sequence:
#
# PCOD9351504 Si02
#       8
#     8   8   8   8   8   8   8   8
#     4  10  20  34  54  84 118 152 190 234 289 342
#     4  10  23  40  61  87 114 150 197 244 292 343
#     4   9  19  37  56  79 113 151 190 235 286 344
#     4   9  19  34  55  81 114 155 195 235 283 343
#     4  10  22  40  61  84 115 154 197 242 290 344
#     4  10  20  33  53  83 117 149 184 234 288 338
#     4  10  20  35  56  82 111 153 197 232 280 345
#     4  10  21  39  60  84 114 152 194 238 288 347
#
# _framework density 18.976797000000001
#
# number of rings (size 3 to 8) (size 9 to 14) (size 15 to 20)
#    0.000    2.250    1.250    0.750    1.750    4.500 
#    0.000    1.250    0.000    0.000    0.000    0.000 
#    0.000    0.000    0.000    0.000    0.000    0.000 
#
# Total GULP energy -178556.110204 kJ/mol
# GULP energy per Si atom -5579.878444 kJ/mol
# Density = 1.893361 g / cm^3
# Si number density = 18.976797 Si / 1000 Ang^3
#
#
#
# Elastic Constant Matrix: (Units=GPa)
#
#
# Indices 1 2 3 4 5 6 
#
# 1 28.1484 27.8358 13.4065 0.0000 0.0000 0.0000
# 2 27.8358 53.0000 13.6697 0.0000 0.0000 0.0000
# 3 13.4065 13.6697 56.6027 0.0000 0.0000 0.0000
# 4 0.0000 0.0000 0.0000 22.4061 0.0000 0.0000
# 5 0.0000 0.0000 0.0000 0.0000 20.1686 0.0000
# 6 0.0000 0.0000 0.0000 0.0000 0.0000 31.3366
#
#
#
# Elastic Compliance Matrix: (Units=1/GPa)
#
#
# Indices 1 2 3 4 5 6 
#
# 1 0.078135 -0.038672 -0.009167 0.000000 0.000000 0.000000
# 2 -0.038672 0.039262 -0.000322 0.000000 0.000000 0.000000
# 3 -0.009167 -0.000322 0.019916 0.000000 0.000000 0.000000
# 4 0.000000 0.000000 0.000000 0.044631 0.000000 0.000000
# 5 0.000000 0.000000 0.000000 0.000000 0.049582 0.000000
# 6 0.000000 0.000000 0.000000 0.000000 0.000000 0.031912
#
#
# Mechanical properties :
#
#
# Convention : Reuss Voigt Hill
#
# Bulk Modulus (GPa) = 24.39635 27.50834 25.95235
# Shear Modulus (GPa) = 13.38962 20.30487 16.84724
#
# Velocity S-wave (km/s) = 2.65915 3.27461 2.98280
# Velocity P-wave (km/s) = 4.72355 5.36886 5.05651
#
# Compressibility (1/GPa) = 0.04098974
#
# Stress axis : x y z
#
# Youngs Moduli (GPa) = 12.79836 25.46998 50.21077
#
# Poissons Ratio (x) = 0.98499 0.46028
# Poissons Ratio (y) = 0.49494 0.01618
# Poissons Ratio (z) = 0.11732 0.00821
#
# Static dielectric constant tensor:
#      x y z
#    x 1.654390 0.000000 0.000000 
#    y 0.000000 1.610280 0.000000 
#    z 0.000000 0.000000 1.710590 
# 
# From -- ./inp_files/11003.got.cif
#   From: 2010.05.17/outbox.cif.g08.bks.cpg/sg36_6_cif.got.tgz:11003.got - 2010.06.03 17:41:39.
