data_PCOD9351410
_publ_section_title
;
Structure prediction by ZEFSAII (Michael W. Deem and Ramdas Pophale) SiO2 
 PCOD9351410
Probable space group: C M C 21
;
_chemical_formula_sum "Si O2"
_cell_formula_units_Z 64
_cell_length_a 7.843464
_cell_length_b 24.665033
_cell_length_c 15.407309
_cell_angle_alpha 90.000000
_cell_angle_beta 90.000000
_cell_angle_gamma 90.000000
_cell_volume 2980.687189
_symmetry_space_group_name_H-M "C M C 21"
_symmetry_group_IT_number 36
_symmetry_cell_setting 'orthorhombic'
loop_
_space_group_symop_operation_xyz
x,y,z
-x,-y,1/2+z
x,-y,1/2+z
-x,y,z
1/2+x,1/2+y,z
1/2-x,1/2-y,1/2+z
1/2+x,1/2-y,1/2+z
1/2-x,1/2+y,z
loop_
_atom_site_type_symbol
_atom_site_label
_atom_site_fract_x
_atom_site_fract_y
_atom_site_fract_z
Si Si1 0.290727 0.751107 0.489130
Si Si2 0.205103 0.739420 0.791969
Si Si3 0.699028 0.026884 0.817743
Si Si4 0.201832 0.950563 0.665269
Si Si5 0.305725 0.370730 0.008719
Si Si6 0.701883 0.825369 0.650312
Si Si7 0.292568 0.872137 0.201899
Si Si8 0.199977 0.014356 0.496462
O O1 0.500000 0.750878 0.494047
O O2 0.239796 0.767233 0.391726
O O3 0.229304 0.688909 0.497850
O O4 0.231886 0.789736 0.567966
O O5 0.263879 0.792030 0.738747
O O6 0.255877 0.686333 0.738600
O O7 0.000000 0.741539 0.793573
O O8 0.500000 0.033439 0.836124
O O9 0.723246 0.976341 0.752727
O O10 0.787002 0.020112 0.909716
O O11 0.757072 0.080157 0.766715
O O12 0.230151 0.886457 0.654789
O O13 0.000000 0.959525 0.670126
O O14 0.270548 0.983547 0.580979
O O15 0.500000 0.366620 0.974554
O O16 0.299022 0.380738 0.111307
O O17 0.223654 0.426237 0.974408
O O18 0.500000 0.829821 0.639136
O O19 0.500000 0.873994 0.190106
O O20 0.000000 0.023988 0.514316
#
# Coordination Sequence:
#
# PCOD9351410 Si02
#       8
#     8   8   8   8   8   8   8   8
#     4   9  20  37  61  87 117 158 197 238 296 358
#     4  10  21  39  61  87 119 161 201 237 294 365
#     4  11  24  40  62  92 123 159 203 254 308 357
#     4  11  24  43  63  86 122 166 206 248 302 367
#     4  10  19  38  63  86 114 154 202 249 297 353
#     4  11  23  40  62  90 122 156 199 252 305 356
#     4  10  21  37  60  88 119 154 198 250 301 350
#     4  10  23  40  62  90 120 160 206 250 303 362
#
# _framework density 21.471558000000002
#
# number of rings (size 3 to 8) (size 9 to 14) (size 15 to 20)
#    0.000    1.750    2.500    1.125    3.500    2.000 
#    0.000    1.875    0.000    0.000    0.000    0.000 
#    0.000    0.000    0.000    0.000    0.000    0.000 
#
# Total GULP energy -178677.863420 kJ/mol
# GULP energy per Si atom -5583.683232 kJ/mol
# Density = 2.142269 g / cm^3
# Si number density = 21.471558 Si / 1000 Ang^3
#
#
#
# Elastic Constant Matrix: (Units=GPa)
#
#
# Indices 1 2 3 4 5 6 
#
# 1 25.6900 -4.7086 -5.5252 0.0000 0.0000 0.0000
# 2 -4.7086 77.5074 -16.4279 0.0000 0.0000 0.0000
# 3 -5.5252 -16.4279 59.9316 0.0000 0.0000 0.0000
# 4 0.0000 0.0000 0.0000 31.0344 0.0000 0.0000
# 5 0.0000 0.0000 0.0000 0.0000 -21.7569 0.0000
# 6 0.0000 0.0000 0.0000 0.0000 0.0000 -5.8938
#
#
#
# Elastic Compliance Matrix: (Units=1/GPa)
#
#
# Indices 1 2 3 4 5 6 
#
# 1 0.040568 0.003458 0.004688 0.000000 0.000000 0.000000
# 2 0.003458 0.013993 0.004154 0.000000 0.000000 0.000000
# 3 0.004688 0.004154 0.018257 0.000000 0.000000 0.000000
# 4 0.000000 0.000000 0.000000 0.032222 0.000000 0.000000
# 5 0.000000 0.000000 0.000000 0.000000 -0.045962 0.000000
# 6 0.000000 0.000000 0.000000 0.000000 0.000000 -0.169669
#
#
# Mechanical properties :
#
#
# Convention : Reuss Voigt Hill
#
# Bulk Modulus (GPa) = 10.26506 12.20060 11.23283
# Shear Modulus (GPa) = -48.67565 13.32944 -17.67310
#
# Velocity S-wave (km/s) = -4.76645 2.49428 -2.87207
# Velocity P-wave (km/s) = 5.04984 3.74029 2.39907
#
# Compressibility (1/GPa) = 0.09741784
#
# Stress axis : x y z
#
# Youngs Moduli (GPa) = 24.65014 71.46632 54.77460
#
# Poissons Ratio (x) = -0.24714 -0.25678
# Poissons Ratio (y) = -0.08524 -0.22755
# Poissons Ratio (z) = -0.11556 -0.29690
#
# Static dielectric constant tensor:
#      x y z
#    x 1.881570 0.000000 0.000000 
#    y 0.000000 1.856690 0.000000 
#    z 0.000000 0.000000 1.752450 
# 
# From -- ./inp_files/10908.got.cif
#   From: 2010.05.17/outbox.cif.g08.bks.cpg/sg36_6_cif.got.tgz:10908.got - 2010.06.03 17:41:39.
