data_PCOD9351208
_publ_section_title
;
Structure prediction by ZEFSAII (Michael W. Deem and Ramdas Pophale) SiO2 
 PCOD9351208
Probable space group: C M C 21
;
_chemical_formula_sum "Si O2"
_cell_formula_units_Z 64
_cell_length_a 7.892575
_cell_length_b 24.742836
_cell_length_c 14.457918
_cell_angle_alpha 90.000000
_cell_angle_beta 90.000000
_cell_angle_gamma 90.000000
_cell_volume 2823.410018
_symmetry_space_group_name_H-M "C M C 21"
_symmetry_group_IT_number 36
_symmetry_cell_setting 'orthorhombic'
loop_
_space_group_symop_operation_xyz
x,y,z
-x,-y,1/2+z
x,-y,1/2+z
-x,y,z
1/2+x,1/2+y,z
1/2-x,1/2-y,1/2+z
1/2+x,1/2-y,1/2+z
1/2-x,1/2+y,z
loop_
_atom_site_type_symbol
_atom_site_label
_atom_site_fract_x
_atom_site_fract_y
_atom_site_fract_z
Si Si1 0.308481 0.388226 0.025680
Si Si2 0.810389 0.556313 0.966977
Si Si3 0.198359 0.923286 0.666281
Si Si4 0.196060 0.040096 0.365185
Si Si5 0.700176 0.801583 0.692172
Si Si6 0.204233 0.830053 0.399331
Si Si7 0.207600 0.818313 0.185141
Si Si8 0.200572 0.710614 0.414220
O O1 0.500000 0.407754 0.046284
O O2 0.229540 0.366947 0.120696
O O3 0.224823 0.429741 0.954345
O O4 0.309229 0.332965 0.967186
O O5 0.698885 0.522005 0.895511
O O6 0.784034 0.619419 0.948886
O O7 0.000000 0.540275 0.944981
O O8 0.775325 0.548967 0.075647
O O9 0.268935 0.944205 0.765218
O O10 0.218922 0.858101 0.661703
O O11 0.000000 0.936212 0.663251
O O12 0.000000 0.058987 0.361058
O O13 0.500000 0.805257 0.670949
O O14 0.764724 0.742654 0.658553
O O15 0.717232 0.797905 0.803923
O O16 0.250794 0.829253 0.291189
O O17 0.252785 0.771525 0.437607
O O18 0.000000 0.833943 0.405574
O O19 0.000000 0.817258 0.179421
O O20 0.000000 0.703639 0.435486
#
# Coordination Sequence:
#
# PCOD9351208 Si02
#       8
#     8   8   8   8   8   8   8   8
#     4  10  19  34  58  89 120 155 205 250 297 360
#     4  12  27  43  63  91 121 159 207 259 312 362
#     4  11  23  41  64  90 121 158 203 250 302 368
#     4  10  23  43  64  88 120 161 208 258 306 361
#     4   9  17  33  56  86 124 161 199 242 300 358
#     4   9  19  39  60  84 122 164 205 246 301 366
#     4   8  17  33  57  88 124 164 198 242 301 362
#     4   9  18  32  54  84 122 162 197 243 301 357
#
# _framework density 22.667624
#
# number of rings (size 3 to 8) (size 9 to 14) (size 15 to 20)
#    0.000    2.250    1.250    3.000    1.750    3.000 
#    0.000    5.000    0.000    0.000    0.000    0.000 
#    0.000    0.000    0.000    0.000    0.000    0.000 
#
# Total GULP energy -178642.128565 kJ/mol
# GULP energy per Si atom -5582.566518 kJ/mol
# Density = 2.261603 g / cm^3
# Si number density = 22.667624 Si / 1000 Ang^3
#
#
#
# Elastic Constant Matrix: (Units=GPa)
#
#
# Indices 1 2 3 4 5 6 
#
# 1 28.3073 -0.7630 5.5324 0.0000 0.0000 0.0000
# 2 -0.7630 57.7179 17.6871 0.0000 0.0000 0.0000
# 3 5.5324 17.6871 79.3642 0.0000 0.0000 0.0000
# 4 0.0000 0.0000 0.0000 29.5382 0.0000 0.0000
# 5 0.0000 0.0000 0.0000 0.0000 12.9667 0.0000
# 6 0.0000 0.0000 0.0000 0.0000 0.0000 23.9122
#
#
#
# Elastic Compliance Matrix: (Units=1/GPa)
#
#
# Indices 1 2 3 4 5 6 
#
# 1 0.035910 0.001333 -0.002800 0.000000 0.000000 0.000000
# 2 0.001333 0.018645 -0.004248 0.000000 0.000000 0.000000
# 3 -0.002800 -0.004248 0.013742 0.000000 0.000000 0.000000
# 4 0.000000 0.000000 0.000000 0.033855 0.000000 0.000000
# 5 0.000000 0.000000 0.000000 0.000000 0.077121 0.000000
# 6 0.000000 0.000000 0.000000 0.000000 0.000000 0.041820
#
#
# Mechanical properties :
#
#
# Convention : Reuss Voigt Hill
#
# Bulk Modulus (GPa) = 17.58526 23.36692 20.47609
# Shear Modulus (GPa) = 19.88244 22.81227 21.34736
#
# Velocity S-wave (km/s) = 2.96485 3.17579 3.07213
# Velocity P-wave (km/s) = 4.41533 4.87631 4.65154
#
# Compressibility (1/GPa) = 0.05686579
#
# Stress axis : x y z
#
# Youngs Moduli (GPa) = 27.84754 53.63346 72.76918
#
# Poissons Ratio (x) = -0.07148 0.20377
# Poissons Ratio (y) = -0.03712 0.30913
# Poissons Ratio (z) = 0.07798 0.22784
#
# Static dielectric constant tensor:
#      x y z
#    x 1.840550 0.000000 0.000000 
#    y 0.000000 1.836810 0.000000 
#    z 0.000000 0.000000 1.872590 
# 
# From -- ./inp_files/11099.got.cif
#   From: 2010.05.17/outbox.cif.g08.bks.cpg/sg36_6_cif.got.tgz:11099.got - 2010.06.03 17:41:39.
