data_PCOD9351424
_publ_section_title
;
Structure prediction by ZEFSAII (Michael W. Deem and Ramdas Pophale) SiO2 
 PCOD9351424
Probable space group: C M C 21
;
_chemical_formula_sum "Si O2"
_cell_formula_units_Z 64
_cell_length_a 7.690412
_cell_length_b 31.153779
_cell_length_c 12.520007
_cell_angle_alpha 90.000000
_cell_angle_beta 90.000000
_cell_angle_gamma 90.000000
_cell_volume 2999.610833
_symmetry_space_group_name_H-M "C M C 21"
_symmetry_group_IT_number 36
_symmetry_cell_setting 'orthorhombic'
loop_
_space_group_symop_operation_xyz
x,y,z
-x,-y,1/2+z
x,-y,1/2+z
-x,y,z
1/2+x,1/2+y,z
1/2-x,1/2-y,1/2+z
1/2+x,1/2-y,1/2+z
1/2-x,1/2+y,z
loop_
_atom_site_type_symbol
_atom_site_label
_atom_site_fract_x
_atom_site_fract_y
_atom_site_fract_z
Si Si1 0.209375 0.124284 0.062350
Si Si2 0.209567 0.171942 0.420883
Si Si3 0.803735 0.462645 0.688242
Si Si4 0.786985 0.124589 0.817007
Si Si5 0.790864 0.072834 0.409948
Si Si6 0.801350 0.943867 0.145286
Si Si7 0.292072 0.696750 0.653364
Si Si8 0.209935 0.205765 0.201360
O O1 0.249849 0.080260 0.124951
O O2 0.272721 0.166388 0.127044
O O3 0.000000 0.127409 0.059105
O O4 0.273184 0.123249 0.939709
O O5 0.239450 0.122898 0.389312
O O6 0.278094 0.180918 0.539026
O O7 0.275126 0.200190 0.322810
O O8 0.000000 0.177756 0.426781
O O9 0.790455 0.453291 0.813873
O O10 0.697988 0.505623 0.665601
O O11 0.000000 0.472807 0.657526
O O12 0.730217 0.084032 0.743889
O O13 0.730772 0.167111 0.751668
O O14 0.000000 0.124079 0.822601
O O15 0.722587 0.063509 0.528479
O O16 0.000000 0.065003 0.406160
O O17 0.000000 0.927814 0.133952
O O18 0.500000 0.690768 0.652171
O O19 0.255467 0.746939 0.663014
O O20 0.000000 0.202411 0.203590
#
# Coordination Sequence:
#
# PCOD9351424 Si02
#       8
#     8   8   8   8   8   8   8   8
#     4  10  21  40  62  83 114 156 202 240 279 342
#     4   9  17  35  60  82 109 147 192 241 284 332
#     4  12  26  40  57  87 126 155 186 239 305 356
#     4   9  19  37  62  89 113 146 196 247 283 331
#     4  10  19  39  67  86 108 151 204 248 284 338
#     4  10  21  39  65  90 112 150 205 246 283 342
#     4  10  20  36  59  86 115 147 189 240 293 342
#     4  10  21  36  56  83 117 154 192 237 285 339
#
# _framework density 21.336099000000001
#
# number of rings (size 3 to 8) (size 9 to 14) (size 15 to 20)
#    0.000    2.000    2.500    1.125    3.500    1.000 
#    0.000    1.875    0.000    0.000    0.000    0.000 
#    0.000    0.000    0.000    0.000    0.000    0.000 
#
# Total GULP energy -178648.486470 kJ/mol
# GULP energy per Si atom -5582.765202 kJ/mol
# Density = 2.128754 g / cm^3
# Si number density = 21.336099 Si / 1000 Ang^3
#
#
#
# Elastic Constant Matrix: (Units=GPa)
#
#
# Indices 1 2 3 4 5 6 
#
# 1 37.3353 -1.4776 1.2969 0.0000 0.0000 0.0000
# 2 -1.4776 98.9277 40.6555 0.0000 0.0000 0.0000
# 3 1.2969 40.6555 120.1741 0.0000 0.0000 0.0000
# 4 0.0000 0.0000 0.0000 34.6015 0.0000 0.0000
# 5 0.0000 0.0000 0.0000 0.0000 -3.3908 0.0000
# 6 0.0000 0.0000 0.0000 0.0000 0.0000 9.5599
#
#
#
# Elastic Compliance Matrix: (Units=1/GPa)
#
#
# Indices 1 2 3 4 5 6 
#
# 1 0.026825 0.000604 -0.000494 0.000000 0.000000 0.000000
# 2 0.000604 0.011754 -0.003983 0.000000 0.000000 0.000000
# 3 -0.000494 -0.003983 0.009674 0.000000 0.000000 0.000000
# 4 0.000000 0.000000 0.000000 0.028901 0.000000 0.000000
# 5 0.000000 0.000000 0.000000 0.000000 -0.294918 0.000000
# 6 0.000000 0.000000 0.000000 0.000000 0.000000 0.104603
#
#
# Mechanical properties :
#
#
# Convention : Reuss Voigt Hill
#
# Bulk Modulus (GPa) = 24.68689 37.48742 31.08715
# Shear Modulus (GPa) = -54.39971 22.55161 -15.92405
#
# Velocity S-wave (km/s) = -5.05489 3.25463 -2.73489
# Velocity P-wave (km/s) = 4.74063 5.63308 2.15151
#
# Compressibility (1/GPa) = 0.04050734
#
# Stress axis : x y z
#
# Youngs Moduli (GPa) = 37.27818 85.07532 103.36905
#
# Poissons Ratio (x) = -0.05135 0.05103
# Poissons Ratio (y) = -0.02250 0.41172
# Poissons Ratio (z) = 0.01840 0.33886
#
# Static dielectric constant tensor:
#      x y z
#    x 1.799220 0.000000 0.000000 
#    y 0.000000 1.730020 0.000000 
#    z 0.000000 0.000000 1.777520 
# 
# From -- ./inp_files/7102.got.cif
#   From: 2010.05.17/outbox.cif.g08.bks.cpg/sg36_4_cif.got.tgz:7102.got - 2010.06.03 17:41:39.
