data_PCOD9351779
_publ_section_title
;
Structure prediction by ZEFSAII (Michael W. Deem and Ramdas Pophale) SiO2 
 PCOD9351779
Probable space group: C M C 21
;
_chemical_formula_sum "Si O2"
_cell_formula_units_Z 64
_cell_length_a 24.744028
_cell_length_b 14.228624
_cell_length_c 8.258333
_cell_angle_alpha 90.000000
_cell_angle_beta 90.000000
_cell_angle_gamma 90.000000
_cell_volume 2907.539961
_symmetry_space_group_name_H-M "C M C 21"
_symmetry_group_IT_number 36
_symmetry_cell_setting 'orthorhombic'
loop_
_space_group_symop_operation_xyz
x,y,z
-x,-y,1/2+z
x,-y,1/2+z
-x,y,z
1/2+x,1/2+y,z
1/2-x,1/2-y,1/2+z
1/2+x,1/2-y,1/2+z
1/2-x,1/2+y,z
loop_
_atom_site_type_symbol
_atom_site_label
_atom_site_fract_x
_atom_site_fract_y
_atom_site_fract_z
Si Si1 0.244670 0.268482 0.569010
Si Si2 0.767461 0.104446 0.761576
Si Si3 0.383446 0.389870 0.405607
Si Si4 0.060252 0.974067 0.112618
Si Si5 0.845291 0.460484 0.274443
Si Si6 0.365423 0.139587 0.117223
Si Si7 0.365396 0.765734 0.125392
Si Si8 0.062615 0.218771 0.435037
O O1 0.231893 0.157641 0.589033
O O2 0.247850 0.316553 0.393164
O O3 0.192994 0.315151 0.653795
O O4 0.305079 0.278547 0.639127
O O5 0.826814 0.081441 0.823544
O O6 0.720037 0.028067 0.761939
O O7 0.395665 0.448606 0.567434
O O8 0.428741 0.422496 0.281110
O O9 0.384736 0.280798 0.457573
O O10 0.000000 0.014963 0.111860
O O11 0.064402 0.890336 0.982181
O O12 0.875770 0.557310 0.244033
O O13 0.858585 0.417059 0.447972
O O14 0.858997 0.377896 0.144761
O O15 0.408181 0.220244 0.075488
O O16 0.404108 0.736476 0.271760
O O17 0.000000 0.246459 0.418122
#
# Coordination Sequence:
#
# PCOD9351779 Si02
#       8
#     8   8   8   8   8   8   8   8
#     4   9  18  34  55  82 118 152 189 238 290 348
#     4   9  19  34  54  85 116 152 192 235 291 349
#     4  11  22  36  59  86 114 149 195 238 287 360
#     4  11  24  39  56  81 112 148 191 245 299 346
#     4   9  20  35  55  82 118 150 183 235 295 347
#     4  10  20  36  56  83 115 152 193 237 292 348
#     4   9  20  39  59  85 117 153 196 243 299 353
#     4  10  22  41  62  82 112 156 203 251 301 353
#
# _framework density 22.011735000000002
#
# number of rings (size 3 to 8) (size 9 to 14) (size 15 to 20)
#    0.000    2.250    0.000    2.625    0.000   10.000 
#    0.000    2.500    0.000    0.000    0.000    0.000 
#    0.000    0.000    0.000    0.000    0.000    0.000 
#
# Total GULP energy -178565.845084 kJ/mol
# GULP energy per Si atom -5580.182659 kJ/mol
# Density = 2.196164 g / cm^3
# Si number density = 22.011735 Si / 1000 Ang^3
#
#
#
# Elastic Constant Matrix: (Units=GPa)
#
#
# Indices 1 2 3 4 5 6 
#
# 1 92.8800 31.3529 25.9954 0.0000 0.0000 0.0000
# 2 31.3529 51.0624 5.7883 0.0000 0.0000 0.0000
# 3 25.9954 5.7883 41.5310 0.0000 0.0000 0.0000
# 4 0.0000 0.0000 0.0000 39.0378 0.0000 0.0000
# 5 0.0000 0.0000 0.0000 0.0000 28.6310 0.0000
# 6 0.0000 0.0000 0.0000 0.0000 0.0000 23.5422
#
#
#
# Elastic Compliance Matrix: (Units=1/GPa)
#
#
# Indices 1 2 3 4 5 6 
#
# 1 0.016311 -0.009000 -0.008955 0.000000 0.000000 0.000000
# 2 -0.009000 0.024864 0.002168 0.000000 0.000000 0.000000
# 3 -0.008955 0.002168 0.029382 0.000000 0.000000 0.000000
# 4 0.000000 0.000000 0.000000 0.025616 0.000000 0.000000
# 5 0.000000 0.000000 0.000000 0.000000 0.034927 0.000000
# 6 0.000000 0.000000 0.000000 0.000000 0.000000 0.042477
#
#
# Mechanical properties :
#
#
# Convention : Reuss Voigt Hill
#
# Bulk Modulus (GPa) = 25.65262 34.63851 30.14556
# Shear Modulus (GPa) = 22.92045 26.39799 24.65922
#
# Velocity S-wave (km/s) = 3.23039 3.46680 3.35068
# Velocity P-wave (km/s) = 5.05898 5.63875 5.35671
#
# Compressibility (1/GPa) = 0.03898237
#
# Stress axis : x y z
#
# Youngs Moduli (GPa) = 61.30814 40.21837 34.03496
#
# Poissons Ratio (x) = 0.36197 0.30479
# Poissons Ratio (y) = 0.55178 -0.07379
# Poissons Ratio (z) = 0.54903 -0.08719
#
# Static dielectric constant tensor:
#      x y z
#    x 1.783650 0.000000 0.000000 
#    y 0.000000 1.842290 0.000000 
#    z 0.000000 0.000000 1.895430 
# 
# From -- ./inp_files/5658.got.cif
#   From: 2010.05.17/outbox.cif.g08.bks.cpg/sg36_3_cif.got.tgz:5658.got - 2010.06.03 17:41:39.
