data_PCOD9351542
_publ_section_title
;
Structure prediction by ZEFSAII (Michael W. Deem and Ramdas Pophale) SiO2 
 PCOD9351542
Probable space group: C M C 21
;
_chemical_formula_sum "Si O2"
_cell_formula_units_Z 64
_cell_length_a 7.449299
_cell_length_b 30.098322
_cell_length_c 12.593269
_cell_angle_alpha 90.000000
_cell_angle_beta 90.000000
_cell_angle_gamma 90.000000
_cell_volume 2823.554473
_symmetry_space_group_name_H-M "C M C 21"
_symmetry_group_IT_number 36
_symmetry_cell_setting 'orthorhombic'
loop_
_space_group_symop_operation_xyz
x,y,z
-x,-y,1/2+z
x,-y,1/2+z
-x,y,z
1/2+x,1/2+y,z
1/2-x,1/2-y,1/2+z
1/2+x,1/2-y,1/2+z
1/2-x,1/2+y,z
loop_
_atom_site_type_symbol
_atom_site_label
_atom_site_fract_x
_atom_site_fract_y
_atom_site_fract_z
Si Si1 0.793242 0.158429 0.451340
Si Si2 0.780163 0.675277 0.039110
Si Si3 0.281359 0.905685 0.149131
Si Si4 0.713685 0.421388 0.818848
Si Si5 0.283242 0.730869 0.605384
Si Si6 0.784237 0.485471 0.016567
Si Si7 0.204875 0.422557 0.582579
Si Si8 0.787780 0.666758 0.801803
O O1 0.785466 0.125545 0.553134
O O2 0.715361 0.126924 0.359382
O O3 0.715885 0.203581 0.501243
O O4 0.000000 0.167388 0.422458
O O5 0.721164 0.680328 0.916814
O O6 0.000000 0.675823 0.045630
O O7 0.720545 0.718466 0.103919
O O8 0.716399 0.626697 0.074140
O O9 0.500000 0.904756 0.147128
O O10 0.223361 0.954937 0.116177
O O11 0.220255 0.880425 0.255085
O O12 0.500000 0.417458 0.806074
O O13 0.794843 0.434412 0.706817
O O14 0.745982 0.457767 0.910292
O O15 0.500000 0.730214 0.598053
O O16 0.238056 0.703670 0.711184
O O17 0.712747 0.535447 0.021933
O O18 0.000000 0.488521 0.025040
O O19 0.000000 0.418203 0.543110
O O20 0.000000 0.660992 0.815108
#
# Coordination Sequence:
#
# PCOD9351542 Si02
#       8
#     8   8   8   8   8   8   8   8
#     4   8  15  28  47  70  96 128 164 201 244 297
#     4   9  19  34  51  73 103 136 167 205 253 302
#     4   8  14  26  47  74  97 118 154 204 247 286
#     4  10  20  34  53  77 105 135 167 209 260 307
#     4   9  17  32  52  73  99 132 171 210 251 301
#     4   9  18  33  54  77 100 131 172 212 249 299
#     4  10  21  36  53  75 104 137 172 209 251 302
#     4   9  17  31  51  73  98 129 165 206 253 300
#
# _framework density 22.666466
#
# number of rings (size 3 to 8) (size 9 to 14) (size 15 to 20)
#    0.000    3.000    0.000    0.375    0.000    3.000 
#    0.000    6.875    0.000    4.500    0.000    0.000 
#    0.000    0.000    0.000    0.000    0.000    0.000 
#
# Total GULP energy -178392.167802 kJ/mol
# GULP energy per Si atom -5574.755244 kJ/mol
# Density = 2.261488 g / cm^3
# Si number density = 22.666466 Si / 1000 Ang^3
#
#
#
# Elastic Constant Matrix: (Units=GPa)
#
#
# Indices 1 2 3 4 5 6 
#
# 1 72.0429 0.2396 -10.9612 0.0000 0.0000 0.0000
# 2 0.2396 160.2702 35.6436 0.0000 0.0000 0.0000
# 3 -10.9612 35.6436 60.0946 0.0000 0.0000 0.0000
# 4 0.0000 0.0000 0.0000 24.3166 0.0000 0.0000
# 5 0.0000 0.0000 0.0000 0.0000 -330.6393 0.0000
# 6 0.0000 0.0000 0.0000 0.0000 0.0000 6.9085
#
#
#
# Elastic Compliance Matrix: (Units=1/GPa)
#
#
# Indices 1 2 3 4 5 6 
#
# 1 0.014344 -0.000695 0.003028 0.000000 0.000000 0.000000
# 2 -0.000695 0.007221 -0.004410 0.000000 0.000000 0.000000
# 3 0.003028 -0.004410 0.019808 0.000000 0.000000 0.000000
# 4 0.000000 0.000000 0.000000 0.041124 0.000000 0.000000
# 5 0.000000 0.000000 0.000000 0.000000 -0.003024 0.000000
# 6 0.000000 0.000000 0.000000 0.000000 0.000000 0.144750
#
#
# Mechanical properties :
#
#
# Convention : Reuss Voigt Hill
#
# Bulk Modulus (GPa) = 26.86679 38.02797 32.44738
# Shear Modulus (GPa) = 20.76562 -42.05047 -10.64243
#
# Velocity S-wave (km/s) = 3.03006 -4.31186 -2.16920
# Velocity P-wave (km/s) = 4.91127 2.82416 2.84118
#
# Compressibility (1/GPa) = 0.03722068
#
# Stress axis : x y z
#
# Youngs Moduli (GPa) = 69.71701 138.48030 50.48359
#
# Poissons Ratio (x) = 0.09624 -0.15289
# Poissons Ratio (y) = 0.04845 0.22263
# Poissons Ratio (z) = -0.21114 0.61068
#
# Static dielectric constant tensor:
#      x y z
#    x 2.287730 0.000000 0.000000 
#    y 0.000000 1.885510 0.000000 
#    z 0.000000 0.000000 1.846320 
# 
# From -- ./inp_files/7225.got.cif
#   From: 2010.05.17/outbox.cif.g08.bks.cpg/sg36_4_cif.got.tgz:7225.got - 2010.06.03 17:41:39.
