data_PCOD9351855
_publ_section_title
;
Structure prediction by ZEFSAII (Michael W. Deem and Ramdas Pophale) SiO2 
 PCOD9351855
Probable space group: C M C 21
;
_chemical_formula_sum "Si O2"
_cell_formula_units_Z 64
_cell_length_a 14.449840
_cell_length_b 9.515284
_cell_length_c 18.619596
_cell_angle_alpha 90.000000
_cell_angle_beta 90.000000
_cell_angle_gamma 90.000000
_cell_volume 2560.088902
_symmetry_space_group_name_H-M "C M C 21"
_symmetry_group_IT_number 36
_symmetry_cell_setting 'orthorhombic'
loop_
_space_group_symop_operation_xyz
x,y,z
-x,-y,1/2+z
x,-y,1/2+z
-x,y,z
1/2+x,1/2+y,z
1/2-x,1/2-y,1/2+z
1/2+x,1/2-y,1/2+z
1/2-x,1/2+y,z
loop_
_atom_site_type_symbol
_atom_site_label
_atom_site_fract_x
_atom_site_fract_y
_atom_site_fract_z
Si Si1 0.894193 0.744905 0.503380
Si Si2 0.603204 0.940843 0.747581
Si Si3 0.606772 0.426220 0.018703
Si Si4 0.397107 0.220174 0.660789
Si Si5 0.697283 0.764174 0.861965
Si Si6 0.191643 0.226231 0.649864
Si Si7 0.898857 0.219687 0.363204
Si Si8 0.395708 0.545364 0.766771
O O1 0.894070 0.663243 0.578505
O O2 0.829290 0.688356 0.441287
O O3 0.000000 0.746351 0.476669
O O4 0.868454 0.908396 0.519028
O O5 0.500000 0.911351 0.775846
O O6 0.677519 0.889219 0.805815
O O7 0.622387 0.845307 0.677703
O O8 0.604735 0.099138 0.720034
O O9 0.500000 0.417201 0.044985
O O10 0.669290 0.332252 0.071265
O O11 0.606397 0.368346 0.937524
O O12 0.500000 0.290873 0.663708
O O13 0.294794 0.285317 0.662410
O O14 0.800924 0.704469 0.860411
O O15 0.629677 0.641909 0.834865
O O16 0.172560 0.096273 0.704476
O O17 0.000000 0.291167 0.362928
O O18 0.895215 0.112105 0.296248
O O19 0.500000 0.577249 0.743001
#
# Coordination Sequence:
#
# PCOD9351855 Si02
#       8
#     8   8   8   8   8   8   8   8
#     4  10  20  37  62  90 119 157 202 246 296 356
#     4  10  22  40  62  89 120 154 201 251 293 353
#     4  10  20  36  60  91 121 151 199 255 298 347
#     4  10  23  40  56  85 127 159 193 247 302 355
#     4  11  19  36  64  89 112 156 198 240 291 355
#     4  11  21  36  63  88 115 161 205 240 295 358
#     4  10  21  37  57  87 121 148 187 251 299 340
#     4  10  20  38  62  87 115 150 203 248 286 350
#
# _framework density 24.999133
#
# number of rings (size 3 to 8) (size 9 to 14) (size 15 to 20)
#    0.000    1.750    1.250    4.500    1.750    0.000 
#    0.000    2.500    0.000    2.250    0.000    0.000 
#    0.000    0.000    0.000    0.000    0.000    0.000 
#
# Total GULP energy -178959.620195 kJ/mol
# GULP energy per Si atom -5592.488131 kJ/mol
# Density = 2.494223 g / cm^3
# Si number density = 24.999133 Si / 1000 Ang^3
#
#
#
# Elastic Constant Matrix: (Units=GPa)
#
#
# Indices 1 2 3 4 5 6 
#
# 1 155.7535 10.8910 37.9805 0.0000 0.0000 0.0000
# 2 10.8910 61.1218 11.5134 0.0000 0.0000 0.0000
# 3 37.9805 11.5134 126.1559 0.0000 0.0000 0.0000
# 4 0.0000 0.0000 0.0000 35.6921 0.0000 0.0000
# 5 0.0000 0.0000 0.0000 0.0000 43.0806 0.0000
# 6 0.0000 0.0000 0.0000 0.0000 0.0000 7.2539
#
#
#
# Elastic Compliance Matrix: (Units=1/GPa)
#
#
# Indices 1 2 3 4 5 6 
#
# 1 0.006973 -0.000862 -0.002021 0.000000 0.000000 0.000000
# 2 -0.000862 0.016753 -0.001269 0.000000 0.000000 0.000000
# 3 -0.002021 -0.001269 0.008651 0.000000 0.000000 0.000000
# 4 0.000000 0.000000 0.000000 0.028017 0.000000 0.000000
# 5 0.000000 0.000000 0.000000 0.000000 0.023212 0.000000
# 6 0.000000 0.000000 0.000000 0.000000 0.000000 0.137856
#
#
# Mechanical properties :
#
#
# Convention : Reuss Voigt Hill
#
# Bulk Modulus (GPa) = 41.53943 51.53345 46.53644
# Shear Modulus (GPa) = 21.02672 36.04840 28.53756
#
# Velocity S-wave (km/s) = 2.90332 3.80147 3.38234
# Velocity P-wave (km/s) = 5.28123 6.31879 5.82316
#
# Compressibility (1/GPa) = 0.02407351
#
# Stress axis : x y z
#
# Youngs Moduli (GPa) = 143.40140 59.68904 115.59451
#
# Poissons Ratio (x) = 0.05145 0.23359
# Poissons Ratio (y) = 0.12360 0.14675
# Poissons Ratio (z) = 0.28978 0.07577
#
# Static dielectric constant tensor:
#      x y z
#    x 1.978430 0.000000 0.000000 
#    y 0.000000 1.985170 0.000000 
#    z 0.000000 0.000000 1.982100 
# 
# From -- ./inp_files/14739.got.cif
#   From: 2010.05.17/outbox.cif.g08.bks.cpg/sg36_8_cif.got.tgz:14739.got - 2010.06.03 17:41:39.
