data_PCOD9351780
_publ_section_title
;
Structure prediction by ZEFSAII (Michael W. Deem and Ramdas Pophale) SiO2 
 PCOD9351780
Probable space group: C M C 21
;
_chemical_formula_sum "Si O2"
_cell_formula_units_Z 64
_cell_length_a 9.153429
_cell_length_b 25.641186
_cell_length_c 12.784165
_cell_angle_alpha 90.000000
_cell_angle_beta 90.000000
_cell_angle_gamma 90.000000
_cell_volume 3000.504577
_symmetry_space_group_name_H-M "C M C 21"
_symmetry_group_IT_number 36
_symmetry_cell_setting 'orthorhombic'
loop_
_space_group_symop_operation_xyz
x,y,z
-x,-y,1/2+z
x,-y,1/2+z
-x,y,z
1/2+x,1/2+y,z
1/2-x,1/2-y,1/2+z
1/2+x,1/2-y,1/2+z
1/2-x,1/2+y,z
loop_
_atom_site_type_symbol
_atom_site_label
_atom_site_fract_x
_atom_site_fract_y
_atom_site_fract_z
Si Si1 0.672162 0.785809 0.810330
Si Si2 0.327389 0.461786 0.007908
Si Si3 0.672321 0.424013 0.586137
Si Si4 0.173252 0.316475 0.232261
Si Si5 0.833076 0.675538 0.074792
Si Si6 0.170436 0.545184 0.298744
Si Si7 0.330555 0.930510 0.216018
Si Si8 0.328077 0.295534 0.016306
O O1 0.500000 0.784057 0.834868
O O2 0.735341 0.727839 0.790367
O O3 0.689662 0.814296 0.698902
O O4 0.762345 0.810834 0.904760
O O5 0.500000 0.454889 0.996388
O O6 0.295227 0.523722 0.020856
O O7 0.271723 0.436706 0.115332
O O8 0.244812 0.440394 0.907278
O O9 0.500000 0.422409 0.603348
O O10 0.727726 0.370060 0.538148
O O11 0.752844 0.431171 0.697122
O O12 0.196231 0.375410 0.271586
O O13 0.232019 0.315953 0.112774
O O14 0.000000 0.304238 0.236742
O O15 0.816162 0.732347 0.023931
O O16 0.000000 0.658520 0.058160
O O17 0.185630 0.482436 0.284224
O O18 0.000000 0.558913 0.298622
O O19 0.500000 0.929367 0.179744
O O20 0.500000 0.308814 0.027847
#
# Coordination Sequence:
#
# PCOD9351780 Si02
#       8
#     8   8   8   8   8   8   8   8
#     4  10  21  37  56  80 109 142 180 220 265 316
#     4  10  21  36  54  79 109 138 173 220 267 311
#     4  10  21  36  55  80 108 138 175 220 267 312
#     4  10  20  36  57  81 109 139 176 222 268 316
#     4   9  20  37  55  77 107 141 178 219 261 313
#     4  10  20  36  57  78 105 142 179 215 259 314
#     4   9  20  37  56  79 106 140 179 216 260 316
#     4  10  21  37  56  80 109 142 180 220 265 316
#
# _framework density 21.329744999999999
#
# number of rings (size 3 to 8) (size 9 to 14) (size 15 to 20)
#    0.000    2.250    0.000    3.000    0.000    8.000 
#    0.000    5.000    0.000    0.000    0.000    0.000 
#    0.000    0.000    0.000    0.000    0.000    0.000 
#
# Total GULP energy -178864.444145 kJ/mol
# GULP energy per Si atom -5589.513880 kJ/mol
# Density = 2.128120 g / cm^3
# Si number density = 21.329745 Si / 1000 Ang^3
#
#
#
# Elastic Constant Matrix: (Units=GPa)
#
#
# Indices 1 2 3 4 5 6 
#
# 1 55.3450 27.0361 32.9347 0.0000 0.0000 0.0000
# 2 27.0361 81.9342 -20.4912 0.0000 0.0000 0.0000
# 3 32.9347 -20.4912 71.0490 0.0000 0.0000 0.0000
# 4 0.0000 0.0000 0.0000 -11.2050 0.0000 0.0000
# 5 0.0000 0.0000 0.0000 0.0000 22.5635 0.0000
# 6 0.0000 0.0000 0.0000 0.0000 0.0000 24.5491
#
#
#
# Elastic Compliance Matrix: (Units=1/GPa)
#
#
# Indices 1 2 3 4 5 6 
#
# 1 0.044404 -0.021339 -0.026738 0.000000 0.000000 0.000000
# 2 -0.021339 0.023408 0.016643 0.000000 0.000000 0.000000
# 3 -0.026738 0.016643 0.031269 0.000000 0.000000 0.000000
# 4 0.000000 0.000000 0.000000 -0.089246 0.000000 0.000000
# 5 0.000000 0.000000 0.000000 0.000000 0.044319 0.000000
# 6 0.000000 0.000000 0.000000 0.000000 0.000000 0.040735
#
#
# Mechanical properties :
#
#
# Convention : Reuss Voigt Hill
#
# Bulk Modulus (GPa) = 27.61383 31.92082 29.76732
# Shear Modulus (GPa) = 29.44159 18.43810 23.93984
#
# Velocity S-wave (km/s) = 3.71928 2.94331 3.35381
# Velocity P-wave (km/s) = 5.60520 5.15254 5.38363
#
# Compressibility (1/GPa) = 0.03621374
#
# Stress axis : x y z
#
# Youngs Moduli (GPa) = 22.52066 42.71953 31.98054
#
# Poissons Ratio (x) = 0.91159 0.85509
# Poissons Ratio (y) = 0.48057 -0.53225
# Poissons Ratio (z) = 0.60215 -0.71098
#
# Static dielectric constant tensor:
#      x y z
#    x 1.718980 0.000000 0.000000 
#    y 0.000000 1.817540 0.000000 
#    z 0.000000 0.000000 1.750600 
# 
# From -- ./inp_files/11190.got.cif
#   From: 2010.05.17/outbox.cif.g08.bks.cpg/sg36_6_cif.got.tgz:11190.got - 2010.06.03 17:41:39.
