data_PCOD9351359
_publ_section_title
;
Structure prediction by ZEFSAII (Michael W. Deem and Ramdas Pophale) SiO2 
 PCOD9351359
Probable space group: C M C 21
;
_chemical_formula_sum "Si O2"
_cell_formula_units_Z 64
_cell_length_a 8.601647
_cell_length_b 15.832448
_cell_length_c 24.326399
_cell_angle_alpha 90.000000
_cell_angle_beta 90.000000
_cell_angle_gamma 90.000000
_cell_volume 3312.893782
_symmetry_space_group_name_H-M "C M C 21"
_symmetry_group_IT_number 36
_symmetry_cell_setting 'orthorhombic'
loop_
_space_group_symop_operation_xyz
x,y,z
-x,-y,1/2+z
x,-y,1/2+z
-x,y,z
1/2+x,1/2+y,z
1/2-x,1/2-y,1/2+z
1/2+x,1/2-y,1/2+z
1/2-x,1/2+y,z
loop_
_atom_site_type_symbol
_atom_site_label
_atom_site_fract_x
_atom_site_fract_y
_atom_site_fract_z
Si Si1 0.685162 0.150162 0.085030
Si Si2 0.310508 0.660850 0.592562
Si Si3 0.814006 0.897038 0.213225
Si Si4 0.185252 0.666138 0.828018
Si Si5 0.187686 0.499553 0.394164
Si Si6 0.314004 0.494550 0.016762
Si Si7 0.684073 0.597758 0.201781
Si Si8 0.185743 0.654980 0.316822
O O1 0.500000 0.145722 0.077625
O O2 0.737696 0.246126 0.073632
O O3 0.762799 0.080219 0.046814
O O4 0.726990 0.129691 0.148123
O O5 0.500000 0.659224 0.592972
O O6 0.262840 0.643547 0.655500
O O7 0.257978 0.585022 0.553321
O O8 0.728903 0.859366 0.265804
O O9 0.000000 0.883259 0.219579
O O10 0.787374 0.997582 0.209407
O O11 0.237426 0.588871 0.866720
O O12 0.264578 0.755080 0.840959
O O13 0.000000 0.675026 0.832811
O O14 0.249819 0.509015 0.455382
O O15 0.237021 0.577363 0.355384
O O16 0.000000 0.499742 0.395395
O O17 0.500000 0.491301 0.015344
O O18 0.500000 0.609527 0.193390
O O19 0.738931 0.643816 0.256895
O O20 0.000000 0.651279 0.310873
#
# Coordination Sequence:
#
# PCOD9351359 Si02
#       8
#     8   8   8   8   8   8   8   8
#     4  11  22  38  63  91 123 161 200 245 304 362
#     4   9  20  39  60  86 119 157 194 239 296 357
#     4  10  19  36  62  89 124 160 197 243 301 364
#     4  11  23  40  62  91 124 157 202 250 300 363
#     4  10  24  44  62  85 120 158 203 254 303 361
#     4  11  23  42  64  86 117 157 206 255 303 359
#     4  11  21  36  62  94 126 159 201 249 301 363
#     4  11  23  41  63  90 125 161 201 249 306 365
#
# _framework density 19.318456999999999
#
# number of rings (size 3 to 8) (size 9 to 14) (size 15 to 20)
#    0.000    1.500    2.500    2.625    0.000    4.500 
#    0.000    6.875    0.000    0.000    0.000    0.000 
#    0.000    0.000    0.000    0.000    0.000    0.000 
#
# Total GULP energy -178897.781622 kJ/mol
# GULP energy per Si atom -5590.555676 kJ/mol
# Density = 1.927449 g / cm^3
# Si number density = 19.318457 Si / 1000 Ang^3
#
#
#
# Elastic Constant Matrix: (Units=GPa)
#
#
# Indices 1 2 3 4 5 6 
#
# 1 9.3030 7.5971 -3.9012 0.0000 0.0000 0.0000
# 2 7.5971 85.5771 8.5039 0.0000 0.0000 0.0000
# 3 -3.9012 8.5039 82.1168 0.0000 0.0000 0.0000
# 4 0.0000 0.0000 0.0000 1.5043 0.0000 0.0000
# 5 0.0000 0.0000 0.0000 0.0000 -8.0293 0.0000
# 6 0.0000 0.0000 0.0000 0.0000 0.0000 27.9036
#
#
#
# Elastic Compliance Matrix: (Units=1/GPa)
#
#
# Indices 1 2 3 4 5 6 
#
# 1 0.119591 -0.011298 0.006851 0.000000 0.000000 0.000000
# 2 -0.011298 0.012874 -0.001870 0.000000 0.000000 0.000000
# 3 0.006851 -0.001870 0.012697 0.000000 0.000000 0.000000
# 4 0.000000 0.000000 0.000000 0.664779 0.000000 0.000000
# 5 0.000000 0.000000 0.000000 0.000000 -0.124543 0.000000
# 6 0.000000 0.000000 0.000000 0.000000 0.000000 0.035838
#
#
# Mechanical properties :
#
#
# Convention : Reuss Voigt Hill
#
# Bulk Modulus (GPa) = 7.54548 22.37739 14.96143
# Shear Modulus (GPa) = 6.42638 15.26219 10.84428
#
# Velocity S-wave (km/s) = 1.82586 2.81380 2.37184
# Velocity P-wave (km/s) = 2.89125 4.70799 3.90670
#
# Compressibility (1/GPa) = 0.13252975
#
# Stress axis : x y z
#
# Youngs Moduli (GPa) = 8.36186 77.67521 78.75922
#
# Poissons Ratio (x) = 0.87754 -0.53962
# Poissons Ratio (y) = 0.09447 0.14728
# Poissons Ratio (z) = -0.05729 0.14525
#
# Static dielectric constant tensor:
#      x y z
#    x 1.661930 0.000000 0.000000 
#    y 0.000000 1.682550 0.000000 
#    z 0.000000 0.000000 1.631400 
# 
# From -- ./inp_files/16658.got.cif
#   From: 2010.05.17/outbox.cif.g08.bks.cpg/sg36_9_cif.got.tgz:16658.got - 2010.06.03 17:41:39.
