data_PCOD9351288
_publ_section_title
;
Structure prediction by ZEFSAII (Michael W. Deem and Ramdas Pophale) SiO2 
 PCOD9351288
Probable space group: C M C 21
;
_chemical_formula_sum "Si O2"
_cell_formula_units_Z 60
_cell_length_a 18.509581
_cell_length_b 31.149620
_cell_length_c 5.019630
_cell_angle_alpha 90.000000
_cell_angle_beta 90.000000
_cell_angle_gamma 90.000000
_cell_volume 2894.150071
_symmetry_space_group_name_H-M "C M C 21"
_symmetry_group_IT_number 36
_symmetry_cell_setting 'orthorhombic'
loop_
_space_group_symop_operation_xyz
x,y,z
-x,-y,1/2+z
x,-y,1/2+z
-x,y,z
1/2+x,1/2+y,z
1/2-x,1/2-y,1/2+z
1/2+x,1/2-y,1/2+z
1/2-x,1/2+y,z
loop_
_atom_site_type_symbol
_atom_site_label
_atom_site_fract_x
_atom_site_fract_y
_atom_site_fract_z
Si Si1 0.081745 0.341764 0.107260
Si Si2 0.915778 0.028938 0.274036
Si Si3 0.739460 0.133795 0.624692
Si Si4 0.284928 0.412583 0.631447
Si Si5 0.650624 0.971215 0.781864
Si Si6 0.000000 0.469718 0.648763
Si Si7 0.918988 0.719688 0.107481
Si Si8 0.281891 0.729811 0.771722
O O1 0.152336 0.371143 0.138479
O O2 0.089468 0.303615 0.324261
O O3 0.000000 0.359941 0.137954
O O4 0.087991 0.318711 0.822104
O O5 0.861318 0.066473 0.198657
O O6 0.000000 0.041318 0.249248
O O7 0.902895 0.010105 0.567377
O O8 0.767726 0.127053 0.326411
O O9 0.761568 0.180858 0.721735
O O10 0.775570 0.100213 0.825761
O O11 0.221975 0.445658 0.712505
O O12 0.575586 0.946820 0.711946
O O13 0.649837 0.012240 0.583309
O O14 0.000000 0.489592 0.354169
O O15 0.860701 0.755519 0.175749
O O16 0.000000 0.737058 0.126946
O O17 0.230082 0.757531 0.577466
#
# Coordination Sequence:
#
# PCOD9351288 Si02
#       8
#     8   8   8   8   8   4   8   8
#     4  10  20  37  58  82 115 150 195 248 290 338
#     4  10  21  41  69  95 119 159 210 251 298 363
#     4  12  24  38  56  89 123 158 192 244 310 352
#     4  12  24  38  57  91 125 152 193 243 305 356
#     4  10  19  36  58  77 107 149 190 229 271 335
#     4   8  16  30  52  78 102 140 188 228 264 308
#     4  10  19  35  60  86 106 141 199 252 288 337
#     4  12  21  38  62  81 110 155 205 247 294 362
#
# _framework density 20.731475
#
# number of rings (size 3 to 8) (size 9 to 14) (size 15 to 20)
#    0.000    1.333    2.667    4.000    0.000    0.000 
#    2.400    1.333    0.000    0.000    0.000    0.000 
#    0.000    0.000    0.000    0.000    0.000    0.000 
#
# Total GULP energy -167710.037010 kJ/mol
# GULP energy per Si atom -5590.334567 kJ/mol
# Density = 2.068429 g / cm^3
# Si number density = 20.731475 Si / 1000 Ang^3
#
#
#
# Elastic Constant Matrix: (Units=GPa)
#
#
# Indices 1 2 3 4 5 6 
#
# 1 97.0500 21.3279 -2.8980 0.0000 0.0000 0.0000
# 2 21.3279 27.4112 -3.9835 0.0000 0.0000 0.0000
# 3 -2.8980 -3.9835 60.1400 0.0000 0.0000 0.0000
# 4 0.0000 0.0000 0.0000 23.6997 0.0000 0.0000
# 5 0.0000 0.0000 0.0000 0.0000 25.9186 0.0000
# 6 0.0000 0.0000 0.0000 0.0000 0.0000 21.4244
#
#
#
# Elastic Compliance Matrix: (Units=1/GPa)
#
#
# Indices 1 2 3 4 5 6 
#
# 1 0.012429 -0.009677 -0.000042 0.000000 0.000000 0.000000
# 2 -0.009677 0.044370 0.002473 0.000000 0.000000 0.000000
# 3 -0.000042 0.002473 0.016790 0.000000 0.000000 0.000000
# 4 0.000000 0.000000 0.000000 0.042195 0.000000 0.000000
# 5 0.000000 0.000000 0.000000 0.000000 0.038582 0.000000
# 6 0.000000 0.000000 0.000000 0.000000 0.000000 0.046676
#
#
# Mechanical properties :
#
#
# Convention : Reuss Voigt Hill
#
# Bulk Modulus (GPa) = 16.92151 23.72155 20.32153
# Shear Modulus (GPa) = 21.25546 25.55219 23.40382
#
# Velocity S-wave (km/s) = 3.20546 3.51455 3.36356
# Velocity P-wave (km/s) = 4.67760 5.28550 4.99082
#
# Compressibility (1/GPa) = 0.05909638
#
# Stress axis : x y z
#
# Youngs Moduli (GPa) = 80.45465 22.53762 59.56057
#
# Poissons Ratio (x) = 0.21810 0.00250
# Poissons Ratio (y) = 0.77857 -0.14727
# Poissons Ratio (z) = 0.00338 -0.05573
#
# Static dielectric constant tensor:
#      x y z
#    x 1.769420 0.000000 0.000000 
#    y 0.000000 1.719830 0.000000 
#    z 0.000000 0.000000 1.727100 
# 
# From -- ./inp_files/1185.got.cif
#   From: 2010.05.17/outbox.cif.g08.bks.cpg/sg36_1_cif.got.tgz:1185.got - 2010.06.03 17:41:39.
