data_PCOD9351844
_publ_section_title
;
Structure prediction by ZEFSAII (Michael W. Deem and Ramdas Pophale) SiO2 
 PCOD9351844
Probable space group: C M C 21
;
_chemical_formula_sum "Si O2"
_cell_formula_units_Z 48
_cell_length_a 21.922619
_cell_length_b 19.581867
_cell_length_c 4.930028
_cell_angle_alpha 90.000000
_cell_angle_beta 90.000000
_cell_angle_gamma 90.000000
_cell_volume 2116.391061
_symmetry_space_group_name_H-M "C M C 21"
_symmetry_group_IT_number 36
_symmetry_cell_setting 'orthorhombic'
loop_
_space_group_symop_operation_xyz
x,y,z
-x,-y,1/2+z
x,-y,1/2+z
-x,y,z
1/2+x,1/2+y,z
1/2-x,1/2-y,1/2+z
1/2+x,1/2-y,1/2+z
1/2-x,1/2+y,z
loop_
_atom_site_type_symbol
_atom_site_label
_atom_site_fract_x
_atom_site_fract_y
_atom_site_fract_z
Si Si1 0.673319 0.342044 0.784410
Si Si2 0.300947 0.199933 0.998083
Si Si3 0.231555 0.961589 0.118204
Si Si4 0.657682 0.121911 0.499170
Si Si5 0.927215 0.051667 0.097480
Si Si6 0.072164 0.540605 0.827319
O O1 0.668695 0.274703 0.976127
O O2 0.731415 0.316601 0.598058
O O3 0.800690 0.444885 0.034762
O O4 0.614985 0.379944 0.640608
O O5 0.305816 0.173807 0.692604
O O6 0.340539 0.154030 0.204630
O O7 0.194066 0.901479 0.987170
O O8 0.220022 0.028381 0.934207
O O9 0.597303 0.104942 0.664657
O O10 0.000000 0.069511 0.107803
O O11 0.915999 0.992890 0.325811
O O12 0.089862 0.524235 0.135618
O O13 0.000000 0.544985 0.827314
#
# Coordination Sequence:
#
# PCOD9351844 Si02
#       6
#     8   8   8   8   8   8
#     4  11  23  42  61  89 125 159 204 251 305 375
#     4  11  25  38  60  85 121 166 198 242 305 364
#     4  11  21  32  54  83 109 143 184 239 301 351
#     4  11  22  39  55  84 121 154 198 245 292 365
#     4  10  23  43  68  96 126 164 211 265 320 374
#     4  10  20  36  60  85 114 154 195 244 299 347
#
# _framework density 22.680118
#
# number of rings (size 3 to 8) (size 9 to 14) (size 15 to 20)
#    0.000    1.333    0.000    7.000    0.000    6.667 
#    0.000    1.667    0.000    0.000    0.000    1.167 
#    0.000    0.000    0.000    0.000    0.000    0.000 
#
# Total GULP energy -133828.729177 kJ/mol
# GULP energy per Si atom -5576.197049 kJ/mol
# Density = 2.262850 g / cm^3
# Si number density = 22.680118 Si / 1000 Ang^3
#
#
#
# Elastic Constant Matrix: (Units=GPa)
#
#
# Indices 1 2 3 4 5 6 
#
# 1 74.0110 35.4416 -7.7248 0.0000 0.0000 0.0000
# 2 35.4416 96.4105 12.8138 0.0000 0.0000 0.0000
# 3 -7.7248 12.8138 90.1197 0.0000 0.0000 0.0000
# 4 0.0000 0.0000 0.0000 29.5371 0.0000 0.0000
# 5 0.0000 0.0000 0.0000 0.0000 20.7812 0.0000
# 6 0.0000 0.0000 0.0000 0.0000 0.0000 28.8956
#
#
#
# Elastic Compliance Matrix: (Units=1/GPa)
#
#
# Indices 1 2 3 4 5 6 
#
# 1 0.016882 -0.006522 0.002374 0.000000 0.000000 0.000000
# 2 -0.006522 0.013091 -0.002420 0.000000 0.000000 0.000000
# 3 0.002374 -0.002420 0.011644 0.000000 0.000000 0.000000
# 4 0.000000 0.000000 0.000000 0.033856 0.000000 0.000000
# 5 0.000000 0.000000 0.000000 0.000000 0.048120 0.000000
# 6 0.000000 0.000000 0.000000 0.000000 0.000000 0.034607
#
#
# Mechanical properties :
#
#
# Convention : Reuss Voigt Hill
#
# Bulk Modulus (GPa) = 35.10950 37.95584 36.53267
# Shear Modulus (GPa) = 27.65012 30.51015 29.08013
#
# Velocity S-wave (km/s) = 3.49540 3.67173 3.58465
# Velocity P-wave (km/s) = 5.63953 5.89466 5.76851
#
# Compressibility (1/GPa) = 0.02848232
#
# Stress axis : x y z
#
# Youngs Moduli (GPa) = 59.23330 76.38547 85.88084
#
# Poissons Ratio (x) = 0.49817 -0.20392
# Poissons Ratio (y) = 0.38630 0.20787
# Poissons Ratio (z) = -0.14064 0.18489
#
# Static dielectric constant tensor:
#      x y z
#    x 1.969650 0.000000 0.000000 
#    y 0.000000 1.944820 0.000000 
#    z 0.000000 0.000000 1.852070 
# 
# From -- ./inp_files/1349.got.cif
#   From: 2010.05.17/outbox.cif.g08.bks.cpg/sg36_1_cif.got.tgz:1349.got - 2010.06.03 17:41:39.
