data_PCOD9351345
_publ_section_title
;
Structure prediction by ZEFSAII (Michael W. Deem and Ramdas Pophale) SiO2 
 PCOD9351345
Probable space group: C M C 21
;
_chemical_formula_sum "Si O2"
_cell_formula_units_Z 64
_cell_length_a 8.554062
_cell_length_b 24.434269
_cell_length_c 15.869534
_cell_angle_alpha 90.000000
_cell_angle_beta 90.000000
_cell_angle_gamma 90.000000
_cell_volume 3316.927039
_symmetry_space_group_name_H-M "C M C 21"
_symmetry_group_IT_number 36
_symmetry_cell_setting 'orthorhombic'
loop_
_space_group_symop_operation_xyz
x,y,z
-x,-y,1/2+z
x,-y,1/2+z
-x,y,z
1/2+x,1/2+y,z
1/2-x,1/2-y,1/2+z
1/2+x,1/2-y,1/2+z
1/2-x,1/2+y,z
loop_
_atom_site_type_symbol
_atom_site_label
_atom_site_fract_x
_atom_site_fract_y
_atom_site_fract_z
Si Si1 0.310133 0.251662 0.595240
Si Si2 0.187281 0.444905 0.692038
Si Si3 0.811253 0.250251 0.291409
Si Si4 0.188644 0.570703 0.692434
Si Si5 0.812965 0.127855 0.344316
Si Si6 0.189231 0.636469 0.525534
Si Si7 0.810651 0.872649 0.539685
Si Si8 0.686598 0.636890 0.852052
O O1 0.500000 0.251794 0.592927
O O2 0.266075 0.244344 0.693030
O O3 0.258227 0.199205 0.541859
O O4 0.258465 0.310796 0.562635
O O5 0.241514 0.507844 0.693665
O O6 0.246226 0.412193 0.773580
O O7 0.246750 0.414038 0.608866
O O8 0.000000 0.444592 0.691827
O O9 0.763646 0.190305 0.323124
O O10 0.737705 0.300045 0.342369
O O11 0.000000 0.254262 0.296168
O O12 0.238218 0.601305 0.606809
O O13 0.244848 0.603194 0.774336
O O14 0.000000 0.571636 0.693015
O O15 0.755764 0.114822 0.438031
O O16 0.000000 0.125991 0.340022
O O17 0.000000 0.635854 0.521471
O O18 0.762509 0.884643 0.443784
O O19 0.000000 0.873413 0.544013
O O20 0.500000 0.634161 0.848549
#
# Coordination Sequence:
#
# PCOD9351345 Si02
#       8
#     8   8   8   8   8   8   8   8
#     4   9  16  33  61  85 114 156 191 230 292 352
#     4  11  24  41  62  87 113 153 208 252 288 343
#     4  10  19  36  61  86 118 161 196 232 292 356
#     4  10  23  43  63  83 116 160 201 246 297 346
#     4  11  23  39  61  89 123 158 192 239 301 355
#     4  10  20  38  63  87 115 153 198 244 292 350
#     4  10  21  39  60  87 122 156 189 237 302 356
#     4  11  23  37  61  94 123 153 193 242 296 352
#
# _framework density 19.294967
#
# number of rings (size 3 to 8) (size 9 to 14) (size 15 to 20)
#    0.000    1.750    2.500    1.875    0.000    5.500 
#    0.000    4.375    0.000    0.000    0.000    0.000 
#    0.000    0.000    0.000    0.000    0.000    0.000 
#
# Total GULP energy -178804.555933 kJ/mol
# GULP energy per Si atom -5587.642373 kJ/mol
# Density = 1.925105 g / cm^3
# Si number density = 19.294967 Si / 1000 Ang^3
#
#
#
# Elastic Constant Matrix: (Units=GPa)
#
#
# Indices 1 2 3 4 5 6 
#
# 1 14.1102 24.9503 24.9479 0.0000 0.0000 0.0000
# 2 24.9503 128.9734 47.5193 0.0000 0.0000 0.0000
# 3 24.9479 47.5193 126.6912 0.0000 0.0000 0.0000
# 4 0.0000 0.0000 0.0000 0.3109 0.0000 0.0000
# 5 0.0000 0.0000 0.0000 0.0000 28.4189 0.0000
# 6 0.0000 0.0000 0.0000 0.0000 0.0000 26.2317
#
#
#
# Elastic Compliance Matrix: (Units=1/GPa)
#
#
# Indices 1 2 3 4 5 6 
#
# 1 0.142652 -0.020012 -0.020585 0.000000 0.000000 0.000000
# 2 -0.020012 0.011804 -0.000487 0.000000 0.000000 0.000000
# 3 -0.020585 -0.000487 0.012129 0.000000 0.000000 0.000000
# 4 0.000000 0.000000 0.000000 3.216396 0.000000 0.000000
# 5 0.000000 0.000000 0.000000 0.000000 0.035188 0.000000
# 6 0.000000 0.000000 0.000000 0.000000 0.000000 0.038122
#
#
# Mechanical properties :
#
#
# Convention : Reuss Voigt Hill
#
# Bulk Modulus (GPa) = 11.84576 51.62333 31.73454
# Shear Modulus (GPa) = 1.40190 22.48281 11.94235
#
# Velocity S-wave (km/s) = 0.85331 3.41723 2.49054
# Velocity P-wave (km/s) = 2.66898 6.51021 4.97525
#
# Compressibility (1/GPa) = 0.08441837
#
# Stress axis : x y z
#
# Youngs Moduli (GPa) = 7.01006 84.71487 82.44487
#
# Poissons Ratio (x) = 1.69533 1.69711
# Poissons Ratio (y) = 0.14029 0.04013
# Poissons Ratio (z) = 0.14430 0.04124
#
# Static dielectric constant tensor:
#      x y z
#    x 1.656890 0.000000 0.000000 
#    y 0.000000 1.659080 0.000000 
#    z 0.000000 0.000000 1.656450 
# 
# From -- ./inp_files/10976.got.cif
#   From: 2010.05.17/outbox.cif.g08.bks.cpg/sg36_6_cif.got.tgz:10976.got - 2010.06.03 17:41:39.
