data_PCOD9351955
_publ_section_title
;
Structure prediction by ZEFSAII (Michael W. Deem and Ramdas Pophale) SiO2 
 PCOD9351955
Probable space group: C M C 21
;
_chemical_formula_sum "Si O2"
_cell_formula_units_Z 48
_cell_length_a 29.436694
_cell_length_b 9.187768
_cell_length_c 6.683407
_cell_angle_alpha 90.000000
_cell_angle_beta 90.000000
_cell_angle_gamma 90.000000
_cell_volume 1807.577650
_symmetry_space_group_name_H-M "C M C 21"
_symmetry_group_IT_number 36
_symmetry_cell_setting 'orthorhombic'
loop_
_space_group_symop_operation_xyz
x,y,z
-x,-y,1/2+z
x,-y,1/2+z
-x,y,z
1/2+x,1/2+y,z
1/2-x,1/2-y,1/2+z
1/2+x,1/2-y,1/2+z
1/2-x,1/2+y,z
loop_
_atom_site_type_symbol
_atom_site_label
_atom_site_fract_x
_atom_site_fract_y
_atom_site_fract_z
Si Si1 0.500000 0.760133 0.180800
Si Si2 0.683211 0.331840 0.206660
Si Si3 0.399834 0.472555 0.042682
Si Si4 0.400152 0.768848 0.192153
Si Si5 0.321014 0.010709 0.205165
Si Si6 0.253053 0.498091 0.956976
Si Si7 0.000000 0.961990 0.055971
O O1 0.451082 0.837555 0.181853
O O2 0.500000 0.653736 0.375942
O O3 0.500000 0.636384 0.007647
O O4 0.644726 0.448852 0.175184
O O5 0.661591 0.174950 0.209371
O O6 0.712805 0.367998 0.402762
O O7 0.716749 0.354878 0.014947
O O8 0.397783 0.648397 0.015440
O O9 0.397904 0.340227 0.883555
O O10 0.449308 0.448390 0.145176
O O11 0.359765 0.884958 0.198664
O O12 0.259665 0.029887 0.206432
O O13 0.305672 0.002773 0.954882
#
# Coordination Sequence:
#
# PCOD9351955 Si02
#       7
#     4   8   8   8   8   8   4
#     4   8  16  34  59  90 124 164 207 256 306 368
#     4  11  22  39  62  90 122 158 208 261 314 374
#     4  10  20  37  61  92 126 167 210 255 307 376
#     4  10  21  38  64  94 129 167 211 258 313 372
#     4  11  23  41  63  91 122 160 204 263 321 371
#     4  10  24  40  61  87 118 163 208 251 311 383
#     4   8  16  32  57  86 122 164 209 250 298 366
#
# _framework density 26.554874999999999
#
# number of rings (size 3 to 8) (size 9 to 14) (size 15 to 20)
#    0.000    2.000    0.000    3.000    0.000    9.333 
#    0.000    0.833    0.000    1.000    0.000    0.000 
#    0.000    0.000    0.000    0.000    0.000    0.000 
#
# Total GULP energy -133716.667139 kJ/mol
# GULP energy per Si atom -5571.527797 kJ/mol
# Density = 2.649443 g / cm^3
# Si number density = 26.554875 Si / 1000 Ang^3
#
#
#
# Elastic Constant Matrix: (Units=GPa)
#
#
# Indices 1 2 3 4 5 6 
#
# 1 238.1689 102.9070 81.1037 0.0000 0.0000 0.0000
# 2 102.9070 143.9516 37.1539 0.0000 0.0000 0.0000
# 3 81.1037 37.1539 158.7455 0.0000 0.0000 0.0000
# 4 0.0000 0.0000 0.0000 41.3399 0.0000 0.0000
# 5 0.0000 0.0000 0.0000 0.0000 48.8780 0.0000
# 6 0.0000 0.0000 0.0000 0.0000 0.0000 45.3477
#
#
#
# Elastic Compliance Matrix: (Units=1/GPa)
#
#
# Indices 1 2 3 4 5 6 
#
# 1 0.006913 -0.004289 -0.002528 0.000000 0.000000 0.000000
# 2 -0.004289 0.010055 -0.000162 0.000000 0.000000 0.000000
# 3 -0.002528 -0.000162 0.007629 0.000000 0.000000 0.000000
# 4 0.000000 0.000000 0.000000 0.024190 0.000000 0.000000
# 5 0.000000 0.000000 0.000000 0.000000 0.020459 0.000000
# 6 0.000000 0.000000 0.000000 0.000000 0.000000 0.022052
#
#
# Mechanical properties :
#
#
# Convention : Reuss Voigt Hill
#
# Bulk Modulus (GPa) = 94.00000 109.24392 101.62196
# Shear Modulus (GPa) = 45.95524 48.42654 47.19089
#
# Velocity S-wave (km/s) = 4.16453 4.27504 4.22015
# Velocity P-wave (km/s) = 7.65504 8.09915 7.88023
#
# Compressibility (1/GPa) = 0.01063830
#
# Stress axis : x y z
#
# Youngs Moduli (GPa) = 144.65809 99.45400 131.08248
#
# Poissons Ratio (x) = 0.42659 0.33136
# Poissons Ratio (y) = 0.62049 0.02122
# Poissons Ratio (z) = 0.36568 0.01610
#
# Static dielectric constant tensor:
#      x y z
#    x 2.102360 0.000000 0.000000 
#    y 0.000000 1.934200 0.000000 
#    z 0.000000 0.000000 2.446630 
# 
# From -- ./inp_files/6000.got.cif
#   From: 2010.05.17/outbox.cif.g08.bks.cpg/sg36_3_cif.got.tgz:6000.got - 2010.06.03 17:41:39.
