data_PCOD9351252
_publ_section_title
;
Structure prediction by ZEFSAII (Michael W. Deem and Ramdas Pophale) SiO2 
 PCOD9351252
Probable space group: C M C 21
;
_chemical_formula_sum "Si O2"
_cell_formula_units_Z 64
_cell_length_a 8.948465
_cell_length_b 20.462902
_cell_length_c 19.926313
_cell_angle_alpha 90.000000
_cell_angle_beta 90.000000
_cell_angle_gamma 90.000000
_cell_volume 3648.738305
_symmetry_space_group_name_H-M "C M C 21"
_symmetry_group_IT_number 36
_symmetry_cell_setting 'orthorhombic'
loop_
_space_group_symop_operation_xyz
x,y,z
-x,-y,1/2+z
x,-y,1/2+z
-x,y,z
1/2+x,1/2+y,z
1/2-x,1/2-y,1/2+z
1/2+x,1/2-y,1/2+z
1/2-x,1/2+y,z
loop_
_atom_site_type_symbol
_atom_site_label
_atom_site_fract_x
_atom_site_fract_y
_atom_site_fract_z
Si Si1 0.322084 0.833900 0.386460
Si Si2 0.177916 0.166285 0.740895
Si Si3 0.676844 0.051851 0.658602
Si Si4 0.322454 0.580962 0.125348
Si Si5 0.823147 0.948375 0.468641
Si Si6 0.820946 0.769598 0.640616
Si Si7 0.822471 0.418815 0.001882
Si Si8 0.179055 0.730628 0.486801
O O1 0.500000 0.833589 0.381985
O O2 0.249998 0.824952 0.313690
O O3 0.264621 0.901773 0.418379
O O4 0.265028 0.777020 0.435965
O O5 0.235358 0.098471 0.708835
O O6 0.234987 0.223262 0.691511
O O7 0.000000 0.166599 0.745369
O O8 0.500000 0.056587 0.671012
O O9 0.705049 0.076376 0.582129
O O10 0.731974 0.977201 0.659881
O O11 0.500000 0.570090 0.134792
O O12 0.285644 0.653826 0.149136
O O13 0.294843 0.576167 0.045105
O O14 0.000000 0.943624 0.456270
O O15 0.768067 0.023032 0.467363
O O16 0.787216 0.750062 0.563721
O O17 0.000000 0.760615 0.649586
O O18 0.000000 0.429693 0.992390
O O19 0.785652 0.345935 0.978148
O O20 0.000000 0.739632 0.477844
#
# Coordination Sequence:
#
# PCOD9351252 Si02
#       8
#     8   8   8   8   8   8   8   8
#     4  12  25  40  59  84 117 156 200 243 295 355
#     4  12  25  40  59  84 117 156 200 243 295 355
#     4  10  19  35  57  84 117 151 190 237 289 341
#     4   9  18  33  57  87 118 150 187 235 287 340
#     4  10  19  35  57  84 117 151 190 237 289 341
#     4  10  19  37  61  87 120 155 192 239 294 346
#     4   9  18  33  57  87 118 150 187 235 287 340
#     4  10  19  37  61  87 120 155 192 239 294 346
#
# _framework density 17.540309000000001
#
# number of rings (size 3 to 8) (size 9 to 14) (size 15 to 20)
#    0.000    1.750    2.500    3.000    0.000    2.500 
#    0.000    1.250    0.000    6.000    0.000    0.000 
#    0.000    0.000    0.000    0.000    0.000    0.000 
#
# Total GULP energy -178750.704521 kJ/mol
# GULP energy per Si atom -5585.959516 kJ/mol
# Density = 1.750039 g / cm^3
# Si number density = 17.540309 Si / 1000 Ang^3
#
#
#
# Elastic Constant Matrix: (Units=GPa)
#
#
# Indices 1 2 3 4 5 6 
#
# 1 109.7893 84.1276 81.8273 0.0000 0.0000 0.0000
# 2 84.1276 139.2320 75.0532 0.0000 0.0000 0.0000
# 3 81.8273 75.0532 108.1290 0.0000 0.0000 0.0000
# 4 0.0000 0.0000 0.0000 15.2113 0.0000 0.0000
# 5 0.0000 0.0000 0.0000 0.0000 25.8870 0.0000
# 6 0.0000 0.0000 0.0000 0.0000 0.0000 35.5977
#
#
#
# Elastic Compliance Matrix: (Units=1/GPa)
#
#
# Indices 1 2 3 4 5 6 
#
# 1 0.025449 -0.007982 -0.013718 0.000000 0.000000 0.000000
# 2 -0.007982 0.013980 -0.003663 0.000000 0.000000 0.000000
# 3 -0.013718 -0.003663 0.022172 0.000000 0.000000 0.000000
# 4 0.000000 0.000000 0.000000 0.065741 0.000000 0.000000
# 5 0.000000 0.000000 0.000000 0.000000 0.038629 0.000000
# 6 0.000000 0.000000 0.000000 0.000000 0.000000 0.028092
#
#
# Mechanical properties :
#
#
# Convention : Reuss Voigt Hill
#
# Bulk Modulus (GPa) = 91.96059 93.24072 92.60066
# Shear Modulus (GPa) = 20.12760 23.08201 21.60481
#
# Velocity S-wave (km/s) = 3.39116 3.63153 3.51340
# Velocity P-wave (km/s) = 8.23864 8.41768 8.32864
#
# Compressibility (1/GPa) = 0.01087422
#
# Stress axis : x y z
#
# Youngs Moduli (GPa) = 39.29369 71.53167 45.10154
#
# Poissons Ratio (x) = 0.57098 0.61872
# Poissons Ratio (y) = 0.31365 0.16520
# Poissons Ratio (z) = 0.53905 0.26201
#
# Static dielectric constant tensor:
#      x y z
#    x 1.581860 0.000000 0.000000 
#    y 0.000000 1.591570 0.000000 
#    z 0.000000 0.000000 1.570140 
# 
# From -- ./inp_files/13797.got.cif
#   From: 2010.05.17/outbox.cif.g08.bks.cpg/sg36_7_cif.got.tgz:13797.got - 2010.06.03 17:41:39.
