data_PCOD9351495
_publ_section_title
;
Structure prediction by ZEFSAII (Michael W. Deem and Ramdas Pophale) SiO2 
 PCOD9351495
Probable space group: C M C 21
;
_chemical_formula_sum "Si O2"
_cell_formula_units_Z 64
_cell_length_a 8.549242
_cell_length_b 29.252083
_cell_length_c 14.581861
_cell_angle_alpha 90.000000
_cell_angle_beta 90.000000
_cell_angle_gamma 90.000000
_cell_volume 3646.677536
_symmetry_space_group_name_H-M "C M C 21"
_symmetry_group_IT_number 36
_symmetry_cell_setting 'orthorhombic'
loop_
_space_group_symop_operation_xyz
x,y,z
-x,-y,1/2+z
x,-y,1/2+z
-x,y,z
1/2+x,1/2+y,z
1/2-x,1/2-y,1/2+z
1/2+x,1/2-y,1/2+z
1/2-x,1/2+y,z
loop_
_atom_site_type_symbol
_atom_site_label
_atom_site_fract_x
_atom_site_fract_y
_atom_site_fract_z
Si Si1 0.812512 0.947144 0.328740
Si Si2 0.689071 0.552211 0.325916
Si Si3 0.812883 0.376819 0.183286
Si Si4 0.810850 0.376104 0.473769
Si Si5 0.188418 0.124657 0.478302
Si Si6 0.309800 0.801471 0.328038
Si Si7 0.689276 0.302865 0.826274
Si Si8 0.812462 0.375381 0.684220
O O1 0.755488 0.919653 0.239342
O O2 0.749547 0.919257 0.416143
O O3 0.000000 0.946590 0.330874
O O4 0.759509 0.999747 0.328247
O O5 0.500000 0.553411 0.320820
O O6 0.734119 0.580684 0.416948
O O7 0.754028 0.580374 0.239797
O O8 0.762483 0.331419 0.239672
O O9 0.000000 0.379282 0.188423
O O10 0.759636 0.375643 0.078778
O O11 0.761665 0.330975 0.416842
O O12 0.758512 0.375671 0.578858
O O13 0.000000 0.377363 0.472399
O O14 0.234548 0.168710 0.417317
O O15 0.000000 0.124655 0.486337
O O16 0.500000 0.800014 0.328574
O O17 0.254895 0.749353 0.327383
O O18 0.500000 0.303247 0.822649
O O19 0.750601 0.331608 0.740020
O O20 0.000000 0.374637 0.685231
#
# Coordination Sequence:
#
# PCOD9351495 Si02
#       8
#     8   8   8   8   8   8   8   8
#     4  10  20  35  55  76  98 129 171 212 248 292
#     4   9  20  37  54  73 100 134 169 208 251 295
#     4  10  20  34  52  75 105 136 164 202 254 303
#     4   9  19  35  52  74 105 135 164 203 253 302
#     4   9  18  33  52  74  99 129 169 211 249 293
#     4   8  16  33  53  71  98 136 170 202 247 299
#     4   9  18  34  54  73  98 135 173 208 247 292
#     4  10  20  33  52  78 105 132 164 206 253 300
#
# _framework density 17.550221000000001
#
# number of rings (size 3 to 8) (size 9 to 14) (size 15 to 20)
#    0.000    2.750    0.000    2.625    0.000    6.000 
#    0.000    8.125    0.000    0.000    0.000    0.000 
#    0.000    0.000    0.000    0.000    0.000    0.000 
#
# Total GULP energy -178449.577138 kJ/mol
# GULP energy per Si atom -5576.549286 kJ/mol
# Density = 1.751028 g / cm^3
# Si number density = 17.550221 Si / 1000 Ang^3
#
#
#
# Elastic Constant Matrix: (Units=GPa)
#
#
# Indices 1 2 3 4 5 6 
#
# 1 15.4853 28.8119 29.8667 0.0000 0.0000 0.0000
# 2 28.8119 200.1659 105.1778 0.0000 0.0000 0.0000
# 3 29.8667 105.1778 190.3164 0.0000 0.0000 0.0000
# 4 0.0000 0.0000 0.0000 5.5059 0.0000 0.0000
# 5 0.0000 0.0000 0.0000 0.0000 29.0720 0.0000
# 6 0.0000 0.0000 0.0000 0.0000 0.0000 22.9474
#
#
#
# Elastic Compliance Matrix: (Units=1/GPa)
#
#
# Indices 1 2 3 4 5 6 
#
# 1 0.102753 -0.008902 -0.011205 0.000000 0.000000 0.000000
# 2 -0.008902 0.007812 -0.002920 0.000000 0.000000 0.000000
# 3 -0.011205 -0.002920 0.008627 0.000000 0.000000 0.000000
# 4 0.000000 0.000000 0.000000 0.181624 0.000000 0.000000
# 5 0.000000 0.000000 0.000000 0.000000 0.034397 0.000000
# 6 0.000000 0.000000 0.000000 0.000000 0.000000 0.043578
#
#
# Mechanical properties :
#
#
# Convention : Reuss Voigt Hill
#
# Bulk Modulus (GPa) = 13.67323 81.52006 47.59664
# Shear Modulus (GPa) = 11.13031 27.64582 19.38806
#
# Velocity S-wave (km/s) = 2.52106 3.97324 3.32734
# Velocity P-wave (km/s) = 4.03512 8.22188 6.47616
#
# Compressibility (1/GPa) = 0.07313559
#
# Stress axis : x y z
#
# Youngs Moduli (GPa) = 9.73210 128.01529 115.92052
#
# Poissons Ratio (x) = 1.13963 1.29893
# Poissons Ratio (y) = 0.08664 0.33849
# Poissons Ratio (z) = 0.10905 0.37380
#
# Static dielectric constant tensor:
#      x y z
#    x 1.599750 0.000000 0.000000 
#    y 0.000000 1.591040 0.000000 
#    z 0.000000 0.000000 1.572350 
# 
# From -- ./inp_files/11221.got.cif
#   From: 2010.05.17/outbox.cif.g08.bks.cpg/sg36_6_cif.got.tgz:11221.got - 2010.06.03 17:41:39.
