data_PCOD9351305
_publ_section_title
;
Structure prediction by ZEFSAII (Michael W. Deem and Ramdas Pophale) SiO2 
 PCOD9351305
Probable space group: C M C 21
;
_chemical_formula_sum "Si O2"
_cell_formula_units_Z 64
_cell_length_a 8.365768
_cell_length_b 15.810281
_cell_length_c 24.409163
_cell_angle_alpha 90.000000
_cell_angle_beta 90.000000
_cell_angle_gamma 90.000000
_cell_volume 3228.481431
_symmetry_space_group_name_H-M "C M C 21"
_symmetry_group_IT_number 36
_symmetry_cell_setting 'orthorhombic'
loop_
_space_group_symop_operation_xyz
x,y,z
-x,-y,1/2+z
x,-y,1/2+z
-x,y,z
1/2+x,1/2+y,z
1/2-x,1/2-y,1/2+z
1/2+x,1/2-y,1/2+z
1/2-x,1/2+y,z
loop_
_atom_site_type_symbol
_atom_site_label
_atom_site_fract_x
_atom_site_fract_y
_atom_site_fract_z
Si Si1 0.306207 0.155015 0.436920
Si Si2 0.192716 0.746963 0.629325
Si Si3 0.809945 0.653035 0.933163
Si Si4 0.810780 0.421190 0.821563
Si Si5 0.189086 0.761798 0.754309
Si Si6 0.314832 0.398560 0.317277
Si Si7 0.193371 0.400845 0.555073
Si Si8 0.694795 0.090022 0.556928
O O1 0.500000 0.164028 0.436167
O O2 0.230373 0.247579 0.432275
O O3 0.260432 0.100444 0.383943
O O4 0.259960 0.113691 0.494691
O O5 0.247982 0.753826 0.691868
O O6 0.241294 0.828312 0.594219
O O7 0.251366 0.662793 0.598094
O O8 0.000000 0.742261 0.630411
O O9 0.725876 0.610589 0.881520
O O10 0.000000 0.639908 0.927595
O O11 0.759053 0.617414 0.992178
O O12 0.772918 0.338601 0.785883
O O13 0.727464 0.506068 0.800598
O O14 0.000000 0.436739 0.821963
O O15 0.218158 0.673688 0.785484
O O16 0.000000 0.779550 0.753938
O O17 0.500000 0.380809 0.308259
O O18 0.246394 0.495179 0.570897
O O19 0.000000 0.397615 0.556809
O O20 0.500000 0.090247 0.557956
#
# Coordination Sequence:
#
# PCOD9351305 Si02
#       8
#     8   8   8   8   8   8   8   8
#     4  10  19  35  62  89 119 157 200 244 303 371
#     4  10  22  40  62  86 117 158 202 252 304 355
#     4  11  21  35  59  91 127 159 197 251 306 363
#     4  11  23  40  64  93 122 160 204 252 312 369
#     4  11  24  42  62  89 123 161 210 261 308 362
#     4  12  25  41  63  91 123 164 206 251 309 369
#     4  10  21  37  60  90 121 158 201 247 298 358
#     4   9  18  36  60  85 118 157 194 238 294 359
#
# _framework density 19.823561999999999
#
# number of rings (size 3 to 8) (size 9 to 14) (size 15 to 20)
#    0.000    1.500    2.500    3.000    0.000    5.000 
#    0.000    2.500    0.000    0.000    0.000    0.000 
#    0.000    0.000    0.000    0.000    0.000    0.000 
#
# Total GULP energy -178877.954016 kJ/mol
# GULP energy per Si atom -5589.936063 kJ/mol
# Density = 1.977844 g / cm^3
# Si number density = 19.823562 Si / 1000 Ang^3
#
#
#
# Elastic Constant Matrix: (Units=GPa)
#
#
# Indices 1 2 3 4 5 6 
#
# 1 6.7779 -14.1007 -4.6728 0.0000 0.0000 0.0000
# 2 -14.1007 116.8070 31.4465 0.0000 0.0000 0.0000
# 3 -4.6728 31.4465 110.9523 0.0000 0.0000 0.0000
# 4 0.0000 0.0000 0.0000 -2.5158 0.0000 0.0000
# 5 0.0000 0.0000 0.0000 0.0000 23.5908 0.0000
# 6 0.0000 0.0000 0.0000 0.0000 0.0000 52.7473
#
#
#
# Elastic Compliance Matrix: (Units=1/GPa)
#
#
# Indices 1 2 3 4 5 6 
#
# 1 0.197309 0.023364 0.001688 0.000000 0.000000 0.000000
# 2 0.023364 0.012035 -0.002427 0.000000 0.000000 0.000000
# 3 0.001688 -0.002427 0.009772 0.000000 0.000000 0.000000
# 4 0.000000 0.000000 0.000000 -0.397488 0.000000 0.000000
# 5 0.000000 0.000000 0.000000 0.000000 0.042389 0.000000
# 6 0.000000 0.000000 0.000000 0.000000 0.000000 0.018958
#
#
# Mechanical properties :
#
#
# Convention : Reuss Voigt Hill
#
# Bulk Modulus (GPa) = 3.78264 28.87591 16.32927
# Shear Modulus (GPa) = -67.42803 29.55543 -18.93630
#
# Velocity S-wave (km/s) = -5.83849 3.86544 -3.09405
# Velocity P-wave (km/s) = 6.59835 5.87539 2.12345
#
# Compressibility (1/GPa) = 0.26436556
#
# Stress axis : x y z
#
# Youngs Moduli (GPa) = 5.06820 83.09086 102.33500
#
# Poissons Ratio (x) = -1.94136 -0.17271
# Poissons Ratio (y) = -0.11842 0.24837
# Poissons Ratio (z) = -0.00855 0.20166
#
# Static dielectric constant tensor:
#      x y z
#    x 1.686570 0.000000 0.000000 
#    y 0.000000 1.677660 0.000000 
#    z 0.000000 0.000000 1.682360 
# 
# From -- ./inp_files/16580.got.cif
#   From: 2010.05.17/outbox.cif.g08.bks.cpg/sg36_9_cif.got.tgz:16580.got - 2010.06.03 17:41:39.
