data_PCOD9351154
_publ_section_title
;
Structure prediction by ZEFSAII (Michael W. Deem and Ramdas Pophale) SiO2 
 PCOD9351154
Probable space group: C M C 21
;
_chemical_formula_sum "Si O2"
_cell_formula_units_Z 64
_cell_length_a 8.650454
_cell_length_b 20.907665
_cell_length_c 19.940749
_cell_angle_alpha 90.000000
_cell_angle_beta 90.000000
_cell_angle_gamma 90.000000
_cell_volume 3606.499704
_symmetry_space_group_name_H-M "C M C 21"
_symmetry_group_IT_number 36
_symmetry_cell_setting 'orthorhombic'
loop_
_space_group_symop_operation_xyz
x,y,z
-x,-y,1/2+z
x,-y,1/2+z
-x,y,z
1/2+x,1/2+y,z
1/2-x,1/2-y,1/2+z
1/2+x,1/2-y,1/2+z
1/2-x,1/2+y,z
loop_
_atom_site_type_symbol
_atom_site_label
_atom_site_fract_x
_atom_site_fract_y
_atom_site_fract_z
Si Si1 0.816128 0.689214 0.197190
Si Si2 0.312337 0.887659 0.059895
Si Si3 0.186806 0.761790 0.562769
Si Si4 0.814956 0.557016 0.698990
Si Si5 0.187695 0.760799 0.411885
Si Si6 0.186445 0.179421 0.775165
Si Si7 0.686912 0.112073 0.409131
Si Si8 0.183108 0.933386 0.772775
O O1 0.762645 0.696731 0.120702
O O2 0.777869 0.756212 0.233617
O O3 0.736440 0.630730 0.234726
O O4 0.000000 0.680348 0.201648
O O5 0.500000 0.888682 0.059388
O O6 0.269624 0.813205 0.071506
O O7 0.259764 0.930017 0.122480
O O8 0.263374 0.906505 0.984668
O O9 0.233956 0.779763 0.487019
O O10 0.000000 0.765723 0.567814
O O11 0.765508 0.618771 0.741845
O O12 0.747349 0.494072 0.732785
O O13 0.000000 0.552265 0.697850
O O14 0.237351 0.806009 0.351374
O O15 0.233305 0.686797 0.399696
O O16 0.000000 0.760197 0.411153
O O17 0.000000 0.170692 0.773950
O O18 0.500000 0.109881 0.406305
O O19 0.752934 0.071129 0.348510
O O20 0.000000 0.936550 0.774927
#
# Coordination Sequence:
#
# PCOD9351154 Si02
#       8
#     8   8   8   8   8   8   8   8
#     4  11  21  35  57  83 113 147 183 227 278 330
#     4   8  16  31  57  85 110 141 182 226 275 335
#     4   9  16  31  55  84 113 143 183 230 278 328
#     4  11  22  38  58  83 113 149 187 228 278 333
#     4   8  15  30  55  82 112 147 181 223 279 332
#     4  10  19  34  56  83 112 144 182 223 273 330
#     4   9  16  34  59  83 109 143 183 226 279 335
#     4  12  25  39  55  81 114 150 191 235 278 329
#
# _framework density 17.745739
#
# number of rings (size 3 to 8) (size 9 to 14) (size 15 to 20)
#    0.000    2.250    2.500    3.375    0.000    0.500 
#    0.000    5.625    0.000    0.000    0.000    0.000 
#    0.000    0.000    0.000    0.000    0.000    0.000 
#
# Total GULP energy -178519.560646 kJ/mol
# GULP energy per Si atom -5578.736270 kJ/mol
# Density = 1.770535 g / cm^3
# Si number density = 17.745739 Si / 1000 Ang^3
#
#
#
# Elastic Constant Matrix: (Units=GPa)
#
#
# Indices 1 2 3 4 5 6 
#
# 1 38.7003 34.9604 35.1668 0.0000 0.0000 0.0000
# 2 34.9604 81.2988 63.2976 0.0000 0.0000 0.0000
# 3 35.1668 63.2976 169.6516 0.0000 0.0000 0.0000
# 4 0.0000 0.0000 0.0000 27.8723 0.0000 0.0000
# 5 0.0000 0.0000 0.0000 0.0000 23.1186 0.0000
# 6 0.0000 0.0000 0.0000 0.0000 0.0000 22.2568
#
#
#
# Elastic Compliance Matrix: (Units=1/GPa)
#
#
# Indices 1 2 3 4 5 6 
#
# 1 0.043212 -0.016361 -0.002853 0.000000 0.000000 0.000000
# 2 -0.016361 0.023531 -0.005388 0.000000 0.000000 0.000000
# 3 -0.002853 -0.005388 0.008496 0.000000 0.000000 0.000000
# 4 0.000000 0.000000 0.000000 0.035878 0.000000 0.000000
# 5 0.000000 0.000000 0.000000 0.000000 0.043255 0.000000
# 6 0.000000 0.000000 0.000000 0.000000 0.000000 0.044930
#
#
# Mechanical properties :
#
#
# Convention : Reuss Voigt Hill
#
# Bulk Modulus (GPa) = 38.40972 61.83337 50.12154
# Shear Modulus (GPa) = 19.44134 25.06461 22.25297
#
# Velocity S-wave (km/s) = 3.31350 3.76231 3.54501
# Velocity P-wave (km/s) = 6.02748 7.33437 6.71280
#
# Compressibility (1/GPa) = 0.02603508
#
# Stress axis : x y z
#
# Youngs Moduli (GPa) = 23.14183 42.49749 117.70063
#
# Poissons Ratio (x) = 0.69529 0.33581
# Poissons Ratio (y) = 0.37862 0.63417
# Poissons Ratio (z) = 0.06603 0.22898
#
# Static dielectric constant tensor:
#      x y z
#    x 1.600370 0.000000 0.000000 
#    y 0.000000 1.569830 0.000000 
#    z 0.000000 0.000000 1.632800 
# 
# From -- ./inp_files/15715.got.cif
#   From: 2010.05.17/outbox.cif.g08.bks.cpg/sg36_8_cif.got.tgz:15715.got - 2010.06.03 17:41:39.
