data_PCOD9351941
_publ_section_title
;
Structure prediction by ZEFSAII (Michael W. Deem and Ramdas Pophale) SiO2 
 PCOD9351941
Probable space group: C M C 21
;
_chemical_formula_sum "Si O2"
_cell_formula_units_Z 64
_cell_length_a 9.210148
_cell_length_b 26.459507
_cell_length_c 13.049612
_cell_angle_alpha 90.000000
_cell_angle_beta 90.000000
_cell_angle_gamma 90.000000
_cell_volume 3180.137926
_symmetry_space_group_name_H-M "C M C 21"
_symmetry_group_IT_number 36
_symmetry_cell_setting 'orthorhombic'
loop_
_space_group_symop_operation_xyz
x,y,z
-x,-y,1/2+z
x,-y,1/2+z
-x,y,z
1/2+x,1/2+y,z
1/2-x,1/2-y,1/2+z
1/2+x,1/2-y,1/2+z
1/2-x,1/2+y,z
loop_
_atom_site_type_symbol
_atom_site_label
_atom_site_fract_x
_atom_site_fract_y
_atom_site_fract_z
Si Si1 0.175150 0.367888 0.179740
Si Si2 0.330267 0.806935 0.796496
Si Si3 0.162596 0.006392 0.458551
Si Si4 0.662590 0.553858 0.165833
Si Si5 0.825694 0.166649 0.095219
Si Si6 0.825546 0.125392 0.465576
Si Si7 0.829221 0.473225 0.281058
Si Si8 0.329936 0.308330 0.361983
O O1 0.214293 0.425644 0.211637
O O2 0.235627 0.334319 0.273163
O O3 0.000000 0.363621 0.171046
O O4 0.251010 0.355993 0.071270
O O5 0.500000 0.821636 0.789582
O O6 0.259543 0.803694 0.683611
O O7 0.242359 0.845988 0.868108
O O8 0.322121 0.751836 0.847666
O O9 0.203943 0.065204 0.458634
O O10 0.000000 0.001620 0.415324
O O11 0.158019 0.985142 0.572326
O O12 0.265540 0.969907 0.394267
O O13 0.500000 0.559058 0.209620
O O14 0.703816 0.608236 0.123055
O O15 0.769128 0.526944 0.243445
O O16 0.000000 0.175450 0.103713
O O17 0.784374 0.177889 0.977928
O O18 0.000000 0.132290 0.469134
O O19 0.000000 0.474022 0.282596
O O20 0.500000 0.323796 0.350028
#
# Coordination Sequence:
#
# PCOD9351941 Si02
#       8
#     8   8   8   8   8   8   8   8
#     4  11  24  41  63  95 132 169 210 262 322 378
#     4  11  25  43  65  96 129 164 208 264 328 380
#     4  10  21  37  60  88 120 164 212 253 294 357
#     4  10  20  37  60  86 117 160 208 248 294 356
#     4  10  22  42  66  92 125 166 215 265 313 375
#     4  11  23  41  66  95 128 170 216 261 313 376
#     4  11  23  36  56  89 128 165 199 249 312 365
#     4  10  24  45  68  93 123 166 214 264 320 377
#
# _framework density 20.124911999999998
#
# number of rings (size 3 to 8) (size 9 to 14) (size 15 to 20)
#    0.000    1.500    1.250    3.000    1.750    9.000 
#    0.000    0.000    0.000    0.000    0.000    0.000 
#    0.000    0.000    0.000    0.000    0.000    0.000 
#
# Total GULP energy -178756.988339 kJ/mol
# GULP energy per Si atom -5586.155886 kJ/mol
# Density = 2.007911 g / cm^3
# Si number density = 20.124912 Si / 1000 Ang^3
#
#
#
# Elastic Constant Matrix: (Units=GPa)
#
#
# Indices 1 2 3 4 5 6 
#
# 1 47.3693 20.0879 37.8372 0.0000 0.0000 0.0000
# 2 20.0879 46.4876 10.7853 0.0000 0.0000 0.0000
# 3 37.8372 10.7853 108.9240 0.0000 0.0000 0.0000
# 4 0.0000 0.0000 0.0000 33.2843 0.0000 0.0000
# 5 0.0000 0.0000 0.0000 0.0000 21.9725 0.0000
# 6 0.0000 0.0000 0.0000 0.0000 0.0000 14.0734
#
#
#
# Elastic Compliance Matrix: (Units=1/GPa)
#
#
# Indices 1 2 3 4 5 6 
#
# 1 0.035278 -0.012693 -0.010998 0.000000 0.000000 0.000000
# 2 -0.012693 0.026584 0.001777 0.000000 0.000000 0.000000
# 3 -0.010998 0.001777 0.012825 0.000000 0.000000 0.000000
# 4 0.000000 0.000000 0.000000 0.030044 0.000000 0.000000
# 5 0.000000 0.000000 0.000000 0.000000 0.045511 0.000000
# 6 0.000000 0.000000 0.000000 0.000000 0.000000 0.071056
#
#
# Mechanical properties :
#
#
# Convention : Reuss Voigt Hill
#
# Bulk Modulus (GPa) = 32.40492 37.80019 35.10255
# Shear Modulus (GPa) = 18.15460 22.80406 20.47933
#
# Velocity S-wave (km/s) = 3.00675 3.36985 3.19346
# Velocity P-wave (km/s) = 5.30951 5.82792 5.57475
#
# Compressibility (1/GPa) = 0.03085952
#
# Stress axis : x y z
#
# Youngs Moduli (GPa) = 28.34623 37.61725 77.97194
#
# Poissons Ratio (x) = 0.47746 0.85752
# Poissons Ratio (y) = 0.35979 -0.13855
# Poissons Ratio (z) = 0.31175 -0.06684
#
# Static dielectric constant tensor:
#      x y z
#    x 1.701730 0.000000 0.000000 
#    y 0.000000 1.707180 0.000000 
#    z 0.000000 0.000000 1.726790 
# 
# From -- ./inp_files/7145.got.cif
#   From: 2010.05.17/outbox.cif.g08.bks.cpg/sg36_4_cif.got.tgz:7145.got - 2010.06.03 17:41:39.
