data_PCOD9351620
_publ_section_title
;
Structure prediction by ZEFSAII (Michael W. Deem and Ramdas Pophale) SiO2 
 PCOD9351620
Probable space group: C M C 21
;
_chemical_formula_sum "Si O2"
_cell_formula_units_Z 40
_cell_length_a 11.318921
_cell_length_b 19.368605
_cell_length_c 8.298644
_cell_angle_alpha 90.000000
_cell_angle_beta 90.000000
_cell_angle_gamma 90.000000
_cell_volume 1819.325914
_symmetry_space_group_name_H-M "C M C 21"
_symmetry_group_IT_number 36
_symmetry_cell_setting 'orthorhombic'
loop_
_space_group_symop_operation_xyz
x,y,z
-x,-y,1/2+z
x,-y,1/2+z
-x,y,z
1/2+x,1/2+y,z
1/2-x,1/2-y,1/2+z
1/2+x,1/2-y,1/2+z
1/2-x,1/2+y,z
loop_
_atom_site_type_symbol
_atom_site_label
_atom_site_fract_x
_atom_site_fract_y
_atom_site_fract_z
Si Si1 0.365619 0.091100 0.125000
Si Si2 0.751643 0.159187 0.622853
Si Si3 0.360423 0.773961 0.427897
Si Si4 0.233159 0.477743 0.934737
Si Si5 0.500000 0.393382 0.145900
Si Si6 0.500000 0.490945 0.895914
O O1 0.500000 0.091647 0.185757
O O2 0.284199 0.057558 0.261726
O O3 0.335830 0.166979 0.061820
O O4 0.354012 0.040013 0.972455
O O5 0.669953 0.194117 0.754834
O O6 0.778039 0.209586 0.472971
O O7 0.712344 0.084349 0.560846
O O8 0.882580 0.145909 0.695583
O O9 0.500000 0.757070 0.436954
O O10 0.365804 0.507966 0.950800
O O11 0.500000 0.469802 0.224763
O O12 0.500000 0.410089 0.952980
#
# Coordination Sequence:
#
# PCOD9351620 Si02
#       6
#     8   8   8   8   4   4
#     4  11  23  39  63  92 129 165 214 267 315 386
#     4  11  23  42  65  88 131 168 215 273 321 389
#     4  11  24  44  64  91 129 170 217 267 321 387
#     4  11  22  39  63  95 128 167 213 266 329 380
#     4  10  20  38  62  90 126 164 206 264 322 380
#     4  10  20  34  60  90 124 158 200 258 314 386
#
# _framework density 21.986165
#
# number of rings (size 3 to 8) (size 9 to 14) (size 15 to 20)
#    0.000    1.200    1.000    6.600    0.000    3.200 
#    1.800    0.000    0.000    0.000    0.000    0.000 
#    0.000    0.000    0.000    0.000    0.000    0.000 
#
# Total GULP energy -111547.678665 kJ/mol
# GULP energy per Si atom -5577.383933 kJ/mol
# Density = 2.193612 g / cm^3
# Si number density = 21.986165 Si / 1000 Ang^3
#
#
#
# Elastic Constant Matrix: (Units=GPa)
#
#
# Indices 1 2 3 4 5 6 
#
# 1 43.7494 3.9051 3.3118 0.0000 0.0000 0.0000
# 2 3.9051 78.9456 4.5147 0.0000 0.0000 0.0000
# 3 3.3118 4.5147 61.8889 0.0000 0.0000 0.0000
# 4 0.0000 0.0000 0.0000 41.8869 0.0000 0.0000
# 5 0.0000 0.0000 0.0000 0.0000 26.7953 0.0000
# 6 0.0000 0.0000 0.0000 0.0000 0.0000 25.3279
#
#
#
# Elastic Compliance Matrix: (Units=1/GPa)
#
#
# Indices 1 2 3 4 5 6 
#
# 1 0.023041 -0.001074 -0.001155 0.000000 0.000000 0.000000
# 2 -0.001074 0.012770 -0.000874 0.000000 0.000000 0.000000
# 3 -0.001155 -0.000874 0.016284 0.000000 0.000000 0.000000
# 4 0.000000 0.000000 0.000000 0.023874 0.000000 0.000000
# 5 0.000000 0.000000 0.000000 0.000000 0.037320 0.000000
# 6 0.000000 0.000000 0.000000 0.000000 0.000000 0.039482
#
#
# Mechanical properties :
#
#
# Convention : Reuss Voigt Hill
#
# Bulk Modulus (GPa) = 21.79151 23.11634 22.45393
# Shear Modulus (GPa) = 28.69087 30.32551 29.50819
#
# Velocity S-wave (km/s) = 3.61633 3.71792 3.66748
# Velocity P-wave (km/s) = 5.23164 5.38214 5.30743
#
# Compressibility (1/GPa) = 0.04588943
#
# Stress axis : x y z
#
# Youngs Moduli (GPa) = 43.40151 78.30820 61.41176
#
# Poissons Ratio (x) = 0.08408 0.07091
# Poissons Ratio (y) = 0.04660 0.05368
# Poissons Ratio (z) = 0.05011 0.06845
#
# Static dielectric constant tensor:
#      x y z
#    x 1.813110 0.000000 0.000000 
#    y 0.000000 1.789130 0.000000 
#    z 0.000000 0.000000 1.853440 
# 
# From -- ./inp_files/3077.got.cif
#   From: 2010.05.17/outbox.cif.g08.bks.cpg/sg36_2_cif.got.tgz:3077.got - 2010.06.03 17:41:39.
