data_PCOD9351641
_publ_section_title
;
Structure prediction by ZEFSAII (Michael W. Deem and Ramdas Pophale) SiO2 
 PCOD9351641
Probable space group: C M C 21
;
_chemical_formula_sum "Si O2"
_cell_formula_units_Z 64
_cell_length_a 8.758840
_cell_length_b 14.560157
_cell_length_c 26.942622
_cell_angle_alpha 90.000000
_cell_angle_beta 90.000000
_cell_angle_gamma 90.000000
_cell_volume 3435.994888
_symmetry_space_group_name_H-M "C M C 21"
_symmetry_group_IT_number 36
_symmetry_cell_setting 'orthorhombic'
loop_
_space_group_symop_operation_xyz
x,y,z
-x,-y,1/2+z
x,-y,1/2+z
-x,y,z
1/2+x,1/2+y,z
1/2-x,1/2-y,1/2+z
1/2+x,1/2-y,1/2+z
1/2-x,1/2+y,z
loop_
_atom_site_type_symbol
_atom_site_label
_atom_site_fract_x
_atom_site_fract_y
_atom_site_fract_z
Si Si1 0.321288 0.098383 0.500000
Si Si2 0.322509 0.581086 0.970095
Si Si3 0.316292 0.731630 0.720064
Si Si4 0.683902 0.621492 0.288650
Si Si5 0.816730 0.377696 0.634433
Si Si6 0.684123 0.477159 0.203719
Si Si7 0.818018 0.926279 0.900177
Si Si8 0.819630 0.277039 0.534838
O O1 0.500000 0.080187 0.504843
O O2 0.277763 0.124637 0.442923
O O3 0.266281 0.180500 0.534262
O O4 0.226321 0.004409 0.505485
O O5 0.500000 0.603722 0.976020
O O6 0.298363 0.533588 0.916251
O O7 0.221280 0.666624 0.985300
O O8 0.500000 0.730295 0.724160
O O9 0.249126 0.783224 0.767867
O O10 0.276409 0.797276 0.673689
O O11 0.263828 0.627488 0.711097
O O12 0.500000 0.625337 0.287442
O O13 0.731826 0.541022 0.250375
O O14 0.728899 0.597538 0.344785
O O15 0.744784 0.471262 0.654896
O O16 0.770207 0.340766 0.580737
O O17 0.000000 0.388253 0.634381
O O18 0.500000 0.476762 0.201893
O O19 0.000000 0.907248 0.906514
O O20 0.000000 0.260849 0.538298
#
# Coordination Sequence:
#
# PCOD9351641 Si02
#       8
#     8   8   8   8   8   8   8   8
#     4  10  20  35  54  77 105 139 179 221 264 314
#     4   9  19  36  54  74 104 141 177 222 265 310
#     4   9  18  34  52  76 106 135 171 214 259 311
#     4   9  17  33  54  76 105 137 170 212 260 308
#     4   9  20  35  52  74 105 138 170 214 263 309
#     4   9  18  33  54  78 103 134 173 214 257 312
#     4   8  17  35  54  73 107 143 172 217 268 312
#     4  11  21  35  54  78 107 143 182 222 266 318
#
# _framework density 18.626339000000002
#
# number of rings (size 3 to 8) (size 9 to 14) (size 15 to 20)
#    0.750    2.000    0.000    1.500    0.000    3.000 
#    2.250    1.250    0.000    0.000    0.000    0.000 
#    0.000    0.000    0.000    0.000    0.000    0.000 
#
# Total GULP energy -178193.292960 kJ/mol
# GULP energy per Si atom -5568.540405 kJ/mol
# Density = 1.858394 g / cm^3
# Si number density = 18.626339 Si / 1000 Ang^3
#
#
#
# Elastic Constant Matrix: (Units=GPa)
#
#
# Indices 1 2 3 4 5 6 
#
# 1 14.4831 -3.0278 7.1771 0.0000 0.0000 0.0000
# 2 -3.0278 69.0857 -8.1814 0.0000 0.0000 0.0000
# 3 7.1771 -8.1814 34.4155 0.0000 0.0000 0.0000
# 4 0.0000 0.0000 0.0000 15.1192 0.0000 0.0000
# 5 0.0000 0.0000 0.0000 0.0000 22.7424 0.0000
# 6 0.0000 0.0000 0.0000 0.0000 0.0000 24.8033
#
#
#
# Elastic Compliance Matrix: (Units=1/GPa)
#
#
# Indices 1 2 3 4 5 6 
#
# 1 0.077159 0.001519 -0.015730 0.000000 0.000000 0.000000
# 2 0.001519 0.014924 0.003231 0.000000 0.000000 0.000000
# 3 -0.015730 0.003231 0.033105 0.000000 0.000000 0.000000
# 4 0.000000 0.000000 0.000000 0.066141 0.000000 0.000000
# 5 0.000000 0.000000 0.000000 0.000000 0.043971 0.000000
# 6 0.000000 0.000000 0.000000 0.000000 0.000000 0.040317
#
#
# Mechanical properties :
#
#
# Convention : Reuss Voigt Hill
#
# Bulk Modulus (GPa) = 9.68730 12.21334 10.95032
# Shear Modulus (GPa) = 15.06088 20.66740 17.86414
#
# Velocity S-wave (km/s) = 2.84664 3.33465 3.10026
# Velocity P-wave (km/s) = 4.00208 4.62577 4.32518
#
# Compressibility (1/GPa) = 0.10322792
#
# Stress axis : x y z
#
# Youngs Moduli (GPa) = 12.96031 67.00632 30.20685
#
# Poissons Ratio (x) = -0.10177 0.47515
# Poissons Ratio (y) = -0.01968 -0.09760
# Poissons Ratio (z) = 0.20386 -0.21650
#
# Static dielectric constant tensor:
#      x y z
#    x 1.621480 0.000000 0.000000 
#    y 0.000000 1.648740 0.000000 
#    z 0.000000 0.000000 1.667500 
# 
# From -- ./inp_files/17334.got.cif
#   From: 2010.05.17/outbox.cif.g08.bks.cpg/sg36_9_cif.got.tgz:17334.got - 2010.06.03 17:41:39.
