data_PCOD9351648
_publ_section_title
;
Structure prediction by ZEFSAII (Michael W. Deem and Ramdas Pophale) SiO2 
 PCOD9351648
Probable space group: C M C 21
;
_chemical_formula_sum "Si O2"
_cell_formula_units_Z 56
_cell_length_a 16.058401
_cell_length_b 28.479891
_cell_length_c 5.325238
_cell_angle_alpha 90.000000
_cell_angle_beta 90.000000
_cell_angle_gamma 90.000000
_cell_volume 2435.452389
_symmetry_space_group_name_H-M "C M C 21"
_symmetry_group_IT_number 36
_symmetry_cell_setting 'orthorhombic'
loop_
_space_group_symop_operation_xyz
x,y,z
-x,-y,1/2+z
x,-y,1/2+z
-x,y,z
1/2+x,1/2+y,z
1/2-x,1/2-y,1/2+z
1/2+x,1/2-y,1/2+z
1/2-x,1/2+y,z
loop_
_atom_site_type_symbol
_atom_site_label
_atom_site_fract_x
_atom_site_fract_y
_atom_site_fract_z
Si Si1 0.797975 0.323634 0.742860
Si Si2 0.772167 0.409040 0.064324
Si Si3 0.092274 0.531053 0.320179
Si Si4 0.407137 0.862517 0.364139
Si Si5 0.409476 0.231157 0.518364
Si Si6 0.124868 0.834633 0.562712
Si Si7 0.592097 0.607369 0.568430
O O1 0.881800 0.347535 0.641821
O O2 0.724793 0.327898 0.545007
O O3 0.763622 0.355863 0.963536
O O4 0.830114 0.273939 0.835868
O O5 0.824052 0.438780 0.862201
O O6 0.839883 0.401192 0.281804
O O7 0.676776 0.423335 0.111647
O O8 0.094454 0.504551 0.055823
O O9 0.000000 0.555015 0.334929
O O10 0.500000 0.880781 0.340367
O O11 0.403188 0.813274 0.207073
O O12 0.500000 0.227645 0.390871
O O13 0.406078 0.282704 0.633969
O O14 0.094830 0.854570 0.296179
O O15 0.100351 0.869307 0.790765
O O16 0.500000 0.584756 0.581653
#
# Coordination Sequence:
#
# PCOD9351648 Si02
#       7
#     8   8   8   8   8   8   8
#     4  10  22  35  56  82 113 159 205 250 301 368
#     4  10  22  40  60  88 121 158 199 241 301 352
#     4  10  23  41  65  98 129 159 192 231 289 361
#     4  10  20  35  54  82 114 155 204 246 302 367
#     4  10  22  35  50  77 114 158 206 259 311 357
#     4  11  24  39  59  84 117 159 210 264 313 354
#     4  11  23  41  63  89 118 158 211 257 304 355
#
# _framework density 22.993673999999999
#
# number of rings (size 3 to 8) (size 9 to 14) (size 15 to 20)
#    0.000    1.714    1.429    2.143    6.000    1.714 
#    0.000    0.000    0.000    0.857    0.000    0.000 
#    0.000    0.000    0.000    0.000    0.000    0.000 
#
# Total GULP energy -156056.182219 kJ/mol
# GULP energy per Si atom -5573.435079 kJ/mol
# Density = 2.294134 g / cm^3
# Si number density = 22.993674 Si / 1000 Ang^3
#
#
#
# Elastic Constant Matrix: (Units=GPa)
#
#
# Indices 1 2 3 4 5 6 
#
# 1 192.4202 23.5895 4.2639 0.0000 0.0000 0.0000
# 2 23.5895 28.4647 10.7760 0.0000 0.0000 0.0000
# 3 4.2639 10.7760 85.9791 0.0000 0.0000 0.0000
# 4 0.0000 0.0000 0.0000 28.2580 0.0000 0.0000
# 5 0.0000 0.0000 0.0000 0.0000 20.6542 0.0000
# 6 0.0000 0.0000 0.0000 0.0000 0.0000 10.4519
#
#
#
# Elastic Compliance Matrix: (Units=1/GPa)
#
#
# Indices 1 2 3 4 5 6 
#
# 1 0.005794 -0.004926 0.000330 0.000000 0.000000 0.000000
# 2 -0.004926 0.041070 -0.004903 0.000000 0.000000 0.000000
# 3 0.000330 -0.004903 0.012229 0.000000 0.000000 0.000000
# 4 0.000000 0.000000 0.000000 0.035388 0.000000 0.000000
# 5 0.000000 0.000000 0.000000 0.000000 0.048416 0.000000
# 6 0.000000 0.000000 0.000000 0.000000 0.000000 0.095676
#
#
# Mechanical properties :
#
#
# Convention : Reuss Voigt Hill
#
# Bulk Modulus (GPa) = 24.94146 42.68031 33.81089
# Shear Modulus (GPa) = 18.45451 29.75513 24.10482
#
# Velocity S-wave (km/s) = 2.83608 3.60120 3.24130
# Velocity P-wave (km/s) = 4.64705 5.99113 5.36138
#
# Compressibility (1/GPa) = 0.04009388
#
# Stress axis : x y z
#
# Youngs Moduli (GPa) = 172.60501 24.34871 81.77364
#
# Poissons Ratio (x) = 0.11995 -0.02699
# Poissons Ratio (y) = 0.85030 0.40094
# Poissons Ratio (z) = -0.05698 0.11938
#
# Static dielectric constant tensor:
#      x y z
#    x 1.986750 0.000000 0.000000 
#    y 0.000000 1.897820 0.000000 
#    z 0.000000 0.000000 1.888590 
# 
# From -- ./inp_files/936.got.cif
#   From: 2010.05.17/outbox.cif.g08.bks.cpg/sg36_1_cif.got.tgz:936.got - 2010.06.03 17:41:39.
