data_PCOD9351838
_publ_section_title
;
Structure prediction by ZEFSAII (Michael W. Deem and Ramdas Pophale) SiO2 
 PCOD9351838
Probable space group: C M C 21
;
_chemical_formula_sum "Si O2"
_cell_formula_units_Z 56
_cell_length_a 14.404718
_cell_length_b 20.625785
_cell_length_c 9.280041
_cell_angle_alpha 90.000000
_cell_angle_beta 90.000000
_cell_angle_gamma 90.000000
_cell_volume 2757.180142
_symmetry_space_group_name_H-M "C M C 21"
_symmetry_group_IT_number 36
_symmetry_cell_setting 'orthorhombic'
loop_
_space_group_symop_operation_xyz
x,y,z
-x,-y,1/2+z
x,-y,1/2+z
-x,y,z
1/2+x,1/2+y,z
1/2-x,1/2-y,1/2+z
1/2+x,1/2-y,1/2+z
1/2-x,1/2+y,z
loop_
_atom_site_type_symbol
_atom_site_label
_atom_site_fract_x
_atom_site_fract_y
_atom_site_fract_z
Si Si1 0.689790 0.020070 0.227120
Si Si2 0.608584 0.875377 0.192785
Si Si3 0.395706 0.584622 0.760346
Si Si4 0.678732 0.483669 0.983513
Si Si5 0.895789 0.290529 0.926799
Si Si6 0.100214 0.358526 0.625368
Si Si7 0.746602 0.817249 0.393395
O O1 0.740112 0.039726 0.375392
O O2 0.609142 0.068649 0.185046
O O3 0.655911 0.945034 0.228145
O O4 0.766683 0.026377 0.101380
O O5 0.500000 0.879421 0.229770
O O6 0.664407 0.818006 0.274347
O O7 0.614259 0.853745 0.027057
O O8 0.500000 0.609367 0.766042
O O9 0.371871 0.565179 0.594342
O O10 0.385254 0.523906 0.872274
O O11 0.322546 0.635327 0.822348
O O12 0.897013 0.311535 0.761397
O O13 0.807080 0.244116 0.941420
O O14 0.000000 0.263143 0.961738
O O15 0.188138 0.343874 0.527273
O O16 0.000000 0.350610 0.552206
#
# Coordination Sequence:
#
# PCOD9351838 Si02
#       7
#     8   8   8   8   8   8   8
#     4  11  19  38  62  96 128 158 199 259 324 384
#     4  11  22  39  66  94 124 163 209 258 319 383
#     4  11  22  38  61  86 121 168 211 262 314 363
#     4  10  20  36  59  88 124 156 209 255 313 371
#     4  10  24  42  62  89 120 166 218 259 308 372
#     4  11  23  39  63  94 128 163 204 259 320 378
#     4  12  22  40  61  89 125 168 210 260 306 369
#
# _framework density 20.310607000000001
#
# number of rings (size 3 to 8) (size 9 to 14) (size 15 to 20)
#    0.000    1.143    4.286    3.429    0.000    0.000 
#    0.000    4.286    0.000    0.000    0.000    0.000 
#    0.000    0.000    0.000    0.000    0.000    0.000 
#
# Total GULP energy -155985.806302 kJ/mol
# GULP energy per Si atom -5570.921654 kJ/mol
# Density = 2.026438 g / cm^3
# Si number density = 20.310607 Si / 1000 Ang^3
#
#
#
# Elastic Constant Matrix: (Units=GPa)
#
#
# Indices 1 2 3 4 5 6 
#
# 1 145.9845 37.7681 37.3435 0.0000 0.0000 0.0000
# 2 37.7681 49.3949 9.6429 0.0000 0.0000 0.0000
# 3 37.3435 9.6429 119.8141 0.0000 0.0000 0.0000
# 4 0.0000 0.0000 0.0000 16.9402 0.0000 0.0000
# 5 0.0000 0.0000 0.0000 0.0000 16.2839 0.0000
# 6 0.0000 0.0000 0.0000 0.0000 0.0000 27.4853
#
#
#
# Elastic Compliance Matrix: (Units=1/GPa)
#
#
# Indices 1 2 3 4 5 6 
#
# 1 0.009133 -0.006530 -0.002321 0.000000 0.000000 0.000000
# 2 -0.006530 0.025237 0.000004 0.000000 0.000000 0.000000
# 3 -0.002321 0.000004 0.009069 0.000000 0.000000 0.000000
# 4 0.000000 0.000000 0.000000 0.059031 0.000000 0.000000
# 5 0.000000 0.000000 0.000000 0.000000 0.061410 0.000000
# 6 0.000000 0.000000 0.000000 0.000000 0.000000 0.036383
#
#
# Mechanical properties :
#
#
# Convention : Reuss Voigt Hill
#
# Bulk Modulus (GPa) = 38.84154 53.85583 46.34868
# Shear Modulus (GPa) = 22.07107 27.50448 24.78777
#
# Velocity S-wave (km/s) = 3.30005 3.68393 3.49726
# Velocity P-wave (km/s) = 5.80394 6.68347 6.25917
#
# Compressibility (1/GPa) = 0.02574563
#
# Stress axis : x y z
#
# Youngs Moduli (GPa) = 109.48983 39.62374 110.26143
#
# Poissons Ratio (x) = 0.25876 0.25592
# Poissons Ratio (y) = 0.71500 -0.00046
# Poissons Ratio (z) = 0.25413 -0.00017
#
# Static dielectric constant tensor:
#      x y z
#    x 1.764210 0.000000 0.000000 
#    y 0.000000 1.738260 0.000000 
#    z 0.000000 0.000000 1.754840 
# 
# From -- ./inp_files/4199.got.cif
#   From: 2010.05.17/outbox.cif.g08.bks.cpg/sg36_3_cif.got.tgz:4199.got - 2010.06.03 17:41:39.
