data_PCOD9351631
_publ_section_title
;
Structure prediction by ZEFSAII (Michael W. Deem and Ramdas Pophale) SiO2 
 PCOD9351631
Probable space group: C M C 21
;
_chemical_formula_sum "Si O2"
_cell_formula_units_Z 48
_cell_length_a 30.261548
_cell_length_b 9.716260
_cell_length_c 8.093228
_cell_angle_alpha 90.000000
_cell_angle_beta 90.000000
_cell_angle_gamma 90.000000
_cell_volume 2379.644289
_symmetry_space_group_name_H-M "C M C 21"
_symmetry_group_IT_number 36
_symmetry_cell_setting 'orthorhombic'
loop_
_space_group_symop_operation_xyz
x,y,z
-x,-y,1/2+z
x,-y,1/2+z
-x,y,z
1/2+x,1/2+y,z
1/2-x,1/2-y,1/2+z
1/2+x,1/2-y,1/2+z
1/2-x,1/2+y,z
loop_
_atom_site_type_symbol
_atom_site_label
_atom_site_fract_x
_atom_site_fract_y
_atom_site_fract_z
Si Si1 0.050862 0.290020 0.793440
Si Si2 0.948822 0.568624 0.932801
Si Si3 0.384608 0.710332 0.301602
Si Si4 0.884848 0.069961 0.662312
Si Si5 0.717197 0.708851 0.300495
Si Si6 0.217267 0.076397 0.663218
O O1 0.052907 0.370201 0.616947
O O2 0.063946 0.408368 0.922744
O O3 0.082822 0.161311 0.773502
O O4 0.000000 0.247852 0.821969
O O5 0.917298 0.662392 0.820836
O O6 0.000000 0.576844 0.876501
O O7 0.386751 0.629730 0.477607
O O8 0.396491 0.591090 0.171894
O O9 0.333738 0.753281 0.275109
O O10 0.833927 0.085160 0.719322
O O11 0.750363 0.833497 0.274606
O O12 0.720418 0.638587 0.480098
O O13 0.728328 0.584736 0.174540
#
# Coordination Sequence:
#
# PCOD9351631 Si02
#       6
#     8   8   8   8   8   8
#     4   9  18  33  51  72  99 129 162 200 241 287
#     4   9  18  33  51  72  99 129 162 200 241 287
#     4   9  19  34  51  73 100 129 162 201 243 289
#     4   9  19  34  51  73 100 129 162 201 243 289
#     4  10  20  35  53  74 101 132 167 206 249 296
#     4  10  20  35  53  74 101 132 167 206 249 296
#
# _framework density 20.171081000000001
#
# number of rings (size 3 to 8) (size 9 to 14) (size 15 to 20)
#    0.000    2.667    0.000    1.000    0.000    4.667 
#    0.000    3.333    0.000    0.000    0.000    0.000 
#    0.000    0.000    0.000    0.000    0.000    0.000 
#
# Total GULP energy -133980.040759 kJ/mol
# GULP energy per Si atom -5582.501698 kJ/mol
# Density = 2.012517 g / cm^3
# Si number density = 20.171081 Si / 1000 Ang^3
#
#
#
# Elastic Constant Matrix: (Units=GPa)
#
#
# Indices 1 2 3 4 5 6 
#
# 1 29.6696 16.8194 16.3825 0.0000 0.0000 0.0000
# 2 16.8194 30.3461 5.2990 0.0000 0.0000 0.0000
# 3 16.3825 5.2990 36.7544 0.0000 0.0000 0.0000
# 4 0.0000 0.0000 0.0000 33.0932 0.0000 0.0000
# 5 0.0000 0.0000 0.0000 0.0000 20.0139 0.0000
# 6 0.0000 0.0000 0.0000 0.0000 0.0000 40.0616
#
#
#
# Elastic Compliance Matrix: (Units=1/GPa)
#
#
# Indices 1 2 3 4 5 6 
#
# 1 0.065352 -0.031939 -0.024524 0.000000 0.000000 0.000000
# 2 -0.031939 0.049413 0.007112 0.000000 0.000000 0.000000
# 3 -0.024524 0.007112 0.037114 0.000000 0.000000 0.000000
# 4 0.000000 0.000000 0.000000 0.030218 0.000000 0.000000
# 5 0.000000 0.000000 0.000000 0.000000 0.049965 0.000000
# 6 0.000000 0.000000 0.000000 0.000000 0.000000 0.024962
#
#
# Mechanical properties :
#
#
# Convention : Reuss Voigt Hill
#
# Bulk Modulus (GPa) = 18.80547 19.30800 19.05674
# Shear Modulus (GPa) = 13.38862 22.51834 17.95348
#
# Velocity S-wave (km/s) = 2.57914 3.34483 2.98662
# Velocity P-wave (km/s) = 4.26761 4.95077 4.62183
#
# Compressibility (1/GPa) = 0.05317602
#
# Stress axis : x y z
#
# Youngs Moduli (GPa) = 15.30179 20.23739 26.94436
#
# Poissons Ratio (x) = 0.64636 0.66080
# Poissons Ratio (y) = 0.48872 -0.19163
# Poissons Ratio (z) = 0.37527 -0.14393
#
# Static dielectric constant tensor:
#      x y z
#    x 1.683590 0.000000 0.000000 
#    y 0.000000 1.675370 0.000000 
#    z 0.000000 0.000000 1.776040 
# 
# From -- ./inp_files/5541.got.cif
#   From: 2010.05.17/outbox.cif.g08.bks.cpg/sg36_3_cif.got.tgz:5541.got - 2010.06.03 17:41:39.
