data_PCOD9351781
_publ_section_title
;
Structure prediction by ZEFSAII (Michael W. Deem and Ramdas Pophale) SiO2 
 PCOD9351781
Probable space group: C M C 21
;
_chemical_formula_sum "Si O2"
_cell_formula_units_Z 48
_cell_length_a 7.419465
_cell_length_b 16.913646
_cell_length_c 14.720702
_cell_angle_alpha 90.000000
_cell_angle_beta 90.000000
_cell_angle_gamma 90.000000
_cell_volume 1847.303905
_symmetry_space_group_name_H-M "C M C 21"
_symmetry_group_IT_number 36
_symmetry_cell_setting 'orthorhombic'
loop_
_space_group_symop_operation_xyz
x,y,z
-x,-y,1/2+z
x,-y,1/2+z
-x,y,z
1/2+x,1/2+y,z
1/2-x,1/2-y,1/2+z
1/2+x,1/2-y,1/2+z
1/2-x,1/2+y,z
loop_
_atom_site_type_symbol
_atom_site_label
_atom_site_fract_x
_atom_site_fract_y
_atom_site_fract_z
Si Si1 0.781853 0.550937 0.908700
Si Si2 0.294291 0.055012 0.565171
Si Si3 0.220397 0.805567 0.833736
Si Si4 0.717813 0.786854 0.503801
Si Si5 0.290622 0.462635 0.734434
Si Si6 0.293840 0.800441 0.175583
O O1 0.724722 0.632516 0.955020
O O2 0.726669 0.534741 0.805813
O O3 0.000000 0.550661 0.910554
O O4 0.713716 0.479548 0.973083
O O5 0.500000 0.077672 0.544353
O O6 0.297620 0.984551 0.639318
O O7 0.207332 0.127660 0.619674
O O8 0.271803 0.784527 0.936071
O O9 0.281419 0.734121 0.768291
O O10 0.000000 0.806442 0.832096
O O11 0.282970 0.886879 0.788682
O O12 0.500000 0.788010 0.510654
O O13 0.793103 0.771292 0.603315
O O14 0.500000 0.448976 0.715324
O O15 0.500000 0.824709 0.196331
#
# Coordination Sequence:
#
# PCOD9351781 Si02
#       6
#     8   8   8   8   8   8
#     4  10  21  37  57  81 110 145 182 222 273 329
#     4  10  21  37  57  81 110 145 182 222 273 329
#     4   9  19  35  53  75 106 143 176 212 268 323
#     4  10  20  36  57  79 107 142 178 219 266 318
#     4  11  22  35  55  81 108 141 182 228 272 319
#     4  10  20  36  57  79 107 142 178 219 266 318
#
# _framework density 25.983810999999999
#
# number of rings (size 3 to 8) (size 9 to 14) (size 15 to 20)
#    0.000    2.000    0.000    3.500    0.000    4.667 
#    0.000    2.500    0.000    0.000    0.000    0.000 
#    0.000    0.000    0.000    0.000    0.000    0.000 
#
# Total GULP energy -134361.825767 kJ/mol
# GULP energy per Si atom -5598.409407 kJ/mol
# Density = 2.592467 g / cm^3
# Si number density = 25.983811 Si / 1000 Ang^3
#
#
#
# Elastic Constant Matrix: (Units=GPa)
#
#
# Indices 1 2 3 4 5 6 
#
# 1 99.1777 1.4427 -5.9846 0.0000 0.0000 0.0000
# 2 1.4427 70.0552 -7.0395 0.0000 0.0000 0.0000
# 3 -5.9846 -7.0395 123.4099 0.0000 0.0000 0.0000
# 4 0.0000 0.0000 0.0000 52.2495 0.0000 0.0000
# 5 0.0000 0.0000 0.0000 0.0000 14.4312 0.0000
# 6 0.0000 0.0000 0.0000 0.0000 0.0000 5.8903
#
#
#
# Elastic Compliance Matrix: (Units=1/GPa)
#
#
# Indices 1 2 3 4 5 6 
#
# 1 0.010114 -0.000160 0.000481 0.000000 0.000000 0.000000
# 2 -0.000160 0.014359 0.000811 0.000000 0.000000 0.000000
# 3 0.000481 0.000811 0.008173 0.000000 0.000000 0.000000
# 4 0.000000 0.000000 0.000000 0.019139 0.000000 0.000000
# 5 0.000000 0.000000 0.000000 0.000000 0.069294 0.000000
# 6 0.000000 0.000000 0.000000 0.000000 0.000000 0.169772
#
#
# Mechanical properties :
#
#
# Convention : Reuss Voigt Hill
#
# Bulk Modulus (GPa) = 28.64363 29.94222 29.29292
# Shear Modulus (GPa) = 16.65431 34.79581 25.72506
#
# Velocity S-wave (km/s) = 2.53444 3.66339 3.14991
# Velocity P-wave (km/s) = 4.42856 5.42608 4.95250
#
# Compressibility (1/GPa) = 0.03491178
#
# Stress axis : x y z
#
# Youngs Moduli (GPa) = 98.87008 69.64138 122.35857
#
# Poissons Ratio (x) = 0.01114 -0.05890
# Poissons Ratio (y) = 0.01581 -0.09927
# Poissons Ratio (z) = -0.04759 -0.05650
#
# Static dielectric constant tensor:
#      x y z
#    x 2.022190 0.000000 0.000000 
#    y 0.000000 2.117660 0.000000 
#    z 0.000000 0.000000 1.932800 
# 
# From -- ./inp_files/10359.got.cif
#   From: 2010.05.17/outbox.cif.g08.bks.cpg/sg36_6_cif.got.tgz:10359.got - 2010.06.03 17:41:39.
