data_PCOD9351777
_publ_section_title
;
Structure prediction by ZEFSAII (Michael W. Deem and Ramdas Pophale) SiO2 
 PCOD9351777
Probable space group: C M C 21
;
_chemical_formula_sum "Si O2"
_cell_formula_units_Z 64
_cell_length_a 8.840123
_cell_length_b 25.388559
_cell_length_c 15.010331
_cell_angle_alpha 90.000000
_cell_angle_beta 90.000000
_cell_angle_gamma 90.000000
_cell_volume 3368.888434
_symmetry_space_group_name_H-M "C M C 21"
_symmetry_group_IT_number 36
_symmetry_cell_setting 'orthorhombic'
loop_
_space_group_symop_operation_xyz
x,y,z
-x,-y,1/2+z
x,-y,1/2+z
-x,y,z
1/2+x,1/2+y,z
1/2-x,1/2-y,1/2+z
1/2+x,1/2-y,1/2+z
1/2-x,1/2+y,z
loop_
_atom_site_type_symbol
_atom_site_label
_atom_site_fract_x
_atom_site_fract_y
_atom_site_fract_z
Si Si1 0.326319 0.253370 0.196520
Si Si2 0.318893 0.137727 0.689207
Si Si3 0.683858 0.863041 0.692309
Si Si4 0.680567 0.136333 0.482222
Si Si5 0.183909 0.638716 0.985911
Si Si6 0.674831 0.254231 0.979337
Si Si7 0.816544 0.444496 0.337509
Si Si8 0.680142 0.560584 0.337307
O O1 0.500000 0.258091 0.225272
O O2 0.238181 0.305631 0.222890
O O3 0.267811 0.195708 0.223440
O O4 0.325624 0.252173 0.087876
O O5 0.500000 0.139238 0.691404
O O6 0.273727 0.130883 0.586076
O O7 0.270091 0.089720 0.751363
O O8 0.500000 0.864488 0.697287
O O9 0.727856 0.869270 0.588677
O O10 0.753747 0.907788 0.753012
O O11 0.500000 0.130744 0.474839
O O12 0.729049 0.195121 0.452950
O O13 0.761367 0.093037 0.422594
O O14 0.234126 0.696546 0.952459
O O15 0.000000 0.641639 0.985022
O O16 0.228055 0.591129 0.922320
O O17 0.500000 0.260891 0.950761
O O18 0.744167 0.501643 0.338947
O O19 0.000000 0.449531 0.337345
O O20 0.500000 0.560202 0.334729
#
# Coordination Sequence:
#
# PCOD9351777 Si02
#       8
#     8   8   8   8   8   8   8   8
#     4   8  15  29  53  82 113 143 172 210 262 317
#     4   9  19  34  56  84 113 144 179 216 261 316
#     4   9  18  36  59  83 110 143 178 215 263 324
#     4  10  20  36  56  80 110 146 182 219 263 317
#     4   8  16  33  60  86 110 142 177 212 262 323
#     4   8  14  29  53  84 115 141 171 211 260 319
#     4  10  21  39  58  78 105 141 183 224 263 317
#     4  12  26  40  53  75 104 140 186 235 278 317
#
# _framework density 18.997364000000001
#
# number of rings (size 3 to 8) (size 9 to 14) (size 15 to 20)
#    0.000    2.750    0.000    3.000    0.000    3.500 
#    0.000    9.375    0.000    0.000    0.000    0.000 
#    0.000    0.000    0.000    0.000    0.000    0.000 
#
# Total GULP energy -178552.724903 kJ/mol
# GULP energy per Si atom -5579.772653 kJ/mol
# Density = 1.895413 g / cm^3
# Si number density = 18.997364 Si / 1000 Ang^3
#
#
#
# Elastic Constant Matrix: (Units=GPa)
#
#
# Indices 1 2 3 4 5 6 
#
# 1 37.1888 53.6499 34.2667 0.0000 0.0000 0.0000
# 2 53.6499 215.9270 89.2743 0.0000 0.0000 0.0000
# 3 34.2667 89.2743 100.0079 0.0000 0.0000 0.0000
# 4 0.0000 0.0000 0.0000 33.2217 0.0000 0.0000
# 5 0.0000 0.0000 0.0000 0.0000 13.2058 0.0000
# 6 0.0000 0.0000 0.0000 0.0000 0.0000 173.3251
#
#
#
# Elastic Compliance Matrix: (Units=1/GPa)
#
#
# Indices 1 2 3 4 5 6 
#
# 1 0.046416 -0.007857 -0.008890 0.000000 0.000000 0.000000
# 2 -0.007857 0.008670 -0.005048 0.000000 0.000000 0.000000
# 3 -0.008890 -0.005048 0.017551 0.000000 0.000000 0.000000
# 4 0.000000 0.000000 0.000000 0.030101 0.000000 0.000000
# 5 0.000000 0.000000 0.000000 0.000000 0.075724 0.000000
# 6 0.000000 0.000000 0.000000 0.000000 0.000000 0.005770
#
#
# Mechanical properties :
#
#
# Convention : Reuss Voigt Hill
#
# Bulk Modulus (GPa) = 34.42580 78.61174 56.51877
# Shear Modulus (GPa) = 21.05218 55.67940 38.36579
#
# Velocity S-wave (km/s) = 3.33252 5.41965 4.49880
# Velocity P-wave (km/s) = 5.74180 8.97963 7.53664
#
# Compressibility (1/GPa) = 0.02904798
#
# Stress axis : x y z
#
# Youngs Moduli (GPa) = 21.54407 115.33630 56.97607
#
# Poissons Ratio (x) = 0.90621 0.50654
# Poissons Ratio (y) = 0.16927 0.28759
# Poissons Ratio (z) = 0.19153 0.58217
#
# Static dielectric constant tensor:
#      x y z
#    x 1.637460 0.000000 0.000000 
#    y 0.000000 1.641830 0.000000 
#    z 0.000000 0.000000 1.692130 
# 
# From -- ./inp_files/11091.got.cif
#   From: 2010.05.17/outbox.cif.g08.bks.cpg/sg36_6_cif.got.tgz:11091.got - 2010.06.03 17:41:39.
