data_PCOD9351988
_publ_section_title
;
Structure prediction by ZEFSAII (Michael W. Deem and Ramdas Pophale) SiO2 
 PCOD9351988
Probable space group: C M C 21
;
_chemical_formula_sum "Si O2"
_cell_formula_units_Z 64
_cell_length_a 8.044392
_cell_length_b 32.718260
_cell_length_c 10.836566
_cell_angle_alpha 90.000000
_cell_angle_beta 90.000000
_cell_angle_gamma 90.000000
_cell_volume 2852.168014
_symmetry_space_group_name_H-M "C M C 21"
_symmetry_group_IT_number 36
_symmetry_cell_setting 'orthorhombic'
loop_
_space_group_symop_operation_xyz
x,y,z
-x,-y,1/2+z
x,-y,1/2+z
-x,y,z
1/2+x,1/2+y,z
1/2-x,1/2-y,1/2+z
1/2+x,1/2-y,1/2+z
1/2-x,1/2+y,z
loop_
_atom_site_type_symbol
_atom_site_label
_atom_site_fract_x
_atom_site_fract_y
_atom_site_fract_z
Si Si1 0.694606 0.953636 0.390980
Si Si2 0.300701 0.876281 0.801679
Si Si3 0.697913 0.707806 0.385007
Si Si4 0.697659 0.670871 0.785781
Si Si5 0.698592 0.544855 0.427607
Si Si6 0.310942 0.247983 0.643483
Si Si7 0.800005 0.629653 0.026462
Si Si8 0.308852 0.588332 0.662345
O O1 0.500000 0.948008 0.362545
O O2 0.740520 0.916975 0.484578
O O3 0.799682 0.945071 0.269021
O O4 0.724253 0.000129 0.427161
O O5 0.500000 0.877711 0.804448
O O6 0.243086 0.840422 0.895009
O O7 0.234876 0.922281 0.821633
O O8 0.242637 0.863813 0.665015
O O9 0.500000 0.711161 0.377584
O O10 0.769160 0.722406 0.250157
O O11 0.746765 0.734743 0.506272
O O12 0.500000 0.677371 0.764318
O O13 0.799071 0.706704 0.724196
O O14 0.759294 0.629507 0.719766
O O15 0.725291 0.661667 0.929688
O O16 0.500000 0.539330 0.438484
O O17 0.772528 0.569554 0.543464
O O18 0.500000 0.261414 0.623479
O O19 0.000000 0.633794 0.021659
O O20 0.500000 0.597373 0.631002
#
# Coordination Sequence:
#
# PCOD9351988 Si02
#       8
#     8   8   8   8   8   8   8   8
#     4  10  21  37  58  86 120 158 205 258 311 377
#     4  11  24  42  65  93 128 171 217 267 328 390
#     4  11  26  46  68  99 136 175 223 276 332 396
#     4  10  20  37  65  94 124 162 209 261 318 382
#     4  11  23  38  59  86 121 161 206 259 315 379
#     4  11  25  44  69 100 135 175 219 269 330 394
#     4   9  21  40  61  90 128 168 213 265 322 387
#     4   9  20  38  57  82 114 152 198 249 306 371
#
# _framework density 22.439070999999998
#
# number of rings (size 3 to 8) (size 9 to 14) (size 15 to 20)
#    0.000    1.750    0.000    3.000    3.500    6.000 
#    0.000    0.000    0.000    0.000    0.000    0.000 
#    0.000    0.000    0.000    0.000    0.000    0.000 
#
# Total GULP energy -178540.435574 kJ/mol
# GULP energy per Si atom -5579.388612 kJ/mol
# Density = 2.238800 g / cm^3
# Si number density = 22.439071 Si / 1000 Ang^3
#
#
#
# Elastic Constant Matrix: (Units=GPa)
#
#
# Indices 1 2 3 4 5 6 
#
# 1 36.3493 -1.5258 -3.7443 0.0000 0.0000 0.0000
# 2 -1.5258 84.8150 20.0090 0.0000 0.0000 0.0000
# 3 -3.7443 20.0090 79.1460 0.0000 0.0000 0.0000
# 4 0.0000 0.0000 0.0000 8.8998 0.0000 0.0000
# 5 0.0000 0.0000 0.0000 0.0000 25.1154 0.0000
# 6 0.0000 0.0000 0.0000 0.0000 0.0000 -177.8882
#
#
#
# Elastic Compliance Matrix: (Units=1/GPa)
#
#
# Indices 1 2 3 4 5 6 
#
# 1 0.027649 0.000201 0.001257 0.000000 0.000000 0.000000
# 2 0.000201 0.012540 -0.003161 0.000000 0.000000 0.000000
# 3 0.001257 -0.003161 0.013493 0.000000 0.000000 0.000000
# 4 0.000000 0.000000 0.000000 0.112362 0.000000 0.000000
# 5 0.000000 0.000000 0.000000 0.000000 0.039816 0.000000
# 6 0.000000 0.000000 0.000000 0.000000 0.000000 -0.005622
#
#
# Mechanical properties :
#
#
# Convention : Reuss Voigt Hill
#
# Bulk Modulus (GPa) = 19.88998 25.53202 22.71100
# Shear Modulus (GPa) = 22.68581 -16.40314 3.14133
#
# Velocity S-wave (km/s) = 3.18307 -2.70665 1.18447
# Velocity P-wave (km/s) = 4.73207 1.27873 3.46609
#
# Compressibility (1/GPa) = 0.05027657
#
# Stress axis : x y z
#
# Youngs Moduli (GPa) = 36.16800 79.74725 74.11032
#
# Poissons Ratio (x) = -0.01601 -0.09318
# Poissons Ratio (y) = -0.00726 0.23424
# Poissons Ratio (z) = -0.04547 0.25205
#
# Static dielectric constant tensor:
#      x y z
#    x 1.797470 0.000000 0.000000 
#    y 0.000000 1.896110 0.000000 
#    z 0.000000 0.000000 1.884760 
# 
# From -- ./inp_files/7238.got.cif
#   From: 2010.05.17/outbox.cif.g08.bks.cpg/sg36_4_cif.got.tgz:7238.got - 2010.06.03 17:41:39.
