data_PCOD9351308
_publ_section_title
;
Structure prediction by ZEFSAII (Michael W. Deem and Ramdas Pophale) SiO2 
 PCOD9351308
Probable space group: C M C 21
;
_chemical_formula_sum "Si O2"
_cell_formula_units_Z 48
_cell_length_a 26.653038
_cell_length_b 5.889069
_cell_length_c 12.611089
_cell_angle_alpha 90.000000
_cell_angle_beta 90.000000
_cell_angle_gamma 90.000000
_cell_volume 1979.456453
_symmetry_space_group_name_H-M "C M C 21"
_symmetry_group_IT_number 36
_symmetry_cell_setting 'orthorhombic'
loop_
_space_group_symop_operation_xyz
x,y,z
-x,-y,1/2+z
x,-y,1/2+z
-x,y,z
1/2+x,1/2+y,z
1/2-x,1/2-y,1/2+z
1/2+x,1/2-y,1/2+z
1/2-x,1/2+y,z
loop_
_atom_site_type_symbol
_atom_site_label
_atom_site_fract_x
_atom_site_fract_y
_atom_site_fract_z
Si Si1 0.127256 0.028095 0.954850
Si Si2 0.441132 0.427064 0.786398
Si Si3 0.738605 0.383254 0.386445
Si Si4 0.620208 0.240702 0.152803
Si Si5 0.772989 0.395136 0.629610
Si Si6 0.056831 0.359421 0.068071
O O1 0.094352 0.854329 0.883675
O O2 0.179073 0.103182 0.904300
O O3 0.139880 0.928751 0.070633
O O4 0.090604 0.233262 0.983163
O O5 0.500000 0.462479 0.813567
O O6 0.409618 0.648245 0.749067
O O7 0.440507 0.268066 0.682540
O O8 0.750872 0.632664 0.338829
O O9 0.768542 0.389214 0.499376
O O10 0.669405 0.090390 0.170036
O O11 0.578004 0.104332 0.090782
O O12 0.747481 0.639458 0.655955
O O13 0.000000 0.359954 0.032125
#
# Coordination Sequence:
#
# PCOD9351308 Si02
#       6
#     8   8   8   8   8   8
#     4  11  22  39  68  92 127 176 219 274 344 402
#     4  10  24  43  60  93 134 168 222 287 336 402
#     4  10  19  36  63  95 132 168 215 274 330 398
#     4  11  22  39  67  92 128 178 222 271 345 403
#     4  10  19  35  64  96 130 170 217 274 332 400
#     4  10  22  40  64  92 125 168 225 280 337 403
#
# _framework density 24.249082000000001
#
# number of rings (size 3 to 8) (size 9 to 14) (size 15 to 20)
#    0.000    1.667    3.333    3.000    2.333    3.333 
#    0.000    3.333    0.000    0.000    0.000    0.000 
#    0.000    0.000    0.000    0.000    0.000    0.000 
#
# Total GULP energy -134023.867329 kJ/mol
# GULP energy per Si atom -5584.327805 kJ/mol
# Density = 2.419389 g / cm^3
# Si number density = 24.249082 Si / 1000 Ang^3
#
#
#
# Elastic Constant Matrix: (Units=GPa)
#
#
# Indices 1 2 3 4 5 6 
#
# 1 95.6150 -13.9070 25.1798 0.0000 0.0000 0.0000
# 2 -13.9070 95.4918 36.6508 0.0000 0.0000 0.0000
# 3 25.1798 36.6508 62.6029 0.0000 0.0000 0.0000
# 4 0.0000 0.0000 0.0000 28.7097 0.0000 0.0000
# 5 0.0000 0.0000 0.0000 0.0000 30.4326 0.0000
# 6 0.0000 0.0000 0.0000 0.0000 0.0000 34.2385
#
#
#
# Elastic Compliance Matrix: (Units=1/GPa)
#
#
# Indices 1 2 3 4 5 6 
#
# 1 0.013441 0.005201 -0.008451 0.000000 0.000000 0.000000
# 2 0.005201 0.015520 -0.011178 0.000000 0.000000 0.000000
# 3 -0.008451 -0.011178 0.025917 0.000000 0.000000 0.000000
# 4 0.000000 0.000000 0.000000 0.034831 0.000000 0.000000
# 5 0.000000 0.000000 0.000000 0.000000 0.032860 0.000000
# 6 0.000000 0.000000 0.000000 0.000000 0.000000 0.029207
#
#
# Mechanical properties :
#
#
# Convention : Reuss Voigt Hill
#
# Bulk Modulus (GPa) = 38.42976 38.83968 38.63472
# Shear Modulus (GPa) = 26.41245 32.39523 29.40384
#
# Velocity S-wave (km/s) = 3.30391 3.65901 3.48598
# Velocity P-wave (km/s) = 5.51695 5.82262 5.67184
#
# Compressibility (1/GPa) = 0.02602150
#
# Stress axis : x y z
#
# Youngs Moduli (GPa) = 74.40147 64.43398 38.58487
#
# Poissons Ratio (x) = -0.33512 0.32608
# Poissons Ratio (y) = -0.38696 0.43130
# Poissons Ratio (z) = 0.62876 0.72024
#
# Static dielectric constant tensor:
#      x y z
#    x 1.859840 0.000000 0.000000 
#    y 0.000000 1.953210 0.000000 
#    z 0.000000 0.000000 2.194710 
# 
# From -- ./inp_files/13045.got.cif
#   From: 2010.05.17/outbox.cif.g08.bks.cpg/sg36_7_cif.got.tgz:13045.got - 2010.06.03 17:41:39.
