data_PCOD9351577
_publ_section_title
;
Structure prediction by ZEFSAII (Michael W. Deem and Ramdas Pophale) SiO2 
 PCOD9351577
Probable space group: C M C 21
;
_chemical_formula_sum "Si O2"
_cell_formula_units_Z 64
_cell_length_a 7.670692
_cell_length_b 25.220358
_cell_length_c 14.416983
_cell_angle_alpha 90.000000
_cell_angle_beta 90.000000
_cell_angle_gamma 90.000000
_cell_volume 2789.074907
_symmetry_space_group_name_H-M "C M C 21"
_symmetry_group_IT_number 36
_symmetry_cell_setting 'orthorhombic'
loop_
_space_group_symop_operation_xyz
x,y,z
-x,-y,1/2+z
x,-y,1/2+z
-x,y,z
1/2+x,1/2+y,z
1/2-x,1/2-y,1/2+z
1/2+x,1/2-y,1/2+z
1/2-x,1/2+y,z
loop_
_atom_site_type_symbol
_atom_site_label
_atom_site_fract_x
_atom_site_fract_y
_atom_site_fract_z
Si Si1 0.802242 0.709135 0.558320
Si Si2 0.289536 0.459532 0.902438
Si Si3 0.802231 0.867905 0.216480
Si Si4 0.699788 0.699933 0.181999
Si Si5 0.204689 0.410566 0.604693
Si Si6 0.287986 0.576490 0.889701
Si Si7 0.707674 0.027293 0.620136
Si Si8 0.205674 0.842830 0.866102
O O1 0.798121 0.667532 0.643067
O O2 0.719667 0.761592 0.604458
O O3 0.720434 0.682233 0.467999
O O4 0.000000 0.720980 0.529405
O O5 0.500000 0.458749 0.895890
O O6 0.229153 0.516507 0.863152
O O7 0.222390 0.403148 0.864592
O O8 0.241241 0.462213 0.011223
O O9 0.728273 0.878149 0.318734
O O10 0.803327 0.927182 0.175490
O O11 0.000000 0.847309 0.221699
O O12 0.500000 0.719484 0.191447
O O13 0.701370 0.640168 0.145003
O O14 0.779158 0.694730 0.284810
O O15 0.228651 0.412891 0.493916
O O16 0.267865 0.467560 0.641511
O O17 0.000000 0.405896 0.625626
O O18 0.500000 0.576872 0.887881
O O19 0.500000 0.030855 0.636142
O O20 0.000000 0.847608 0.845776
#
# Coordination Sequence:
#
# PCOD9351577 Si02
#       8
#     8   8   8   8   8   8   8   8
#     4  11  24  42  62  88 124 160 200 252 307 354
#     4   9  17  33  57  85 116 154 201 245 291 348
#     4  11  22  36  59  89 118 159 207 245 294 355
#     4  10  24  43  64  89 118 159 205 250 302 357
#     4  10  22  39  59  88 123 159 197 244 304 359
#     4   9  20  36  57  88 124 163 203 245 295 357
#     4  10  20  34  54  85 123 157 190 239 301 357
#     4  10  21  39  64  90 116 155 205 250 296 355
#
# _framework density 22.946677999999999
#
# number of rings (size 3 to 8) (size 9 to 14) (size 15 to 20)
#    0.000    2.000    1.250    1.500    1.750    5.000 
#    0.000    2.500    0.000    0.000    0.000    0.000 
#    0.000    0.000    0.000    0.000    0.000    0.000 
#
# Total GULP energy -178721.717900 kJ/mol
# GULP energy per Si atom -5585.053684 kJ/mol
# Density = 2.289445 g / cm^3
# Si number density = 22.946678 Si / 1000 Ang^3
#
#
#
# Elastic Constant Matrix: (Units=GPa)
#
#
# Indices 1 2 3 4 5 6 
#
# 1 54.5185 3.0457 -3.5339 0.0000 0.0000 0.0000
# 2 3.0457 89.0320 28.3317 0.0000 0.0000 0.0000
# 3 -3.5339 28.3317 60.4252 0.0000 0.0000 0.0000
# 4 0.0000 0.0000 0.0000 27.4047 0.0000 0.0000
# 5 0.0000 0.0000 0.0000 0.0000 -8.5246 0.0000
# 6 0.0000 0.0000 0.0000 0.0000 0.0000 15.4440
#
#
#
# Elastic Compliance Matrix: (Units=1/GPa)
#
#
# Indices 1 2 3 4 5 6 
#
# 1 0.018512 -0.001149 0.001621 0.000000 0.000000 0.000000
# 2 -0.001149 0.013273 -0.006291 0.000000 0.000000 0.000000
# 3 0.001621 -0.006291 0.019594 0.000000 0.000000 0.000000
# 4 0.000000 0.000000 0.000000 0.036490 0.000000 0.000000
# 5 0.000000 0.000000 0.000000 0.000000 -0.117307 0.000000
# 6 0.000000 0.000000 0.000000 0.000000 0.000000 0.064750
#
#
# Mechanical properties :
#
#
# Convention : Reuss Voigt Hill
#
# Bulk Modulus (GPa) = 25.16246 28.85140 27.00693
# Shear Modulus (GPa) = 83.06282 18.60697 50.83489
#
# Velocity S-wave (km/s) = 6.02302 2.85068 4.71186
# Velocity P-wave (km/s) = 7.70444 4.84105 6.43406
#
# Compressibility (1/GPa) = 0.03974174
#
# Stress axis : x y z
#
# Youngs Moduli (GPa) = 54.01992 75.34088 51.03688
#
# Poissons Ratio (x) = 0.08659 -0.08276
# Poissons Ratio (y) = 0.06208 0.32105
# Poissons Ratio (z) = -0.08759 0.47394
#
# Static dielectric constant tensor:
#      x y z
#    x 1.892890 0.000000 0.000000 
#    y 0.000000 1.864080 0.000000 
#    z 0.000000 0.000000 1.873420 
# 
# From -- ./inp_files/11067.got.cif
#   From: 2010.05.17/outbox.cif.g08.bks.cpg/sg36_6_cif.got.tgz:11067.got - 2010.06.03 17:41:39.
