data_PCOD9351348
_publ_section_title
;
Structure prediction by ZEFSAII (Michael W. Deem and Ramdas Pophale) SiO2 
 PCOD9351348
Probable space group: C M C 21
;
_chemical_formula_sum "Si O2"
_cell_formula_units_Z 64
_cell_length_a 11.733041
_cell_length_b 18.630720
_cell_length_c 14.998752
_cell_angle_alpha 90.000000
_cell_angle_beta 90.000000
_cell_angle_gamma 90.000000
_cell_volume 3278.652218
_symmetry_space_group_name_H-M "C M C 21"
_symmetry_group_IT_number 36
_symmetry_cell_setting 'orthorhombic'
loop_
_space_group_symop_operation_xyz
x,y,z
-x,-y,1/2+z
x,-y,1/2+z
-x,y,z
1/2+x,1/2+y,z
1/2-x,1/2-y,1/2+z
1/2+x,1/2-y,1/2+z
1/2-x,1/2+y,z
loop_
_atom_site_type_symbol
_atom_site_label
_atom_site_fract_x
_atom_site_fract_y
_atom_site_fract_z
Si Si1 0.866590 0.696830 0.663310
Si Si2 0.806413 0.814947 0.005590
Si Si3 0.693869 0.423499 0.660948
Si Si4 0.132169 0.816347 0.807065
Si Si5 0.877616 0.339874 0.558460
Si Si6 0.125321 0.535910 0.729195
Si Si7 0.126331 0.520306 0.940262
Si Si8 0.375043 0.527421 0.510762
O O1 0.803473 0.695636 0.568510
O O2 0.829379 0.752399 0.740803
O O3 0.852551 0.617613 0.703415
O O4 0.000000 0.712417 0.648933
O O5 0.796265 0.822213 0.898220
O O6 0.871209 0.740311 0.021906
O O7 0.866236 0.888672 0.037798
O O8 0.636800 0.388281 0.747129
O O9 0.767945 0.360051 0.616362
O O10 0.784256 0.483054 0.688896
O O11 0.621904 0.466895 0.587979
O O12 0.000000 0.803358 0.832815
O O13 0.874082 0.399950 0.481566
O O14 0.000000 0.348302 0.606244
O O15 0.126202 0.526341 0.834612
O O16 0.000000 0.517248 0.694053
O O17 0.000000 0.487901 0.966458
O O18 0.248161 0.485520 0.967847
O O19 0.500000 0.520924 0.462663
#
# Coordination Sequence:
#
# PCOD9351348 Si02
#       8
#     8   8   8   8   8   8   8   8
#     4  10  22  41  65  91 122 163 215 267 318 374
#     4  12  22  40  63  90 122 165 216 258 316 381
#     4  11  21  37  59  88 124 160 204 252 315 383
#     4  11  23  40  64  89 119 166 215 258 310 385
#     4  10  20  36  59  86 117 156 202 256 306 363
#     4  10  19  36  61  89 119 155 203 258 309 368
#     4   9  20  38  63  92 121 159 207 256 309 369
#     4  11  23  38  60  91 130 168 205 255 317 379
#
# _framework density 19.520216000000001
#
# number of rings (size 3 to 8) (size 9 to 14) (size 15 to 20)
#    0.000    1.500    2.500    3.375    0.000    3.000 
#    0.000    1.875    0.000    0.000    0.000    0.000 
#    0.000    0.000    0.000    0.000    0.000    0.000 
#
# Total GULP energy -178222.056818 kJ/mol
# GULP energy per Si atom -5569.439276 kJ/mol
# Density = 1.947579 g / cm^3
# Si number density = 19.520216 Si / 1000 Ang^3
#
#
#
# Elastic Constant Matrix: (Units=GPa)
#
#
# Indices 1 2 3 4 5 6 
#
# 1 109.8567 49.8467 39.6349 0.0000 0.0000 0.0000
# 2 49.8467 66.2205 14.3653 0.0000 0.0000 0.0000
# 3 39.6349 14.3653 89.5958 0.0000 0.0000 0.0000
# 4 0.0000 0.0000 0.0000 24.7273 0.0000 0.0000
# 5 0.0000 0.0000 0.0000 0.0000 30.5149 0.0000
# 6 0.0000 0.0000 0.0000 0.0000 0.0000 11.3517
#
#
#
# Elastic Compliance Matrix: (Units=1/GPa)
#
#
# Indices 1 2 3 4 5 6 
#
# 1 0.015941 -0.010847 -0.005313 0.000000 0.000000 0.000000
# 2 -0.010847 0.023026 0.001107 0.000000 0.000000 0.000000
# 3 -0.005313 0.001107 0.013334 0.000000 0.000000 0.000000
# 4 0.000000 0.000000 0.000000 0.040441 0.000000 0.000000
# 5 0.000000 0.000000 0.000000 0.000000 0.032771 0.000000
# 6 0.000000 0.000000 0.000000 0.000000 0.000000 0.088093
#
#
# Mechanical properties :
#
#
# Convention : Reuss Voigt Hill
#
# Bulk Modulus (GPa) = 45.05576 52.59632 48.82604
# Shear Modulus (GPa) = 19.91148 24.10719 22.00933
#
# Velocity S-wave (km/s) = 3.19728 3.51805 3.36149
# Velocity P-wave (km/s) = 6.06315 6.59585 6.33510
#
# Compressibility (1/GPa) = 0.02219472
#
# Stress axis : x y z
#
# Youngs Moduli (GPa) = 62.72967 43.42902 74.99572
#
# Poissons Ratio (x) = 0.47108 0.39845
# Poissons Ratio (y) = 0.68044 -0.08299
# Poissons Ratio (z) = 0.33328 -0.04806
#
# Static dielectric constant tensor:
#      x y z
#    x 1.729260 0.000000 0.000000 
#    y 0.000000 1.686960 0.000000 
#    z 0.000000 0.000000 1.714360 
# 
# From -- ./inp_files/11789.got.cif
#   From: 2010.05.17/outbox.cif.g08.bks.cpg/sg36_6_cif.got.tgz:11789.got - 2010.06.03 17:41:39.
