data_PCOD9351447
_publ_section_title
;
Structure prediction by ZEFSAII (Michael W. Deem and Ramdas Pophale) SiO2 
 PCOD9351447
Probable space group: C M C 21
;
_chemical_formula_sum "Si O2"
_cell_formula_units_Z 48
_cell_length_a 7.174713
_cell_length_b 29.350982
_cell_length_c 8.224561
_cell_angle_alpha 90.000000
_cell_angle_beta 90.000000
_cell_angle_gamma 90.000000
_cell_volume 1731.968126
_symmetry_space_group_name_H-M "C M C 21"
_symmetry_group_IT_number 36
_symmetry_cell_setting 'orthorhombic'
loop_
_space_group_symop_operation_xyz
x,y,z
-x,-y,1/2+z
x,-y,1/2+z
-x,y,z
1/2+x,1/2+y,z
1/2-x,1/2-y,1/2+z
1/2+x,1/2-y,1/2+z
1/2-x,1/2+y,z
loop_
_atom_site_type_symbol
_atom_site_label
_atom_site_fract_x
_atom_site_fract_y
_atom_site_fract_z
Si Si1 0.273776 0.014614 0.936460
Si Si2 0.272698 0.900656 0.239050
Si Si3 0.711368 0.821501 0.031814
Si Si4 0.775195 0.739628 0.237224
Si Si5 0.774220 0.569780 0.260791
Si Si6 0.774678 0.347114 0.562990
O O1 0.500000 0.013832 0.938581
O O2 0.219373 0.048147 0.787620
O O3 0.212864 0.962852 0.906989
O O4 0.222402 0.040124 0.101071
O O5 0.500000 0.901158 0.228756
O O6 0.209936 0.870214 0.086571
O O7 0.216748 0.871476 0.398254
O O8 0.500000 0.830638 0.976647
O O9 0.704900 0.789440 0.192472
O O10 0.791759 0.787608 0.896527
O O11 0.718329 0.704443 0.093846
O O12 0.000000 0.743066 0.243598
O O13 0.715222 0.620650 0.214250
O O14 0.000000 0.571627 0.270502
O O15 0.000000 0.347548 0.560924
#
# Coordination Sequence:
#
# PCOD9351447 Si02
#       6
#     8   8   8   8   8   8
#     4   8  13  20  31  49  74 105 138 170 207 251
#     4   8  14  25  39  55  79 111 143 176 216 258
#     4  10  20  32  47  67  89 116 150 185 223 266
#     4  10  20  32  47  67  89 116 150 185 223 266
#     4   8  13  20  31  49  74 105 138 170 207 251
#     4   8  14  25  39  55  79 111 143 176 216 258
#
# _framework density 27.714136
#
# number of rings (size 3 to 8) (size 9 to 14) (size 15 to 20)
#    0.000    3.333    0.000    3.000    0.000    3.333 
#    0.000    6.667    0.000    0.000    0.000    0.000 
#    0.000    1.333    0.000    4.333    0.000    8.667 
#
# Total GULP energy -134185.716537 kJ/mol
# GULP energy per Si atom -5591.071522 kJ/mol
# Density = 2.765106 g / cm^3
# Si number density = 27.714136 Si / 1000 Ang^3
#
#
#
# Elastic Constant Matrix: (Units=GPa)
#
#
# Indices 1 2 3 4 5 6 
#
# 1 147.3488 -7.4900 -7.3875 0.0000 0.0000 0.0000
# 2 -7.4900 181.8945 8.8474 0.0000 0.0000 0.0000
# 3 -7.3875 8.8474 74.2071 0.0000 0.0000 0.0000
# 4 0.0000 0.0000 0.0000 60.5891 0.0000 0.0000
# 5 0.0000 0.0000 0.0000 0.0000 10.6497 0.0000
# 6 0.0000 0.0000 0.0000 0.0000 0.0000 -10.4855
#
#
#
# Elastic Compliance Matrix: (Units=1/GPa)
#
#
# Indices 1 2 3 4 5 6 
#
# 1 0.006832 0.000250 0.000650 0.000000 0.000000 0.000000
# 2 0.000250 0.005539 -0.000636 0.000000 0.000000 0.000000
# 3 0.000650 -0.000636 0.013616 0.000000 0.000000 0.000000
# 4 0.000000 0.000000 0.000000 0.016505 0.000000 0.000000
# 5 0.000000 0.000000 0.000000 0.000000 0.093899 0.000000
# 6 0.000000 0.000000 0.000000 0.000000 0.000000 -0.095369
#
#
# Mechanical properties :
#
#
# Convention : Reuss Voigt Hill
#
# Bulk Modulus (GPa) = 37.71283 43.48782 40.60032
# Shear Modulus (GPa) = 101.35607 39.44936 70.40272
#
# Velocity S-wave (km/s) = 6.05404 3.77694 5.04562
# Velocity P-wave (km/s) = 7.90606 5.89457 6.97323
#
# Compressibility (1/GPa) = 0.02651617
#
# Stress axis : x y z
#
# Youngs Moduli (GPa) = 146.37180 180.54175 73.44130
#
# Poissons Ratio (x) = -0.04508 -0.04776
# Poissons Ratio (y) = -0.03655 0.04667
# Poissons Ratio (z) = -0.09519 0.11474
#
# Static dielectric constant tensor:
#      x y z
#    x 2.129960 0.000000 0.000000 
#    y 0.000000 2.058030 0.000000 
#    z 0.000000 0.000000 2.242100 
# 
# From -- ./inp_files/2713.got.cif
#   From: 2010.05.17/outbox.cif.g08.bks.cpg/sg36_2_cif.got.tgz:2713.got - 2010.06.03 17:41:39.
