data_PCOD9351979
_publ_section_title
;
Structure prediction by ZEFSAII (Michael W. Deem and Ramdas Pophale) SiO2 
 PCOD9351979
Probable space group: C M C 21
;
_chemical_formula_sum "Si O2"
_cell_formula_units_Z 48
_cell_length_a 13.165425
_cell_length_b 19.261443
_cell_length_c 8.041551
_cell_angle_alpha 90.000000
_cell_angle_beta 90.000000
_cell_angle_gamma 90.000000
_cell_volume 2039.217379
_symmetry_space_group_name_H-M "C M C 21"
_symmetry_group_IT_number 36
_symmetry_cell_setting 'orthorhombic'
loop_
_space_group_symop_operation_xyz
x,y,z
-x,-y,1/2+z
x,-y,1/2+z
-x,y,z
1/2+x,1/2+y,z
1/2-x,1/2-y,1/2+z
1/2+x,1/2-y,1/2+z
1/2-x,1/2+y,z
loop_
_atom_site_type_symbol
_atom_site_label
_atom_site_fract_x
_atom_site_fract_y
_atom_site_fract_z
Si Si1 0.115371 0.950116 0.997950
Si Si2 0.883250 0.230771 0.014797
Si Si3 0.387547 0.913198 0.768293
Si Si4 0.315294 0.588831 0.854219
Si Si5 0.279601 0.678315 0.315761
Si Si6 0.113535 0.573707 0.669364
O O1 0.158165 0.882398 0.905503
O O2 0.000000 0.963626 0.946855
O O3 0.181155 0.018972 0.963676
O O4 0.122217 0.932715 0.190844
O O5 0.854650 0.224711 0.208098
O O6 0.000000 0.253670 0.989120
O O7 0.868251 0.153727 0.940548
O O8 0.796145 0.277355 0.930251
O O9 0.500000 0.887075 0.728142
O O10 0.299923 0.864097 0.699295
O O11 0.380282 0.991189 0.702689
O O12 0.376839 0.915239 0.970493
O O13 0.203673 0.605055 0.779291
O O14 0.000000 0.596567 0.718503
#
# Coordination Sequence:
#
# PCOD9351979 Si02
#       6
#     8   8   8   8   8   8
#     4  12  24  41  70 104 139 186 236 293 351 415
#     4  12  29  50  72 102 141 188 237 293 357 428
#     4  10  21  39  65  97 137 177 221 283 346 411
#     4  12  23  44  68 105 144 185 236 289 351 422
#     4  12  25  47  71  98 135 182 237 292 356 422
#     4  10  20  37  64 102 138 174 223 280 345 402
#
# _framework density 23.538440999999999
#
# number of rings (size 3 to 8) (size 9 to 14) (size 15 to 20)
#    0.000    0.667    3.333    4.500    2.333    0.000 
#    0.000    4.167    0.000    0.000    0.000    0.000 
#    0.000    0.000    0.000    0.000    0.000    0.000 
#
# Total GULP energy -134385.559758 kJ/mol
# GULP energy per Si atom -5599.398323 kJ/mol
# Density = 2.348487 g / cm^3
# Si number density = 23.538441 Si / 1000 Ang^3
#
#
#
# Elastic Constant Matrix: (Units=GPa)
#
#
# Indices 1 2 3 4 5 6 
#
# 1 141.6283 12.0149 17.0591 0.0000 0.0000 0.0000
# 2 12.0149 106.6420 30.6370 0.0000 0.0000 0.0000
# 3 17.0591 30.6370 45.3422 0.0000 0.0000 0.0000
# 4 0.0000 0.0000 0.0000 40.3563 0.0000 0.0000
# 5 0.0000 0.0000 0.0000 0.0000 33.1697 0.0000
# 6 0.0000 0.0000 0.0000 0.0000 0.0000 35.0814
#
#
#
# Elastic Compliance Matrix: (Units=1/GPa)
#
#
# Indices 1 2 3 4 5 6 
#
# 1 0.007396 -0.000042 -0.002754 0.000000 0.000000 0.000000
# 2 -0.000042 0.011636 -0.007847 0.000000 0.000000 0.000000
# 3 -0.002754 -0.007847 0.028393 0.000000 0.000000 0.000000
# 4 0.000000 0.000000 0.000000 0.024779 0.000000 0.000000
# 5 0.000000 0.000000 0.000000 0.000000 0.030148 0.000000
# 6 0.000000 0.000000 0.000000 0.000000 0.000000 0.028505
#
#
# Mechanical properties :
#
#
# Convention : Reuss Voigt Hill
#
# Bulk Modulus (GPa) = 38.25684 45.89274 42.07479
# Shear Modulus (GPa) = 31.08376 37.31492 34.19934
#
# Velocity S-wave (km/s) = 3.63788 3.98587 3.81585
# Velocity P-wave (km/s) = 5.82527 6.38139 6.10966
#
# Compressibility (1/GPa) = 0.02613912
#
# Stress axis : x y z
#
# Youngs Moduli (GPa) = 135.20735 85.93926 35.22054
#
# Poissons Ratio (x) = 0.00361 0.09701
# Poissons Ratio (y) = 0.00568 0.27636
# Poissons Ratio (z) = 0.37239 0.67433
#
# Static dielectric constant tensor:
#      x y z
#    x 1.905790 0.000000 0.000000 
#    y 0.000000 1.888570 0.000000 
#    z 0.000000 0.000000 1.893340 
# 
# From -- ./inp_files/4091.got.cif
#   From: 2010.05.17/outbox.cif.g08.bks.cpg/sg36_3_cif.got.tgz:4091.got - 2010.06.03 17:41:39.
