data_PCOD9351958
_publ_section_title
;
Structure prediction by ZEFSAII (Michael W. Deem and Ramdas Pophale) SiO2 
 PCOD9351958
Probable space group: C M C 21
;
_chemical_formula_sum "Si O2"
_cell_formula_units_Z 36
_cell_length_a 7.822260
_cell_length_b 22.971383
_cell_length_c 11.418584
_cell_angle_alpha 90.000000
_cell_angle_beta 90.000000
_cell_angle_gamma 90.000000
_cell_volume 2051.784011
_symmetry_space_group_name_H-M "C M C 21"
_symmetry_group_IT_number 36
_symmetry_cell_setting 'orthorhombic'
loop_
_space_group_symop_operation_xyz
x,y,z
-x,-y,1/2+z
x,-y,1/2+z
-x,y,z
1/2+x,1/2+y,z
1/2-x,1/2-y,1/2+z
1/2+x,1/2-y,1/2+z
1/2-x,1/2+y,z
loop_
_atom_site_type_symbol
_atom_site_label
_atom_site_fract_x
_atom_site_fract_y
_atom_site_fract_z
Si Si1 0.809535 0.381378 0.791720
Si Si2 0.806654 0.834878 0.552337
Si Si3 0.500000 0.452512 0.890255
Si Si4 0.201841 0.297099 0.005352
Si Si5 0.000000 0.870535 0.113927
Si Si6 0.000000 0.090175 0.880121
O O1 0.799876 0.360865 0.658013
O O2 0.665784 0.428423 0.821972
O O3 0.000000 0.403273 0.818522
O O4 0.777185 0.326135 0.877252
O O5 0.753721 0.771179 0.509029
O O6 0.839039 0.879093 0.445372
O O7 0.000000 0.827677 0.602911
O O8 0.500000 0.521580 0.899218
O O9 0.500000 0.421927 0.017530
O O10 0.331828 0.331711 0.088456
O O11 0.000000 0.303582 0.035765
O O12 0.000000 0.894464 0.244336
#
# Coordination Sequence:
#
# PCOD9351958 Si02
#       6
#     8   8   4   8   4   4
#     4  10  20  37  62  84 115 158 195 238 293 344
#     4   9  20  35  56  88 117 148 189 240 290 342
#     4  10  21  42  61  82 114 159 204 234 290 353
#     4   9  20  36  56  88 121 146 193 241 289 358
#     4  10  22  36  64  84 110 167 186 240 309 331
#     4  10  23  38  63  86 120 154 202 240 285 346
#
# _framework density 17.545707
#
# number of rings (size 3 to 8) (size 9 to 14) (size 15 to 20)
#    0.667    1.778    1.111    0.000    7.778    0.000 
#    0.000    3.333    0.000    0.000    0.000    0.000 
#    0.000    0.000    0.000    0.000    0.000    0.000 
#
# Total GULP energy -100259.274900 kJ/mol
# GULP energy per Si atom -5569.959717 kJ/mol
# Density = 1.750577 g / cm^3
# Si number density = 17.545707 Si / 1000 Ang^3
#
#
#
# Elastic Constant Matrix: (Units=GPa)
#
#
# Indices 1 2 3 4 5 6 
#
# 1 76.6079 57.2691 43.5474 0.0000 0.0000 0.0000
# 2 57.2691 171.1280 66.2898 0.0000 0.0000 0.0000
# 3 43.5474 66.2898 100.1149 0.0000 0.0000 0.0000
# 4 0.0000 0.0000 0.0000 10.4502 0.0000 0.0000
# 5 0.0000 0.0000 0.0000 0.0000 6.6041 0.0000
# 6 0.0000 0.0000 0.0000 0.0000 0.0000 13.9460
#
#
#
# Elastic Compliance Matrix: (Units=1/GPa)
#
#
# Indices 1 2 3 4 5 6 
#
# 1 0.019489 -0.004355 -0.005593 0.000000 0.000000 0.000000
# 2 -0.004355 0.008833 -0.003954 0.000000 0.000000 0.000000
# 3 -0.005593 -0.003954 0.015040 0.000000 0.000000 0.000000
# 4 0.000000 0.000000 0.000000 0.095692 0.000000 0.000000
# 5 0.000000 0.000000 0.000000 0.000000 0.151422 0.000000
# 6 0.000000 0.000000 0.000000 0.000000 0.000000 0.071705
#
#
# Mechanical properties :
#
#
# Convention : Reuss Voigt Hill
#
# Bulk Modulus (GPa) = 64.28468 75.78481 70.03475
# Shear Modulus (GPa) = 12.65274 18.24969 15.45122
#
# Velocity S-wave (km/s) = 2.68830 3.22859 2.97075
# Velocity P-wave (km/s) = 6.80837 7.56207 7.19510
#
# Compressibility (1/GPa) = 0.01555581
#
# Stress axis : x y z
#
# Youngs Moduli (GPa) = 51.31128 113.21403 66.49126
#
# Poissons Ratio (x) = 0.49310 0.37190
# Poissons Ratio (y) = 0.22348 0.26291
# Poissons Ratio (z) = 0.28700 0.44765
#
# Static dielectric constant tensor:
#      x y z
#    x 1.645250 0.000000 0.000000 
#    y 0.000000 1.570430 0.000000 
#    z 0.000000 0.000000 1.580690 
# 
# From -- ./inp_files/6597.got.cif
#   From: 2010.05.17/outbox.cif.g08.bks.cpg/sg36_4_cif.got.tgz:6597.got - 2010.06.03 17:41:39.
