data_PCOD9351690
_publ_section_title
;
Structure prediction by ZEFSAII (Michael W. Deem and Ramdas Pophale) SiO2 
 PCOD9351690
Probable space group: C M C 21
;
_chemical_formula_sum "Si O2"
_cell_formula_units_Z 64
_cell_length_a 8.606987
_cell_length_b 30.137795
_cell_length_c 12.557973
_cell_angle_alpha 90.000000
_cell_angle_beta 90.000000
_cell_angle_gamma 90.000000
_cell_volume 3257.483064
_symmetry_space_group_name_H-M "C M C 21"
_symmetry_group_IT_number 36
_symmetry_cell_setting 'orthorhombic'
loop_
_space_group_symop_operation_xyz
x,y,z
-x,-y,1/2+z
x,-y,1/2+z
-x,y,z
1/2+x,1/2+y,z
1/2-x,1/2-y,1/2+z
1/2+x,1/2-y,1/2+z
1/2-x,1/2+y,z
loop_
_atom_site_type_symbol
_atom_site_label
_atom_site_fract_x
_atom_site_fract_y
_atom_site_fract_z
Si Si1 0.819993 0.666963 0.071440
Si Si2 0.176180 0.915778 0.666201
Si Si3 0.683010 0.470007 0.456107
Si Si4 0.314560 0.317855 0.190511
Si Si5 0.315122 0.725772 0.251286
Si Si6 0.817637 0.066362 0.411582
Si Si7 0.814091 0.381629 0.357718
Si Si8 0.309969 0.334498 0.951384
O O1 0.798030 0.622610 0.141893
O O2 0.731441 0.703961 0.138424
O O3 0.000000 0.679894 0.062002
O O4 0.761713 0.650743 0.955668
O O5 0.193234 0.952939 0.576963
O O6 0.188952 0.933920 0.783931
O O7 0.000000 0.896451 0.655563
O O8 0.500000 0.471683 0.426578
O O9 0.750204 0.519497 0.448610
O O10 0.759337 0.431301 0.385492
O O11 0.500000 0.318665 0.192773
O O12 0.254228 0.274802 0.252517
O O13 0.251616 0.361460 0.249484
O O14 0.265402 0.315736 0.066658
O O15 0.500000 0.728622 0.258903
O O16 0.259717 0.694860 0.349883
O O17 0.754273 0.114409 0.444969
O O18 0.000000 0.066513 0.444856
O O19 0.000000 0.380632 0.356961
O O20 0.500000 0.335542 0.945788
#
# Coordination Sequence:
#
# PCOD9351690 Si02
#       8
#     8   8   8   8   8   8   8   8
#     4  10  20  35  57  82 109 146 192 244 289 335
#     4   9  16  30  52  79 110 147 190 237 288 343
#     4   9  18  31  55  87 113 146 198 245 285 343
#     4  11  24  40  60  88 120 155 197 240 292 354
#     4  11  22  39  62  87 116 152 191 237 296 353
#     4   9  16  31  56  85 114 148 191 239 293 348
#     4  10  22  40  58  80 118 159 195 238 295 345
#     4   9  20  38  60  86 118 151 188 240 296 349
#
# _framework density 19.647069999999999
#
# number of rings (size 3 to 8) (size 9 to 14) (size 15 to 20)
#    0.000    2.250    1.250    1.500    1.750    2.500 
#    0.000    6.250    0.000    3.000    0.000    0.000 
#    0.000    0.000    0.000    0.000    0.000    0.000 
#
# Total GULP energy -178482.012611 kJ/mol
# GULP energy per Si atom -5577.562894 kJ/mol
# Density = 1.960235 g / cm^3
# Si number density = 19.647070 Si / 1000 Ang^3
#
#
#
# Elastic Constant Matrix: (Units=GPa)
#
#
# Indices 1 2 3 4 5 6 
#
# 1 26.3987 18.0940 18.0939 0.0000 0.0000 0.0000
# 2 18.0940 120.9202 38.8220 0.0000 0.0000 0.0000
# 3 18.0939 38.8220 60.6815 0.0000 0.0000 0.0000
# 4 0.0000 0.0000 0.0000 8.5203 0.0000 0.0000
# 5 0.0000 0.0000 0.0000 0.0000 12.8865 0.0000
# 6 0.0000 0.0000 0.0000 0.0000 0.0000 25.0795
#
#
#
# Elastic Compliance Matrix: (Units=1/GPa)
#
#
# Indices 1 2 3 4 5 6 
#
# 1 0.048635 -0.003299 -0.012391 0.000000 0.000000 0.000000
# 2 -0.003299 0.010631 -0.005818 0.000000 0.000000 0.000000
# 3 -0.012391 -0.005818 0.023896 0.000000 0.000000 0.000000
# 4 0.000000 0.000000 0.000000 0.117366 0.000000 0.000000
# 5 0.000000 0.000000 0.000000 0.000000 0.077600 0.000000
# 6 0.000000 0.000000 0.000000 0.000000 0.000000 0.039873
#
#
# Mechanical properties :
#
#
# Convention : Reuss Voigt Hill
#
# Bulk Modulus (GPa) = 24.90893 39.78000 32.34447
# Shear Modulus (GPa) = 13.35465 18.16331 15.75898
#
# Velocity S-wave (km/s) = 2.60999 3.04382 2.83522
# Velocity P-wave (km/s) = 4.66781 5.71353 5.21694
#
# Compressibility (1/GPa) = 0.04014625
#
# Stress axis : x y z
#
# Youngs Moduli (GPa) = 20.56130 94.06035 41.84744
#
# Poissons Ratio (x) = 0.31034 0.51854
# Poissons Ratio (y) = 0.06784 0.24346
# Poissons Ratio (z) = 0.25478 0.54723
#
# Static dielectric constant tensor:
#      x y z
#    x 1.689950 0.000000 0.000000 
#    y 0.000000 1.700920 0.000000 
#    z 0.000000 0.000000 1.690770 
# 
# From -- ./inp_files/7265.got.cif
#   From: 2010.05.17/outbox.cif.g08.bks.cpg/sg36_4_cif.got.tgz:7265.got - 2010.06.03 17:41:39.
