data_PCOD9351820
_publ_section_title
;
Structure prediction by ZEFSAII (Michael W. Deem and Ramdas Pophale) SiO2 
 PCOD9351820
Probable space group: C M C 21
;
_chemical_formula_sum "Si O2"
_cell_formula_units_Z 48
_cell_length_a 8.536193
_cell_length_b 15.470427
_cell_length_c 19.511633
_cell_angle_alpha 90.000000
_cell_angle_beta 90.000000
_cell_angle_gamma 90.000000
_cell_volume 2576.677975
_symmetry_space_group_name_H-M "C M C 21"
_symmetry_group_IT_number 36
_symmetry_cell_setting 'orthorhombic'
loop_
_space_group_symop_operation_xyz
x,y,z
-x,-y,1/2+z
x,-y,1/2+z
-x,y,z
1/2+x,1/2+y,z
1/2-x,1/2-y,1/2+z
1/2+x,1/2-y,1/2+z
1/2-x,1/2+y,z
loop_
_atom_site_type_symbol
_atom_site_label
_atom_site_fract_x
_atom_site_fract_y
_atom_site_fract_z
Si Si1 0.811905 0.404142 0.790070
Si Si2 0.190160 0.601446 0.784616
Si Si3 0.689662 0.745911 0.383927
Si Si4 0.312385 0.251504 0.042037
Si Si5 0.813474 0.100629 0.138851
Si Si6 0.311836 0.908509 0.128302
O O1 0.762223 0.503613 0.802370
O O2 0.751418 0.340376 0.848083
O O3 0.745705 0.378210 0.715620
O O4 0.000000 0.401795 0.786754
O O5 0.244998 0.673270 0.837790
O O6 0.236932 0.618237 0.705843
O O7 0.000000 0.602909 0.785457
O O8 0.500000 0.744521 0.382202
O O9 0.738172 0.753691 0.462822
O O10 0.500000 0.243979 0.044759
O O11 0.239470 0.174826 0.086956
O O12 0.261265 0.342443 0.074749
O O13 0.000000 0.094070 0.139735
O O14 0.741222 0.007508 0.119322
O O15 0.500000 0.904356 0.124457
#
# Coordination Sequence:
#
# PCOD9351820 Si02
#       6
#     8   8   8   8   8   8
#     4  10  20  36  59  85 111 143 189 238 285 340
#     4   8  17  35  57  79 104 140 183 227 277 330
#     4  10  21  37  56  81 115 151 186 229 283 341
#     4  11  23  37  55  84 120 155 192 234 283 340
#     4  11  22  38  60  84 113 150 193 239 288 340
#     4  10  20  37  61  85 111 147 193 241 288 339
#
# _framework density 18.628636
#
# number of rings (size 3 to 8) (size 9 to 14) (size 15 to 20)
#    0.000    2.000    0.000    5.000    0.000    4.000 
#    0.000    5.833    0.000    0.000    0.000    0.000 
#    0.000    0.000    0.000    0.000    0.000    0.000 
#
# Total GULP energy -134066.536152 kJ/mol
# GULP energy per Si atom -5586.105673 kJ/mol
# Density = 1.858624 g / cm^3
# Si number density = 18.628636 Si / 1000 Ang^3
#
#
#
# Elastic Constant Matrix: (Units=GPa)
#
#
# Indices 1 2 3 4 5 6 
#
# 1 38.7835 5.1851 18.3701 0.0000 0.0000 0.0000
# 2 5.1851 45.6042 35.3005 0.0000 0.0000 0.0000
# 3 18.3701 35.3005 74.3025 0.0000 0.0000 0.0000
# 4 0.0000 0.0000 0.0000 -10.3068 0.0000 0.0000
# 5 0.0000 0.0000 0.0000 0.0000 24.5794 0.0000
# 6 0.0000 0.0000 0.0000 0.0000 0.0000 31.9061
#
#
#
# Elastic Compliance Matrix: (Units=1/GPa)
#
#
# Indices 1 2 3 4 5 6 
#
# 1 0.029580 0.003634 -0.009040 0.000000 0.000000 0.000000
# 2 0.003634 0.035129 -0.017588 0.000000 0.000000 0.000000
# 3 -0.009040 -0.017588 0.024049 0.000000 0.000000 0.000000
# 4 0.000000 0.000000 0.000000 -0.097023 0.000000 0.000000
# 5 0.000000 0.000000 0.000000 0.000000 0.040685 0.000000
# 6 0.000000 0.000000 0.000000 0.000000 0.000000 0.031342
#
#
# Mechanical properties :
#
#
# Convention : Reuss Voigt Hill
#
# Bulk Modulus (GPa) = 23.38026 30.71128 27.04577
# Shear Modulus (GPa) = 40.32095 15.89137 28.10616
#
# Velocity S-wave (km/s) = 4.65742 2.92389 3.88849
# Velocity P-wave (km/s) = 6.44206 5.28400 5.89155
#
# Compressibility (1/GPa) = 0.04277112
#
# Stress axis : x y z
#
# Youngs Moduli (GPa) = 33.80662 28.46672 41.58127
#
# Poissons Ratio (x) = -0.10345 0.37588
# Poissons Ratio (y) = -0.12286 0.73133
# Poissons Ratio (z) = 0.30560 0.50067
#
# Static dielectric constant tensor:
#      x y z
#    x 1.632570 0.000000 0.000000 
#    y 0.000000 1.625110 0.000000 
#    z 0.000000 0.000000 1.621390 
# 
# From -- ./inp_files/13485.got.cif
#   From: 2010.05.17/outbox.cif.g08.bks.cpg/sg36_7_cif.got.tgz:13485.got - 2010.06.03 17:41:39.
