data_PCOD9351715
_publ_section_title
;
Structure prediction by ZEFSAII (Michael W. Deem and Ramdas Pophale) SiO2 
 PCOD9351715
Probable space group: C M C 21
;
_chemical_formula_sum "Si O2"
_cell_formula_units_Z 52
_cell_length_a 19.512504
_cell_length_b 23.703653
_cell_length_c 4.944412
_cell_angle_alpha 90.000000
_cell_angle_beta 90.000000
_cell_angle_gamma 90.000000
_cell_volume 2286.877690
_symmetry_space_group_name_H-M "C M C 21"
_symmetry_group_IT_number 36
_symmetry_cell_setting 'orthorhombic'
loop_
_space_group_symop_operation_xyz
x,y,z
-x,-y,1/2+z
x,-y,1/2+z
-x,y,z
1/2+x,1/2+y,z
1/2-x,1/2-y,1/2+z
1/2+x,1/2-y,1/2+z
1/2-x,1/2+y,z
loop_
_atom_site_type_symbol
_atom_site_label
_atom_site_fract_x
_atom_site_fract_y
_atom_site_fract_z
Si Si1 0.705375 0.809096 0.696560
Si Si2 0.127761 0.650608 0.695139
Si Si3 0.859374 0.149544 0.241377
Si Si4 0.313162 0.464372 0.470320
Si Si5 0.000000 0.280988 0.398335
Si Si6 0.851921 0.464343 0.469511
Si Si7 0.109535 0.789562 0.245912
O O1 0.685219 0.822232 0.389725
O O2 0.783632 0.823544 0.745570
O O3 0.680029 0.746138 0.762998
O O4 0.659482 0.848597 0.896024
O O5 0.114778 0.590013 0.832174
O O6 0.060410 0.687974 0.719213
O O7 0.884820 0.156840 0.545766
O O8 0.850116 0.089073 0.102284
O O9 0.906371 0.187687 0.043697
O O10 0.328775 0.517605 0.665065
O O11 0.230754 0.454566 0.471222
O O12 0.058507 0.252737 0.599778
O O13 0.868631 0.483216 0.771724
#
# Coordination Sequence:
#
# PCOD9351715 Si02
#       7
#     8   8   8   8   4   8   8
#     4  11  22  37  60  91 126 158 206 258 334 382
#     4  11  22  39  62  85 124 174 209 267 307 378
#     4  12  22  38  62  94 125 158 205 259 334 383
#     4  10  21  35  58  91 130 159 193 254 326 403
#     4  10  26  46  62  88 126 176 232 254 322 368
#     4  10  20  35  57  88 121 164 214 258 318 372
#     4  11  24  39  61  88 124 167 211 267 304 387
#
# _framework density 22.738427000000001
#
# number of rings (size 3 to 8) (size 9 to 14) (size 15 to 20)
#    0.000    1.231    1.538    5.538    4.308    5.538 
#    0.000    0.769    0.000    0.000    0.000   10.769 
#    0.000    0.000    0.000    0.000    0.000    0.000 
#
# Total GULP energy -144870.976388 kJ/mol
# GULP energy per Si atom -5571.960630 kJ/mol
# Density = 2.268667 g / cm^3
# Si number density = 22.738427 Si / 1000 Ang^3
#
#
#
# Elastic Constant Matrix: (Units=GPa)
#
#
# Indices 1 2 3 4 5 6 
#
# 1 39.1844 6.6808 1.5861 0.0000 0.0000 0.0000
# 2 6.6808 75.9175 17.0980 0.0000 0.0000 0.0000
# 3 1.5861 17.0980 91.6549 0.0000 0.0000 0.0000
# 4 0.0000 0.0000 0.0000 40.4007 0.0000 0.0000
# 5 0.0000 0.0000 0.0000 0.0000 15.5821 0.0000
# 6 0.0000 0.0000 0.0000 0.0000 0.0000 -8.2536
#
#
#
# Elastic Compliance Matrix: (Units=1/GPa)
#
#
# Indices 1 2 3 4 5 6 
#
# 1 0.025909 -0.002275 -0.000024 0.000000 0.000000 0.000000
# 2 -0.002275 0.013950 -0.002563 0.000000 0.000000 0.000000
# 3 -0.000024 -0.002563 0.011389 0.000000 0.000000 0.000000
# 4 0.000000 0.000000 0.000000 0.024752 0.000000 0.000000
# 5 0.000000 0.000000 0.000000 0.000000 0.064176 0.000000
# 6 0.000000 0.000000 0.000000 0.000000 0.000000 -0.121159
#
#
# Mechanical properties :
#
#
# Convention : Reuss Voigt Hill
#
# Bulk Modulus (GPa) = 24.08208 28.60961 26.34585
# Shear Modulus (GPa) = 117.42091 21.63864 69.52977
#
# Velocity S-wave (km/s) = 7.19388 3.08820 5.53575
# Velocity P-wave (km/s) = 8.92281 5.03243 7.24368
#
# Compressibility (1/GPa) = 0.04152465
#
# Stress axis : x y z
#
# Youngs Moduli (GPa) = 38.59641 71.68678 87.80401
#
# Poissons Ratio (x) = 0.16306 0.00211
# Poissons Ratio (y) = 0.08779 0.22503
# Poissons Ratio (z) = 0.00093 0.18373
#
# Static dielectric constant tensor:
#      x y z
#    x 1.796160 0.000000 0.000000 
#    y 0.000000 1.919250 0.000000 
#    z 0.000000 0.000000 1.813240 
# 
# From -- ./inp_files/1371.got.cif
#   From: 2010.05.17/outbox.cif.g08.bks.cpg/sg36_1_cif.got.tgz:1371.got - 2010.06.03 17:41:39.
