data_PCOD9351973
_publ_section_title
;
Structure prediction by ZEFSAII (Michael W. Deem and Ramdas Pophale) SiO2 
 PCOD9351973
Probable space group: C M C 21
;
_chemical_formula_sum "Si O2"
_cell_formula_units_Z 56
_cell_length_a 26.369572
_cell_length_b 6.200977
_cell_length_c 14.959486
_cell_angle_alpha 90.000000
_cell_angle_beta 90.000000
_cell_angle_gamma 90.000000
_cell_volume 2446.131910
_symmetry_space_group_name_H-M "C M C 21"
_symmetry_group_IT_number 36
_symmetry_cell_setting 'orthorhombic'
loop_
_space_group_symop_operation_xyz
x,y,z
-x,-y,1/2+z
x,-y,1/2+z
-x,y,z
1/2+x,1/2+y,z
1/2-x,1/2-y,1/2+z
1/2+x,1/2-y,1/2+z
1/2-x,1/2+y,z
loop_
_atom_site_type_symbol
_atom_site_label
_atom_site_fract_x
_atom_site_fract_y
_atom_site_fract_z
Si Si1 0.148855 0.453506 0.079780
Si Si2 0.556984 0.710127 0.598082
Si Si3 0.732788 0.740019 0.783616
Si Si4 0.116106 0.061115 0.963831
Si Si5 0.800481 0.286138 0.442630
Si Si6 0.642258 0.010539 0.773323
Si Si7 0.941955 0.209362 0.797545
O O1 0.102059 0.617867 0.090732
O O2 0.130679 0.285141 0.007431
O O3 0.154823 0.366682 0.180836
O O4 0.196656 0.572365 0.032854
O O5 0.500000 0.797230 0.585399
O O6 0.572100 0.538792 0.524560
O O7 0.558971 0.614861 0.697850
O O8 0.744916 0.486851 0.754766
O O9 0.748238 0.744885 0.889196
O O10 0.674206 0.786740 0.764044
O O11 0.092170 0.081239 0.866675
O O12 0.167638 0.924844 0.966340
O O13 0.834791 0.382301 0.361189
O O14 0.584329 0.945117 0.787707
O O15 0.000000 0.224964 0.827338
#
# Coordination Sequence:
#
# PCOD9351973 Si02
#       7
#     8   8   8   8   8   8   8
#     4  10  22  40  64  96 128 179 228 285 348 424
#     4   9  21  38  56  91 132 172 227 285 344 416
#     4  10  22  42  70  98 132 181 217 278 349 407
#     4  11  21  37  64  93 129 176 223 282 344 414
#     4  10  22  41  66  95 133 170 223 286 344 415
#     4  10  21  43  67  94 135 174 225 281 355 414
#     4  10  20  37  63  91 129 174 220 275 340 414
#
# _framework density 22.893287999999998
#
# number of rings (size 3 to 8) (size 9 to 14) (size 15 to 20)
#    0.000    2.000    1.429    1.286    4.000    1.143 
#    7.714    6.429    0.000    0.000    0.000    0.000 
#    0.000    0.000    0.000    0.000    0.000    0.000 
#
# Total GULP energy -155966.708031 kJ/mol
# GULP energy per Si atom -5570.239573 kJ/mol
# Density = 2.284118 g / cm^3
# Si number density = 22.893288 Si / 1000 Ang^3
#
#
#
# Elastic Constant Matrix: (Units=GPa)
#
#
# Indices 1 2 3 4 5 6 
#
# 1 39.3538 -1.2892 -0.6155 0.0000 0.0000 0.0000
# 2 -1.2892 62.0048 14.7141 0.0000 0.0000 0.0000
# 3 -0.6155 14.7141 78.5941 0.0000 0.0000 0.0000
# 4 0.0000 0.0000 0.0000 16.4833 0.0000 0.0000
# 5 0.0000 0.0000 0.0000 0.0000 36.0754 0.0000
# 6 0.0000 0.0000 0.0000 0.0000 0.0000 14.6585
#
#
#
# Elastic Compliance Matrix: (Units=1/GPa)
#
#
# Indices 1 2 3 4 5 6 
#
# 1 0.025429 0.000504 0.000105 0.000000 0.000000 0.000000
# 2 0.000504 0.016888 -0.003158 0.000000 0.000000 0.000000
# 3 0.000105 -0.003158 0.013316 0.000000 0.000000 0.000000
# 4 0.000000 0.000000 0.000000 0.060667 0.000000 0.000000
# 5 0.000000 0.000000 0.000000 0.000000 0.027720 0.000000
# 6 0.000000 0.000000 0.000000 0.000000 0.000000 0.068220
#
#
# Mechanical properties :
#
#
# Convention : Reuss Voigt Hill
#
# Bulk Modulus (GPa) = 19.78875 22.84128 21.31502
# Shear Modulus (GPa) = 21.35096 24.58633 22.96864
#
# Velocity S-wave (km/s) = 3.05721 3.28068 3.17091
# Velocity P-wave (km/s) = 4.59617 4.93451 4.76834
#
# Compressibility (1/GPa) = 0.05053376
#
# Stress axis : x y z
#
# Youngs Moduli (GPa) = 39.32570 59.21503 75.09992
#
# Poissons Ratio (x) = -0.02983 -0.00787
# Poissons Ratio (y) = -0.01981 0.23714
# Poissons Ratio (z) = -0.00412 0.18698
#
# Static dielectric constant tensor:
#      x y z
#    x 1.885740 0.000000 0.000000 
#    y 0.000000 1.918970 0.000000 
#    z 0.000000 0.000000 1.907810 
# 
# From -- ./inp_files/13178.got.cif
#   From: 2010.05.17/outbox.cif.g08.bks.cpg/sg36_7_cif.got.tgz:13178.got - 2010.06.03 17:41:39.
