data_PCOD9351077
_publ_section_title
;
Structure prediction by ZEFSAII (Michael W. Deem and Ramdas Pophale) SiO2 
 PCOD9351077
Probable space group: C M C 21
;
_chemical_formula_sum "Si O2"
_cell_formula_units_Z 64
_cell_length_a 8.802582
_cell_length_b 14.685424
_cell_length_c 25.297073
_cell_angle_alpha 90.000000
_cell_angle_beta 90.000000
_cell_angle_gamma 90.000000
_cell_volume 3270.143747
_symmetry_space_group_name_H-M "C M C 21"
_symmetry_group_IT_number 36
_symmetry_cell_setting 'orthorhombic'
loop_
_space_group_symop_operation_xyz
x,y,z
-x,-y,1/2+z
x,-y,1/2+z
-x,y,z
1/2+x,1/2+y,z
1/2-x,1/2-y,1/2+z
1/2+x,1/2-y,1/2+z
1/2-x,1/2+y,z
loop_
_atom_site_type_symbol
_atom_site_label
_atom_site_fract_x
_atom_site_fract_y
_atom_site_fract_z
Si Si1 0.318563 0.078329 0.612220
Si Si2 0.683907 0.274710 0.182998
Si Si3 0.825122 0.111186 0.503012
Si Si4 0.815544 0.225676 0.802411
Si Si5 0.315832 0.435715 0.373718
Si Si6 0.673825 0.609505 0.987017
Si Si7 0.682321 0.133886 0.392518
Si Si8 0.817973 0.631092 0.095440
O O1 0.500000 0.082887 0.615164
O O2 0.243688 0.129826 0.661008
O O3 0.262468 0.124731 0.557741
O O4 0.271747 0.972414 0.609257
O O5 0.500000 0.275171 0.182741
O O6 0.736051 0.256646 0.242794
O O7 0.736980 0.199583 0.140548
O O8 0.750626 0.152690 0.450599
O O9 0.000000 0.139394 0.508463
O O10 0.822716 0.000977 0.494046
O O11 0.775958 0.125229 0.823426
O O12 0.765294 0.297709 0.846593
O O13 0.000000 0.230070 0.802127
O O14 0.500000 0.448050 0.376199
O O15 0.272888 0.379397 0.426847
O O16 0.236005 0.532782 0.376224
O O17 0.500000 0.640280 0.990602
O O18 0.763633 0.650826 0.035946
O O19 0.500000 0.137393 0.396467
O O20 0.000000 0.633763 0.095265
#
# Coordination Sequence:
#
# PCOD9351077 Si02
#       8
#     8   8   8   8   8   8   8   8
#     4  10  20  35  55  81 109 137 172 221 269 313
#     4  10  21  38  55  74 103 143 184 220 261 316
#     4   9  17  32  54  81 110 140 171 209 261 325
#     4   9  20  37  55  74 103 143 185 219 258 316
#     4   9  18  35  55  76 103 139 176 213 259 317
#     4   8  15  28  50  77 104 131 165 207 256 312
#     4  10  19  33  55  83 109 137 174 221 269 312
#     4   9  19  34  53  76 105 136 169 212 265 315
#
# _framework density 19.571003999999999
#
# number of rings (size 3 to 8) (size 9 to 14) (size 15 to 20)
#    0.000    2.750    0.000    1.875    0.000    6.000 
#    0.000    5.625    0.000    0.000    0.000    0.000 
#    0.000    0.000    0.000    0.000    0.000    0.000 
#
# Total GULP energy -178567.267012 kJ/mol
# GULP energy per Si atom -5580.227094 kJ/mol
# Density = 1.952646 g / cm^3
# Si number density = 19.571004 Si / 1000 Ang^3
#
#
#
# Elastic Constant Matrix: (Units=GPa)
#
#
# Indices 1 2 3 4 5 6 
#
# 1 20.5403 8.0072 13.6221 0.0000 0.0000 0.0000
# 2 8.0072 44.5990 20.8817 0.0000 0.0000 0.0000
# 3 13.6221 20.8817 109.9826 0.0000 0.0000 0.0000
# 4 0.0000 0.0000 0.0000 30.8590 0.0000 0.0000
# 5 0.0000 0.0000 0.0000 0.0000 26.1655 0.0000
# 6 0.0000 0.0000 0.0000 0.0000 0.0000 14.9800
#
#
#
# Elastic Compliance Matrix: (Units=1/GPa)
#
#
# Indices 1 2 3 4 5 6 
#
# 1 0.055157 -0.007358 -0.005435 0.000000 0.000000 0.000000
# 2 -0.007358 0.025591 -0.003947 0.000000 0.000000 0.000000
# 3 -0.005435 -0.003947 0.010515 0.000000 0.000000 0.000000
# 4 0.000000 0.000000 0.000000 0.032405 0.000000 0.000000
# 5 0.000000 0.000000 0.000000 0.000000 0.038218 0.000000
# 6 0.000000 0.000000 0.000000 0.000000 0.000000 0.066756
#
#
# Mechanical properties :
#
#
# Convention : Reuss Voigt Hill
#
# Bulk Modulus (GPa) = 17.30613 28.90489 23.10551
# Shear Modulus (GPa) = 17.76927 23.24163 20.50545
#
# Velocity S-wave (km/s) = 3.01647 3.44983 3.24040
# Velocity P-wave (km/s) = 4.58193 5.53803 5.08251
#
# Compressibility (1/GPa) = 0.05778298
#
# Stress axis : x y z
#
# Youngs Moduli (GPa) = 18.12996 39.07570 95.10279
#
# Poissons Ratio (x) = 0.28753 0.51684
# Poissons Ratio (y) = 0.13341 0.37542
# Poissons Ratio (z) = 0.09853 0.15425
#
# Static dielectric constant tensor:
#      x y z
#    x 1.659920 0.000000 0.000000 
#    y 0.000000 1.717860 0.000000 
#    z 0.000000 0.000000 1.684260 
# 
# From -- ./inp_files/15639.got.cif
#   From: 2010.05.17/outbox.cif.g08.bks.cpg/sg36_8_cif.got.tgz:15639.got - 2010.06.03 17:41:39.
