data_PCOD9351405
_publ_section_title
;
Structure prediction by ZEFSAII (Michael W. Deem and Ramdas Pophale) SiO2 
 PCOD9351405
Probable space group: C M C 21
;
_chemical_formula_sum "Si O2"
_cell_formula_units_Z 56
_cell_length_a 15.796811
_cell_length_b 14.163128
_cell_length_c 9.539723
_cell_angle_alpha 90.000000
_cell_angle_beta 90.000000
_cell_angle_gamma 90.000000
_cell_volume 2134.343750
_symmetry_space_group_name_H-M "C M C 21"
_symmetry_group_IT_number 36
_symmetry_cell_setting 'orthorhombic'
loop_
_space_group_symop_operation_xyz
x,y,z
-x,-y,1/2+z
x,-y,1/2+z
-x,y,z
1/2+x,1/2+y,z
1/2-x,1/2-y,1/2+z
1/2+x,1/2-y,1/2+z
1/2-x,1/2+y,z
loop_
_atom_site_type_symbol
_atom_site_label
_atom_site_fract_x
_atom_site_fract_y
_atom_site_fract_z
Si Si1 0.226059 0.862682 0.790100
Si Si2 0.800071 0.543303 0.954397
Si Si3 0.402002 0.206495 0.841975
Si Si4 0.092955 0.416039 0.088368
Si Si5 0.909772 0.315556 0.794354
Si Si6 0.594159 0.523568 0.116295
Si Si7 0.865995 0.889048 0.344928
O O1 0.166108 0.788370 0.871253
O O2 0.314980 0.821410 0.729935
O O3 0.164616 0.904140 0.671591
O O4 0.256284 0.950647 0.884163
O O5 0.882439 0.604817 0.912795
O O6 0.729698 0.616934 0.898940
O O7 0.833689 0.494244 0.098660
O O8 0.500000 0.234221 0.865165
O O9 0.389774 0.176952 0.678482
O O10 0.000000 0.450455 0.132719
O O11 0.088636 0.387286 0.925391
O O12 0.909202 0.210970 0.858838
O O13 0.000000 0.326473 0.715805
O O14 0.500000 0.547615 0.165021
O O15 0.621048 0.425486 0.187085
O O16 0.594673 0.533179 0.949592
#
# Coordination Sequence:
#
# PCOD9351405 Si02
#       7
#     8   8   8   8   8   8   8
#     4  10  22  38  61  98 126 172 219 285 331 406
#     4  10  22  37  60  91 131 166 215 276 334 400
#     4  11  21  39  66  92 127 173 222 276 341 405
#     4   9  20  36  59  90 121 164 221 273 324 399
#     4  10  19  38  62  91 127 174 223 271 335 408
#     4  11  23  41  65  99 137 174 223 280 340 411
#     4  11  23  39  66  97 133 179 226 273 340 415
#
# _framework density 26.237573000000001
#
# number of rings (size 3 to 8) (size 9 to 14) (size 15 to 20)
#    0.000    1.714    1.429    3.000    4.000    1.714 
#    0.000    0.000    0.000    0.000    0.000    0.000 
#    0.000    0.000    0.000    0.000    0.000    0.000 
#
# Total GULP energy -156133.695861 kJ/mol
# GULP energy per Si atom -5576.203424 kJ/mol
# Density = 2.617786 g / cm^3
# Si number density = 26.237573 Si / 1000 Ang^3
#
#
#
# Elastic Constant Matrix: (Units=GPa)
#
#
# Indices 1 2 3 4 5 6 
#
# 1 214.8951 46.3720 8.5502 0.0000 0.0000 0.0000
# 2 46.3720 121.3950 15.0436 0.0000 0.0000 0.0000
# 3 8.5502 15.0436 33.4159 0.0000 0.0000 0.0000
# 4 0.0000 0.0000 0.0000 23.1829 0.0000 0.0000
# 5 0.0000 0.0000 0.0000 0.0000 21.6186 0.0000
# 6 0.0000 0.0000 0.0000 0.0000 0.0000 23.6259
#
#
#
# Elastic Compliance Matrix: (Units=1/GPa)
#
#
# Indices 1 2 3 4 5 6 
#
# 1 0.005078 -0.001884 -0.000451 0.000000 0.000000 0.000000
# 2 -0.001884 0.009423 -0.003760 0.000000 0.000000 0.000000
# 3 -0.000451 -0.003760 0.031734 0.000000 0.000000 0.000000
# 4 0.000000 0.000000 0.000000 0.043135 0.000000 0.000000
# 5 0.000000 0.000000 0.000000 0.000000 0.046257 0.000000
# 6 0.000000 0.000000 0.000000 0.000000 0.000000 0.042326
#
#
# Mechanical properties :
#
#
# Convention : Reuss Voigt Hill
#
# Bulk Modulus (GPa) = 29.37312 56.62641 42.99976
# Shear Modulus (GPa) = 24.81487 33.66816 29.24152
#
# Velocity S-wave (km/s) = 3.07868 3.58607 3.34202
# Velocity P-wave (km/s) = 4.88437 6.22700 5.59610
#
# Compressibility (1/GPa) = 0.03404474
#
# Stress axis : x y z
#
# Youngs Moduli (GPa) = 196.93225 106.12166 31.51175
#
# Poissons Ratio (x) = 0.19991 0.01422
# Poissons Ratio (y) = 0.37098 0.11849
# Poissons Ratio (z) = 0.08886 0.39904
#
# Static dielectric constant tensor:
#      x y z
#    x 2.253450 0.000000 0.000000 
#    y 0.000000 2.035760 0.000000 
#    z 0.000000 0.000000 2.154230 
# 
# From -- ./inp_files/8488.got.cif
#   From: 2010.05.17/outbox.cif.g08.bks.cpg/sg36_5_cif.got.tgz:8488.got - 2010.06.03 17:41:39.
