data_PCOD9351518
_publ_section_title
;
Structure prediction by ZEFSAII (Michael W. Deem and Ramdas Pophale) SiO2 
 PCOD9351518
Probable space group: C M C 21
;
_chemical_formula_sum "Si O2"
_cell_formula_units_Z 64
_cell_length_a 28.244240
_cell_length_b 7.278319
_cell_length_c 11.465713
_cell_angle_alpha 90.000000
_cell_angle_beta 90.000000
_cell_angle_gamma 90.000000
_cell_volume 2357.013371
_symmetry_space_group_name_H-M "C M C 21"
_symmetry_group_IT_number 36
_symmetry_cell_setting 'orthorhombic'
loop_
_space_group_symop_operation_xyz
x,y,z
-x,-y,1/2+z
x,-y,1/2+z
-x,y,z
1/2+x,1/2+y,z
1/2-x,1/2-y,1/2+z
1/2+x,1/2-y,1/2+z
1/2-x,1/2+y,z
loop_
_atom_site_type_symbol
_atom_site_label
_atom_site_fract_x
_atom_site_fract_y
_atom_site_fract_z
Si Si1 0.716866 0.263961 0.599890
Si Si2 0.946238 0.249906 0.149720
Si Si3 0.943455 0.685899 0.403410
Si Si4 0.088713 0.268765 0.404973
Si Si5 0.730710 0.010673 0.420924
Si Si6 0.816903 0.304155 0.726526
Si Si7 0.323052 0.409891 0.822127
Si Si8 0.922261 0.679409 0.151541
O O1 0.700490 0.085502 0.529842
O O2 0.730737 0.397901 0.495568
O O3 0.769142 0.239777 0.658832
O O4 0.678499 0.339280 0.688487
O O5 0.927410 0.197883 0.277562
O O6 0.943640 0.474042 0.150589
O O7 0.000000 0.186168 0.148425
O O8 0.926202 0.208112 0.019661
O O9 0.916318 0.490102 0.398925
O O10 0.937087 0.768918 0.274410
O O11 0.000000 0.650473 0.417358
O O12 0.140958 0.186983 0.406838
O O13 0.064352 0.225794 0.529196
O O14 0.696934 0.019206 0.307074
O O15 0.771034 0.148610 0.366802
O O16 0.865207 0.335634 0.657705
O O17 0.828293 0.127902 0.808063
#
# Coordination Sequence:
#
# PCOD9351518 Si02
#       8
#     8   8   8   8   8   8   8   8
#     4  11  23  41  63  83 116 170 219 272 321 380
#     4   9  19  38  62  95 130 165 208 263 323 385
#     4   9  19  38  63  96 132 164 210 270 327 384
#     4  10  20  34  60  88 127 166 205 255 323 391
#     4  11  23  41  62  82 116 168 221 270 324 379
#     4  11  24  39  59  88 122 163 216 268 331 387
#     4  11  24  40  56  85 123 164 213 269 326 383
#     4  10  20  33  57  93 124 158 204 263 323 385
#
# _framework density 27.153006000000001
#
# number of rings (size 3 to 8) (size 9 to 14) (size 15 to 20)
#    0.000    1.750    2.500    2.250    0.000    9.500 
#    0.000    0.000    0.000    3.000    0.000    3.500 
#    0.000    0.000    0.000    0.000    0.000    0.000 
#
# Total GULP energy -178468.877836 kJ/mol
# GULP energy per Si atom -5577.152432 kJ/mol
# Density = 2.709120 g / cm^3
# Si number density = 27.153006 Si / 1000 Ang^3
#
#
#
# Elastic Constant Matrix: (Units=GPa)
#
#
# Indices 1 2 3 4 5 6 
#
# 1 79.1847 2.3606 27.1201 0.0000 0.0000 0.0000
# 2 2.3606 53.4191 15.3149 0.0000 0.0000 0.0000
# 3 27.1201 15.3149 205.6231 0.0000 0.0000 0.0000
# 4 0.0000 0.0000 0.0000 15.9176 0.0000 0.0000
# 5 0.0000 0.0000 0.0000 0.0000 52.5651 0.0000
# 6 0.0000 0.0000 0.0000 0.0000 0.0000 50.0846
#
#
#
# Elastic Compliance Matrix: (Units=1/GPa)
#
#
# Indices 1 2 3 4 5 6 
#
# 1 0.013227 -0.000086 -0.001738 0.000000 0.000000 0.000000
# 2 -0.000086 0.019129 -0.001413 0.000000 0.000000 0.000000
# 3 -0.001738 -0.001413 0.005198 0.000000 0.000000 0.000000
# 4 0.000000 0.000000 0.000000 0.062824 0.000000 0.000000
# 5 0.000000 0.000000 0.000000 0.000000 0.019024 0.000000
# 6 0.000000 0.000000 0.000000 0.000000 0.000000 0.019966
#
#
# Mechanical properties :
#
#
# Convention : Reuss Voigt Hill
#
# Bulk Modulus (GPa) = 32.17711 47.53535 39.85623
# Shear Modulus (GPa) = 32.00992 43.27556 37.64274
#
# Velocity S-wave (km/s) = 3.43720 3.99653 3.72737
# Velocity P-wave (km/s) = 5.25628 6.23224 5.76495
#
# Compressibility (1/GPa) = 0.03107799
#
# Stress axis : x y z
#
# Youngs Moduli (GPa) = 75.60558 52.27691 192.39015
#
# Poissons Ratio (x) = 0.00451 0.33439
# Poissons Ratio (y) = 0.00652 0.27192
# Poissons Ratio (z) = 0.13141 0.07389
#
# Static dielectric constant tensor:
#      x y z
#    x 2.063420 0.000000 0.000000 
#    y 0.000000 2.388510 0.000000 
#    z 0.000000 0.000000 2.209940 
# 
# From -- ./inp_files/9752.got.cif
#   From: 2010.05.17/outbox.cif.g08.bks.cpg/sg36_5_cif.got.tgz:9752.got - 2010.06.03 17:41:39.
