data_PCOD9351001
_publ_section_title
;
Structure prediction by ZEFSAII (Michael W. Deem and Ramdas Pophale) SiO2 
 PCOD9351001
Probable space group: C M C 21
;
_chemical_formula_sum "Si O2"
_cell_formula_units_Z 64
_cell_length_a 7.707849
_cell_length_b 21.745688
_cell_length_c 14.521307
_cell_angle_alpha 90.000000
_cell_angle_beta 90.000000
_cell_angle_gamma 90.000000
_cell_volume 2433.952272
_symmetry_space_group_name_H-M "C M C 21"
_symmetry_group_IT_number 36
_symmetry_cell_setting 'orthorhombic'
loop_
_space_group_symop_operation_xyz
x,y,z
-x,-y,1/2+z
x,-y,1/2+z
-x,y,z
1/2+x,1/2+y,z
1/2-x,1/2-y,1/2+z
1/2+x,1/2-y,1/2+z
1/2-x,1/2+y,z
loop_
_atom_site_type_symbol
_atom_site_label
_atom_site_fract_x
_atom_site_fract_y
_atom_site_fract_z
Si Si1 0.797668 0.927355 0.990380
Si Si2 0.300392 0.043450 0.875568
Si Si3 0.292864 0.352094 0.817587
Si Si4 0.202954 0.215672 0.834622
Si Si5 0.798520 0.527124 0.207973
Si Si6 0.794813 0.349761 0.154528
Si Si7 0.206160 0.765223 0.538894
Si Si8 0.788581 0.602958 0.047705
O O1 0.697820 0.983454 0.942745
O O2 0.753370 0.868513 0.925028
O O3 0.000000 0.940601 0.976330
O O4 0.767985 0.908521 0.096110
O O5 0.500000 0.060178 0.856819
O O6 0.218996 0.021137 0.779956
O O7 0.221803 0.093684 0.943539
O O8 0.500000 0.356304 0.804579
O O9 0.233999 0.283861 0.793293
O O10 0.206007 0.407522 0.761877
O O11 0.263017 0.164269 0.761902
O O12 0.283913 0.224098 0.936684
O O13 0.000000 0.206110 0.845530
O O14 0.720819 0.547454 0.111106
O O15 0.000000 0.509671 0.193496
O O16 0.000000 0.351596 0.144474
O O17 0.721298 0.290410 0.099196
O O18 0.231063 0.831564 0.585086
O O19 0.000000 0.754125 0.529930
O O20 0.000000 0.600877 0.047311
#
# Coordination Sequence:
#
# PCOD9351001 Si02
#       8
#     8   8   8   8   8   8   8   8
#     4  10  20  35  57  83 111 144 187 237 286 338
#     4   9  19  37  58  81 112 148 190 241 290 339
#     4  10  19  32  54  83 112 144 189 237 279 334
#     4  11  22  37  55  81 117 155 190 231 289 348
#     4   9  18  34  57  82 110 148 191 238 292 339
#     4  11  22  38  59  86 116 153 194 234 287 349
#     4  10  23  40  58  82 119 156 188 233 291 347
#     4  10  21  37  58  84 113 150 197 241 286 342
#
# _framework density 26.294681000000001
#
# number of rings (size 3 to 8) (size 9 to 14) (size 15 to 20)
#    0.000    2.000    1.250    2.250    0.000    6.000 
#    2.250    0.000    0.000    0.000    0.000    0.000 
#    0.000    0.000    0.000    0.000    0.000    0.000 
#
# Total GULP energy -178975.769549 kJ/mol
# GULP energy per Si atom -5592.992798 kJ/mol
# Density = 2.623483 g / cm^3
# Si number density = 26.294681 Si / 1000 Ang^3
#
#
#
# Elastic Constant Matrix: (Units=GPa)
#
#
# Indices 1 2 3 4 5 6 
#
# 1 79.9877 -4.6946 -0.0024 0.0000 0.0000 0.0000
# 2 -4.6946 98.3814 17.9166 0.0000 0.0000 0.0000
# 3 -0.0024 17.9166 152.1983 0.0000 0.0000 0.0000
# 4 0.0000 0.0000 0.0000 52.4428 0.0000 0.0000
# 5 0.0000 0.0000 0.0000 0.0000 18.4969 0.0000
# 6 0.0000 0.0000 0.0000 0.0000 0.0000 17.6785
#
#
#
# Elastic Compliance Matrix: (Units=1/GPa)
#
#
# Indices 1 2 3 4 5 6 
#
# 1 0.012538 0.000611 -0.000072 0.000000 0.000000 0.000000
# 2 0.000611 0.010417 -0.001226 0.000000 0.000000 0.000000
# 3 -0.000072 -0.001226 0.006715 0.000000 0.000000 0.000000
# 4 0.000000 0.000000 0.000000 0.019068 0.000000 0.000000
# 5 0.000000 0.000000 0.000000 0.000000 0.054063 0.000000
# 6 0.000000 0.000000 0.000000 0.000000 0.000000 0.056566
#
#
# Mechanical properties :
#
#
# Convention : Reuss Voigt Hill
#
# Bulk Modulus (GPa) = 35.34046 39.66739 37.50393
# Shear Modulus (GPa) = 29.38194 38.88014 34.13104
#
# Velocity S-wave (km/s) = 3.34639 3.84947 3.60671
# Velocity P-wave (km/s) = 5.32921 5.90562 5.62480
#
# Compressibility (1/GPa) = 0.02829618
#
# Stress axis : x y z
#
# Youngs Moduli (GPa) = 79.75880 95.99677 148.92635
#
# Poissons Ratio (x) = -0.05869 0.01069
# Poissons Ratio (y) = -0.04876 0.18262
# Poissons Ratio (z) = 0.00572 0.11772
#
# Static dielectric constant tensor:
#      x y z
#    x 1.934510 0.000000 0.000000 
#    y 0.000000 2.088020 0.000000 
#    z 0.000000 0.000000 2.160110 
# 
# From -- ./inp_files/10886.got.cif
#   From: 2010.05.17/outbox.cif.g08.bks.cpg/sg36_6_cif.got.tgz:10886.got - 2010.06.03 17:41:39.
