data_PCOD9351625
_publ_section_title
;
Structure prediction by ZEFSAII (Michael W. Deem and Ramdas Pophale) SiO2 
 PCOD9351625
Probable space group: C M C 21
;
_chemical_formula_sum "Si O2"
_cell_formula_units_Z 44
_cell_length_a 13.982956
_cell_length_b 16.202618
_cell_length_c 8.413442
_cell_angle_alpha 90.000000
_cell_angle_beta 90.000000
_cell_angle_gamma 90.000000
_cell_volume 1906.153581
_symmetry_space_group_name_H-M "C M C 21"
_symmetry_group_IT_number 36
_symmetry_cell_setting 'orthorhombic'
loop_
_space_group_symop_operation_xyz
x,y,z
-x,-y,1/2+z
x,-y,1/2+z
-x,y,z
1/2+x,1/2+y,z
1/2-x,1/2-y,1/2+z
1/2+x,1/2-y,1/2+z
1/2-x,1/2+y,z
loop_
_atom_site_type_symbol
_atom_site_label
_atom_site_fract_x
_atom_site_fract_y
_atom_site_fract_z
Si Si1 0.255162 0.798088 0.830130
Si Si2 0.154200 0.457771 0.398854
Si Si3 0.889188 0.291433 0.542409
Si Si4 0.000000 0.049679 0.613215
Si Si5 0.394725 0.880340 0.059005
Si Si6 0.848762 0.961383 0.847531
O O1 0.329897 0.766517 0.699190
O O2 0.206903 0.883625 0.772609
O O3 0.168840 0.741091 0.889020
O O4 0.317775 0.818136 0.987335
O O5 0.116880 0.390163 0.522503
O O6 0.104676 0.544767 0.432735
O O7 0.133799 0.422711 0.224099
O O8 0.266664 0.477800 0.413265
O O9 0.000000 0.265635 0.550366
O O10 0.082940 0.012026 0.732614
O O11 0.084713 0.074700 0.486102
O O12 0.500000 0.842922 0.073650
#
# Coordination Sequence:
#
# PCOD9351625 Si02
#       6
#     8   8   8   4   8   8
#     4  11  25  44  65  95 138 173 229 284 336 409
#     4  11  22  39  63  99 132 166 223 280 337 399
#     4  12  26  45  69  96 134 183 224 277 345 412
#     4  10  20  34  64  88 124 170 222 254 338 386
#     4  11  21  38  68  96 131 172 219 282 340 397
#     4  10  21  39  62  95 128 170 216 283 325 395
#
# _framework density 23.083134999999999
#
# number of rings (size 3 to 8) (size 9 to 14) (size 15 to 20)
#    0.000    1.091    0.000    8.727    2.545    0.000 
#    0.000    0.909    4.000    0.000    0.000    0.000 
#    0.000    0.000    0.000    0.000    0.000    0.000 
#
# Total GULP energy -122517.326118 kJ/mol
# GULP energy per Si atom -5568.969369 kJ/mol
# Density = 2.303060 g / cm^3
# Si number density = 23.083135 Si / 1000 Ang^3
#
#
#
# Elastic Constant Matrix: (Units=GPa)
#
#
# Indices 1 2 3 4 5 6 
#
# 1 206.5402 20.4703 47.8433 0.0000 0.0000 0.0000
# 2 20.4703 31.6623 15.3801 0.0000 0.0000 0.0000
# 3 47.8433 15.3801 63.7457 0.0000 0.0000 0.0000
# 4 0.0000 0.0000 0.0000 22.3981 0.0000 0.0000
# 5 0.0000 0.0000 0.0000 0.0000 39.2494 0.0000
# 6 0.0000 0.0000 0.0000 0.0000 0.0000 20.0440
#
#
#
# Elastic Compliance Matrix: (Units=1/GPa)
#
#
# Indices 1 2 3 4 5 6 
#
# 1 0.005960 -0.001904 -0.004014 0.000000 0.000000 0.000000
# 2 -0.001904 0.036384 -0.007350 0.000000 0.000000 0.000000
# 3 -0.004014 -0.007350 0.020473 0.000000 0.000000 0.000000
# 4 0.000000 0.000000 0.000000 0.044647 0.000000 0.000000
# 5 0.000000 0.000000 0.000000 0.000000 0.025478 0.000000
# 6 0.000000 0.000000 0.000000 0.000000 0.000000 0.049890
#
#
# Mechanical properties :
#
#
# Convention : Reuss Voigt Hill
#
# Bulk Modulus (GPa) = 27.56125 52.14839 39.85482
# Shear Modulus (GPa) = 22.57726 30.88860 26.73293
#
# Velocity S-wave (km/s) = 3.13083 3.66204 3.40680
# Velocity P-wave (km/s) = 5.00353 6.36563 5.72523
#
# Compressibility (1/GPa) = 0.03628283
#
# Stress axis : x y z
#
# Youngs Moduli (GPa) = 167.78116 27.48445 48.84408
#
# Poissons Ratio (x) = 0.05232 0.19606
# Poissons Ratio (y) = 0.31937 0.35900
# Poissons Ratio (z) = 0.67348 0.20201
#
# Static dielectric constant tensor:
#      x y z
#    x 1.859590 0.000000 0.000000 
#    y 0.000000 1.934990 0.000000 
#    z 0.000000 0.000000 1.868290 
# 
# From -- ./inp_files/3915.got.cif
#   From: 2010.05.17/outbox.cif.g08.bks.cpg/sg36_2_cif.got.tgz:3915.got - 2010.06.03 17:41:39.
