data_PCOD9351870
_publ_section_title
;
Structure prediction by ZEFSAII (Michael W. Deem and Ramdas Pophale) SiO2 
 PCOD9351870
Probable space group: C M C 21
;
_chemical_formula_sum "Si O2"
_cell_formula_units_Z 36
_cell_length_a 18.807121
_cell_length_b 13.984992
_cell_length_c 5.253348
_cell_angle_alpha 90.000000
_cell_angle_beta 90.000000
_cell_angle_gamma 90.000000
_cell_volume 1381.722125
_symmetry_space_group_name_H-M "C M C 21"
_symmetry_group_IT_number 36
_symmetry_cell_setting 'orthorhombic'
loop_
_space_group_symop_operation_xyz
x,y,z
-x,-y,1/2+z
x,-y,1/2+z
-x,y,z
1/2+x,1/2+y,z
1/2-x,1/2-y,1/2+z
1/2+x,1/2-y,1/2+z
1/2-x,1/2+y,z
loop_
_atom_site_type_symbol
_atom_site_label
_atom_site_fract_x
_atom_site_fract_y
_atom_site_fract_z
Si Si1 0.776968 0.531150 0.041440
Si Si2 0.077910 0.750605 0.941435
Si Si3 0.115820 0.952019 0.121688
Si Si4 0.279289 0.776281 0.228484
Si Si5 0.000000 0.432327 0.599112
O O1 0.815273 0.522563 0.310503
O O2 0.698693 0.486899 0.102361
O O3 0.767926 0.635000 0.922643
O O4 0.104351 0.837967 0.119729
O O5 0.137147 0.743839 0.725165
O O6 0.000000 0.776728 0.841510
O O7 0.064703 0.646249 0.068439
O O8 0.084787 0.997093 0.866613
O O9 0.246888 0.703789 0.442720
O O10 0.000000 0.505687 0.358203
#
# Coordination Sequence:
#
# PCOD9351870 Si02
#       5
#     8   8   8   8   4
#     4  10  20  36  61  93 132 175 226 287 354 417
#     4  10  26  48  72 111 146 198 250 305 374 455
#     4  10  20  39  64 101 144 181 225 286 361 440
#     4  12  24  43  70 103 144 192 246 303 359 435
#     4  10  26  50  72 100 144 194 256 312 366 438
#
# _framework density 26.054438999999999
#
# number of rings (size 3 to 8) (size 9 to 14) (size 15 to 20)
#    0.667    0.889    0.000    6.667    0.000    6.222 
#    0.000    0.000    0.000    0.000    0.000    0.000 
#    0.000    0.000    0.000    0.000    0.000    0.000 
#
# Total GULP energy -100331.354822 kJ/mol
# GULP energy per Si atom -5573.964157 kJ/mol
# Density = 2.599514 g / cm^3
# Si number density = 26.054439 Si / 1000 Ang^3
#
#
#
# Elastic Constant Matrix: (Units=GPa)
#
#
# Indices 1 2 3 4 5 6 
#
# 1 111.5226 -27.6951 -12.9892 0.0000 0.0000 0.0000
# 2 -27.6951 119.4525 23.2450 0.0000 0.0000 0.0000
# 3 -12.9892 23.2450 171.2551 0.0000 0.0000 0.0000
# 4 0.0000 0.0000 0.0000 24.2429 0.0000 0.0000
# 5 0.0000 0.0000 0.0000 0.0000 -12.6415 0.0000
# 6 0.0000 0.0000 0.0000 0.0000 0.0000 42.0952
#
#
#
# Elastic Compliance Matrix: (Units=1/GPa)
#
#
# Indices 1 2 3 4 5 6 
#
# 1 0.009546 0.002129 0.000435 0.000000 0.000000 0.000000
# 2 0.002129 0.009073 -0.001070 0.000000 0.000000 0.000000
# 3 0.000435 -0.001070 0.006017 0.000000 0.000000 0.000000
# 4 0.000000 0.000000 0.000000 0.041249 0.000000 0.000000
# 5 0.000000 0.000000 0.000000 0.000000 -0.079104 0.000000
# 6 0.000000 0.000000 0.000000 0.000000 0.000000 0.023756
#
#
# Mechanical properties :
#
#
# Convention : Reuss Voigt Hill
#
# Bulk Modulus (GPa) = 36.20032 40.81685 38.50858
# Shear Modulus (GPa) = 298.36127 38.71728 168.53928
#
# Velocity S-wave (km/s) = 10.71276 3.85907 8.05157
# Velocity P-wave (km/s) = 12.92060 5.96293 10.06227
#
# Compressibility (1/GPa) = 0.02762407
#
# Stress axis : x y z
#
# Youngs Moduli (GPa) = 104.75512 110.21370 166.18210
#
# Poissons Ratio (x) = -0.23460 -0.07231
# Poissons Ratio (y) = -0.22298 0.17783
# Poissons Ratio (z) = -0.04558 0.11794
#
# Static dielectric constant tensor:
#      x y z
#    x 2.259820 0.000000 0.000000 
#    y 0.000000 2.467020 0.000000 
#    z 0.000000 0.000000 2.471440 
# 
# From -- ./inp_files/1278.got.cif
#   From: 2010.05.17/outbox.cif.g08.bks.cpg/sg36_1_cif.got.tgz:1278.got - 2010.06.03 17:41:39.
