data_PCOD9351710
_publ_section_title
;
Structure prediction by ZEFSAII (Michael W. Deem and Ramdas Pophale) SiO2 
 PCOD9351710
Probable space group: C M C 21
;
_chemical_formula_sum "Si O2"
_cell_formula_units_Z 64
_cell_length_a 7.826133
_cell_length_b 27.251947
_cell_length_c 13.282893
_cell_angle_alpha 90.000000
_cell_angle_beta 90.000000
_cell_angle_gamma 90.000000
_cell_volume 2832.940375
_symmetry_space_group_name_H-M "C M C 21"
_symmetry_group_IT_number 36
_symmetry_cell_setting 'orthorhombic'
loop_
_space_group_symop_operation_xyz
x,y,z
-x,-y,1/2+z
x,-y,1/2+z
-x,y,z
1/2+x,1/2+y,z
1/2-x,1/2-y,1/2+z
1/2+x,1/2-y,1/2+z
1/2-x,1/2+y,z
loop_
_atom_site_type_symbol
_atom_site_label
_atom_site_fract_x
_atom_site_fract_y
_atom_site_fract_z
Si Si1 0.801494 0.591637 0.456570
Si Si2 0.702406 0.131674 0.077558
Si Si3 0.293756 0.244289 0.049468
Si Si4 0.693411 0.191271 0.373111
Si Si5 0.207519 0.222433 0.759032
Si Si6 0.297969 0.554055 0.245429
Si Si7 0.793066 0.121635 0.852729
Si Si8 0.796120 0.949534 0.173152
O O1 0.721763 0.643490 0.420140
O O2 0.782914 0.559253 0.356011
O O3 0.734093 0.569875 0.560504
O O4 0.000000 0.601028 0.477121
O O5 0.500000 0.132679 0.090546
O O6 0.759555 0.188436 0.071448
O O7 0.770758 0.100151 0.171043
O O8 0.742792 0.109303 0.967083
O O9 0.500000 0.244037 0.030587
O O10 0.260787 0.281513 0.141180
O O11 0.192900 0.266869 0.957489
O O12 0.500000 0.177408 0.340970
O O13 0.776812 0.223492 0.286142
O O14 0.270117 0.176332 0.822726
O O15 0.000000 0.224693 0.770133
O O16 0.500000 0.549653 0.262566
O O17 0.232703 0.504919 0.190394
O O18 0.732336 0.085301 0.764071
O O19 0.000000 0.122587 0.849894
O O20 0.000000 0.950653 0.185089
#
# Coordination Sequence:
#
# PCOD9351710 Si02
#       8
#     8   8   8   8   8   8   8   8
#     4  11  24  42  65  95 132 165 203 262 322 377
#     4  11  23  39  61  94 133 166 208 264 321 377
#     4  10  20  35  57  86 122 163 205 251 298 355
#     4  10  20  36  57  85 122 162 199 239 295 362
#     4   9  17  32  56  82 116 160 200 238 290 354
#     4  11  25  44  67  92 123 166 216 266 313 376
#     4  10  20  38  64  91 123 166 213 260 313 373
#     4  10  24  44  67  93 121 162 216 266 312 374
#
# _framework density 22.591367999999999
#
# number of rings (size 3 to 8) (size 9 to 14) (size 15 to 20)
#    0.000    1.750    1.250    2.625    1.750    6.000 
#    0.000    1.250    0.000    0.000    0.000    0.000 
#    0.000    0.000    0.000    0.000    0.000    0.000 
#
# Total GULP energy -178625.754081 kJ/mol
# GULP energy per Si atom -5582.054815 kJ/mol
# Density = 2.253995 g / cm^3
# Si number density = 22.591368 Si / 1000 Ang^3
#
#
#
# Elastic Constant Matrix: (Units=GPa)
#
#
# Indices 1 2 3 4 5 6 
#
# 1 28.1720 2.1108 -3.6664 0.0000 0.0000 0.0000
# 2 2.1108 81.5229 19.7825 0.0000 0.0000 0.0000
# 3 -3.6664 19.7825 126.9696 0.0000 0.0000 0.0000
# 4 0.0000 0.0000 0.0000 34.9694 0.0000 0.0000
# 5 0.0000 0.0000 0.0000 0.0000 17.2815 0.0000
# 6 0.0000 0.0000 0.0000 0.0000 0.0000 18.8462
#
#
#
# Elastic Compliance Matrix: (Units=1/GPa)
#
#
# Indices 1 2 3 4 5 6 
#
# 1 0.035747 -0.001222 0.001223 0.000000 0.000000 0.000000
# 2 -0.001222 0.012790 -0.002028 0.000000 0.000000 0.000000
# 3 0.001223 -0.002028 0.008227 0.000000 0.000000 0.000000
# 4 0.000000 0.000000 0.000000 0.028596 0.000000 0.000000
# 5 0.000000 0.000000 0.000000 0.000000 0.057865 0.000000
# 6 0.000000 0.000000 0.000000 0.000000 0.000000 0.053061
#
#
# Mechanical properties :
#
#
# Convention : Reuss Voigt Hill
#
# Bulk Modulus (GPa) = 18.97206 30.34645 24.65926
# Shear Modulus (GPa) = 22.94502 28.78194 25.86348
#
# Velocity S-wave (km/s) = 3.19039 3.57322 3.38722
# Velocity P-wave (km/s) = 4.68909 5.52139 5.12218
#
# Compressibility (1/GPa) = 0.05270909
#
# Stress axis : x y z
#
# Youngs Moduli (GPa) = 27.97444 78.18442 121.54814
#
# Poissons Ratio (x) = 0.09556 -0.14861
# Poissons Ratio (y) = 0.03419 0.24651
# Poissons Ratio (z) = -0.03420 0.15856
#
# Static dielectric constant tensor:
#      x y z
#    x 1.826910 0.000000 0.000000 
#    y 0.000000 1.878770 0.000000 
#    z 0.000000 0.000000 1.835930 
# 
# From -- ./inp_files/7056.got.cif
#   From: 2010.05.17/outbox.cif.g08.bks.cpg/sg36_4_cif.got.tgz:7056.got - 2010.06.03 17:41:39.
