data_PCOD9351276
_publ_section_title
;
Structure prediction by ZEFSAII (Michael W. Deem and Ramdas Pophale) SiO2 
 PCOD9351276
Probable space group: C M C 21
;
_chemical_formula_sum "Si O2"
_cell_formula_units_Z 56
_cell_length_a 28.526116
_cell_length_b 16.084266
_cell_length_c 5.070411
_cell_angle_alpha 90.000000
_cell_angle_beta 90.000000
_cell_angle_gamma 90.000000
_cell_volume 2326.414279
_symmetry_space_group_name_H-M "C M C 21"
_symmetry_group_IT_number 36
_symmetry_cell_setting 'orthorhombic'
loop_
_space_group_symop_operation_xyz
x,y,z
-x,-y,1/2+z
x,-y,1/2+z
-x,y,z
1/2+x,1/2+y,z
1/2-x,1/2-y,1/2+z
1/2+x,1/2-y,1/2+z
1/2-x,1/2+y,z
loop_
_atom_site_type_symbol
_atom_site_label
_atom_site_fract_x
_atom_site_fract_y
_atom_site_fract_z
Si Si1 0.000000 0.049768 0.971251
Si Si2 0.159828 0.451446 0.274740
Si Si3 0.500000 0.060985 0.999658
Si Si4 0.618773 0.734352 0.903380
Si Si5 0.087087 0.316562 0.402900
Si Si6 0.720390 0.266593 0.309620
Si Si7 0.227362 0.050137 0.772745
Si Si8 0.896515 0.942329 0.584452
O O1 0.000000 0.032980 0.658713
O O2 0.950864 0.087593 0.053745
O O3 0.145656 0.524231 0.479269
O O4 0.134337 0.371096 0.384324
O O5 0.215948 0.444643 0.276112
O O6 0.454928 0.121348 0.973344
O O7 0.500000 0.992346 0.767271
O O8 0.595182 0.744634 0.618358
O O9 0.670868 0.774349 0.880668
O O10 0.584922 0.778650 0.111837
O O11 0.629151 0.642337 0.013096
O O12 0.750328 0.276723 0.577630
O O13 0.710818 0.358664 0.197070
O O14 0.212653 0.982809 0.557092
O O15 0.889706 0.013987 0.364370
#
# Coordination Sequence:
#
# PCOD9351276 Si02
#       8
#     4   8   4   8   8   8   8   8
#     4   8  16  32  56  82 110 144 186 234 286 350
#     4  10  19  35  59  86 119 162 207 259 319 390
#     4  12  26  48  76 108 142 184 224 274 346 406
#     4  12  26  42  66  96 131 177 220 277 344 390
#     4  12  25  43  65  99 136 171 220 274 331 413
#     4  12  25  43  65  91 130 176 221 274 338 409
#     4  10  21  36  59  89 120 160 213 267 321 379
#     4  10  21  39  62  90 124 167 216 264 317 385
#
# _framework density 24.071380000000001
#
# number of rings (size 3 to 8) (size 9 to 14) (size 15 to 20)
#    0.000    1.143    0.000    6.857    0.000    4.571 
#    0.000    1.429    0.000    0.000    0.000    0.000 
#    0.000    0.000    0.000    0.000    0.000    0.000 
#
# Total GULP energy -156663.091118 kJ/mol
# GULP energy per Si atom -5595.110397 kJ/mol
# Density = 2.401659 g / cm^3
# Si number density = 24.071380 Si / 1000 Ang^3
#
#
#
# Elastic Constant Matrix: (Units=GPa)
#
#
# Indices 1 2 3 4 5 6 
#
# 1 74.3938 -4.7079 12.0261 0.0000 0.0000 0.0000
# 2 -4.7079 70.3562 -6.2583 0.0000 0.0000 0.0000
# 3 12.0261 -6.2583 96.5962 0.0000 0.0000 0.0000
# 4 0.0000 0.0000 0.0000 37.9679 0.0000 0.0000
# 5 0.0000 0.0000 0.0000 0.0000 19.1395 0.0000
# 6 0.0000 0.0000 0.0000 0.0000 0.0000 36.4397
#
#
#
# Elastic Compliance Matrix: (Units=1/GPa)
#
#
# Indices 1 2 3 4 5 6 
#
# 1 0.013760 0.000773 -0.001663 0.000000 0.000000 0.000000
# 2 0.000773 0.014339 0.000833 0.000000 0.000000 0.000000
# 3 -0.001663 0.000833 0.010613 0.000000 0.000000 0.000000
# 4 0.000000 0.000000 0.000000 0.026338 0.000000 0.000000
# 5 0.000000 0.000000 0.000000 0.000000 0.052248 0.000000
# 6 0.000000 0.000000 0.000000 0.000000 0.000000 0.027443
#
#
# Mechanical properties :
#
#
# Convention : Reuss Voigt Hill
#
# Bulk Modulus (GPa) = 25.90843 27.05179 26.48011
# Shear Modulus (GPa) = 31.70146 34.72850 33.21498
#
# Velocity S-wave (km/s) = 3.63295 3.80245 3.71867
# Velocity P-wave (km/s) = 5.32770 5.52637 5.42794
#
# Compressibility (1/GPa) = 0.03859747
#
# Stress axis : x y z
#
# Youngs Moduli (GPa) = 72.67586 69.73904 94.22081
#
# Poissons Ratio (x) = -0.05390 0.15669
# Poissons Ratio (y) = -0.05616 -0.07847
# Poissons Ratio (z) = 0.12086 -0.05808
#
# Static dielectric constant tensor:
#      x y z
#    x 1.956230 0.000000 0.000000 
#    y 0.000000 1.895530 0.000000 
#    z 0.000000 0.000000 1.868600 
# 
# From -- ./inp_files/1878.got.cif
#   From: 2010.05.17/outbox.cif.g08.bks.cpg/sg36_1_cif.got.tgz:1878.got - 2010.06.03 17:41:39.
