data_PCOD9351313
_publ_section_title
;
Structure prediction by ZEFSAII (Michael W. Deem and Ramdas Pophale) SiO2 
 PCOD9351313
Probable space group: C M C 21
;
_chemical_formula_sum "Si O2"
_cell_formula_units_Z 40
_cell_length_a 19.566838
_cell_length_b 14.143176
_cell_length_c 8.719167
_cell_angle_alpha 90.000000
_cell_angle_beta 90.000000
_cell_angle_gamma 90.000000
_cell_volume 2412.918155
_symmetry_space_group_name_H-M "C M C 21"
_symmetry_group_IT_number 36
_symmetry_cell_setting 'orthorhombic'
loop_
_space_group_symop_operation_xyz
x,y,z
-x,-y,1/2+z
x,-y,1/2+z
-x,y,z
1/2+x,1/2+y,z
1/2-x,1/2-y,1/2+z
1/2+x,1/2-y,1/2+z
1/2-x,1/2+y,z
loop_
_atom_site_type_symbol
_atom_site_label
_atom_site_fract_x
_atom_site_fract_y
_atom_site_fract_z
Si Si1 0.000000 0.428874 0.858770
Si Si2 0.500000 0.131682 0.711230
Si Si3 0.221417 0.553195 0.671696
Si Si4 0.864120 0.708606 0.842895
Si Si5 0.366681 0.875797 0.672072
Si Si6 0.767958 0.881043 0.844242
O O1 0.000000 0.541057 0.824883
O O2 0.932817 0.386897 0.777021
O O3 0.000000 0.406886 0.038341
O O4 0.432462 0.191489 0.746790
O O5 0.190735 0.631374 0.783728
O O6 0.159015 0.481968 0.625494
O O7 0.252862 0.599216 0.521638
O O8 0.272780 0.482344 0.759219
O O9 0.878404 0.684628 0.020479
O O10 0.830291 0.810636 0.823441
O O11 0.301524 0.838547 0.768614
#
# Coordination Sequence:
#
# PCOD9351313 Si02
#       6
#     4   4   8   8   8   8
#     4  12  22  36  56  80 121 154 176 238 293 366
#     4  12  24  34  54  82 115 152 190 230 297 338
#     4  10  19  36  52  82 113 147 185 225 287 328
#     4  12  21  36  57  83 115 148 192 234 277 350
#     4  10  20  35  53  82 115 151 180 218 292 337
#     4  10  21  35  57  82 116 147 190 234 278 341
#
# _framework density 16.577437
#
# number of rings (size 3 to 8) (size 9 to 14) (size 15 to 20)
#    1.200    0.000    4.000    4.200    0.000    0.000 
#    0.000    0.000    0.000    1.200    0.000    1.400 
#    0.000    0.000    0.000    0.000    0.000    0.000 
#
# Total GULP energy -111545.238851 kJ/mol
# GULP energy per Si atom -5577.261943 kJ/mol
# Density = 1.653971 g / cm^3
# Si number density = 16.577437 Si / 1000 Ang^3
#
#
#
# Elastic Constant Matrix: (Units=GPa)
#
#
# Indices 1 2 3 4 5 6 
#
# 1 98.1376 54.4076 53.2322 0.0000 0.0000 0.0000
# 2 54.4076 71.0217 41.8602 0.0000 0.0000 0.0000
# 3 53.2322 41.8602 103.1632 0.0000 0.0000 0.0000
# 4 0.0000 0.0000 0.0000 13.6538 0.0000 0.0000
# 5 0.0000 0.0000 0.0000 0.0000 21.5568 0.0000
# 6 0.0000 0.0000 0.0000 0.0000 0.0000 32.0771
#
#
#
# Elastic Compliance Matrix: (Units=1/GPa)
#
#
# Indices 1 2 3 4 5 6 
#
# 1 0.019704 -0.011963 -0.005313 0.000000 0.000000 0.000000
# 2 -0.011963 0.025770 -0.004283 0.000000 0.000000 0.000000
# 3 -0.005313 -0.004283 0.014173 0.000000 0.000000 0.000000
# 4 0.000000 0.000000 0.000000 0.073240 0.000000 0.000000
# 5 0.000000 0.000000 0.000000 0.000000 0.046389 0.000000
# 6 0.000000 0.000000 0.000000 0.000000 0.000000 0.031175
#
#
# Mechanical properties :
#
#
# Convention : Reuss Voigt Hill
#
# Bulk Modulus (GPa) = 60.50604 63.48027 61.99315
# Shear Modulus (GPa) = 19.29916 21.64571 20.47244
#
# Velocity S-wave (km/s) = 3.41571 3.61741 3.51801
# Velocity P-wave (km/s) = 7.22042 7.47154 7.34705
#
# Compressibility (1/GPa) = 0.01652728
#
# Stress axis : x y z
#
# Youngs Moduli (GPa) = 50.75084 38.80556 70.55686
#
# Poissons Ratio (x) = 0.46424 0.37487
# Poissons Ratio (y) = 0.60714 0.30222
# Poissons Ratio (z) = 0.26964 0.16622
#
# Static dielectric constant tensor:
#      x y z
#    x 1.551020 0.000000 0.000000 
#    y 0.000000 1.548580 0.000000 
#    z 0.000000 0.000000 1.561010 
# 
# From -- ./inp_files/4543.got.cif
#   From: 2010.05.17/outbox.cif.g08.bks.cpg/sg36_3_cif.got.tgz:4543.got - 2010.06.03 17:41:39.
