data_PCOD9351836
_publ_section_title
;
Structure prediction by ZEFSAII (Michael W. Deem and Ramdas Pophale) SiO2 
 PCOD9351836
Probable space group: C M C 21
;
_chemical_formula_sum "Si O2"
_cell_formula_units_Z 64
_cell_length_a 8.494396
_cell_length_b 15.723460
_cell_length_c 24.503004
_cell_angle_alpha 90.000000
_cell_angle_beta 90.000000
_cell_angle_gamma 90.000000
_cell_volume 3272.652964
_symmetry_space_group_name_H-M "C M C 21"
_symmetry_group_IT_number 36
_symmetry_cell_setting 'orthorhombic'
loop_
_space_group_symop_operation_xyz
x,y,z
-x,-y,1/2+z
x,-y,1/2+z
-x,y,z
1/2+x,1/2+y,z
1/2-x,1/2-y,1/2+z
1/2+x,1/2-y,1/2+z
1/2-x,1/2+y,z
loop_
_atom_site_type_symbol
_atom_site_label
_atom_site_fract_x
_atom_site_fract_y
_atom_site_fract_z
Si Si1 0.187329 0.386715 0.388610
Si Si2 0.311951 0.300673 0.578271
Si Si3 0.185787 0.858768 0.268289
Si Si4 0.188048 0.798632 0.701625
Si Si5 0.188645 0.736616 0.462025
Si Si6 0.312959 0.988582 0.572039
Si Si7 0.311050 0.010082 0.193654
Si Si8 0.307474 0.950072 0.955346
O O1 0.266431 0.366160 0.331283
O O2 0.226818 0.313381 0.431953
O O3 0.243265 0.475915 0.414551
O O4 0.000000 0.391590 0.380615
O O5 0.500000 0.318657 0.578501
O O6 0.271315 0.270876 0.639210
O O7 0.281552 0.239893 0.527160
O O8 0.221056 0.388256 0.567776
O O9 0.240536 0.769018 0.243102
O O10 0.262912 0.936712 0.235155
O O11 0.000000 0.865686 0.262628
O O12 0.000000 0.797179 0.707001
O O13 0.245800 0.895998 0.707783
O O14 0.238050 0.645051 0.439474
O O15 0.000000 0.746516 0.454623
O O16 0.500000 0.004363 0.572391
O O17 0.253189 0.013399 0.632197
O O18 0.250073 0.030599 0.516868
O O19 0.500000 0.016466 0.192157
O O20 0.500000 0.952337 0.956742
#
# Coordination Sequence:
#
# PCOD9351836 Si02
#       8
#     8   8   8   8   8   8   8   8
#     4  11  23  42  62  84 118 158 205 256 305 363
#     4   9  18  32  57  88 124 157 190 241 301 360
#     4  12  26  43  63  87 120 164 214 262 308 364
#     4  10  21  39  62  92 126 162 205 253 306 365
#     4  10  20  36  59  88 120 157 197 242 300 363
#     4   9  17  33  59  87 121 158 196 240 293 359
#     4  10  21  38  63  93 126 163 203 249 307 367
#     4   9  19  35  59  87 117 155 196 239 294 359
#
# _framework density 19.556000000000001
#
# number of rings (size 3 to 8) (size 9 to 14) (size 15 to 20)
#    0.000    2.000    1.250    2.250    1.750    2.000 
#    0.000    5.625    0.000    0.000    0.000    0.000 
#    0.000    0.000    0.000    0.000    0.000    0.000 
#
# Total GULP energy -178645.025312 kJ/mol
# GULP energy per Si atom -5582.657041 kJ/mol
# Density = 1.951149 g / cm^3
# Si number density = 19.556000 Si / 1000 Ang^3
#
#
#
# Elastic Constant Matrix: (Units=GPa)
#
#
# Indices 1 2 3 4 5 6 
#
# 1 20.3629 2.1739 8.7867 0.0000 0.0000 0.0000
# 2 2.1739 -19.9715 -57.0779 0.0000 0.0000 0.0000
# 3 8.7867 -57.0779 0.3796 0.0000 0.0000 0.0000
# 4 0.0000 0.0000 0.0000 17.0692 0.0000 0.0000
# 5 0.0000 0.0000 0.0000 0.0000 21.2221 0.0000
# 6 0.0000 0.0000 0.0000 0.0000 0.0000 25.7547
#
#
#
# Elastic Compliance Matrix: (Units=1/GPa)
#
#
# Indices 1 2 3 4 5 6 
#
# 1 0.048640 0.007483 -0.000766 0.000000 0.000000 0.000000
# 2 0.007483 0.001035 -0.017597 0.000000 0.000000 0.000000
# 3 -0.000766 -0.017597 0.006128 0.000000 0.000000 0.000000
# 4 0.000000 0.000000 0.000000 0.058585 0.000000 0.000000
# 5 0.000000 0.000000 0.000000 0.000000 0.047121 0.000000
# 6 0.000000 0.000000 0.000000 0.000000 0.000000 0.038828
#
#
# Mechanical properties :
#
#
# Convention : Reuss Voigt Hill
#
# Bulk Modulus (GPa) = 29.37429 -10.16263 9.60583
# Shear Modulus (GPa) = 21.41835 15.93509 18.67672
#
# Velocity S-wave (km/s) = 3.31302 2.85764 3.09372
# Velocity P-wave (km/s) = 5.44867 2.38332 4.20525
#
# Compressibility (1/GPa) = 0.03404337
#
# Stress axis : x y z
#
# Youngs Moduli (GPa) = 20.55901 966.31123 163.18451
#
# Poissons Ratio (x) = -7.23061 0.12494
# Poissons Ratio (y) = -0.15384 2.87156
# Poissons Ratio (z) = 0.01574 17.00421
#
# Static dielectric constant tensor:
#      x y z
#    x 1.674440 0.000000 0.000000 
#    y 0.000000 1.667350 0.000000 
#    z 0.000000 0.000000 1.690710 
# 
# From -- ./inp_files/16683.got.cif
#   From: 2010.05.17/outbox.cif.g08.bks.cpg/sg36_9_cif.got.tgz:16683.got - 2010.06.03 17:41:39.
