data_PCOD9351462
_publ_section_title
;
Structure prediction by ZEFSAII (Michael W. Deem and Ramdas Pophale) SiO2 
 PCOD9351462
Probable space group: C M C 21
;
_chemical_formula_sum "Si O2"
_cell_formula_units_Z 64
_cell_length_a 7.272654
_cell_length_b 31.527686
_cell_length_c 12.547896
_cell_angle_alpha 90.000000
_cell_angle_beta 90.000000
_cell_angle_gamma 90.000000
_cell_volume 2877.106468
_symmetry_space_group_name_H-M "C M C 21"
_symmetry_group_IT_number 36
_symmetry_cell_setting 'orthorhombic'
loop_
_space_group_symop_operation_xyz
x,y,z
-x,-y,1/2+z
x,-y,1/2+z
-x,y,z
1/2+x,1/2+y,z
1/2-x,1/2-y,1/2+z
1/2+x,1/2-y,1/2+z
1/2-x,1/2+y,z
loop_
_atom_site_type_symbol
_atom_site_label
_atom_site_fract_x
_atom_site_fract_y
_atom_site_fract_z
Si Si1 0.275888 0.456965 0.979500
Si Si2 0.775992 0.125101 0.861807
Si Si3 0.724415 0.374243 0.115017
Si Si4 0.721772 0.291234 0.981938
Si Si5 0.723379 0.326014 0.763113
Si Si6 0.222558 0.078287 0.260126
Si Si7 0.775913 0.052220 0.025800
Si Si8 0.213768 0.805844 0.529447
O O1 0.500000 0.456337 0.981698
O O2 0.217744 0.451006 0.856982
O O3 0.218454 0.416824 0.051545
O O4 0.218326 0.503491 0.015926
O O5 0.716769 0.125183 0.738684
O O6 0.000000 0.125039 0.857470
O O7 0.720199 0.083751 0.930514
O O8 0.715163 0.166313 0.930401
O O9 0.500000 0.374235 0.113459
O O10 0.782357 0.330978 0.054676
O O11 0.500000 0.292771 0.982910
O O12 0.775074 0.244434 0.017348
O O13 0.785324 0.297233 0.860327
O O14 0.500000 0.322891 0.760334
O O15 0.770228 0.374037 0.791410
O O16 0.792820 0.316781 0.645099
O O17 0.285219 0.068908 0.141023
O O18 0.000000 0.075878 0.256405
O O19 0.000000 0.052889 0.024744
O O20 0.000000 0.818452 0.535169
#
# Coordination Sequence:
#
# PCOD9351462 Si02
#       8
#     8   8   8   8   8   8   8   8
#     4   9  16  23  35  56  82 115 150 181 216 265
#     4   9  17  28  40  58  87 119 148 182 226 272
#     4   9  17  28  40  58  87 119 148 182 226 272
#     4  10  20  33  49  68  91 122 157 191 230 273
#     4   9  16  30  47  62  85 121 159 189 223 272
#     4   9  14  24  38  52  77 115 153 181 213 264
#     4   9  16  23  35  56  82 115 150 181 216 265
#     4  10  20  33  49  68  91 122 157 191 230 273
#
# _framework density 22.24457
#
# number of rings (size 3 to 8) (size 9 to 14) (size 15 to 20)
#    0.000    2.750    2.500    0.000    3.500    0.000 
#    0.000    0.000    0.000    0.000    0.000    0.000 
#    0.000    1.000    0.000    1.500    0.000    1.000 
#
# Total GULP energy -178673.105758 kJ/mol
# GULP energy per Si atom -5583.534555 kJ/mol
# Density = 2.219394 g / cm^3
# Si number density = 22.244570 Si / 1000 Ang^3
#
#
#
# Elastic Constant Matrix: (Units=GPa)
#
#
# Indices 1 2 3 4 5 6 
#
# 1 94.6501 -9.8548 0.6462 0.0000 0.0000 0.0000
# 2 -9.8548 109.9234 42.5308 0.0000 0.0000 0.0000
# 3 0.6462 42.5308 145.5993 0.0000 0.0000 0.0000
# 4 0.0000 0.0000 0.0000 38.9802 0.0000 0.0000
# 5 0.0000 0.0000 0.0000 0.0000 15.6979 0.0000
# 6 0.0000 0.0000 0.0000 0.0000 0.0000 -2.6183
#
#
#
# Elastic Compliance Matrix: (Units=1/GPa)
#
#
# Indices 1 2 3 4 5 6 
#
# 1 0.010682 0.001100 -0.000369 0.000000 0.000000 0.000000
# 2 0.001100 0.010370 -0.003034 0.000000 0.000000 0.000000
# 3 -0.000369 -0.003034 0.007756 0.000000 0.000000 0.000000
# 4 0.000000 0.000000 0.000000 0.025654 0.000000 0.000000
# 5 0.000000 0.000000 0.000000 0.000000 0.063703 0.000000
# 6 0.000000 0.000000 0.000000 0.000000 0.000000 -0.381930
#
#
# Mechanical properties :
#
#
# Convention : Reuss Voigt Hill
#
# Bulk Modulus (GPa) = 41.31672 46.31304 43.81488
# Shear Modulus (GPa) = -19.91299 31.53533 5.81117
#
# Velocity S-wave (km/s) = -2.99521 3.76927 1.61805
# Velocity P-wave (km/s) = 2.57924 6.30939 4.81979
#
# Compressibility (1/GPa) = 0.02420328
#
# Stress axis : x y z
#
# Youngs Moduli (GPa) = 93.61263 96.43407 128.93158
#
# Poissons Ratio (x) = -0.10612 0.04756
# Poissons Ratio (y) = -0.10301 0.39118
# Poissons Ratio (z) = 0.03453 0.29258
#
# Static dielectric constant tensor:
#      x y z
#    x 1.396110 0.000000 0.000000 
#    y 0.000000 1.758970 0.000000 
#    z 0.000000 0.000000 1.774290 
# 
# From -- ./inp_files/8073.got.cif
#   From: 2010.05.17/outbox.cif.g08.bks.cpg/sg36_5_cif.got.tgz:8073.got - 2010.06.03 17:41:39.
