data_PCOD9351874
_publ_section_title
;
Structure prediction by ZEFSAII (Michael W. Deem and Ramdas Pophale) SiO2 
 PCOD9351874
Probable space group: C M C 21
;
_chemical_formula_sum "Si O2"
_cell_formula_units_Z 52
_cell_length_a 17.525096
_cell_length_b 8.336733
_cell_length_c 14.143938
_cell_angle_alpha 90.000000
_cell_angle_beta 90.000000
_cell_angle_gamma 90.000000
_cell_volume 2066.458282
_symmetry_space_group_name_H-M "C M C 21"
_symmetry_group_IT_number 36
_symmetry_cell_setting 'orthorhombic'
loop_
_space_group_symop_operation_xyz
x,y,z
-x,-y,1/2+z
x,-y,1/2+z
-x,y,z
1/2+x,1/2+y,z
1/2-x,1/2-y,1/2+z
1/2+x,1/2-y,1/2+z
1/2-x,1/2+y,z
loop_
_atom_site_type_symbol
_atom_site_label
_atom_site_fract_x
_atom_site_fract_y
_atom_site_fract_z
Si Si1 0.585112 0.017063 0.745520
Si Si2 0.729900 0.140312 0.814341
Si Si3 0.275378 0.566331 0.596669
Si Si4 0.084114 0.122603 0.156999
Si Si5 0.865300 0.959625 0.853611
Si Si6 0.500000 0.723438 0.453725
Si Si7 0.864623 0.623817 0.055602
O O1 0.500000 0.999653 0.786060
O O2 0.655622 0.023352 0.817422
O O3 0.601105 0.892461 0.661889
O O4 0.584732 0.193327 0.693691
O O5 0.755040 0.115876 0.704738
O O6 0.805557 0.100917 0.873524
O O7 0.693983 0.312854 0.833730
O O8 0.340380 0.427735 0.600670
O O9 0.197275 0.515528 0.547451
O O10 0.314184 0.717462 0.550701
O O11 0.092287 0.018245 0.252796
O O12 0.000000 0.090149 0.114040
O O13 0.932144 0.902875 0.921387
O O14 0.566085 0.852137 0.486608
#
# Coordination Sequence:
#
# PCOD9351874 Si02
#       7
#     8   8   8   8   8   4   8
#     4   9  16  31  57  91 117 137 179 235 293 328
#     4   9  18  34  64  86 109 137 183 243 285 326
#     4  10  20  36  62  89 112 138 187 240 297 323
#     4   9  17  32  62  94 115 136 181 246 292 327
#     4  10  20  38  57  84 113 151 186 224 281 335
#     4  12  26  38  56  76 118 160 192 218 268 344
#     4  11  22  38  56  85 116 153 184 229 280 343
#
# _framework density 25.163827000000001
#
# number of rings (size 3 to 8) (size 9 to 14) (size 15 to 20)
#    0.000    2.154    1.538    4.615    2.154    1.231 
#    0.000    0.000    1.692    1.846    0.000    0.000 
#    0.000    0.000    0.000    0.000    0.000    0.000 
#
# Total GULP energy -144776.167095 kJ/mol
# GULP energy per Si atom -5568.314119 kJ/mol
# Density = 2.510655 g / cm^3
# Si number density = 25.163827 Si / 1000 Ang^3
#
#
#
# Elastic Constant Matrix: (Units=GPa)
#
#
# Indices 1 2 3 4 5 6 
#
# 1 220.8171 56.5980 28.3320 0.0000 0.0000 0.0000
# 2 56.5980 57.8137 2.9005 0.0000 0.0000 0.0000
# 3 28.3320 2.9005 55.2174 0.0000 0.0000 0.0000
# 4 0.0000 0.0000 0.0000 8.3077 0.0000 0.0000
# 5 0.0000 0.0000 0.0000 0.0000 48.1625 0.0000
# 6 0.0000 0.0000 0.0000 0.0000 0.0000 35.1476
#
#
#
# Elastic Compliance Matrix: (Units=1/GPa)
#
#
# Indices 1 2 3 4 5 6 
#
# 1 0.006510 -0.006222 -0.003013 0.000000 0.000000 0.000000
# 2 -0.006222 0.023289 0.001969 0.000000 0.000000 0.000000
# 3 -0.003013 0.001969 0.019553 0.000000 0.000000 0.000000
# 4 0.000000 0.000000 0.000000 0.120371 0.000000 0.000000
# 5 0.000000 0.000000 0.000000 0.000000 0.020763 0.000000
# 6 0.000000 0.000000 0.000000 0.000000 0.000000 0.028451
#
#
# Mechanical properties :
#
#
# Convention : Reuss Voigt Hill
#
# Bulk Modulus (GPa) = 28.71933 56.61213 42.66573
# Shear Modulus (GPa) = 20.40177 34.72474 27.56325
#
# Velocity S-wave (km/s) = 2.85047 3.71879 3.31320
# Velocity P-wave (km/s) = 4.71925 6.40199 5.62391
#
# Compressibility (1/GPa) = 0.03481975
#
# Stress axis : x y z
#
# Youngs Moduli (GPa) = 153.60878 42.93817 51.14305
#
# Poissons Ratio (x) = 0.26716 0.15412
# Poissons Ratio (y) = 0.95575 -0.10071
# Poissons Ratio (z) = 0.46290 -0.08455
#
# Static dielectric constant tensor:
#      x y z
#    x 1.962750 0.000000 0.000000 
#    y 0.000000 2.046580 0.000000 
#    z 0.000000 0.000000 2.122940 
# 
# From -- ./inp_files/14842.got.cif
#   From: 2010.05.17/outbox.cif.g08.bks.cpg/sg36_8_cif.got.tgz:14842.got - 2010.06.03 17:41:39.
