data_PCOD9351085
_publ_section_title
;
Structure prediction by ZEFSAII (Michael W. Deem and Ramdas Pophale) SiO2 
 PCOD9351085
Probable space group: C M C 21
;
_chemical_formula_sum "Si O2"
_cell_formula_units_Z 48
_cell_length_a 18.473198
_cell_length_b 27.627808
_cell_length_c 5.205419
_cell_angle_alpha 90.000000
_cell_angle_beta 90.000000
_cell_angle_gamma 90.000000
_cell_volume 2656.710347
_symmetry_space_group_name_H-M "C M C 21"
_symmetry_group_IT_number 36
_symmetry_cell_setting 'orthorhombic'
loop_
_space_group_symop_operation_xyz
x,y,z
-x,-y,1/2+z
x,-y,1/2+z
-x,y,z
1/2+x,1/2+y,z
1/2-x,1/2-y,1/2+z
1/2+x,1/2-y,1/2+z
1/2-x,1/2+y,z
loop_
_atom_site_type_symbol
_atom_site_label
_atom_site_fract_x
_atom_site_fract_y
_atom_site_fract_z
Si Si1 0.280276 0.029657 0.144880
Si Si2 0.000000 0.107552 0.962901
Si Si3 0.782106 0.357128 0.695004
Si Si4 0.893765 0.027163 0.138825
Si Si5 0.000000 0.833390 0.962229
Si Si6 0.800357 0.298829 0.177077
Si Si7 0.656719 0.702451 0.401304
O O1 0.298234 0.086067 0.182994
O O2 0.192622 0.030098 0.135513
O O3 0.304002 0.995724 0.380940
O O4 0.068954 0.075216 0.037029
O O5 0.000000 0.151460 0.163365
O O6 0.000000 0.123261 0.668646
O O7 0.801691 0.331837 0.428616
O O8 0.697443 0.343153 0.762354
O O9 0.822144 0.330133 0.929622
O O10 0.915202 0.013270 0.427793
O O11 0.076974 0.807493 0.001451
O O12 0.842309 0.249172 0.219150
O O13 0.715882 0.285383 0.121893
#
# Coordination Sequence:
#
# PCOD9351085 Si02
#       7
#     8   4   8   8   4   8   8
#     4  10  20  31  46  72 100 128 170 223 263 295
#     4  12  24  37  44  72  98 142 174 235 260 322
#     4  10  19  33  56  74  97 142 177 217 256 327
#     4  10  20  33  50  61  91 139 186 223 260 303
#     4  12  28  31  56  76 114 124 174 233 286 292
#     4  10  20  34  61  70 102 131 191 205 264 334
#     4  10  22  38  54  83  98 143 174 230 262 330
#
# _framework density 18.067457000000001
#
# number of rings (size 3 to 8) (size 9 to 14) (size 15 to 20)
#    1.000    0.667    1.667    3.500    4.667    1.333 
#    0.000    0.000    0.000    0.000    0.000    0.000 
#    0.000    0.000    0.000   15.000    0.000    0.000 
#
# Total GULP energy -133733.881736 kJ/mol
# GULP energy per Si atom -5572.245072 kJ/mol
# Density = 1.802633 g / cm^3
# Si number density = 18.067457 Si / 1000 Ang^3
#
#
#
# Elastic Constant Matrix: (Units=GPa)
#
#
# Indices 1 2 3 4 5 6 
#
# 1 16.5740 5.3459 -5.8672 0.0000 0.0000 0.0000
# 2 5.3459 113.2027 37.1554 0.0000 0.0000 0.0000
# 3 -5.8672 37.1554 106.1546 0.0000 0.0000 0.0000
# 4 0.0000 0.0000 0.0000 38.3052 0.0000 0.0000
# 5 0.0000 0.0000 0.0000 0.0000 6.6644 0.0000
# 6 0.0000 0.0000 0.0000 0.0000 0.0000 47.6908
#
#
#
# Elastic Compliance Matrix: (Units=1/GPa)
#
#
# Indices 1 2 3 4 5 6 
#
# 1 0.063681 -0.004703 0.005166 0.000000 0.000000 0.000000
# 2 -0.004703 0.010328 -0.003875 0.000000 0.000000 0.000000
# 3 0.005166 -0.003875 0.011062 0.000000 0.000000 0.000000
# 4 0.000000 0.000000 0.000000 0.026106 0.000000 0.000000
# 5 0.000000 0.000000 0.000000 0.000000 0.150052 0.000000
# 6 0.000000 0.000000 0.000000 0.000000 0.000000 0.020968
#
#
# Mechanical properties :
#
#
# Convention : Reuss Voigt Hill
#
# Bulk Modulus (GPa) = 12.78009 34.35552 23.56780
# Shear Modulus (GPa) = 15.86785 31.81853 23.84319
#
# Velocity S-wave (km/s) = 2.96675 4.20109 3.63668
# Velocity P-wave (km/s) = 4.33871 6.52600 5.54135
#
# Compressibility (1/GPa) = 0.07824673
#
# Stress axis : x y z
#
# Youngs Moduli (GPa) = 15.70331 96.82835 90.40024
#
# Poissons Ratio (x) = 0.45536 -0.46698
# Poissons Ratio (y) = 0.07385 0.35027
# Poissons Ratio (z) = -0.08112 0.37518
#
# Static dielectric constant tensor:
#      x y z
#    x 1.613560 0.000000 0.000000 
#    y 0.000000 1.640610 0.000000 
#    z 0.000000 0.000000 1.646110 
# 
# From -- ./inp_files/1132.got.cif
#   From: 2010.05.17/outbox.cif.g08.bks.cpg/sg36_1_cif.got.tgz:1132.got - 2010.06.03 17:41:39.
