data_PCOD9351984
_publ_section_title
;
Structure prediction by ZEFSAII (Michael W. Deem and Ramdas Pophale) SiO2 
 PCOD9351984
Probable space group: C M C 21
;
_chemical_formula_sum "Si O2"
_cell_formula_units_Z 36
_cell_length_a 9.668236
_cell_length_b 20.816290
_cell_length_c 7.843509
_cell_angle_alpha 90.000000
_cell_angle_beta 90.000000
_cell_angle_gamma 90.000000
_cell_volume 1578.559556
_symmetry_space_group_name_H-M "C M C 21"
_symmetry_group_IT_number 36
_symmetry_cell_setting 'orthorhombic'
loop_
_space_group_symop_operation_xyz
x,y,z
-x,-y,1/2+z
x,-y,1/2+z
-x,y,z
1/2+x,1/2+y,z
1/2-x,1/2-y,1/2+z
1/2+x,1/2-y,1/2+z
1/2-x,1/2+y,z
loop_
_atom_site_type_symbol
_atom_site_label
_atom_site_fract_x
_atom_site_fract_y
_atom_site_fract_z
Si Si1 0.500000 0.087493 0.811460
Si Si2 0.000000 0.033579 0.544243
Si Si3 0.772645 0.345130 0.794826
Si Si4 0.500000 0.941335 0.710477
Si Si5 0.000000 0.234337 0.771343
Si Si6 0.000000 0.102092 0.172892
Si Si7 0.788194 0.868535 0.174152
O O1 0.362607 0.122700 0.749675
O O2 0.500000 0.017026 0.729242
O O3 0.500000 0.079021 0.013733
O O4 0.866251 0.063826 0.639105
O O5 0.000000 0.064064 0.355602
O O6 0.000000 0.956876 0.542161
O O7 0.878363 0.289426 0.748488
O O8 0.638622 0.355623 0.677590
O O9 0.863718 0.410376 0.794204
O O10 0.720236 0.335574 0.987501
O O11 0.881548 0.177924 0.784370
#
# Coordination Sequence:
#
# PCOD9351984 Si02
#       7
#     4   4   8   4   4   4   8
#     4  12  23  39  64  95 126 164 208 252 315 378
#     4   9  20  37  60  93 125 155 198 250 309 368
#     4  10  22  42  64  90 125 166 207 255 313 368
#     4  11  24  40  62  95 131 159 202 258 313 381
#     4  10  23  41  62  90 124 160 212 264 306 361
#     4  10  20  37  64  91 122 162 202 250 309 374
#     4  10  22  41  64  89 125 167 206 256 311 369
#
# _framework density 22.805602
#
# number of rings (size 3 to 8) (size 9 to 14) (size 15 to 20)
#    0.000    1.778    0.000    4.667    0.000    9.778 
#    0.000    5.556    0.000    0.000    0.000    0.000 
#    0.000    0.000    0.000    0.000    0.000    0.000 
#
# Total GULP energy -100218.204343 kJ/mol
# GULP energy per Si atom -5567.678019 kJ/mol
# Density = 2.275370 g / cm^3
# Si number density = 22.805602 Si / 1000 Ang^3
#
#
#
# Elastic Constant Matrix: (Units=GPa)
#
#
# Indices 1 2 3 4 5 6 
#
# 1 151.0712 23.3876 14.1622 0.0000 0.0000 0.0000
# 2 23.3876 76.5272 5.1341 0.0000 0.0000 0.0000
# 3 14.1622 5.1341 69.6948 0.0000 0.0000 0.0000
# 4 0.0000 0.0000 0.0000 1.9463 0.0000 0.0000
# 5 0.0000 0.0000 0.0000 0.0000 9.1418 0.0000
# 6 0.0000 0.0000 0.0000 0.0000 0.0000 -171.5988
#
#
#
# Elastic Compliance Matrix: (Units=1/GPa)
#
#
# Indices 1 2 3 4 5 6 
#
# 1 0.007060 -0.002072 -0.001282 0.000000 0.000000 0.000000
# 2 -0.002072 0.013740 -0.000591 0.000000 0.000000 0.000000
# 3 -0.001282 -0.000591 0.014652 0.000000 0.000000 0.000000
# 4 0.000000 0.000000 0.000000 0.513797 0.000000 0.000000
# 5 0.000000 0.000000 0.000000 0.000000 0.109388 0.000000
# 6 0.000000 0.000000 0.000000 0.000000 0.000000 -0.005828
#
#
# Mechanical properties :
#
#
# Convention : Reuss Voigt Hill
#
# Bulk Modulus (GPa) = 36.28082 42.51790 39.39936
# Shear Modulus (GPa) = 7.46394 -15.12818 -3.83212
#
# Velocity S-wave (km/s) = 1.81107 -2.57836 -1.29769
# Velocity P-wave (km/s) = 4.50739 3.13372 3.88180
#
# Compressibility (1/GPa) = 0.02756277
#
# Stress axis : x y z
#
# Youngs Moduli (GPa) = 141.63690 72.77994 68.24852
#
# Poissons Ratio (x) = 0.15078 0.08750
# Poissons Ratio (y) = 0.29343 0.04035
# Poissons Ratio (z) = 0.18159 0.04303
#
# Static dielectric constant tensor:
#      x y z
#    x 1.731360 0.000000 0.000000 
#    y 0.000000 1.788410 0.000000 
#    z 0.000000 0.000000 1.951520 
# 
# From -- ./inp_files/2378.got.cif
#   From: 2010.05.17/outbox.cif.g08.bks.cpg/sg36_2_cif.got.tgz:2378.got - 2010.06.03 17:41:39.
