data_PCOD9351202
_publ_section_title
;
Structure prediction by ZEFSAII (Michael W. Deem and Ramdas Pophale) SiO2 
 PCOD9351202
Probable space group: C M C 21
;
_chemical_formula_sum "Si O2"
_cell_formula_units_Z 64
_cell_length_a 8.885116
_cell_length_b 15.057471
_cell_length_c 23.553326
_cell_angle_alpha 90.000000
_cell_angle_beta 90.000000
_cell_angle_gamma 90.000000
_cell_volume 3151.137693
_symmetry_space_group_name_H-M "C M C 21"
_symmetry_group_IT_number 36
_symmetry_cell_setting 'orthorhombic'
loop_
_space_group_symop_operation_xyz
x,y,z
-x,-y,1/2+z
x,-y,1/2+z
-x,y,z
1/2+x,1/2+y,z
1/2-x,1/2-y,1/2+z
1/2+x,1/2-y,1/2+z
1/2-x,1/2+y,z
loop_
_atom_site_type_symbol
_atom_site_label
_atom_site_fract_x
_atom_site_fract_y
_atom_site_fract_z
Si Si1 0.673185 0.235188 0.920220
Si Si2 0.181607 0.153049 0.246775
Si Si3 0.181241 0.799852 0.538208
Si Si4 0.816867 0.994749 0.833550
Si Si5 0.173758 0.056479 0.453342
Si Si6 0.680855 0.554346 0.131748
Si Si7 0.679334 0.685221 0.801461
Si Si8 0.678729 0.899795 0.069790
O O1 0.500000 0.208082 0.911663
O O2 0.673047 0.341141 0.932198
O O3 0.767185 0.215514 0.863992
O O4 0.743262 0.192368 0.976732
O O5 0.227669 0.101730 0.189994
O O6 0.247067 0.250453 0.255508
O O7 0.000000 0.158457 0.247239
O O8 0.230963 0.092812 0.300181
O O9 0.221963 0.878685 0.580686
O O10 0.224612 0.703835 0.564966
O O11 0.000000 0.799162 0.531121
O O12 0.774991 0.082140 0.798784
O O13 0.000000 0.992011 0.836592
O O14 0.766528 0.997327 0.899003
O O15 0.268209 0.055784 0.510550
O O16 0.000000 0.030588 0.465938
O O17 0.500000 0.546488 0.132732
O O18 0.748804 0.458103 0.119345
O O19 0.500000 0.691003 0.797488
O O20 0.500000 0.902643 0.074487
#
# Coordination Sequence:
#
# PCOD9351202 Si02
#       8
#     8   8   8   8   8   8   8   8
#     4  10  19  34  58  85 114 150 189 233 278 335
#     4  10  21  42  62  80 111 153 199 237 273 336
#     4   9  20  38  56  82 117 152 185 229 289 341
#     4   9  19  36  57  81 111 149 186 229 282 339
#     4   9  17  34  58  80 111 151 187 225 277 339
#     4  10  22  39  62  83 109 155 199 231 278 343
#     4  11  22  35  56  86 115 147 184 234 293 339
#     4  10  21  36  55  83 118 147 183 236 284 332
#
# _framework density 20.310123999999998
#
# number of rings (size 3 to 8) (size 9 to 14) (size 15 to 20)
#    0.000    2.250    1.250    1.125    1.750    3.000 
#    0.000    1.875    0.000    0.000    0.000    0.000 
#    0.000    0.000    0.000    0.000    0.000    0.000 
#
# Total GULP energy -178718.234125 kJ/mol
# GULP energy per Si atom -5584.944816 kJ/mol
# Density = 2.026390 g / cm^3
# Si number density = 20.310124 Si / 1000 Ang^3
#
#
#
# Elastic Constant Matrix: (Units=GPa)
#
#
# Indices 1 2 3 4 5 6 
#
# 1 15.9688 8.2873 -0.6570 0.0000 0.0000 0.0000
# 2 8.2873 56.0744 -8.5387 0.0000 0.0000 0.0000
# 3 -0.6570 -8.5387 19.0327 0.0000 0.0000 0.0000
# 4 0.0000 0.0000 0.0000 27.0018 0.0000 0.0000
# 5 0.0000 0.0000 0.0000 0.0000 25.2003 0.0000
# 6 0.0000 0.0000 0.0000 0.0000 0.0000 18.3532
#
#
#
# Elastic Compliance Matrix: (Units=1/GPa)
#
#
# Indices 1 2 3 4 5 6 
#
# 1 0.067919 -0.010391 -0.002317 0.000000 0.000000 0.000000
# 2 -0.010391 0.020731 0.008942 0.000000 0.000000 0.000000
# 3 -0.002317 0.008942 0.056473 0.000000 0.000000 0.000000
# 4 0.000000 0.000000 0.000000 0.037035 0.000000 0.000000
# 5 0.000000 0.000000 0.000000 0.000000 0.039682 0.000000
# 6 0.000000 0.000000 0.000000 0.000000 0.000000 0.054486
#
#
# Mechanical properties :
#
#
# Convention : Reuss Voigt Hill
#
# Bulk Modulus (GPa) = 7.26795 9.91770 8.59282
# Shear Modulus (GPa) = 15.16430 20.24334 17.70382
#
# Velocity S-wave (km/s) = 2.73543 3.16050 2.95562
# Velocity P-wave (km/s) = 3.68280 4.26756 3.98592
#
# Compressibility (1/GPa) = 0.13759032
#
# Stress axis : x y z
#
# Youngs Moduli (GPa) = 14.72334 48.23751 17.70766
#
# Poissons Ratio (x) = 0.50123 0.04103
# Poissons Ratio (y) = 0.15299 -0.15834
# Poissons Ratio (z) = 0.03412 -0.43133
#
# Static dielectric constant tensor:
#      x y z
#    x 1.685150 0.000000 0.000000 
#    y 0.000000 1.747560 0.000000 
#    z 0.000000 0.000000 1.714090 
# 
# From -- ./inp_files/16545.got.cif
#   From: 2010.05.17/outbox.cif.g08.bks.cpg/sg36_9_cif.got.tgz:16545.got - 2010.06.03 17:41:39.
