data_PCOD9351284
_publ_section_title
;
Structure prediction by ZEFSAII (Michael W. Deem and Ramdas Pophale) SiO2 
 PCOD9351284
Probable space group: C M C 21
;
_chemical_formula_sum "Si O2"
_cell_formula_units_Z 36
_cell_length_a 21.477862
_cell_length_b 16.408328
_cell_length_c 5.210980
_cell_angle_alpha 90.000000
_cell_angle_beta 90.000000
_cell_angle_gamma 90.000000
_cell_volume 1836.431709
_symmetry_space_group_name_H-M "C M C 21"
_symmetry_group_IT_number 36
_symmetry_cell_setting 'orthorhombic'
loop_
_space_group_symop_operation_xyz
x,y,z
-x,-y,1/2+z
x,-y,1/2+z
-x,y,z
1/2+x,1/2+y,z
1/2-x,1/2-y,1/2+z
1/2+x,1/2-y,1/2+z
1/2-x,1/2+y,z
loop_
_atom_site_type_symbol
_atom_site_label
_atom_site_fract_x
_atom_site_fract_y
_atom_site_fract_z
Si Si1 0.429221 0.031853 0.522870
Si Si2 0.612384 0.684791 0.630165
Si Si3 0.000000 0.943071 0.141674
Si Si4 0.749413 0.302227 0.207787
Si Si5 0.886452 0.298120 0.130339
O O1 0.500000 0.002519 0.476681
O O2 0.429901 0.124077 0.616971
O O3 0.398928 0.022733 0.244001
O O4 0.560796 0.614938 0.636328
O O5 0.684258 0.653729 0.648651
O O6 0.605220 0.739301 0.374024
O O7 0.605796 0.744163 0.875550
O O8 0.000000 0.997940 0.396235
O O9 0.751107 0.273596 0.504269
O O10 0.817033 0.337502 0.146764
#
# Coordination Sequence:
#
# PCOD9351284 Si02
#       5
#     8   8   4   8   8
#     4  10  21  34  48  75 115 143 164 210 265 308
#     4  10  21  36  59  81 105 144 187 228 278 321
#     4  12  26  42  56  82 120 148 186 240 288 340
#     4   8  16  32  53  81 106 132 176 239 273 307
#     4  10  19  35  60  82 106 140 194 225 262 332
#
# _framework density 19.603232999999999
#
# number of rings (size 3 to 8) (size 9 to 14) (size 15 to 20)
#    0.000    2.222    0.000    2.667    3.111    0.000 
#    0.000    2.222    0.000    0.000    0.000    0.000 
#    0.000    0.000    0.000    0.000    0.000    0.000 
#
# Total GULP energy -100245.869725 kJ/mol
# GULP energy per Si atom -5569.214985 kJ/mol
# Density = 1.955861 g / cm^3
# Si number density = 19.603233 Si / 1000 Ang^3
#
#
#
# Elastic Constant Matrix: (Units=GPa)
#
#
# Indices 1 2 3 4 5 6 
#
# 1 122.1194 49.3879 18.0511 0.0000 0.0000 0.0000
# 2 49.3879 63.7333 25.4681 0.0000 0.0000 0.0000
# 3 18.0511 25.4681 126.1265 0.0000 0.0000 0.0000
# 4 0.0000 0.0000 0.0000 28.8580 0.0000 0.0000
# 5 0.0000 0.0000 0.0000 0.0000 15.4758 0.0000
# 6 0.0000 0.0000 0.0000 0.0000 0.0000 -9.7759
#
#
#
# Elastic Compliance Matrix: (Units=1/GPa)
#
#
# Indices 1 2 3 4 5 6 
#
# 1 0.011930 -0.009314 0.000173 0.000000 0.000000 0.000000
# 2 -0.009314 0.024339 -0.003582 0.000000 0.000000 0.000000
# 3 0.000173 -0.003582 0.008627 0.000000 0.000000 0.000000
# 4 0.000000 0.000000 0.000000 0.034652 0.000000 0.000000
# 5 0.000000 0.000000 0.000000 0.000000 0.064617 0.000000
# 6 0.000000 0.000000 0.000000 0.000000 0.000000 -0.102292
#
#
# Mechanical properties :
#
#
# Convention : Reuss Voigt Hill
#
# Bulk Modulus (GPa) = 51.41010 55.31039 53.36024
# Shear Modulus (GPa) = 67.74932 21.51639 44.63286
#
# Velocity S-wave (km/s) = 5.88518 3.31659 4.77677
# Velocity P-wave (km/s) = 8.51250 6.55306 7.59622
#
# Compressibility (1/GPa) = 0.01945143
#
# Stress axis : x y z
#
# Youngs Moduli (GPa) = 83.82357 41.08620 115.91550
#
# Poissons Ratio (x) = 0.38267 -0.02009
# Poissons Ratio (y) = 0.78072 0.41517
# Poissons Ratio (z) = -0.01453 0.14716
#
# Static dielectric constant tensor:
#      x y z
#    x 1.767500 0.000000 0.000000 
#    y 0.000000 1.620270 0.000000 
#    z 0.000000 0.000000 1.736480 
# 
# From -- ./inp_files/1280.got.cif
#   From: 2010.05.17/outbox.cif.g08.bks.cpg/sg36_1_cif.got.tgz:1280.got - 2010.06.03 17:41:39.
