data_PCOD9351785
_publ_section_title
;
Structure prediction by ZEFSAII (Michael W. Deem and Ramdas Pophale) SiO2 
 PCOD9351785
Probable space group: C M C 21
;
_chemical_formula_sum "Si O2"
_cell_formula_units_Z 48
_cell_length_a 7.961778
_cell_length_b 28.869495
_cell_length_c 8.142624
_cell_angle_alpha 90.000000
_cell_angle_beta 90.000000
_cell_angle_gamma 90.000000
_cell_volume 1871.602566
_symmetry_space_group_name_H-M "C M C 21"
_symmetry_group_IT_number 36
_symmetry_cell_setting 'orthorhombic'
loop_
_space_group_symop_operation_xyz
x,y,z
-x,-y,1/2+z
x,-y,1/2+z
-x,y,z
1/2+x,1/2+y,z
1/2-x,1/2-y,1/2+z
1/2+x,1/2-y,1/2+z
1/2-x,1/2+y,z
loop_
_atom_site_type_symbol
_atom_site_label
_atom_site_fract_x
_atom_site_fract_y
_atom_site_fract_z
Si Si1 0.692333 0.408366 0.323650
Si Si2 0.200530 0.179793 0.670366
Si Si3 0.190218 0.070081 0.344056
Si Si4 0.703366 0.231711 0.341056
Si Si5 0.694578 0.149065 0.125857
Si Si6 0.691220 0.013093 0.044559
O O1 0.500000 0.422075 0.289467
O O2 0.764555 0.372648 0.189043
O O3 0.697606 0.374536 0.483996
O O4 0.791105 0.453181 0.385637
O O5 0.232814 0.205607 0.500666
O O6 0.265481 0.216413 0.806229
O O7 0.000000 0.175461 0.691096
O O8 0.291735 0.114479 0.282514
O O9 0.000000 0.084441 0.378473
O O10 0.258292 0.038087 0.489872
O O11 0.195780 0.036015 0.184720
O O12 0.500000 0.232267 0.346515
O O13 0.751847 0.198996 0.187540
O O14 0.500000 0.150047 0.074171
O O15 0.500000 0.015258 0.102300
#
# Coordination Sequence:
#
# PCOD9351785 Si02
#       6
#     8   8   8   8   8   8
#     4  10  20  36  57  82 112 146 187 231 278 331
#     4  10  22  38  57  83 113 146 185 228 274 328
#     4  11  22  38  59  84 114 149 189 232 282 335
#     4  10  22  38  57  83 113 146 185 228 274 328
#     4  10  20  36  57  82 112 146 187 231 278 331
#     4  11  22  38  59  84 114 149 189 232 282 335
#
# _framework density 25.646473
#
# number of rings (size 3 to 8) (size 9 to 14) (size 15 to 20)
#    0.000    1.667    0.000    7.000    0.000    4.667 
#    0.000    3.333    0.000    0.000    0.000    0.000 
#    0.000    0.000    0.000    0.000    0.000    0.000 
#
# Total GULP energy -134408.517396 kJ/mol
# GULP energy per Si atom -5600.354891 kJ/mol
# Density = 2.558810 g / cm^3
# Si number density = 25.646473 Si / 1000 Ang^3
#
#
#
# Elastic Constant Matrix: (Units=GPa)
#
#
# Indices 1 2 3 4 5 6 
#
# 1 74.2658 4.6018 -6.2188 0.0000 0.0000 0.0000
# 2 4.6018 147.7734 12.6194 0.0000 0.0000 0.0000
# 3 -6.2188 12.6194 75.9647 0.0000 0.0000 0.0000
# 4 0.0000 0.0000 0.0000 53.6446 0.0000 0.0000
# 5 0.0000 0.0000 0.0000 0.0000 27.8973 0.0000
# 6 0.0000 0.0000 0.0000 0.0000 0.0000 19.8682
#
#
#
# Elastic Compliance Matrix: (Units=1/GPa)
#
#
# Indices 1 2 3 4 5 6 
#
# 1 0.013598 -0.000526 0.001201 0.000000 0.000000 0.000000
# 2 -0.000526 0.006885 -0.001187 0.000000 0.000000 0.000000
# 3 0.001201 -0.001187 0.013459 0.000000 0.000000 0.000000
# 4 0.000000 0.000000 0.000000 0.018641 0.000000 0.000000
# 5 0.000000 0.000000 0.000000 0.000000 0.035846 0.000000
# 6 0.000000 0.000000 0.000000 0.000000 0.000000 0.050332
#
#
# Mechanical properties :
#
#
# Convention : Reuss Voigt Hill
#
# Bulk Modulus (GPa) = 30.37834 35.55653 32.96744
# Shear Modulus (GPa) = 33.16567 39.41545 36.29056
#
# Velocity S-wave (km/s) = 3.59999 3.92455 3.76577
# Velocity P-wave (km/s) = 5.39914 5.86774 5.63831
#
# Compressibility (1/GPa) = 0.03291819
#
# Stress axis : x y z
#
# Youngs Moduli (GPa) = 73.53878 145.24656 74.29727
#
# Poissons Ratio (x) = 0.07640 -0.08920
# Poissons Ratio (y) = 0.03868 0.08817
# Poissons Ratio (z) = -0.08829 0.17238
#
# Static dielectric constant tensor:
#      x y z
#    x 1.878180 0.000000 0.000000 
#    y 0.000000 2.027890 0.000000 
#    z 0.000000 0.000000 2.135400 
# 
# From -- ./inp_files/2710.got.cif
#   From: 2010.05.17/outbox.cif.g08.bks.cpg/sg36_2_cif.got.tgz:2710.got - 2010.06.03 17:41:39.
