data_PCOD9351683
_publ_section_title
;
Structure prediction by ZEFSAII (Michael W. Deem and Ramdas Pophale) SiO2 
 PCOD9351683
Probable space group: C M C 21
;
_chemical_formula_sum "Si O2"
_cell_formula_units_Z 64
_cell_length_a 8.310148
_cell_length_b 29.780086
_cell_length_c 12.626123
_cell_angle_alpha 90.000000
_cell_angle_beta 90.000000
_cell_angle_gamma 90.000000
_cell_volume 3124.674058
_symmetry_space_group_name_H-M "C M C 21"
_symmetry_group_IT_number 36
_symmetry_cell_setting 'orthorhombic'
loop_
_space_group_symop_operation_xyz
x,y,z
-x,-y,1/2+z
x,-y,1/2+z
-x,y,z
1/2+x,1/2+y,z
1/2-x,1/2-y,1/2+z
1/2+x,1/2-y,1/2+z
1/2-x,1/2+y,z
loop_
_atom_site_type_symbol
_atom_site_label
_atom_site_fract_x
_atom_site_fract_y
_atom_site_fract_z
Si Si1 0.696970 0.224850 0.958250
Si Si2 0.312400 0.068699 0.824550
Si Si3 0.683375 0.418585 0.547702
Si Si4 0.815125 0.334146 0.646854
Si Si5 0.306017 0.167785 0.752343
Si Si6 0.308567 0.887390 0.848939
Si Si7 0.312080 0.477527 0.749765
Si Si8 0.691324 0.322243 0.017184
O O1 0.500000 0.222367 0.960735
O O2 0.748423 0.196558 0.855064
O O3 0.755957 0.203953 0.070340
O O4 0.743832 0.276849 0.956591
O O5 0.500000 0.073022 0.852371
O O6 0.264660 0.115333 0.769304
O O7 0.285338 0.023147 0.761225
O O8 0.210222 0.064323 0.930839
O O9 0.500000 0.402097 0.562171
O O10 0.803593 0.377970 0.571995
O O11 0.712065 0.456804 0.633638
O O12 0.744056 0.352880 0.757231
O O13 0.000000 0.321620 0.668842
O O14 0.500000 0.171573 0.746865
O O15 0.234958 0.182624 0.640337
O O16 0.500000 0.890986 0.834075
O O17 0.237209 0.936654 0.827713
O O18 0.270062 0.865167 0.961070
O O19 0.500000 0.487340 0.764873
O O20 0.500000 0.326419 0.006949
#
# Coordination Sequence:
#
# PCOD9351683 Si02
#       8
#     8   8   8   8   8   8   8   8
#     4   9  19  38  61  86 118 157 198 248 306 361
#     4  11  22  38  63  88 117 160 204 248 301 363
#     4  10  20  35  56  85 118 152 192 247 307 358
#     4   9  17  35  61  84 110 150 198 250 297 353
#     4  10  22  42  63  86 121 161 206 253 301 366
#     4  10  21  38  62  88 120 160 207 250 297 364
#     4  10  22  39  60  88 123 158 200 252 308 362
#     4  11  24  39  60  89 127 166 203 252 313 365
#
# _framework density 20.482135
#
# number of rings (size 3 to 8) (size 9 to 14) (size 15 to 20)
#    0.000    2.000    1.250    1.875    1.750    4.000 
#    0.000    4.375    0.000    0.000    0.000    0.000 
#    0.000    0.000    0.000    0.000    0.000    0.000 
#
# Total GULP energy -178579.855184 kJ/mol
# GULP energy per Si atom -5580.620474 kJ/mol
# Density = 2.043552 g / cm^3
# Si number density = 20.482135 Si / 1000 Ang^3
#
#
#
# Elastic Constant Matrix: (Units=GPa)
#
#
# Indices 1 2 3 4 5 6 
#
# 1 14.6278 10.5622 4.9124 0.0000 0.0000 0.0000
# 2 10.5622 97.0952 28.9121 0.0000 0.0000 0.0000
# 3 4.9124 28.9121 49.8346 0.0000 0.0000 0.0000
# 4 0.0000 0.0000 0.0000 13.9634 0.0000 0.0000
# 5 0.0000 0.0000 0.0000 0.0000 22.1632 0.0000
# 6 0.0000 0.0000 0.0000 0.0000 0.0000 15.5229
#
#
#
# Elastic Compliance Matrix: (Units=1/GPa)
#
#
# Indices 1 2 3 4 5 6 
#
# 1 0.074610 -0.007164 -0.003198 0.000000 0.000000 0.000000
# 2 -0.007164 0.013138 -0.006916 0.000000 0.000000 0.000000
# 3 -0.003198 -0.006916 0.024394 0.000000 0.000000 0.000000
# 4 0.000000 0.000000 0.000000 0.071616 0.000000 0.000000
# 5 0.000000 0.000000 0.000000 0.000000 0.045120 0.000000
# 6 0.000000 0.000000 0.000000 0.000000 0.000000 0.064421
#
#
# Mechanical properties :
#
#
# Convention : Reuss Voigt Hill
#
# Bulk Modulus (GPa) = 12.88901 27.81454 20.35177
# Shear Modulus (GPa) = 14.13563 18.14130 16.13846
#
# Velocity S-wave (km/s) = 2.62991 2.97932 2.81005
# Velocity P-wave (km/s) = 3.94060 5.04426 4.52620
#
# Compressibility (1/GPa) = 0.07758550
#
# Stress axis : x y z
#
# Youngs Moduli (GPa) = 13.40305 76.11616 40.99369
#
# Poissons Ratio (x) = 0.54528 0.13111
# Poissons Ratio (y) = 0.09602 0.28351
# Poissons Ratio (z) = 0.04287 0.52641
#
# Static dielectric constant tensor:
#      x y z
#    x 1.725290 0.000000 0.000000 
#    y 0.000000 1.718280 0.000000 
#    z 0.000000 0.000000 1.742480 
# 
# From -- ./inp_files/7275.got.cif
#   From: 2010.05.17/outbox.cif.g08.bks.cpg/sg36_4_cif.got.tgz:7275.got - 2010.06.03 17:41:39.
