data_PCOD9351244
_publ_section_title
;
Structure prediction by ZEFSAII (Michael W. Deem and Ramdas Pophale) SiO2 
 PCOD9351244
Probable space group: C M C 21
;
_chemical_formula_sum "Si O2"
_cell_formula_units_Z 64
_cell_length_a 7.904668
_cell_length_b 23.401048
_cell_length_c 16.688545
_cell_angle_alpha 90.000000
_cell_angle_beta 90.000000
_cell_angle_gamma 90.000000
_cell_volume 3087.005588
_symmetry_space_group_name_H-M "C M C 21"
_symmetry_group_IT_number 36
_symmetry_cell_setting 'orthorhombic'
loop_
_space_group_symop_operation_xyz
x,y,z
-x,-y,1/2+z
x,-y,1/2+z
-x,y,z
1/2+x,1/2+y,z
1/2-x,1/2-y,1/2+z
1/2+x,1/2-y,1/2+z
1/2-x,1/2+y,z
loop_
_atom_site_type_symbol
_atom_site_label
_atom_site_fract_x
_atom_site_fract_y
_atom_site_fract_z
Si Si1 0.704189 0.738988 0.572790
Si Si2 0.706599 0.528109 0.446469
Si Si3 0.691361 0.409895 0.401456
Si Si4 0.205315 0.108047 0.591869
Si Si5 0.692215 0.038095 0.742692
Si Si6 0.295948 0.579663 0.275490
Si Si7 0.704133 0.291215 0.745046
Si Si8 0.699047 0.781287 0.399489
O O1 0.500000 0.741175 0.569769
O O2 0.757004 0.673106 0.579341
O O3 0.753148 0.769601 0.655863
O O4 0.768275 0.762932 0.487084
O O5 0.500000 0.525506 0.445082
O O6 0.765390 0.462343 0.453314
O O7 0.757625 0.568247 0.518515
O O8 0.758913 0.558590 0.363849
O O9 0.500000 0.397758 0.428042
O O10 0.690959 0.439643 0.314344
O O11 0.781891 0.349535 0.394300
O O12 0.282368 0.080947 0.670587
O O13 0.000000 0.106544 0.597807
O O14 0.500000 0.040113 0.771846
O O15 0.736888 0.972895 0.720240
O O16 0.500000 0.580874 0.273892
O O17 0.235657 0.643369 0.256590
O O18 0.500000 0.291562 0.749957
O O19 0.766520 0.251130 0.819444
O O20 0.500000 0.767101 0.401058
#
# Coordination Sequence:
#
# PCOD9351244 Si02
#       8
#     8   8   8   8   8   8   8   8
#     4  10  22  37  56  83 115 148 186 230 281 336
#     4   8  16  32  56  79  99 129 178 229 267 313
#     4  10  20  36  57  81 107 142 186 227 269 327
#     4  10  19  35  57  79 105 142 184 225 270 326
#     4  11  22  35  53  80 111 142 175 223 280 330
#     4   9  18  36  58  79 103 138 183 226 270 329
#     4  10  21  37  59  82 110 149 191 231 275 328
#     4  10  21  38  58  83 116 152 185 229 284 333
#
# _framework density 20.732063
#
# number of rings (size 3 to 8) (size 9 to 14) (size 15 to 20)
#    0.000    2.250    0.000    3.750    0.000    8.000 
#    0.000    6.875    0.000    4.500    0.000    0.000 
#    0.000    0.000    0.000    0.000    0.000    0.000 
#
# Total GULP energy -178488.939409 kJ/mol
# GULP energy per Si atom -5577.779357 kJ/mol
# Density = 2.068488 g / cm^3
# Si number density = 20.732063 Si / 1000 Ang^3
#
#
#
# Elastic Constant Matrix: (Units=GPa)
#
#
# Indices 1 2 3 4 5 6 
#
# 1 28.7254 6.5416 4.1360 0.0000 0.0000 0.0000
# 2 6.5416 160.1022 60.8250 0.0000 0.0000 0.0000
# 3 4.1360 60.8250 91.5153 0.0000 0.0000 0.0000
# 4 0.0000 0.0000 0.0000 36.2126 0.0000 0.0000
# 5 0.0000 0.0000 0.0000 0.0000 19.1169 0.0000
# 6 0.0000 0.0000 0.0000 0.0000 0.0000 16.6855
#
#
#
# Elastic Compliance Matrix: (Units=1/GPa)
#
#
# Indices 1 2 3 4 5 6 
#
# 1 0.035189 -0.001115 -0.000849 0.000000 0.000000 0.000000
# 2 -0.001115 0.008391 -0.005527 0.000000 0.000000 0.000000
# 3 -0.000849 -0.005527 0.014639 0.000000 0.000000 0.000000
# 4 0.000000 0.000000 0.000000 0.027615 0.000000 0.000000
# 5 0.000000 0.000000 0.000000 0.000000 0.052310 0.000000
# 6 0.000000 0.000000 0.000000 0.000000 0.000000 0.059932
#
#
# Mechanical properties :
#
#
# Convention : Reuss Voigt Hill
#
# Bulk Modulus (GPa) = 23.12862 47.03869 35.08365
# Shear Modulus (GPa) = 21.98093 28.32568 25.15331
#
# Velocity S-wave (km/s) = 3.25966 3.70032 3.48696
# Velocity P-wave (km/s) = 5.03462 6.40271 5.75943
#
# Compressibility (1/GPa) = 0.04323647
#
# Stress axis : x y z
#
# Youngs Moduli (GPa) = 28.41830 119.17122 68.31125
#
# Poissons Ratio (x) = 0.13289 0.05801
# Poissons Ratio (y) = 0.03169 0.37754
# Poissons Ratio (z) = 0.02413 0.65864
#
# Static dielectric constant tensor:
#      x y z
#    x 1.761160 0.000000 0.000000 
#    y 0.000000 1.731580 0.000000 
#    z 0.000000 0.000000 1.738410 
# 
# From -- ./inp_files/11104.got.cif
#   From: 2010.05.17/outbox.cif.g08.bks.cpg/sg36_6_cif.got.tgz:11104.got - 2010.06.03 17:41:39.
