data_PCOD9351912
_publ_section_title
;
Structure prediction by ZEFSAII (Michael W. Deem and Ramdas Pophale) SiO2 
 PCOD9351912
Probable space group: C M C 21
;
_chemical_formula_sum "Si O2"
_cell_formula_units_Z 64
_cell_length_a 8.593959
_cell_length_b 14.705125
_cell_length_c 25.338770
_cell_angle_alpha 90.000000
_cell_angle_beta 90.000000
_cell_angle_gamma 90.000000
_cell_volume 3202.193174
_symmetry_space_group_name_H-M "C M C 21"
_symmetry_group_IT_number 36
_symmetry_cell_setting 'orthorhombic'
loop_
_space_group_symop_operation_xyz
x,y,z
-x,-y,1/2+z
x,-y,1/2+z
-x,y,z
1/2+x,1/2+y,z
1/2-x,1/2-y,1/2+z
1/2+x,1/2-y,1/2+z
1/2-x,1/2+y,z
loop_
_atom_site_type_symbol
_atom_site_label
_atom_site_fract_x
_atom_site_fract_y
_atom_site_fract_z
Si Si1 0.313255 0.323733 0.716370
Si Si2 0.688113 0.111989 0.728710
Si Si3 0.685457 0.326182 0.454309
Si Si4 0.184863 0.640730 0.844218
Si Si5 0.813606 0.657209 0.325203
Si Si6 0.685216 0.477331 0.640392
Si Si7 0.814191 0.474482 0.525038
Si Si8 0.188775 0.616957 0.438116
O O1 0.500000 0.328655 0.723174
O O2 0.270432 0.217423 0.716345
O O3 0.234817 0.371765 0.766908
O O4 0.271208 0.378238 0.663799
O O5 0.500000 0.104545 0.726607
O O6 0.735660 0.092929 0.789679
O O7 0.762187 0.048083 0.685074
O O8 0.500000 0.326824 0.456319
O O9 0.739040 0.377030 0.400719
O O10 0.753468 0.377855 0.504322
O O11 0.736832 0.220885 0.450353
O O12 0.226558 0.746623 0.833421
O O13 0.000000 0.628289 0.849348
O O14 0.771447 0.598046 0.376689
O O15 0.000000 0.671727 0.326715
O O16 0.500000 0.480657 0.634655
O O17 0.760579 0.494876 0.583983
O O18 0.753369 0.548104 0.482355
O O19 0.000000 0.474887 0.523210
O O20 0.000000 0.614809 0.440364
#
# Coordination Sequence:
#
# PCOD9351912 Si02
#       8
#     8   8   8   8   8   8   8   8
#     4   9  20  38  57  79 112 149 178 215 275 335
#     4   9  19  37  59  81 108 145 182 217 267 330
#     4  10  20  37  59  84 113 145 182 226 276 325
#     4   9  17  32  55  84 116 147 179 217 271 336
#     4   9  16  30  55  85 112 139 178 224 269 323
#     4  11  24  40  56  79 110 143 187 237 277 319
#     4  11  23  40  58  78 107 146 191 231 274 331
#     4   8  18  36  57  80 110 146 177 215 273 333
#
# _framework density 19.986301999999998
#
# number of rings (size 3 to 8) (size 9 to 14) (size 15 to 20)
#    0.000    2.500    0.000    3.375    0.000    5.500 
#    0.000   16.250    0.000    0.000    0.000    0.000 
#    0.000    0.000    0.000    0.000    0.000    0.000 
#
# Total GULP energy -178553.090577 kJ/mol
# GULP energy per Si atom -5579.784081 kJ/mol
# Density = 1.994081 g / cm^3
# Si number density = 19.986302 Si / 1000 Ang^3
#
#
#
# Elastic Constant Matrix: (Units=GPa)
#
#
# Indices 1 2 3 4 5 6 
#
# 1 24.8446 11.4480 22.9821 0.0000 0.0000 0.0000
# 2 11.4480 45.7825 17.0034 0.0000 0.0000 0.0000
# 3 22.9821 17.0034 105.9311 0.0000 0.0000 0.0000
# 4 0.0000 0.0000 0.0000 31.4643 0.0000 0.0000
# 5 0.0000 0.0000 0.0000 0.0000 34.8800 0.0000
# 6 0.0000 0.0000 0.0000 0.0000 0.0000 18.7396
#
#
#
# Elastic Compliance Matrix: (Units=1/GPa)
#
#
# Indices 1 2 3 4 5 6 
#
# 1 0.054170 -0.009763 -0.010185 0.000000 0.000000 0.000000
# 2 -0.009763 0.024986 -0.001893 0.000000 0.000000 0.000000
# 3 -0.010185 -0.001893 0.011954 0.000000 0.000000 0.000000
# 4 0.000000 0.000000 0.000000 0.031782 0.000000 0.000000
# 5 0.000000 0.000000 0.000000 0.000000 0.028670 0.000000
# 6 0.000000 0.000000 0.000000 0.000000 0.000000 0.053363
#
#
# Mechanical properties :
#
#
# Convention : Reuss Voigt Hill
#
# Bulk Modulus (GPa) = 21.08405 31.04723 26.06564
# Shear Modulus (GPa) = 18.90956 25.35842 22.13399
#
# Velocity S-wave (km/s) = 3.07925 3.56587 3.33146
# Velocity P-wave (km/s) = 4.81815 5.70280 5.27904
#
# Compressibility (1/GPa) = 0.04742922
#
# Stress axis : x y z
#
# Youngs Moduli (GPa) = 18.46026 40.02163 83.65648
#
# Poissons Ratio (x) = 0.39072 0.85207
# Poissons Ratio (y) = 0.18022 0.15833
# Poissons Ratio (z) = 0.18803 0.07575
#
# Static dielectric constant tensor:
#      x y z
#    x 1.674850 0.000000 0.000000 
#    y 0.000000 1.743680 0.000000 
#    z 0.000000 0.000000 1.714610 
# 
# From -- ./inp_files/16656.got.cif
#   From: 2010.05.17/outbox.cif.g08.bks.cpg/sg36_9_cif.got.tgz:16656.got - 2010.06.03 17:41:39.
