data_PCOD9351091
_publ_section_title
;
Structure prediction by ZEFSAII (Michael W. Deem and Ramdas Pophale) SiO2 
 PCOD9351091
Probable space group: C M C 21
;
_chemical_formula_sum "Si O2"
_cell_formula_units_Z 64
_cell_length_a 8.811269
_cell_length_b 13.965523
_cell_length_c 24.403850
_cell_angle_alpha 90.000000
_cell_angle_beta 90.000000
_cell_angle_gamma 90.000000
_cell_volume 3002.990867
_symmetry_space_group_name_H-M "C M C 21"
_symmetry_group_IT_number 36
_symmetry_cell_setting 'orthorhombic'
loop_
_space_group_symop_operation_xyz
x,y,z
-x,-y,1/2+z
x,-y,1/2+z
-x,y,z
1/2+x,1/2+y,z
1/2-x,1/2-y,1/2+z
1/2+x,1/2-y,1/2+z
1/2-x,1/2+y,z
loop_
_atom_site_type_symbol
_atom_site_label
_atom_site_fract_x
_atom_site_fract_y
_atom_site_fract_z
Si Si1 0.827927 0.854008 0.073700
Si Si2 0.325329 0.358896 0.914744
Si Si3 0.674935 0.962938 0.457764
Si Si4 0.326576 0.877563 0.244772
Si Si5 0.677831 0.531334 0.848477
Si Si6 0.174571 0.219046 0.988182
Si Si7 0.675820 0.985759 0.637921
Si Si8 0.673746 0.217903 0.180114
O O1 0.832169 0.790708 0.129142
O O2 0.000000 0.856688 0.052104
O O3 0.767477 0.957989 0.091380
O O4 0.716717 0.795383 0.034511
O O5 0.500000 0.329683 0.919150
O O6 0.284324 0.444768 0.957864
O O7 0.301600 0.416110 0.857732
O O8 0.217165 0.273160 0.931593
O O9 0.711141 0.928074 0.395457
O O10 0.723125 0.874995 0.495098
O O11 0.000000 0.807969 0.489064
O O12 0.500000 0.872185 0.264063
O O13 0.223307 0.926207 0.290782
O O14 0.267283 0.773516 0.226310
O O15 0.323341 0.945771 0.191286
O O16 0.500000 0.549883 0.861037
O O17 0.500000 0.010089 0.964400
O O18 0.500000 0.973846 0.620168
O O19 0.735527 0.882712 0.657397
O O20 0.500000 0.200570 0.198939
#
# Coordination Sequence:
#
# PCOD9351091 Si02
#       8
#     8   8   8   8   8   8   8   8
#     4  10  21  36  56  81 110 144 184 233 283 333
#     4   9  20  38  57  80 110 146 188 235 278 328
#     4  10  20  37  58  81 112 146 186 233 280 333
#     4  10  19  33  56  83 112 144 182 228 277 332
#     4   9  19  37  58  80 113 150 185 231 281 329
#     4  12  23  37  58  83 113 153 191 231 282 337
#     4   9  19  37  57  81 110 142 183 228 278 339
#     4   9  19  37  58  79 108 145 183 227 279 335
#
# _framework density 21.312086000000001
#
# number of rings (size 3 to 8) (size 9 to 14) (size 15 to 20)
#    0.750    1.500    0.000    3.375    0.000    2.500 
#    2.250    3.750    0.000    0.000    0.000    0.000 
#    0.000    0.000    0.000    0.000    0.000    0.000 
#
# Total GULP energy -178469.728862 kJ/mol
# GULP energy per Si atom -5577.179027 kJ/mol
# Density = 2.126358 g / cm^3
# Si number density = 21.312086 Si / 1000 Ang^3
#
#
#
# Elastic Constant Matrix: (Units=GPa)
#
#
# Indices 1 2 3 4 5 6 
#
# 1 73.7237 -1.9502 -2.8973 0.0000 0.0000 0.0000
# 2 -1.9502 65.0349 -15.5459 0.0000 0.0000 0.0000
# 3 -2.8973 -15.5459 18.0676 0.0000 0.0000 0.0000
# 4 0.0000 0.0000 0.0000 16.3127 0.0000 0.0000
# 5 0.0000 0.0000 0.0000 0.0000 27.6634 0.0000
# 6 0.0000 0.0000 0.0000 0.0000 0.0000 26.7577
#
#
#
# Elastic Compliance Matrix: (Units=1/GPa)
#
#
# Indices 1 2 3 4 5 6 
#
# 1 0.013722 0.001180 0.003216 0.000000 0.000000 0.000000
# 2 0.001180 0.019459 0.016933 0.000000 0.000000 0.000000
# 3 0.003216 0.016933 0.070432 0.000000 0.000000 0.000000
# 4 0.000000 0.000000 0.000000 0.061302 0.000000 0.000000
# 5 0.000000 0.000000 0.000000 0.000000 0.036149 0.000000
# 6 0.000000 0.000000 0.000000 0.000000 0.000000 0.037372
#
#
# Mechanical properties :
#
#
# Convention : Reuss Voigt Hill
#
# Bulk Modulus (GPa) = 6.83664 12.89328 9.86496
# Shear Modulus (GPa) = 20.44684 25.96140 23.20412
#
# Velocity S-wave (km/s) = 3.10078 3.49399 3.30324
# Velocity P-wave (km/s) = 4.00433 4.72654 4.38034
#
# Compressibility (1/GPa) = 0.14627058
#
# Stress axis : x y z
#
# Youngs Moduli (GPa) = 72.87693 51.38935 14.19800
#
# Poissons Ratio (x) = -0.06065 -0.04566
# Poissons Ratio (y) = -0.08601 -0.24041
# Poissons Ratio (z) = -0.23436 -0.87015
#
# Static dielectric constant tensor:
#      x y z
#    x 1.730550 0.000000 0.000000 
#    y 0.000000 1.780950 0.000000 
#    z 0.000000 0.000000 1.827920 
# 
# From -- ./inp_files/17352.got.cif
#   From: 2010.05.17/outbox.cif.g08.bks.cpg/sg36_9_cif.got.tgz:17352.got - 2010.06.03 17:41:39.
