data_PCOD9351032
_publ_section_title
;
Structure prediction by ZEFSAII (Michael W. Deem and Ramdas Pophale) SiO2 
 PCOD9351032
Probable space group: C M C 21
;
_chemical_formula_sum "Si O2"
_cell_formula_units_Z 64
_cell_length_a 9.716354
_cell_length_b 28.845256
_cell_length_c 12.797900
_cell_angle_alpha 90.000000
_cell_angle_beta 90.000000
_cell_angle_gamma 90.000000
_cell_volume 3586.876629
_symmetry_space_group_name_H-M "C M C 21"
_symmetry_group_IT_number 36
_symmetry_cell_setting 'orthorhombic'
loop_
_space_group_symop_operation_xyz
x,y,z
-x,-y,1/2+z
x,-y,1/2+z
-x,y,z
1/2+x,1/2+y,z
1/2-x,1/2-y,1/2+z
1/2+x,1/2-y,1/2+z
1/2-x,1/2+y,z
loop_
_atom_site_type_symbol
_atom_site_label
_atom_site_fract_x
_atom_site_fract_y
_atom_site_fract_z
Si Si1 0.344996 0.440267 0.944010
Si Si2 0.156389 0.838782 0.049197
Si Si3 0.165501 0.678057 0.923672
Si Si4 0.165222 0.779909 0.845211
Si Si5 0.655424 0.069100 0.246167
Si Si6 0.658300 0.025773 0.620324
Si Si7 0.164993 0.622356 0.730194
Si Si8 0.337044 0.828023 0.661229
O O1 0.500000 0.456917 0.929944
O O2 0.266587 0.434537 0.836225
O O3 0.348630 0.389632 0.997201
O O4 0.258388 0.471763 0.022330
O O5 0.257411 0.844776 0.146960
O O6 0.000000 0.825939 0.081312
O O7 0.200417 0.804983 0.955369
O O8 0.193801 0.725792 0.863115
O O9 0.209575 0.636395 0.847161
O O10 0.000000 0.674067 0.934002
O O11 0.215378 0.680031 0.043010
O O12 0.250125 0.801327 0.749416
O O13 0.000000 0.786435 0.829564
O O14 0.500000 0.069777 0.291419
O O15 0.672375 0.117058 0.184420
O O16 0.666776 0.023582 0.175582
O O17 0.500000 0.033200 0.586379
O O18 0.691959 0.068961 0.697644
O O19 0.000000 0.629523 0.722322
O O20 0.500000 0.815146 0.668397
#
# Coordination Sequence:
#
# PCOD9351032 Si02
#       8
#     8   8   8   8   8   8   8   8
#     4  10  19  33  52  76 106 141 179 222 271 322
#     4   9  18  32  52  75 102 137 174 220 269 314
#     4   9  20  36  54  78 110 145 178 221 278 327
#     4  10  20  36  55  76 106 142 177 219 273 328
#     4  10  20  34  55  81 108 141 181 229 276 323
#     4   9  19  34  54  80 108 142 184 226 271 321
#     4   9  18  34  55  78 106 140 179 222 266 319
#     4  10  21  37  57  82 110 140 182 229 272 326
#
# _framework density 17.842822000000002
#
# number of rings (size 3 to 8) (size 9 to 14) (size 15 to 20)
#    0.000    2.500    1.250    0.375    1.750    2.500 
#    0.000    5.000    0.000    0.000    0.000    0.000 
#    0.000    0.000    0.000    0.000    0.000    0.000 
#
# Total GULP energy -178371.700373 kJ/mol
# GULP energy per Si atom -5574.115637 kJ/mol
# Density = 1.780221 g / cm^3
# Si number density = 17.842822 Si / 1000 Ang^3
#
#
#
# Elastic Constant Matrix: (Units=GPa)
#
#
# Indices 1 2 3 4 5 6 
#
# 1 57.5346 30.0694 46.3685 0.0000 0.0000 0.0000
# 2 30.0694 50.7053 35.9658 0.0000 0.0000 0.0000
# 3 46.3685 35.9658 97.6592 0.0000 0.0000 0.0000
# 4 0.0000 0.0000 0.0000 10.4339 0.0000 0.0000
# 5 0.0000 0.0000 0.0000 0.0000 20.7962 0.0000
# 6 0.0000 0.0000 0.0000 0.0000 0.0000 11.4889
#
#
#
# Elastic Compliance Matrix: (Units=1/GPa)
#
#
# Indices 1 2 3 4 5 6 
#
# 1 0.032245 -0.011184 -0.011191 0.000000 0.000000 0.000000
# 2 -0.011184 0.030574 -0.005950 0.000000 0.000000 0.000000
# 3 -0.011191 -0.005950 0.017744 0.000000 0.000000 0.000000
# 4 0.000000 0.000000 0.000000 0.095842 0.000000 0.000000
# 5 0.000000 0.000000 0.000000 0.000000 0.048086 0.000000
# 6 0.000000 0.000000 0.000000 0.000000 0.000000 0.087040
#
#
# Mechanical properties :
#
#
# Convention : Reuss Voigt Hill
#
# Bulk Modulus (GPa) = 41.81635 47.85629 44.83632
# Shear Modulus (GPa) = 13.29246 14.77682 14.03464
#
# Velocity S-wave (km/s) = 2.73238 2.88091 2.80763
# Velocity P-wave (km/s) = 5.78285 6.15999 5.97440
#
# Compressibility (1/GPa) = 0.02391409
#
# Stress axis : x y z
#
# Youngs Moduli (GPa) = 31.01228 32.70707 56.35591
#
# Poissons Ratio (x) = 0.36580 0.63069
# Poissons Ratio (y) = 0.34685 0.33530
# Poissons Ratio (z) = 0.34706 0.19460
#
# Static dielectric constant tensor:
#      x y z
#    x 1.610600 0.000000 0.000000 
#    y 0.000000 1.614690 0.000000 
#    z 0.000000 0.000000 1.601880 
# 
# From -- ./inp_files/7089.got.cif
#   From: 2010.05.17/outbox.cif.g08.bks.cpg/sg36_4_cif.got.tgz:7089.got - 2010.06.03 17:41:39.
