data_PCOD9351807
_publ_section_title
;
Structure prediction by ZEFSAII (Michael W. Deem and Ramdas Pophale) SiO2 
 PCOD9351807
Probable space group: C M C 21
;
_chemical_formula_sum "Si O2"
_cell_formula_units_Z 48
_cell_length_a 28.454432
_cell_length_b 8.032714
_cell_length_c 9.052786
_cell_angle_alpha 90.000000
_cell_angle_beta 90.000000
_cell_angle_gamma 90.000000
_cell_volume 2069.161930
_symmetry_space_group_name_H-M "C M C 21"
_symmetry_group_IT_number 36
_symmetry_cell_setting 'orthorhombic'
loop_
_space_group_symop_operation_xyz
x,y,z
-x,-y,1/2+z
x,-y,1/2+z
-x,y,z
1/2+x,1/2+y,z
1/2-x,1/2-y,1/2+z
1/2+x,1/2-y,1/2+z
1/2-x,1/2+y,z
loop_
_atom_site_type_symbol
_atom_site_label
_atom_site_fract_x
_atom_site_fract_y
_atom_site_fract_z
Si Si1 0.946972 0.077728 0.092590
Si Si2 0.802438 0.511023 0.548398
Si Si3 0.352609 0.154392 0.302699
Si Si4 0.652584 0.527692 0.172869
Si Si5 0.703836 0.357352 0.929776
Si Si6 0.551432 0.252589 0.269787
O O1 0.000000 0.132004 0.142726
O O2 0.897706 0.120541 0.174957
O O3 0.946509 0.879310 0.130485
O O4 0.943513 0.136664 0.921684
O O5 0.840890 0.628703 0.472916
O O6 0.816608 0.462759 0.713733
O O7 0.752860 0.589782 0.503190
O O8 0.804748 0.330795 0.472673
O O9 0.347768 0.343774 0.247907
O O10 0.406843 0.120640 0.267704
O O11 0.694985 0.621482 0.255815
O O12 0.665707 0.476331 0.007341
O O13 0.500000 0.175774 0.273806
#
# Coordination Sequence:
#
# PCOD9351807 Si02
#       6
#     8   8   8   8   8   8
#     4   9  17  31  56  88 121 156 195 239 287 342
#     4  11  24  40  58  82 111 150 196 243 302 362
#     4  10  22  39  58  82 115 153 194 243 295 354
#     4  10  20  36  58  86 117 149 190 241 296 351
#     4  11  23  37  57  83 112 148 192 243 297 360
#     4   9  18  35  59  89 124 160 199 245 297 355
#
# _framework density 23.197797000000001
#
# number of rings (size 3 to 8) (size 9 to 14) (size 15 to 20)
#    0.000    2.000    0.000    4.000    0.000    6.667 
#    0.000    0.833    0.000    2.000    0.000    0.000 
#    0.000    0.000    0.000    0.000    0.000    0.000 
#
# Total GULP energy -133810.243161 kJ/mol
# GULP energy per Si atom -5575.426798 kJ/mol
# Density = 2.314500 g / cm^3
# Si number density = 23.197797 Si / 1000 Ang^3
#
#
#
# Elastic Constant Matrix: (Units=GPa)
#
#
# Indices 1 2 3 4 5 6 
#
# 1 136.2236 21.4027 11.3173 0.0000 0.0000 0.0000
# 2 21.4027 49.1608 25.9291 0.0000 0.0000 0.0000
# 3 11.3173 25.9291 78.3519 0.0000 0.0000 0.0000
# 4 0.0000 0.0000 0.0000 25.8056 0.0000 0.0000
# 5 0.0000 0.0000 0.0000 0.0000 35.1967 0.0000
# 6 0.0000 0.0000 0.0000 0.0000 0.0000 17.3586
#
#
#
# Elastic Compliance Matrix: (Units=1/GPa)
#
#
# Indices 1 2 3 4 5 6 
#
# 1 0.007880 -0.003429 -0.000004 0.000000 0.000000 0.000000
# 2 -0.003429 0.026135 -0.008154 0.000000 0.000000 0.000000
# 3 -0.000004 -0.008154 0.015462 0.000000 0.000000 0.000000
# 4 0.000000 0.000000 0.000000 0.038751 0.000000 0.000000
# 5 0.000000 0.000000 0.000000 0.000000 0.028412 0.000000
# 6 0.000000 0.000000 0.000000 0.000000 0.000000 0.057608
#
#
# Mechanical properties :
#
#
# Convention : Reuss Voigt Hill
#
# Bulk Modulus (GPa) = 38.01610 42.33717 40.17663
# Shear Modulus (GPa) = 24.24979 29.34466 26.79722
#
# Velocity S-wave (km/s) = 3.23669 3.56051 3.40246
# Velocity P-wave (km/s) = 5.51286 5.93238 5.72646
#
# Compressibility (1/GPa) = 0.02630465
#
# Stress axis : x y z
#
# Youngs Moduli (GPa) = 126.90574 38.26347 64.67596
#
# Poissons Ratio (x) = 0.13120 0.00023
# Poissons Ratio (y) = 0.43513 0.52734
# Poissons Ratio (z) = 0.00044 0.31198
#
# Static dielectric constant tensor:
#      x y z
#    x 1.945680 0.000000 0.000000 
#    y 0.000000 1.823600 0.000000 
#    z 0.000000 0.000000 1.859680 
# 
# From -- ./inp_files/5966.got.cif
#   From: 2010.05.17/outbox.cif.g08.bks.cpg/sg36_3_cif.got.tgz:5966.got - 2010.06.03 17:41:39.
