data_PCOD9351394
_publ_section_title
;
Structure prediction by ZEFSAII (Michael W. Deem and Ramdas Pophale) SiO2 
 PCOD9351394
Probable space group: C M C 21
;
_chemical_formula_sum "Si O2"
_cell_formula_units_Z 64
_cell_length_a 13.234990
_cell_length_b 18.095574
_cell_length_c 11.955887
_cell_angle_alpha 90.000000
_cell_angle_beta 90.000000
_cell_angle_gamma 90.000000
_cell_volume 2863.372060
_symmetry_space_group_name_H-M "C M C 21"
_symmetry_group_IT_number 36
_symmetry_cell_setting 'orthorhombic'
loop_
_space_group_symop_operation_xyz
x,y,z
-x,-y,1/2+z
x,-y,1/2+z
-x,y,z
1/2+x,1/2+y,z
1/2-x,1/2-y,1/2+z
1/2+x,1/2-y,1/2+z
1/2-x,1/2+y,z
loop_
_atom_site_type_symbol
_atom_site_label
_atom_site_fract_x
_atom_site_fract_y
_atom_site_fract_z
Si Si1 0.383774 0.180240 0.308530
Si Si2 0.383394 0.854786 0.217467
Si Si3 0.382907 0.458371 0.756063
Si Si4 0.617485 0.100829 0.954126
Si Si5 0.175996 0.183506 0.961209
Si Si6 0.878186 0.436153 0.003278
Si Si7 0.683918 0.700756 0.204714
Si Si8 0.616758 0.518489 0.995894
O O1 0.500000 0.175686 0.273790
O O2 0.362258 0.257728 0.371675
O O3 0.360772 0.112915 0.393337
O O4 0.300918 0.178010 0.212351
O O5 0.500000 0.836466 0.194563
O O6 0.382524 0.911479 0.319941
O O7 0.333465 0.779525 0.260272
O O8 0.335360 0.891537 0.108888
O O9 0.500000 0.481524 0.759154
O O10 0.374663 0.369426 0.751217
O O11 0.347006 0.484153 0.628980
O O12 0.340227 0.480742 0.880171
O O13 0.500000 0.119420 0.984193
O O14 0.705406 0.160815 0.970446
O O15 0.649816 0.022197 0.004578
O O16 0.148800 0.217571 0.080285
O O17 0.122194 0.104358 0.960168
O O18 0.000000 0.438224 0.015305
O O19 0.500000 0.493491 0.003431
#
# Coordination Sequence:
#
# PCOD9351394 Si02
#       8
#     8   8   8   8   8   8   8   8
#     4  11  23  40  62  92 129 167 210 263 324 389
#     4  10  19  37  64  91 121 161 212 260 308 381
#     4   9  19  37  62  94 130 172 221 277 331 391
#     4  10  22  39  60  91 125 158 201 263 323 375
#     4  11  22  39  62  89 124 167 210 260 323 399
#     4   9  20  38  62  89 123 164 204 251 315 383
#     4  11  22  37  62  94 122 164 217 265 322 384
#     4   9  19  37  61  90 126 169 220 273 327 386
#
# _framework density 22.351271000000001
#
# number of rings (size 3 to 8) (size 9 to 14) (size 15 to 20)
#    0.000    2.000    2.500    0.750    1.750    2.500 
#    2.250    3.750    0.000    1.500    0.000    0.875 
#    0.000    0.000    0.000    0.000    0.000    0.000 
#
# Total GULP energy -178144.986134 kJ/mol
# GULP energy per Si atom -5567.030817 kJ/mol
# Density = 2.230040 g / cm^3
# Si number density = 22.351271 Si / 1000 Ang^3
#
#
#
# Elastic Constant Matrix: (Units=GPa)
#
#
# Indices 1 2 3 4 5 6 
#
# 1 74.6402 3.3988 -2.4497 0.0000 0.0000 0.0000
# 2 3.3988 68.3954 27.1994 0.0000 0.0000 0.0000
# 3 -2.4497 27.1994 104.4422 0.0000 0.0000 0.0000
# 4 0.0000 0.0000 0.0000 28.1758 0.0000 0.0000
# 5 0.0000 0.0000 0.0000 0.0000 15.2605 0.0000
# 6 0.0000 0.0000 0.0000 0.0000 0.0000 28.9091
#
#
#
# Elastic Compliance Matrix: (Units=1/GPa)
#
#
# Indices 1 2 3 4 5 6 
#
# 1 0.013456 -0.000886 0.000546 0.000000 0.000000 0.000000
# 2 -0.000886 0.016368 -0.004284 0.000000 0.000000 0.000000
# 3 0.000546 -0.004284 0.010703 0.000000 0.000000 0.000000
# 4 0.000000 0.000000 0.000000 0.035491 0.000000 0.000000
# 5 0.000000 0.000000 0.000000 0.000000 0.065529 0.000000
# 6 0.000000 0.000000 0.000000 0.000000 0.000000 0.034591
#
#
# Mechanical properties :
#
#
# Convention : Reuss Voigt Hill
#
# Bulk Modulus (GPa) = 31.96825 33.75274 32.86049
# Shear Modulus (GPa) = 25.53471 29.09103 27.31287
#
# Velocity S-wave (km/s) = 3.38365 3.61160 3.49948
# Velocity P-wave (km/s) = 5.44051 5.70310 5.57335
#
# Compressibility (1/GPa) = 0.03128103
#
# Stress axis : x y z
#
# Youngs Moduli (GPa) = 74.31692 61.09356 93.43154
#
# Poissons Ratio (x) = 0.05412 -0.05104
# Poissons Ratio (y) = 0.06584 0.40021
# Poissons Ratio (z) = -0.04060 0.26169
#
# Static dielectric constant tensor:
#      x y z
#    x 1.882140 0.000000 0.000000 
#    y 0.000000 1.811250 0.000000 
#    z 0.000000 0.000000 1.901020 
# 
# From -- ./inp_files/8622.got.cif
#   From: 2010.05.17/outbox.cif.g08.bks.cpg/sg36_5_cif.got.tgz:8622.got - 2010.06.03 17:41:39.
