data_PCOD9351521
_publ_section_title
;
Structure prediction by ZEFSAII (Michael W. Deem and Ramdas Pophale) SiO2 
 PCOD9351521
Probable space group: C M C 21
;
_chemical_formula_sum "Si O2"
_cell_formula_units_Z 48
_cell_length_a 22.085811
_cell_length_b 17.675662
_cell_length_c 5.427576
_cell_angle_alpha 90.000000
_cell_angle_beta 90.000000
_cell_angle_gamma 90.000000
_cell_volume 2118.824339
_symmetry_space_group_name_H-M "C M C 21"
_symmetry_group_IT_number 36
_symmetry_cell_setting 'orthorhombic'
loop_
_space_group_symop_operation_xyz
x,y,z
-x,-y,1/2+z
x,-y,1/2+z
-x,y,z
1/2+x,1/2+y,z
1/2-x,1/2-y,1/2+z
1/2+x,1/2-y,1/2+z
1/2-x,1/2+y,z
loop_
_atom_site_type_symbol
_atom_site_label
_atom_site_fract_x
_atom_site_fract_y
_atom_site_fract_z
Si Si1 0.500000 0.318839 0.074170
Si Si2 0.238112 0.454507 0.703786
Si Si3 0.318246 0.828163 0.986092
Si Si4 0.389080 0.259165 0.813453
Si Si5 0.304001 0.677918 0.698775
Si Si6 0.000000 0.917503 0.578734
Si Si7 0.872452 0.086430 0.042648
O O1 0.500000 0.359534 0.339325
O O2 0.442021 0.265555 0.015350
O O3 0.500000 0.381416 0.854777
O O4 0.226451 0.494592 0.444661
O O5 0.310923 0.434792 0.690336
O O6 0.193577 0.382883 0.754720
O O7 0.378794 0.815219 0.146901
O O8 0.262777 0.851496 0.159513
O O9 0.304558 0.742214 0.904577
O O10 0.396504 0.332844 0.643622
O O11 0.328560 0.278957 0.962069
O O12 0.347378 0.608639 0.772991
O O13 0.065215 0.959947 0.550673
#
# Coordination Sequence:
#
# PCOD9351521 Si02
#       7
#     4   8   8   8   8   4   8
#     4  10  20  36  52  97 126 151 182 236 332 388
#     4  12  27  41  57  79 122 166 213 266 302 357
#     4  11  21  34  56  90 116 159 202 250 326 379
#     4  10  20  33  61  88 124 151 187 252 315 405
#     4  11  17  31  60  86 120 149 189 259 310 401
#     4  10  20  34  60  81 122 159 200 248 304 382
#     4  10  21  37  55  86 116 162 204 249 319 369
#
# _framework density 22.654074000000001
#
# number of rings (size 3 to 8) (size 9 to 14) (size 15 to 20)
#    0.000    1.333    5.000    2.000    2.333    0.000 
#    0.000    0.833    0.000    0.000    0.000    1.167 
#    0.000    0.000    0.000    0.000    0.000    0.000 
#
# Total GULP energy -133739.791063 kJ/mol
# GULP energy per Si atom -5572.491294 kJ/mol
# Density = 2.260251 g / cm^3
# Si number density = 22.654074 Si / 1000 Ang^3
#
#
#
# Elastic Constant Matrix: (Units=GPa)
#
#
# Indices 1 2 3 4 5 6 
#
# 1 54.9688 22.6945 22.7344 0.0000 0.0000 0.0000
# 2 22.6945 68.9746 34.5150 0.0000 0.0000 0.0000
# 3 22.7344 34.5150 124.2949 0.0000 0.0000 0.0000
# 4 0.0000 0.0000 0.0000 51.9198 0.0000 0.0000
# 5 0.0000 0.0000 0.0000 0.0000 38.8659 0.0000
# 6 0.0000 0.0000 0.0000 0.0000 0.0000 15.7939
#
#
#
# Elastic Compliance Matrix: (Units=1/GPa)
#
#
# Indices 1 2 3 4 5 6 
#
# 1 0.021602 -0.005958 -0.002297 0.000000 0.000000 0.000000
# 2 -0.005958 0.018481 -0.004042 0.000000 0.000000 0.000000
# 3 -0.002297 -0.004042 0.009588 0.000000 0.000000 0.000000
# 4 0.000000 0.000000 0.000000 0.019260 0.000000 0.000000
# 5 0.000000 0.000000 0.000000 0.000000 0.025729 0.000000
# 6 0.000000 0.000000 0.000000 0.000000 0.000000 0.063315
#
#
# Mechanical properties :
#
#
# Convention : Reuss Voigt Hill
#
# Bulk Modulus (GPa) = 39.87743 45.34732 42.61238
# Shear Modulus (GPa) = 26.18763 32.53557 29.36160
#
# Velocity S-wave (km/s) = 3.40366 3.79382 3.60402
# Velocity P-wave (km/s) = 5.75217 6.26510 6.01411
#
# Compressibility (1/GPa) = 0.02507684
#
# Stress axis : x y z
#
# Youngs Moduli (GPa) = 46.29203 54.10884 104.29820
#
# Poissons Ratio (x) = 0.32240 0.23953
# Poissons Ratio (y) = 0.27583 0.42159
# Poissons Ratio (z) = 0.10631 0.21872
#
# Static dielectric constant tensor:
#      x y z
#    x 1.943730 0.000000 0.000000 
#    y 0.000000 1.945620 0.000000 
#    z 0.000000 0.000000 1.914480 
# 
# From -- ./inp_files/1362.got.cif
#   From: 2010.05.17/outbox.cif.g08.bks.cpg/sg36_1_cif.got.tgz:1362.got - 2010.06.03 17:41:39.
