data_PCOD9351161
_publ_section_title
;
Structure prediction by ZEFSAII (Michael W. Deem and Ramdas Pophale) SiO2 
 PCOD9351161
Probable space group: C M C 21
;
_chemical_formula_sum "Si O2"
_cell_formula_units_Z 64
_cell_length_a 8.601515
_cell_length_b 16.800556
_cell_length_c 20.135598
_cell_angle_alpha 90.000000
_cell_angle_beta 90.000000
_cell_angle_gamma 90.000000
_cell_volume 2909.799988
_symmetry_space_group_name_H-M "C M C 21"
_symmetry_group_IT_number 36
_symmetry_cell_setting 'orthorhombic'
loop_
_space_group_symop_operation_xyz
x,y,z
-x,-y,1/2+z
x,-y,1/2+z
-x,y,z
1/2+x,1/2+y,z
1/2-x,1/2-y,1/2+z
1/2+x,1/2-y,1/2+z
1/2-x,1/2+y,z
loop_
_atom_site_type_symbol
_atom_site_label
_atom_site_fract_x
_atom_site_fract_y
_atom_site_fract_z
Si Si1 0.678906 0.184134 0.591370
Si Si2 0.181569 0.716283 0.860917
Si Si3 0.177508 0.852446 0.225465
Si Si4 0.831055 0.993463 0.802334
Si Si5 0.685263 0.993366 0.062180
Si Si6 0.177145 0.914009 0.441875
Si Si7 0.823372 0.658139 0.289233
Si Si8 0.812715 0.346710 0.634849
O O1 0.500000 0.191857 0.570538
O O2 0.699188 0.165789 0.669478
O O3 0.755848 0.272617 0.588837
O O4 0.745247 0.098930 0.563359
O O5 0.270684 0.686457 0.794591
O O6 0.252840 0.672261 0.924085
O O7 0.218859 0.808303 0.849471
O O8 0.000000 0.698930 0.857299
O O9 0.000000 0.829198 0.206196
O O10 0.174723 0.944972 0.242220
O O11 0.688205 0.935760 0.797161
O O12 0.000000 0.951917 0.798685
O O13 0.826032 0.041424 0.870990
O O14 0.500000 0.985949 0.073133
O O15 0.741794 0.064781 0.112028
O O16 0.722651 0.034077 0.991961
O O17 0.000000 0.907171 0.466158
O O18 0.770928 0.670727 0.212301
O O19 0.000000 0.685131 0.297273
O O20 0.000000 0.347951 0.631924
#
# Coordination Sequence:
#
# PCOD9351161 Si02
#       8
#     8   8   8   8   8   8   8   8
#     4  11  22  37  61  91 122 160 208 257 306 368
#     4  11  21  35  59  86 117 155 193 242 302 362
#     4  10  19  34  56  84 118 154 192 239 299 363
#     4   9  20  36  56  84 117 152 195 246 301 365
#     4  10  23  43  63  88 122 166 214 259 309 368
#     4  10  22  42  63  85 115 157 207 254 304 365
#     4  11  21  35  58  90 125 157 194 246 308 372
#     4  10  22  40  62  90 128 165 201 253 313 373
#
# _framework density 21.994638999999999
#
# number of rings (size 3 to 8) (size 9 to 14) (size 15 to 20)
#    0.000    1.750    1.250    4.125    0.000    6.000 
#    2.250    0.000    0.000    0.000    0.000    0.000 
#    0.000    0.000    0.000    0.000    0.000    0.000 
#
# Total GULP energy -178276.354902 kJ/mol
# GULP energy per Si atom -5571.136091 kJ/mol
# Density = 2.194458 g / cm^3
# Si number density = 21.994639 Si / 1000 Ang^3
#
#
#
# Elastic Constant Matrix: (Units=GPa)
#
#
# Indices 1 2 3 4 5 6 
#
# 1 41.5415 22.1339 -6.3215 0.0000 0.0000 0.0000
# 2 22.1339 67.3291 -9.5600 0.0000 0.0000 0.0000
# 3 -6.3215 -9.5600 27.3767 0.0000 0.0000 0.0000
# 4 0.0000 0.0000 0.0000 23.3024 0.0000 0.0000
# 5 0.0000 0.0000 0.0000 0.0000 18.8241 0.0000
# 6 0.0000 0.0000 0.0000 0.0000 0.0000 32.1741
#
#
#
# Elastic Compliance Matrix: (Units=1/GPa)
#
#
# Indices 1 2 3 4 5 6 
#
# 1 0.029519 -0.009192 0.003606 0.000000 0.000000 0.000000
# 2 -0.009192 0.018490 0.004334 0.000000 0.000000 0.000000
# 3 0.003606 0.004334 0.038874 0.000000 0.000000 0.000000
# 4 0.000000 0.000000 0.000000 0.042914 0.000000 0.000000
# 5 0.000000 0.000000 0.000000 0.000000 0.053123 0.000000
# 6 0.000000 0.000000 0.000000 0.000000 0.000000 0.031081
#
#
# Mechanical properties :
#
#
# Convention : Reuss Voigt Hill
#
# Bulk Modulus (GPa) = 11.85131 16.52799 14.18965
# Shear Modulus (GPa) = 20.43905 23.52644 21.98275
#
# Velocity S-wave (km/s) = 3.05171 3.27409 3.16485
# Velocity P-wave (km/s) = 4.22104 4.67159 4.45202
#
# Compressibility (1/GPa) = 0.08437884
#
# Stress axis : x y z
#
# Youngs Moduli (GPa) = 33.87687 54.08449 25.72435
#
# Poissons Ratio (x) = 0.49714 -0.09277
# Poissons Ratio (y) = 0.31139 -0.11149
# Poissons Ratio (z) = -0.12217 -0.23441
#
# Static dielectric constant tensor:
#      x y z
#    x 1.799260 0.000000 0.000000 
#    y 0.000000 1.971190 0.000000 
#    z 0.000000 0.000000 1.794100 
# 
# From -- ./inp_files/15705.got.cif
#   From: 2010.05.17/outbox.cif.g08.bks.cpg/sg36_8_cif.got.tgz:15705.got - 2010.06.03 17:41:39.
