data_PCOD9351050
_publ_section_title
;
Structure prediction by ZEFSAII (Michael W. Deem and Ramdas Pophale) SiO2 
 PCOD9351050
Probable space group: C M C 21
;
_chemical_formula_sum "Si O2"
_cell_formula_units_Z 64
_cell_length_a 8.658352
_cell_length_b 14.561122
_cell_length_c 29.068200
_cell_angle_alpha 90.000000
_cell_angle_beta 90.000000
_cell_angle_gamma 90.000000
_cell_volume 3664.782611
_symmetry_space_group_name_H-M "C M C 21"
_symmetry_group_IT_number 36
_symmetry_cell_setting 'orthorhombic'
loop_
_space_group_symop_operation_xyz
x,y,z
-x,-y,1/2+z
x,-y,1/2+z
-x,y,z
1/2+x,1/2+y,z
1/2-x,1/2-y,1/2+z
1/2+x,1/2-y,1/2+z
1/2-x,1/2+y,z
loop_
_atom_site_type_symbol
_atom_site_label
_atom_site_fract_x
_atom_site_fract_y
_atom_site_fract_z
Si Si1 0.815078 0.003241 0.870540
Si Si2 0.185429 0.648097 0.548718
Si Si3 0.187466 0.852780 0.797510
Si Si4 0.185546 0.499389 0.972559
Si Si5 0.314601 0.853040 0.548974
Si Si6 0.813288 0.003394 0.724790
Si Si7 0.185682 0.000639 0.618356
Si Si8 0.685578 0.143306 0.797850
O O1 0.761099 0.000328 0.922831
O O2 0.745571 0.088558 0.842364
O O3 0.000000 0.008871 0.868273
O O4 0.765885 0.912310 0.842008
O O5 0.228263 0.589668 0.503092
O O6 0.249300 0.750727 0.547696
O O7 0.251359 0.589293 0.591236
O O8 0.000000 0.649184 0.551748
O O9 0.241541 0.748368 0.797711
O O10 0.000000 0.850026 0.797497
O O11 0.233961 0.911875 0.752841
O O12 0.000000 0.499577 0.967444
O O13 0.228107 0.587886 0.003547
O O14 0.500000 0.850942 0.551713
O O15 0.250014 0.911803 0.591686
O O16 0.745751 0.088236 0.753450
O O17 0.000000 0.008885 0.726779
O O18 0.766772 0.001667 0.671689
O O19 0.000000 0.999842 0.616035
O O20 0.500000 0.142159 0.797934
#
# Coordination Sequence:
#
# PCOD9351050 Si02
#       8
#     8   8   8   8   8   8   8   8
#     4  10  20  35  54  75 103 138 174 215 262 315
#     4  10  21  37  56  79 109 142 179 224 269 320
#     4   8  17  34  52  72 101 135 169 206 254 308
#     4   9  20  37  54  76 106 137 173 219 266 316
#     4  10  21  37  56  79 109 142 179 224 269 320
#     4   9  19  36  54  76 106 137 172 215 262 314
#     4  10  20  35  56  80 109 144 179 221 272 323
#     4  10  19  33  54  77 103 137 175 216 260 308
#
# _framework density 17.463518000000001
#
# number of rings (size 3 to 8) (size 9 to 14) (size 15 to 20)
#    0.000    2.500    0.000    3.375    0.000    6.000 
#    0.000   11.250    0.000    0.000    0.000    0.000 
#    0.000    0.000    0.000    0.000    0.000    0.000 
#
# Total GULP energy -178533.270321 kJ/mol
# GULP energy per Si atom -5579.164698 kJ/mol
# Density = 1.742377 g / cm^3
# Si number density = 17.463518 Si / 1000 Ang^3
#
#
#
# Elastic Constant Matrix: (Units=GPa)
#
#
# Indices 1 2 3 4 5 6 
#
# 1 42.7489 45.1406 51.0017 0.0000 0.0000 0.0000
# 2 45.1406 199.0828 105.0032 0.0000 0.0000 0.0000
# 3 51.0017 105.0032 190.5255 0.0000 0.0000 0.0000
# 4 0.0000 0.0000 0.0000 5.2330 0.0000 0.0000
# 5 0.0000 0.0000 0.0000 0.0000 31.8860 0.0000
# 6 0.0000 0.0000 0.0000 0.0000 0.0000 26.3079
#
#
#
# Elastic Compliance Matrix: (Units=1/GPa)
#
#
# Indices 1 2 3 4 5 6 
#
# 1 0.036980 -0.004460 -0.007441 0.000000 0.000000 0.000000
# 2 -0.004460 0.007619 -0.003005 0.000000 0.000000 0.000000
# 3 -0.007441 -0.003005 0.008897 0.000000 0.000000 0.000000
# 4 0.000000 0.000000 0.000000 0.191097 0.000000 0.000000
# 5 0.000000 0.000000 0.000000 0.000000 0.031362 0.000000
# 6 0.000000 0.000000 0.000000 0.000000 0.000000 0.038011
#
#
# Mechanical properties :
#
#
# Convention : Reuss Voigt Hill
#
# Bulk Modulus (GPa) = 42.22457 92.73866 67.48162
# Shear Modulus (GPa) = 14.21777 28.09948 21.15863
#
# Velocity S-wave (km/s) = 2.85641 4.01563 3.48457
# Velocity P-wave (km/s) = 5.92537 8.64407 7.41046
#
# Compressibility (1/GPa) = 0.02368289
#
# Stress axis : x y z
#
# Youngs Moduli (GPa) = 27.04199 131.24270 112.40022
#
# Poissons Ratio (x) = 0.58538 0.83636
# Poissons Ratio (y) = 0.12061 0.33780
# Poissons Ratio (z) = 0.20122 0.39442
#
# Static dielectric constant tensor:
#      x y z
#    x 1.592010 0.000000 0.000000 
#    y 0.000000 1.577340 0.000000 
#    z 0.000000 0.000000 1.571600 
# 
# From -- ./inp_files/17338.got.cif
#   From: 2010.05.17/outbox.cif.g08.bks.cpg/sg36_9_cif.got.tgz:17338.got - 2010.06.03 17:41:39.
