data_PCOD9351426
_publ_section_title
;
Structure prediction by ZEFSAII (Michael W. Deem and Ramdas Pophale) SiO2 
 PCOD9351426
Probable space group: C M C 21
;
_chemical_formula_sum "Si O2"
_cell_formula_units_Z 64
_cell_length_a 29.985418
_cell_length_b 8.548454
_cell_length_c 10.997411
_cell_angle_alpha 90.000000
_cell_angle_beta 90.000000
_cell_angle_gamma 90.000000
_cell_volume 2818.954995
_symmetry_space_group_name_H-M "C M C 21"
_symmetry_group_IT_number 36
_symmetry_cell_setting 'orthorhombic'
loop_
_space_group_symop_operation_xyz
x,y,z
-x,-y,1/2+z
x,-y,1/2+z
-x,y,z
1/2+x,1/2+y,z
1/2-x,1/2-y,1/2+z
1/2+x,1/2-y,1/2+z
1/2-x,1/2+y,z
loop_
_atom_site_type_symbol
_atom_site_label
_atom_site_fract_x
_atom_site_fract_y
_atom_site_fract_z
Si Si1 0.312896 0.085144 0.727290
Si Si2 0.948604 0.428594 0.868929
Si Si3 0.885244 0.031705 0.524496
Si Si4 0.449052 0.287951 0.605451
Si Si5 0.103988 0.285318 0.342703
Si Si6 0.130533 0.316277 0.701560
Si Si7 0.762271 0.853662 0.817563
Si Si8 0.187812 0.147265 0.913609
O O1 0.347347 0.135741 0.833965
O O2 0.285896 0.246832 0.714884
O O3 0.344957 0.972230 0.648718
O O4 0.273506 0.967415 0.758315
O O5 0.928478 0.595187 0.911500
O O6 0.916345 0.365786 0.761897
O O7 0.000000 0.443854 0.830093
O O8 0.946370 0.312055 0.982501
O O9 0.893806 0.111028 0.394105
O O10 0.871491 0.179212 0.604651
O O11 0.930407 0.958278 0.574091
O O12 0.848119 0.893935 0.518342
O O13 0.500000 0.289213 0.647995
O O14 0.417006 0.222686 0.709056
O O15 0.159445 0.240823 0.812077
O O16 0.734166 0.746788 0.913963
O O17 0.797014 0.972265 0.877188
#
# Coordination Sequence:
#
# PCOD9351426 Si02
#       8
#     8   8   8   8   8   8   8   8
#     4   9  19  37  66  90 127 173 217 271 326 388
#     4  10  23  44  68  96 130 170 221 282 338 404
#     4  12  24  41  67  98 137 177 223 273 349 407
#     4  11  26  45  69 100 133 175 226 280 343 412
#     4  11  24  43  69  99 133 180 222 280 341 411
#     4  10  22  40  63  95 130 178 220 271 336 407
#     4   9  18  36  67  89 129 174 219 277 322 390
#     4  10  19  40  61  91 129 175 216 274 328 393
#
# _framework density 22.70345
#
# number of rings (size 3 to 8) (size 9 to 14) (size 15 to 20)
#    0.000    1.750    2.500    1.125    3.500    1.500 
#    0.000    5.000    0.000    0.000    0.000    0.000 
#    0.000    0.000    0.000    0.000    0.000    0.000 
#
# Total GULP energy -178425.981347 kJ/mol
# GULP energy per Si atom -5575.811917 kJ/mol
# Density = 2.265178 g / cm^3
# Si number density = 22.703450 Si / 1000 Ang^3
#
#
#
# Elastic Constant Matrix: (Units=GPa)
#
#
# Indices 1 2 3 4 5 6 
#
# 1 129.8823 35.5987 24.8790 0.0000 0.0000 0.0000
# 2 35.5987 94.7783 1.6649 0.0000 0.0000 0.0000
# 3 24.8790 1.6649 30.0770 0.0000 0.0000 0.0000
# 4 0.0000 0.0000 0.0000 20.8694 0.0000 0.0000
# 5 0.0000 0.0000 0.0000 0.0000 12.6237 0.0000
# 6 0.0000 0.0000 0.0000 0.0000 0.0000 30.6381
#
#
#
# Elastic Compliance Matrix: (Units=1/GPa)
#
#
# Indices 1 2 3 4 5 6 
#
# 1 0.010316 -0.003729 -0.008327 0.000000 0.000000 0.000000
# 2 -0.003729 0.011909 0.002425 0.000000 0.000000 0.000000
# 3 -0.008327 0.002425 0.040002 0.000000 0.000000 0.000000
# 4 0.000000 0.000000 0.000000 0.047917 0.000000 0.000000
# 5 0.000000 0.000000 0.000000 0.000000 0.079216 0.000000
# 6 0.000000 0.000000 0.000000 0.000000 0.000000 0.032639
#
#
# Mechanical properties :
#
#
# Convention : Reuss Voigt Hill
#
# Bulk Modulus (GPa) = 23.27444 42.11365 32.69404
# Shear Modulus (GPa) = 19.56319 25.66589 22.61454
#
# Velocity S-wave (km/s) = 2.93863 3.36592 3.15950
# Velocity P-wave (km/s) = 4.66774 5.80479 5.26704
#
# Compressibility (1/GPa) = 0.04296559
#
# Stress axis : x y z
#
# Youngs Moduli (GPa) = 96.93454 83.97173 24.99894
#
# Poissons Ratio (x) = 0.31309 0.20817
# Poissons Ratio (y) = 0.36142 -0.06062
# Poissons Ratio (z) = 0.80717 -0.20363
#
# Static dielectric constant tensor:
#      x y z
#    x 1.851600 0.000000 0.000000 
#    y 0.000000 1.871060 0.000000 
#    z 0.000000 0.000000 1.912070 
# 
# From -- ./inp_files/9740.got.cif
#   From: 2010.05.17/outbox.cif.g08.bks.cpg/sg36_5_cif.got.tgz:9740.got - 2010.06.03 17:41:39.
