data_PCOD9351107
_publ_section_title
;
Structure prediction by ZEFSAII (Michael W. Deem and Ramdas Pophale) SiO2 
 PCOD9351107
Probable space group: C M C 21
;
_chemical_formula_sum "Si O2"
_cell_formula_units_Z 64
_cell_length_a 8.934211
_cell_length_b 21.688273
_cell_length_c 14.258237
_cell_angle_alpha 90.000000
_cell_angle_beta 90.000000
_cell_angle_gamma 90.000000
_cell_volume 2762.784466
_symmetry_space_group_name_H-M "C M C 21"
_symmetry_group_IT_number 36
_symmetry_cell_setting 'orthorhombic'
loop_
_space_group_symop_operation_xyz
x,y,z
-x,-y,1/2+z
x,-y,1/2+z
-x,y,z
1/2+x,1/2+y,z
1/2-x,1/2-y,1/2+z
1/2+x,1/2-y,1/2+z
1/2-x,1/2+y,z
loop_
_atom_site_type_symbol
_atom_site_label
_atom_site_fract_x
_atom_site_fract_y
_atom_site_fract_z
Si Si1 0.320841 0.979201 0.649310
Si Si2 0.671568 0.406604 0.370227
Si Si3 0.177247 0.657949 0.145853
Si Si4 0.828274 0.785882 0.812593
Si Si5 0.173152 0.656793 0.699093
Si Si6 0.676220 0.970186 0.872578
Si Si7 0.171976 0.223342 0.981052
Si Si8 0.177660 0.906730 0.039167
O O1 0.500000 0.989086 0.635867
O O2 0.280827 0.910786 0.614309
O O3 0.293687 0.974318 0.761329
O O4 0.230280 0.032502 0.597645
O O5 0.500000 0.428430 0.365436
O O6 0.732407 0.386729 0.268438
O O7 0.774185 0.461764 0.407228
O O8 0.674674 0.343481 0.428960
O O9 0.228759 0.667965 0.252321
O O10 0.000000 0.664333 0.139701
O O11 0.254570 0.707789 0.079762
O O12 0.823789 0.722800 0.750305
O O13 0.762415 0.768425 0.913142
O O14 0.000000 0.805974 0.818916
O O15 0.242993 0.648659 0.596224
O O16 0.000000 0.636770 0.696326
O O17 0.500000 0.960470 0.886257
O O18 0.764677 0.920280 0.934237
O O19 0.000000 0.243029 0.991484
O O20 0.000000 0.899506 0.041060
#
# Coordination Sequence:
#
# PCOD9351107 Si02
#       8
#     8   8   8   8   8   8   8   8
#     4  10  23  42  63  89 123 166 206 247 304 368
#     4  10  19  33  57  89 120 152 197 251 298 344
#     4  11  23  41  64  91 124 162 207 255 305 365
#     4  10  22  41  65  91 119 158 204 254 308 360
#     4  10  20  37  60  84 114 153 197 243 298 362
#     4  11  22  37  58  84 121 165 205 242 297 368
#     4  10  21  38  62  92 123 159 205 254 304 362
#     4  12  24  37  59  90 124 159 201 252 304 359
#
# _framework density 23.165035
#
# number of rings (size 3 to 8) (size 9 to 14) (size 15 to 20)
#    0.000    1.500    1.250    4.125    0.000    6.500 
#    2.250    0.000    0.000    0.000    0.000    0.000 
#    0.000    0.000    0.000    0.000    0.000    0.000 
#
# Total GULP energy -179145.702078 kJ/mol
# GULP energy per Si atom -5598.303190 kJ/mol
# Density = 2.311231 g / cm^3
# Si number density = 23.165035 Si / 1000 Ang^3
#
#
#
# Elastic Constant Matrix: (Units=GPa)
#
#
# Indices 1 2 3 4 5 6 
#
# 1 55.1576 -16.4567 26.0700 0.0000 0.0000 0.0000
# 2 -16.4567 42.2798 7.1240 0.0000 0.0000 0.0000
# 3 26.0700 7.1240 115.8417 0.0000 0.0000 0.0000
# 4 0.0000 0.0000 0.0000 40.4449 0.0000 0.0000
# 5 0.0000 0.0000 0.0000 0.0000 36.0620 0.0000
# 6 0.0000 0.0000 0.0000 0.0000 0.0000 21.3427
#
#
#
# Elastic Compliance Matrix: (Units=1/GPa)
#
#
# Indices 1 2 3 4 5 6 
#
# 1 0.024099 0.010402 -0.006063 0.000000 0.000000 0.000000
# 2 0.010402 0.028389 -0.004087 0.000000 0.000000 0.000000
# 3 -0.006063 -0.004087 0.010248 0.000000 0.000000 0.000000
# 4 0.000000 0.000000 0.000000 0.024725 0.000000 0.000000
# 5 0.000000 0.000000 0.000000 0.000000 0.027730 0.000000
# 6 0.000000 0.000000 0.000000 0.000000 0.000000 0.046854
#
#
# Mechanical properties :
#
#
# Convention : Reuss Voigt Hill
#
# Bulk Modulus (GPa) = 15.81267 27.41708 21.61487
# Shear Modulus (GPa) = 27.37887 32.67270 30.02579
#
# Velocity S-wave (km/s) = 3.44161 3.75965 3.60414
# Velocity P-wave (km/s) = 4.75751 5.54146 5.16438
#
# Compressibility (1/GPa) = 0.06324042
#
# Stress axis : x y z
#
# Youngs Moduli (GPa) = 41.49538 35.22450 97.57717
#
# Poissons Ratio (x) = -0.36640 0.59162
# Poissons Ratio (y) = -0.43163 0.39878
# Poissons Ratio (z) = 0.25159 0.14396
#
# Static dielectric constant tensor:
#      x y z
#    x 1.767710 0.000000 0.000000 
#    y 0.000000 1.916810 0.000000 
#    z 0.000000 0.000000 1.879520 
# 
# From -- ./inp_files/10990.got.cif
#   From: 2010.05.17/outbox.cif.g08.bks.cpg/sg36_6_cif.got.tgz:10990.got - 2010.06.03 17:41:39.
