data_PCOD9351506
_publ_section_title
;
Structure prediction by ZEFSAII (Michael W. Deem and Ramdas Pophale) SiO2 
 PCOD9351506
Probable space group: C M C 21
;
_chemical_formula_sum "Si O2"
_cell_formula_units_Z 64
_cell_length_a 13.790805
_cell_length_b 25.218192
_cell_length_c 9.151681
_cell_angle_alpha 90.000000
_cell_angle_beta 90.000000
_cell_angle_gamma 90.000000
_cell_volume 3182.764007
_symmetry_space_group_name_H-M "C M C 21"
_symmetry_group_IT_number 36
_symmetry_cell_setting 'orthorhombic'
loop_
_space_group_symop_operation_xyz
x,y,z
-x,-y,1/2+z
x,-y,1/2+z
-x,y,z
1/2+x,1/2+y,z
1/2-x,1/2-y,1/2+z
1/2+x,1/2-y,1/2+z
1/2-x,1/2+y,z
loop_
_atom_site_type_symbol
_atom_site_label
_atom_site_fract_x
_atom_site_fract_y
_atom_site_fract_z
Si Si1 0.116927 0.450113 0.043980
Si Si2 0.114714 0.059396 0.379795
Si Si3 0.611254 0.219370 0.887115
Si Si4 0.116419 0.554626 0.206539
Si Si5 0.611917 0.826919 0.699786
Si Si6 0.705216 0.671468 0.393416
Si Si7 0.885334 0.050736 0.729321
Si Si8 0.760751 0.637648 0.708290
O O1 0.151768 0.505712 0.111283
O O2 0.161154 0.402724 0.137611
O O3 0.000000 0.447378 0.048361
O O4 0.147924 0.446613 0.875344
O O5 0.166519 0.114431 0.339316
O O6 0.127570 0.050406 0.553631
O O7 0.000000 0.066560 0.353476
O O8 0.143666 0.005955 0.295717
O O9 0.500000 0.206455 0.847834
O O10 0.636435 0.279967 0.851614
O O11 0.685463 0.179699 0.809026
O O12 0.620780 0.210974 0.061409
O O13 0.133202 0.613055 0.144660
O O14 0.000000 0.547943 0.210868
O O15 0.500000 0.826301 0.752577
O O16 0.689279 0.816669 0.825740
O O17 0.712823 0.666407 0.568519
O O18 0.819304 0.099597 0.782895
O O19 0.000000 0.058871 0.760206
#
# Coordination Sequence:
#
# PCOD9351506 Si02
#       8
#     8   8   8   8   8   8   8   8
#     4  10  20  33  53  84 122 156 194 238 291 359
#     4   9  19  37  61  88 121 159 199 248 300 353
#     4  11  25  43  63  88 118 155 205 255 299 357
#     4   9  19  34  53  81 118 158 192 232 292 353
#     4  10  22  40  60  86 123 160 197 248 301 356
#     4  11  22  41  63  87 117 162 207 247 298 358
#     4   9  20  37  58  88 122 155 195 243 301 362
#     4  11  23  37  62  88 121 157 200 249 307 354
#
# _framework density 20.108308000000001
#
# number of rings (size 3 to 8) (size 9 to 14) (size 15 to 20)
#    0.000    2.000    1.250    1.500    3.500    2.000 
#    0.000    0.625    0.000    0.750    0.000    0.000 
#    0.000    0.000    0.000    0.000    0.000    0.000 
#
# Total GULP energy -178746.137670 kJ/mol
# GULP energy per Si atom -5585.816802 kJ/mol
# Density = 2.006254 g / cm^3
# Si number density = 20.108308 Si / 1000 Ang^3
#
#
#
# Elastic Constant Matrix: (Units=GPa)
#
#
# Indices 1 2 3 4 5 6 
#
# 1 102.0771 54.7194 26.7044 0.0000 0.0000 0.0000
# 2 54.7194 126.3518 30.6151 0.0000 0.0000 0.0000
# 3 26.7044 30.6151 21.5633 0.0000 0.0000 0.0000
# 4 0.0000 0.0000 0.0000 25.3390 0.0000 0.0000
# 5 0.0000 0.0000 0.0000 0.0000 27.2661 0.0000
# 6 0.0000 0.0000 0.0000 0.0000 0.0000 37.4127
#
#
#
# Elastic Compliance Matrix: (Units=1/GPa)
#
#
# Indices 1 2 3 4 5 6 
#
# 1 0.015244 -0.003091 -0.014490 0.000000 0.000000 0.000000
# 2 -0.003091 0.012692 -0.014192 0.000000 0.000000 0.000000
# 3 -0.014490 -0.014192 0.084469 0.000000 0.000000 0.000000
# 4 0.000000 0.000000 0.000000 0.039465 0.000000 0.000000
# 5 0.000000 0.000000 0.000000 0.000000 0.036676 0.000000
# 6 0.000000 0.000000 0.000000 0.000000 0.000000 0.026729
#
#
# Mechanical properties :
#
#
# Convention : Reuss Voigt Hill
#
# Bulk Modulus (GPa) = 20.46690 52.67445 36.57067
# Shear Modulus (GPa) = 16.94305 27.20043 22.07174
#
# Velocity S-wave (km/s) = 2.90589 3.68189 3.31666
# Velocity P-wave (km/s) = 4.63242 6.65788 5.73527
#
# Compressibility (1/GPa) = 0.04885937
#
# Stress axis : x y z
#
# Youngs Moduli (GPa) = 65.59872 78.79249 11.83865
#
# Poissons Ratio (x) = 0.24353 0.17155
# Poissons Ratio (y) = 0.20275 0.16801
# Poissons Ratio (z) = 0.95055 1.11819
#
# Static dielectric constant tensor:
#      x y z
#    x 1.750460 0.000000 0.000000 
#    y 0.000000 1.696620 0.000000 
#    z 0.000000 0.000000 1.687650 
# 
# From -- ./inp_files/4332.got.cif
#   From: 2010.05.17/outbox.cif.g08.bks.cpg/sg36_3_cif.got.tgz:4332.got - 2010.06.03 17:41:39.
