data_PCOD9351054
_publ_section_title
;
Structure prediction by ZEFSAII (Michael W. Deem and Ramdas Pophale) SiO2 
 PCOD9351054
Probable space group: C M C 21
;
_chemical_formula_sum "Si O2"
_cell_formula_units_Z 48
_cell_length_a 17.938021
_cell_length_b 13.266931
_cell_length_c 9.770404
_cell_angle_alpha 90.000000
_cell_angle_beta 90.000000
_cell_angle_gamma 90.000000
_cell_volume 2325.185042
_symmetry_space_group_name_H-M "C M C 21"
_symmetry_group_IT_number 36
_symmetry_cell_setting 'orthorhombic'
loop_
_space_group_symop_operation_xyz
x,y,z
-x,-y,1/2+z
x,-y,1/2+z
-x,y,z
1/2+x,1/2+y,z
1/2-x,1/2-y,1/2+z
1/2+x,1/2-y,1/2+z
1/2-x,1/2+y,z
loop_
_atom_site_type_symbol
_atom_site_label
_atom_site_fract_x
_atom_site_fract_y
_atom_site_fract_z
Si Si1 0.587493 0.152055 0.480720
Si Si2 0.797176 0.257579 0.469848
Si Si3 0.668884 0.709505 0.764010
Si Si4 0.317812 0.512988 0.185915
Si Si5 0.911778 0.212268 0.248776
Si Si6 0.773544 0.538111 0.442510
O O1 0.500000 0.129957 0.474052
O O2 0.611259 0.228797 0.358331
O O3 0.603346 0.211489 0.622806
O O4 0.639284 0.052354 0.470147
O O5 0.741196 0.307675 0.360417
O O6 0.810106 0.277143 0.630564
O O7 0.874701 0.251628 0.388500
O O8 0.758355 0.148580 0.476060
O O9 0.645742 0.597708 0.711008
O O10 0.373127 0.604707 0.216673
O O11 0.247836 0.518349 0.288031
O O12 0.279771 0.526708 0.039269
O O13 0.000000 0.200297 0.260996
#
# Coordination Sequence:
#
# PCOD9351054 Si02
#       6
#     8   8   8   8   8   8
#     4  10  21  37  54  74 105 144 179 214 263 318
#     4   9  18  33  53  77 104 138 176 210 254 317
#     4  10  19  33  56  80 104 135 176 219 257 311
#     4  10  19  33  54  80 104 132 173 218 264 309
#     4  10  20  34  52  76 109 141 170 213 269 321
#     4   9  19  34  53  75 102 136 176 218 257 312
#
# _framework density 20.643518
#
# number of rings (size 3 to 8) (size 9 to 14) (size 15 to 20)
#    0.000    2.333    0.000    4.000    0.000    4.000 
#    0.000   10.833    0.000    1.000    0.000    0.000 
#    0.000    0.000    0.000    0.000    0.000    0.000 
#
# Total GULP energy -133733.093561 kJ/mol
# GULP energy per Si atom -5572.212232 kJ/mol
# Density = 2.059653 g / cm^3
# Si number density = 20.643518 Si / 1000 Ang^3
#
#
#
# Elastic Constant Matrix: (Units=GPa)
#
#
# Indices 1 2 3 4 5 6 
#
# 1 88.9850 8.2336 26.3652 0.0000 0.0000 0.0000
# 2 8.2336 17.3502 2.1016 0.0000 0.0000 0.0000
# 3 26.3652 2.1016 124.0553 0.0000 0.0000 0.0000
# 4 0.0000 0.0000 0.0000 13.3688 0.0000 0.0000
# 5 0.0000 0.0000 0.0000 0.0000 25.9612 0.0000
# 6 0.0000 0.0000 0.0000 0.0000 0.0000 6.9933
#
#
#
# Elastic Compliance Matrix: (Units=1/GPa)
#
#
# Indices 1 2 3 4 5 6 
#
# 1 0.012519 -0.005630 -0.002565 0.000000 0.000000 0.000000
# 2 -0.005630 0.060287 0.000175 0.000000 0.000000 0.000000
# 3 -0.002565 0.000175 0.008603 0.000000 0.000000 0.000000
# 4 0.000000 0.000000 0.000000 0.074801 0.000000 0.000000
# 5 0.000000 0.000000 0.000000 0.000000 0.038519 0.000000
# 6 0.000000 0.000000 0.000000 0.000000 0.000000 0.142994
#
#
# Mechanical properties :
#
#
# Convention : Reuss Voigt Hill
#
# Bulk Modulus (GPa) = 15.29789 33.75460 24.52625
# Shear Modulus (GPa) = 13.31371 22.17733 17.74552
#
# Velocity S-wave (km/s) = 2.54231 3.28121 2.93510
# Velocity P-wave (km/s) = 4.00554 5.54453 4.83664
#
# Compressibility (1/GPa) = 0.06536847
#
# Stress axis : x y z
#
# Youngs Moduli (GPa) = 79.87957 16.58740 116.23667
#
# Poissons Ratio (x) = 0.09339 0.29817
# Poissons Ratio (y) = 0.44974 -0.02037
# Poissons Ratio (z) = 0.20491 -0.00291
#
# Static dielectric constant tensor:
#      x y z
#    x 1.717140 0.000000 0.000000 
#    y 0.000000 1.881160 0.000000 
#    z 0.000000 0.000000 1.763460 
# 
# From -- ./inp_files/4666.got.cif
#   From: 2010.05.17/outbox.cif.g08.bks.cpg/sg36_3_cif.got.tgz:4666.got - 2010.06.03 17:41:39.
