data_PCOD9351467
_publ_section_title
;
Structure prediction by ZEFSAII (Michael W. Deem and Ramdas Pophale) SiO2 
 PCOD9351467
Probable space group: C M C 21
;
_chemical_formula_sum "Si O2"
_cell_formula_units_Z 48
_cell_length_a 9.346512
_cell_length_b 32.349268
_cell_length_c 7.159820
_cell_angle_alpha 90.000000
_cell_angle_beta 90.000000
_cell_angle_gamma 90.000000
_cell_volume 2164.791779
_symmetry_space_group_name_H-M "C M C 21"
_symmetry_group_IT_number 36
_symmetry_cell_setting 'orthorhombic'
loop_
_space_group_symop_operation_xyz
x,y,z
-x,-y,1/2+z
x,-y,1/2+z
-x,y,z
1/2+x,1/2+y,z
1/2-x,1/2-y,1/2+z
1/2+x,1/2-y,1/2+z
1/2-x,1/2+y,z
loop_
_atom_site_type_symbol
_atom_site_label
_atom_site_fract_x
_atom_site_fract_y
_atom_site_fract_z
Si Si1 0.161388 0.697236 0.655080
Si Si2 0.334750 0.467691 0.346972
Si Si3 0.164479 0.056082 0.280632
Si Si4 0.832684 0.880333 0.244477
Si Si5 0.167932 0.855861 0.686764
Si Si6 0.838898 0.721518 0.090009
O O1 0.245621 0.654382 0.636023
O O2 0.152414 0.705218 0.878416
O O3 0.247474 0.736842 0.584445
O O4 0.000000 0.695173 0.582449
O O5 0.500000 0.473429 0.282536
O O6 0.340591 0.452787 0.559123
O O7 0.266812 0.513330 0.351510
O O8 0.278655 0.427990 0.232441
O O9 0.221144 0.102754 0.292789
O O10 0.000000 0.058127 0.349980
O O11 0.827917 0.867484 0.464756
O O12 0.000000 0.879420 0.192971
O O13 0.260331 0.814545 0.706674
O O14 0.000000 0.848561 0.731646
O O15 0.000000 0.729895 0.156927
#
# Coordination Sequence:
#
# PCOD9351467 Si02
#       6
#     8   8   8   8   8   8
#     4  10  20  33  50  71  93 120 155 192 232 278
#     4   8  13  22  38  60  84 111 144 181 220 260
#     4   8  13  22  38  60  84 111 144 181 220 260
#     4   8  14  26  44  64  88 119 151 183 223 270
#     4   8  14  26  44  64  88 119 151 183 223 270
#     4  10  20  33  50  71  93 120 155 192 232 278
#
# _framework density 22.173033
#
# number of rings (size 3 to 8) (size 9 to 14) (size 15 to 20)
#    0.000    3.333    0.000    3.000    0.000    2.000 
#    0.000    1.667    0.000    7.000    0.000    0.000 
#    0.000    0.000    0.000    0.000    0.000    0.000 
#
# Total GULP energy -133858.722328 kJ/mol
# GULP energy per Si atom -5577.446764 kJ/mol
# Density = 2.212257 g / cm^3
# Si number density = 22.173033 Si / 1000 Ang^3
#
#
#
# Elastic Constant Matrix: (Units=GPa)
#
#
# Indices 1 2 3 4 5 6 
#
# 1 85.7857 83.3826 9.0264 0.0000 0.0000 0.0000
# 2 83.3826 222.7739 33.5711 0.0000 0.0000 0.0000
# 3 9.0264 33.5711 52.9017 0.0000 0.0000 0.0000
# 4 0.0000 0.0000 0.0000 44.6086 0.0000 0.0000
# 5 0.0000 0.0000 0.0000 0.0000 9.3616 0.0000
# 6 0.0000 0.0000 0.0000 0.0000 0.0000 26.0154
#
#
#
# Elastic Compliance Matrix: (Units=1/GPa)
#
#
# Indices 1 2 3 4 5 6 
#
# 1 0.018411 -0.007096 0.001362 0.000000 0.000000 0.000000
# 2 -0.007096 0.007699 -0.003675 0.000000 0.000000 0.000000
# 3 0.001362 -0.003675 0.021003 0.000000 0.000000 0.000000
# 4 0.000000 0.000000 0.000000 0.022417 0.000000 0.000000
# 5 0.000000 0.000000 0.000000 0.000000 0.106819 0.000000
# 6 0.000000 0.000000 0.000000 0.000000 0.000000 0.038439
#
#
# Mechanical properties :
#
#
# Convention : Reuss Voigt Hill
#
# Bulk Modulus (GPa) = 35.34306 68.15795 51.75051
# Shear Modulus (GPa) = 20.57295 31.69587 26.13441
#
# Velocity S-wave (km/s) = 3.04935 3.78495 3.43688
# Velocity P-wave (km/s) = 5.32656 7.06448 6.25617
#
# Compressibility (1/GPa) = 0.02829410
#
# Stress axis : x y z
#
# Youngs Moduli (GPa) = 54.31443 129.89071 47.61321
#
# Poissons Ratio (x) = 0.92176 -0.06485
# Poissons Ratio (y) = 0.38544 0.17497
# Poissons Ratio (z) = -0.07397 0.47732
#
# Static dielectric constant tensor:
#      x y z
#    x 1.775900 0.000000 0.000000 
#    y 0.000000 1.861020 0.000000 
#    z 0.000000 0.000000 1.932810 
# 
# From -- ./inp_files/2700.got.cif
#   From: 2010.05.17/outbox.cif.g08.bks.cpg/sg36_2_cif.got.tgz:2700.got - 2010.06.03 17:41:39.
