data_PCOD9351876
_publ_section_title
;
Structure prediction by ZEFSAII (Michael W. Deem and Ramdas Pophale) SiO2 
 PCOD9351876
Probable space group: C M C 21
;
_chemical_formula_sum "Si O2"
_cell_formula_units_Z 56
_cell_length_a 12.894751
_cell_length_b 22.014387
_cell_length_c 10.304011
_cell_angle_alpha 90.000000
_cell_angle_beta 90.000000
_cell_angle_gamma 90.000000
_cell_volume 2925.000002
_symmetry_space_group_name_H-M "C M C 21"
_symmetry_group_IT_number 36
_symmetry_cell_setting 'orthorhombic'
loop_
_space_group_symop_operation_xyz
x,y,z
-x,-y,1/2+z
x,-y,1/2+z
-x,y,z
1/2+x,1/2+y,z
1/2-x,1/2-y,1/2+z
1/2+x,1/2-y,1/2+z
1/2-x,1/2+y,z
loop_
_atom_site_type_symbol
_atom_site_label
_atom_site_fract_x
_atom_site_fract_y
_atom_site_fract_z
Si Si1 0.281904 0.159638 0.706270
Si Si2 0.612521 0.727051 0.107206
Si Si3 0.715118 0.867009 0.708492
Si Si4 0.120056 0.061613 0.624668
Si Si5 0.375530 0.918898 0.440209
Si Si6 0.887388 0.748438 0.306389
Si Si7 0.706390 0.516184 0.362553
O O1 0.366125 0.202284 0.639128
O O2 0.213658 0.111003 0.627182
O O3 0.333891 0.128185 0.831120
O O4 0.197109 0.210026 0.740770
O O5 0.500000 0.709842 0.159905
O O6 0.694453 0.677884 0.157258
O O7 0.611628 0.727815 0.952527
O O8 0.657055 0.894834 0.582804
O O9 0.642246 0.821927 0.790933
O O10 0.760209 0.920738 0.796182
O O11 0.137374 0.025615 0.490714
O O12 0.000000 0.083426 0.631381
O O13 0.145215 0.021523 0.752148
O O14 0.500000 0.926519 0.432023
O O15 0.309349 0.979392 0.407480
O O16 0.000000 0.757667 0.246249
#
# Coordination Sequence:
#
# PCOD9351876 Si02
#       7
#     8   8   8   8   8   8   8
#     4  10  21  39  59  90 125 159 205 260 305 385
#     4  10  21  38  62  91 124 163 202 255 323 379
#     4  11  22  41  62  91 128 164 213 267 311 387
#     4  11  23  41  66  91 126 169 211 263 320 375
#     4  11  23  41  63  88 125 171 215 268 325 370
#     4  10  20  36  62  89 120 161 202 252 315 376
#     4  11  24  44  62  94 128 163 218 269 313 382
#
# _framework density 19.145299000000001
#
# number of rings (size 3 to 8) (size 9 to 14) (size 15 to 20)
#    0.000    1.429    2.857    2.571    0.000    2.286 
#    0.000    0.714    0.000    0.000    0.000    0.000 
#    0.000    0.000    0.000    0.000    0.000    0.000 
#
# Total GULP energy -156110.790928 kJ/mol
# GULP energy per Si atom -5575.385390 kJ/mol
# Density = 1.910172 g / cm^3
# Si number density = 19.145299 Si / 1000 Ang^3
#
#
#
# Elastic Constant Matrix: (Units=GPa)
#
#
# Indices 1 2 3 4 5 6 
#
# 1 120.9080 25.6387 24.7236 0.0000 0.0000 0.0000
# 2 25.6387 80.0302 19.0781 0.0000 0.0000 0.0000
# 3 24.7236 19.0781 46.5301 0.0000 0.0000 0.0000
# 4 0.0000 0.0000 0.0000 29.4042 0.0000 0.0000
# 5 0.0000 0.0000 0.0000 0.0000 27.8195 0.0000
# 6 0.0000 0.0000 0.0000 0.0000 0.0000 18.0748
#
#
#
# Elastic Compliance Matrix: (Units=1/GPa)
#
#
# Indices 1 2 3 4 5 6 
#
# 1 0.009575 -0.002055 -0.004245 0.000000 0.000000 0.000000
# 2 -0.002055 0.014290 -0.004767 0.000000 0.000000 0.000000
# 3 -0.004245 -0.004767 0.025701 0.000000 0.000000 0.000000
# 4 0.000000 0.000000 0.000000 0.034009 0.000000 0.000000
# 5 0.000000 0.000000 0.000000 0.000000 0.035946 0.000000
# 6 0.000000 0.000000 0.000000 0.000000 0.000000 0.055326
#
#
# Mechanical properties :
#
#
# Convention : Reuss Voigt Hill
#
# Bulk Modulus (GPa) = 36.45396 42.92767 39.69082
# Shear Modulus (GPa) = 24.25716 26.92823 25.59270
#
# Velocity S-wave (km/s) = 3.56336 3.75443 3.66014
# Velocity P-wave (km/s) = 6.00101 6.42379 6.21599
#
# Compressibility (1/GPa) = 0.02743186
#
# Stress axis : x y z
#
# Youngs Moduli (GPa) = 104.44329 69.97812 38.90838
#
# Poissons Ratio (x) = 0.14384 0.16515
# Poissons Ratio (y) = 0.21468 0.18548
# Poissons Ratio (z) = 0.44332 0.33359
#
# Static dielectric constant tensor:
#      x y z
#    x 1.699820 0.000000 0.000000 
#    y 0.000000 1.673180 0.000000 
#    z 0.000000 0.000000 1.658010 
# 
# From -- ./inp_files/7856.got.cif
#   From: 2010.05.17/outbox.cif.g08.bks.cpg/sg36_4_cif.got.tgz:7856.got - 2010.06.03 17:41:39.
