data_PCOD9351882
_publ_section_title
;
Structure prediction by ZEFSAII (Michael W. Deem and Ramdas Pophale) SiO2 
 PCOD9351882
Probable space group: C M C 21
;
_chemical_formula_sum "Si O2"
_cell_formula_units_Z 52
_cell_length_a 8.475570
_cell_length_b 17.938034
_cell_length_c 13.733540
_cell_angle_alpha 90.000000
_cell_angle_beta 90.000000
_cell_angle_gamma 90.000000
_cell_volume 2087.979617
_symmetry_space_group_name_H-M "C M C 21"
_symmetry_group_IT_number 36
_symmetry_cell_setting 'orthorhombic'
loop_
_space_group_symop_operation_xyz
x,y,z
-x,-y,1/2+z
x,-y,1/2+z
-x,y,z
1/2+x,1/2+y,z
1/2-x,1/2-y,1/2+z
1/2+x,1/2-y,1/2+z
1/2-x,1/2+y,z
loop_
_atom_site_type_symbol
_atom_site_label
_atom_site_fract_x
_atom_site_fract_y
_atom_site_fract_z
Si Si1 0.000000 0.491172 0.106081
Si Si2 0.673567 0.472698 0.369751
Si Si3 0.181910 0.151186 0.397466
Si Si4 0.680485 0.147522 0.194887
Si Si5 0.500000 0.901707 0.439451
Si Si6 0.174022 0.270127 0.082040
Si Si7 0.173953 0.011702 0.644238
Si Si8 0.500000 0.859874 0.237230
O O1 0.175816 0.463437 0.080444
O O2 0.000000 0.450648 0.214816
O O3 0.000000 0.573378 0.054200
O O4 0.500000 0.449088 0.407323
O O5 0.690638 0.561535 0.384569
O O6 0.670678 0.457286 0.253829
O O7 0.827893 0.435111 0.412708
O O8 0.240907 0.179631 0.292808
O O9 0.279779 0.185833 0.485647
O O10 0.000000 0.169208 0.414462
O O11 0.500000 0.128604 0.223386
O O12 0.698524 0.208688 0.110889
O O13 0.781572 0.075087 0.163805
O O14 0.500000 0.840536 0.351211
O O15 0.000000 0.234500 0.067703
O O16 0.143663 0.323609 0.175435
O O17 0.000000 0.023490 0.602303
#
# Coordination Sequence:
#
# PCOD9351882 Si02
#       8
#     4   8   8   8   4   8   8   4
#     4  12  22  40  64 100 120 176 215 255 332 387
#     4   9  19  35  61  91 121 160 214 270 308 369
#     4  10  20  36  62  96 120 161 220 270 313 375
#     4  11  21  38  64  93 123 166 215 271 322 377
#     4  12  22  38  66  88 132 172 208 257 329 389
#     4  10  22  40  59  86 129 171 206 256 327 381
#     4  10  20  38  63  91 124 156 213 277 316 366
#     4  10  24  42  62  90 136 174 203 270 323 390
#
# _framework density 24.904458000000002
#
# number of rings (size 3 to 8) (size 9 to 14) (size 15 to 20)
#    0.462    1.231    2.308    4.154    4.308    0.615 
#    2.769    3.077    0.000    0.000    0.000    0.000 
#    0.000    0.000    0.000    0.000    0.000    0.000 
#
# Total GULP energy -144738.815433 kJ/mol
# GULP energy per Si atom -5566.877517 kJ/mol
# Density = 2.484777 g / cm^3
# Si number density = 24.904458 Si / 1000 Ang^3
#
#
#
# Elastic Constant Matrix: (Units=GPa)
#
#
# Indices 1 2 3 4 5 6 
#
# 1 186.4500 2.5076 1.7763 0.0000 0.0000 0.0000
# 2 2.5076 58.7676 -8.8698 0.0000 0.0000 0.0000
# 3 1.7763 -8.8698 61.5354 0.0000 0.0000 0.0000
# 4 0.0000 0.0000 0.0000 29.0859 0.0000 0.0000
# 5 0.0000 0.0000 0.0000 0.0000 13.8629 0.0000
# 6 0.0000 0.0000 0.0000 0.0000 0.0000 -88.1300
#
#
#
# Elastic Compliance Matrix: (Units=1/GPa)
#
#
# Indices 1 2 3 4 5 6 
#
# 1 0.005369 -0.000258 -0.000192 0.000000 0.000000 0.000000
# 2 -0.000258 0.017407 0.002517 0.000000 0.000000 0.000000
# 3 -0.000192 0.002517 0.016619 0.000000 0.000000 0.000000
# 4 0.000000 0.000000 0.000000 0.034381 0.000000 0.000000
# 5 0.000000 0.000000 0.000000 0.000000 0.072135 0.000000
# 6 0.000000 0.000000 0.000000 0.000000 0.000000 -0.011347
#
#
# Mechanical properties :
#
#
# Convention : Reuss Voigt Hill
#
# Bulk Modulus (GPa) = 22.97411 33.06460 28.01935
# Shear Modulus (GPa) = 34.49700 11.71970 23.10835
#
# Velocity S-wave (km/s) = 3.72583 2.17165 3.04942
# Velocity P-wave (km/s) = 5.26821 4.42646 4.86557
#
# Compressibility (1/GPa) = 0.04352727
#
# Stress axis : x y z
#
# Youngs Moduli (GPa) = 186.26587 57.44810 60.17175
#
# Poissons Ratio (x) = 0.01483 0.01156
# Poissons Ratio (y) = 0.04807 -0.15142
# Poissons Ratio (z) = 0.03580 -0.14457
#
# Static dielectric constant tensor:
#      x y z
#    x 1.988690 0.000000 0.000000 
#    y 0.000000 2.017730 0.000000 
#    z 0.000000 0.000000 2.002360 
# 
# From -- ./inp_files/10624.got.cif
#   From: 2010.05.17/outbox.cif.g08.bks.cpg/sg36_6_cif.got.tgz:10624.got - 2010.06.03 17:41:39.
