data_PCOD9351751
_publ_section_title
;
Structure prediction by ZEFSAII (Michael W. Deem and Ramdas Pophale) SiO2 
 PCOD9351751
Probable space group: C M C 21
;
_chemical_formula_sum "Si O2"
_cell_formula_units_Z 64
_cell_length_a 8.352269
_cell_length_b 29.855867
_cell_length_c 12.592396
_cell_angle_alpha 90.000000
_cell_angle_beta 90.000000
_cell_angle_gamma 90.000000
_cell_volume 3140.093163
_symmetry_space_group_name_H-M "C M C 21"
_symmetry_group_IT_number 36
_symmetry_cell_setting 'orthorhombic'
loop_
_space_group_symop_operation_xyz
x,y,z
-x,-y,1/2+z
x,-y,1/2+z
-x,y,z
1/2+x,1/2+y,z
1/2-x,1/2-y,1/2+z
1/2+x,1/2-y,1/2+z
1/2-x,1/2+y,z
loop_
_atom_site_type_symbol
_atom_site_label
_atom_site_fract_x
_atom_site_fract_y
_atom_site_fract_z
Si Si1 0.695522 0.414436 0.326830
Si Si2 0.685968 0.915323 0.951347
Si Si3 0.191131 0.976104 0.132447
Si Si4 0.685214 0.278943 0.858637
Si Si5 0.679696 0.819895 0.064617
Si Si6 0.816128 0.813339 0.283311
Si Si7 0.308170 0.863967 0.743245
Si Si8 0.193975 0.072250 0.068564
O O1 0.500000 0.414419 0.321475
O O2 0.753801 0.446164 0.230700
O O3 0.745796 0.362845 0.311869
O O4 0.741484 0.429490 0.444947
O O5 0.500000 0.928328 0.939369
O O6 0.747751 0.898476 0.836823
O O7 0.774346 0.952883 0.019108
O O8 0.693086 0.870714 0.023689
O O9 0.000000 0.978183 0.145179
O O10 0.251210 0.026959 0.126788
O O11 0.500000 0.286550 0.883445
O O12 0.717086 0.228224 0.826340
O O13 0.736307 0.315332 0.769708
O O14 0.789390 0.290217 0.961752
O O15 0.500000 0.812660 0.106022
O O16 0.804985 0.810898 0.156252
O O17 0.000000 0.809383 0.319183
O O18 0.500000 0.860604 0.752626
O O19 0.259119 0.884966 0.631506
O O20 0.000000 0.073786 0.071870
#
# Coordination Sequence:
#
# PCOD9351751 Si02
#       8
#     8   8   8   8   8   8   8   8
#     4   9  20  38  57  88 125 156 198 252 304 357
#     4   9  19  35  57  82 113 149 191 250 303 354
#     4  10  20  35  60  89 117 154 202 251 298 360
#     4  11  23  39  61  89 120 158 208 254 313 376
#     4  10  20  37  58  85 118 153 200 255 308 362
#     4  11  21  37  61  86 121 162 204 254 312 369
#     4  10  22  41  60  85 122 158 202 253 308 367
#     4  10  22  38  60  88 124 164 205 251 306 365
#
# _framework density 20.381561000000001
#
# number of rings (size 3 to 8) (size 9 to 14) (size 15 to 20)
#    0.000    2.000    1.250    3.000    1.750    4.000 
#    0.000    5.625    0.000    0.000    0.000    0.000 
#    0.000    0.000    0.000    0.000    0.000    0.000 
#
# Total GULP energy -178642.413747 kJ/mol
# GULP energy per Si atom -5582.575430 kJ/mol
# Density = 2.033517 g / cm^3
# Si number density = 20.381561 Si / 1000 Ang^3
#
#
#
# Elastic Constant Matrix: (Units=GPa)
#
#
# Indices 1 2 3 4 5 6 
#
# 1 24.5173 8.5807 -2.4615 0.0000 0.0000 0.0000
# 2 8.5807 108.2705 36.8657 0.0000 0.0000 0.0000
# 3 -2.4615 36.8657 56.4695 0.0000 0.0000 0.0000
# 4 0.0000 0.0000 0.0000 14.6765 0.0000 0.0000
# 5 0.0000 0.0000 0.0000 0.0000 23.9068 0.0000
# 6 0.0000 0.0000 0.0000 0.0000 0.0000 11.6421
#
#
#
# Elastic Compliance Matrix: (Units=1/GPa)
#
#
# Indices 1 2 3 4 5 6 
#
# 1 0.043145 -0.005220 0.005289 0.000000 0.000000 0.000000
# 2 -0.005220 0.012508 -0.008393 0.000000 0.000000 0.000000
# 3 0.005289 -0.008393 0.023419 0.000000 0.000000 0.000000
# 4 0.000000 0.000000 0.000000 0.068136 0.000000 0.000000
# 5 0.000000 0.000000 0.000000 0.000000 0.041829 0.000000
# 6 0.000000 0.000000 0.000000 0.000000 0.000000 0.085895
#
#
# Mechanical properties :
#
#
# Convention : Reuss Voigt Hill
#
# Bulk Modulus (GPa) = 16.01989 30.58080 23.30035
# Shear Modulus (GPa) = 16.00569 19.79657 17.90113
#
# Velocity S-wave (km/s) = 2.80537 3.11995 2.96683
# Velocity P-wave (km/s) = 4.28608 5.29296 4.81591
#
# Compressibility (1/GPa) = 0.06242238
#
# Stress axis : x y z
#
# Youngs Moduli (GPa) = 23.17745 79.95112 42.70118
#
# Poissons Ratio (x) = 0.41735 -0.22583
# Poissons Ratio (y) = 0.12099 0.35839
# Poissons Ratio (z) = -0.12258 0.67103
#
# Static dielectric constant tensor:
#      x y z
#    x 1.690980 0.000000 0.000000 
#    y 0.000000 1.717480 0.000000 
#    z 0.000000 0.000000 1.717100 
# 
# From -- ./inp_files/7260.got.cif
#   From: 2010.05.17/outbox.cif.g08.bks.cpg/sg36_4_cif.got.tgz:7260.got - 2010.06.03 17:41:39.
