data_PCOD9351628
_publ_section_title
;
Structure prediction by ZEFSAII (Michael W. Deem and Ramdas Pophale) SiO2 
 PCOD9351628
Probable space group: C M C 21
;
_chemical_formula_sum "Si O2"
_cell_formula_units_Z 64
_cell_length_a 13.436053
_cell_length_b 31.012293
_cell_length_c 10.036993
_cell_angle_alpha 90.000000
_cell_angle_beta 90.000000
_cell_angle_gamma 90.000000
_cell_volume 4182.242471
_symmetry_space_group_name_H-M "C M C 21"
_symmetry_group_IT_number 36
_symmetry_cell_setting 'orthorhombic'
loop_
_space_group_symop_operation_xyz
x,y,z
-x,-y,1/2+z
x,-y,1/2+z
-x,y,z
1/2+x,1/2+y,z
1/2-x,1/2-y,1/2+z
1/2+x,1/2-y,1/2+z
1/2-x,1/2+y,z
loop_
_atom_site_type_symbol
_atom_site_label
_atom_site_fract_x
_atom_site_fract_y
_atom_site_fract_z
Si Si1 0.116012 0.267891 0.692440
Si Si2 0.308956 0.326565 0.269157
Si Si3 0.878503 0.956918 0.594313
Si Si4 0.885232 0.285434 0.378616
Si Si5 0.194404 0.193068 0.299601
Si Si6 0.379452 0.625779 0.519677
Si Si7 0.620490 0.467752 0.898182
Si Si8 0.382898 0.358693 0.549694
O O1 0.145492 0.217757 0.710088
O O2 0.132320 0.281637 0.538271
O O3 0.189719 0.294044 0.789070
O O4 0.000000 0.273582 0.723266
O O5 0.194969 0.316495 0.309074
O O6 0.363397 0.339456 0.404993
O O7 0.329850 0.363144 0.160505
O O8 0.846145 0.968082 0.744705
O O9 0.847699 0.908255 0.559099
O O10 0.000000 0.957548 0.593199
O O11 0.844365 0.992266 0.487431
O O12 0.864671 0.237631 0.320973
O O13 0.000000 0.297564 0.357015
O O14 0.162882 0.160391 0.415020
O O15 0.167280 0.170513 0.161248
O O16 0.500000 0.630131 0.528735
O O17 0.356299 0.577983 0.466589
O O18 0.500000 0.470161 0.894421
O O19 0.500000 0.358968 0.579172
#
# Coordination Sequence:
#
# PCOD9351628 Si02
#       8
#     8   8   8   8   8   8   8   8
#     4  10  20  35  51  70  99 129 163 211 255 287
#     4  11  22  33  49  75  95 131 172 205 240 293
#     4   9  18  30  44  66  98 131 163 197 239 290
#     4  10  20  35  52  69  98 132 163 207 256 290
#     4  11  20  33  51  71  93 133 170 200 239 297
#     4  11  20  33  51  70 102 137 165 198 244 294
#     4   9  18  30  45  67  96 133 163 193 241 291
#     4  11  20  31  47  72 101 128 167 207 236 284
#
# _framework density 15.302795
#
# number of rings (size 3 to 8) (size 9 to 14) (size 15 to 20)
#    0.000    1.750    3.750    2.250    1.750    0.000 
#    0.000    1.875    0.000    0.000    0.000    0.000 
#    0.000    6.000    0.000    0.000    0.000    0.000 
#
# Total GULP energy -178465.262928 kJ/mol
# GULP energy per Si atom -5577.039467 kJ/mol
# Density = 1.526796 g / cm^3
# Si number density = 15.302795 Si / 1000 Ang^3
#
#
#
# Elastic Constant Matrix: (Units=GPa)
#
#
# Indices 1 2 3 4 5 6 
#
# 1 68.5330 20.8081 15.4841 0.0000 0.0000 0.0000
# 2 20.8081 34.5980 -3.2185 0.0000 0.0000 0.0000
# 3 15.4841 -3.2185 53.3282 0.0000 0.0000 0.0000
# 4 0.0000 0.0000 0.0000 20.3028 0.0000 0.0000
# 5 0.0000 0.0000 0.0000 0.0000 23.1947 0.0000
# 6 0.0000 0.0000 0.0000 0.0000 0.0000 9.4547
#
#
#
# Elastic Compliance Matrix: (Units=1/GPa)
#
#
# Indices 1 2 3 4 5 6 
#
# 1 0.019882 -0.012565 -0.006531 0.000000 0.000000 0.000000
# 2 -0.012565 0.037008 0.005882 0.000000 0.000000 0.000000
# 3 -0.006531 0.005882 0.021003 0.000000 0.000000 0.000000
# 4 0.000000 0.000000 0.000000 0.049254 0.000000 0.000000
# 5 0.000000 0.000000 0.000000 0.000000 0.043113 0.000000
# 6 0.000000 0.000000 0.000000 0.000000 0.000000 0.105768
#
#
# Mechanical properties :
#
#
# Convention : Reuss Voigt Hill
#
# Bulk Modulus (GPa) = 19.43111 24.73405 22.08258
# Shear Modulus (GPa) = 15.64396 18.81614 17.23005
#
# Velocity S-wave (km/s) = 3.20080 3.51035 3.35915
# Velocity P-wave (km/s) = 5.13668 5.71212 5.43202
#
# Compressibility (1/GPa) = 0.05146386
#
# Stress axis : x y z
#
# Youngs Moduli (GPa) = 50.29620 27.02149 47.61181
#
# Poissons Ratio (x) = 0.33953 0.31096
# Poissons Ratio (y) = 0.63198 -0.28005
# Poissons Ratio (z) = 0.32850 -0.15894
#
# Static dielectric constant tensor:
#      x y z
#    x 1.493150 0.000000 0.000000 
#    y 0.000000 1.503310 0.000000 
#    z 0.000000 0.000000 1.523680 
# 
# From -- ./inp_files/3582.got.cif
#   From: 2010.05.17/outbox.cif.g08.bks.cpg/sg36_2_cif.got.tgz:3582.got - 2010.06.03 17:41:39.
