data_PCOD9351906
_publ_section_title
;
Structure prediction by ZEFSAII (Michael W. Deem and Ramdas Pophale) SiO2 
 PCOD9351906
Probable space group: C M C 21
;
_chemical_formula_sum "Si O2"
_cell_formula_units_Z 64
_cell_length_a 21.019177
_cell_length_b 10.227092
_cell_length_c 15.527977
_cell_angle_alpha 90.000000
_cell_angle_beta 90.000000
_cell_angle_gamma 90.000000
_cell_volume 3337.972460
_symmetry_space_group_name_H-M "C M C 21"
_symmetry_group_IT_number 36
_symmetry_cell_setting 'orthorhombic'
loop_
_space_group_symop_operation_xyz
x,y,z
-x,-y,1/2+z
x,-y,1/2+z
-x,y,z
1/2+x,1/2+y,z
1/2-x,1/2-y,1/2+z
1/2+x,1/2-y,1/2+z
1/2-x,1/2+y,z
loop_
_atom_site_type_symbol
_atom_site_label
_atom_site_fract_x
_atom_site_fract_y
_atom_site_fract_z
Si Si1 0.307252 0.723128 0.221700
Si Si2 0.702378 0.981770 0.718603
Si Si3 0.929649 0.604333 0.288945
Si Si4 0.427191 0.643709 0.328770
Si Si5 0.192748 0.776872 0.512500
Si Si6 0.072809 0.143709 0.905431
Si Si7 0.297622 0.981770 0.515598
Si Si8 0.429649 0.895665 0.445256
O O1 0.253663 0.621424 0.252839
O O2 0.375197 0.679180 0.257847
O O3 0.308372 0.724565 0.117100
O O4 0.292949 0.870603 0.253247
O O5 0.631062 0.930061 0.732385
O O6 0.714811 0.990940 0.617100
O O7 0.922422 0.747289 0.330679
O O8 0.928905 0.499999 0.367100
O O9 0.000000 0.595145 0.247767
O O10 0.500000 0.649870 0.295773
O O11 0.416270 0.500000 0.367100
O O12 0.422422 0.752709 0.403523
O O13 0.124803 0.820821 0.476353
O O14 0.246337 0.878576 0.481362
O O15 0.207051 0.629397 0.480954
O O16 0.000000 0.149870 0.938427
O O17 0.368938 0.930060 0.501816
O O18 0.500000 0.904853 0.486434
#
# Coordination Sequence:
#
# PCOD9351906 Si02
#       8
#     8   8   8   8   8   8   8   8
#     4  10  22  39  58  82 113 148 186 229 276 330
#     4  10  22  38  57  83 113 147 187 229 277 331
#     4  10  20  37  58  82 112 142 182 232 276 324
#     4  10  22  39  58  84 114 146 186 230 278 331
#     4  10  22  39  58  82 113 148 186 229 276 330
#     4  10  22  39  58  84 114 146 186 230 278 331
#     4  10  22  38  57  83 113 147 187 229 277 331
#     4  10  20  37  58  82 112 142 182 232 276 324
#
# _framework density 19.173316
#
# number of rings (size 3 to 8) (size 9 to 14) (size 15 to 20)
#    0.000    2.000    2.500    0.000    3.500    3.000 
#    0.000    2.500    0.000    4.500    0.000    0.000 
#    0.000    0.000    0.000    0.000    0.000    0.000 
#
# Total GULP energy -178574.428160 kJ/mol
# GULP energy per Si atom -5580.450880 kJ/mol
# Density = 1.912968 g / cm^3
# Si number density = 19.173316 Si / 1000 Ang^3
#
#
#
# Elastic Constant Matrix: (Units=GPa)
#
#
# Indices 1 2 3 4 5 6 
#
# 1 136.8716 80.4076 19.9982 0.0000 0.0000 0.0000
# 2 80.4076 187.2189 19.7770 0.0000 0.0000 0.0000
# 3 19.9982 19.7770 10.5768 0.0000 0.0000 0.0000
# 4 0.0000 0.0000 0.0000 17.6489 0.0000 0.0000
# 5 0.0000 0.0000 0.0000 0.0000 40.3510 0.0000
# 6 0.0000 0.0000 0.0000 0.0000 0.0000 36.8784
#
#
#
# Elastic Compliance Matrix: (Units=1/GPa)
#
#
# Indices 1 2 3 4 5 6 
#
# 1 0.011528 -0.003301 -0.015625 0.000000 0.000000 0.000000
# 2 -0.003301 0.007601 -0.007972 0.000000 0.000000 0.000000
# 3 -0.015625 -0.007972 0.138998 0.000000 0.000000 0.000000
# 4 0.000000 0.000000 0.000000 0.056661 0.000000 0.000000
# 5 0.000000 0.000000 0.000000 0.000000 0.024783 0.000000
# 6 0.000000 0.000000 0.000000 0.000000 0.000000 0.027116
#
#
# Mechanical properties :
#
#
# Convention : Reuss Voigt Hill
#
# Bulk Modulus (GPa) = 9.58493 63.89255 36.73874
# Shear Modulus (GPa) = 14.07421 33.27461 23.67441
#
# Velocity S-wave (km/s) = 2.71228 4.17041 3.51772
# Velocity P-wave (km/s) = 3.84949 7.52235 5.97513
#
# Compressibility (1/GPa) = 0.10433049
#
# Stress axis : x y z
#
# Youngs Moduli (GPa) = 86.74451 131.56122 7.19436
#
# Poissons Ratio (x) = 0.43422 0.11242
# Poissons Ratio (y) = 0.28630 0.05736
# Poissons Ratio (z) = 1.35542 1.04884
#
# Static dielectric constant tensor:
#      x y z
#    x 1.660980 0.000000 0.000000 
#    y 0.000000 1.677580 0.000000 
#    z 0.000000 0.000000 1.659440 
# 
# From -- ./inp_files/15017.got.cif
#   From: 2010.05.17/outbox.cif.g08.bks.cpg/sg36_8_cif.got.tgz:15017.got - 2010.06.03 17:41:39.
