data_PCOD9351505
_publ_section_title
;
Structure prediction by ZEFSAII (Michael W. Deem and Ramdas Pophale) SiO2 
 PCOD9351505
Probable space group: C M C 21
;
_chemical_formula_sum "Si O2"
_cell_formula_units_Z 64
_cell_length_a 9.138737
_cell_length_b 25.235741
_cell_length_c 14.162156
_cell_angle_alpha 90.000000
_cell_angle_beta 90.000000
_cell_angle_gamma 90.000000
_cell_volume 3266.116071
_symmetry_space_group_name_H-M "C M C 21"
_symmetry_group_IT_number 36
_symmetry_cell_setting 'orthorhombic'
loop_
_space_group_symop_operation_xyz
x,y,z
-x,-y,1/2+z
x,-y,1/2+z
-x,y,z
1/2+x,1/2+y,z
1/2-x,1/2-y,1/2+z
1/2+x,1/2-y,1/2+z
1/2-x,1/2+y,z
loop_
_atom_site_type_symbol
_atom_site_label
_atom_site_fract_x
_atom_site_fract_y
_atom_site_fract_z
Si Si1 0.823443 0.954823 0.569260
Si Si2 0.824745 0.804321 0.338341
Si Si3 0.667365 0.422858 0.270460
Si Si4 0.330466 0.428484 0.043498
Si Si5 0.824260 0.793205 0.745491
Si Si6 0.666341 0.974811 0.764426
Si Si7 0.167078 0.629193 0.390850
Si Si8 0.322273 0.663740 0.039650
O O1 0.775705 0.897957 0.529038
O O2 0.000000 0.955707 0.569727
O O3 0.777661 0.011032 0.524220
O O4 0.766512 0.957584 0.676498
O O5 0.798447 0.864820 0.307738
O O6 0.739398 0.763958 0.272151
O O7 0.778577 0.802018 0.448569
O O8 0.000000 0.794556 0.331540
O O9 0.500000 0.435585 0.298714
O O10 0.771234 0.470058 0.302923
O O11 0.674260 0.422065 0.156447
O O12 0.500000 0.424372 0.012900
O O13 0.237663 0.383971 0.991330
O O14 0.760088 0.831833 0.825655
O O15 0.776737 0.813453 0.641347
O O16 0.000000 0.793475 0.747726
O O17 0.500000 0.982474 0.730854
O O18 0.667941 0.927478 0.838413
O O19 0.000000 0.648283 0.398344
O O20 0.500000 0.663028 0.039069
#
# Coordination Sequence:
#
# PCOD9351505 Si02
#       8
#     8   8   8   8   8   8   8   8
#     4   9  17  34  58  85 115 150 195 240 289 349
#     4  10  22  41  64  89 117 151 196 246 298 352
#     4   9  20  38  60  85 117 156 195 238 292 353
#     4   9  19  33  55  88 121 155 195 237 287 349
#     4  11  23  41  63  86 116 154 200 247 292 347
#     4  10  20  33  53  83 119 153 189 238 293 343
#     4  11  23  37  55  84 119 159 198 238 293 345
#     4   9  19  37  62  88 112 148 194 240 290 350
#
# _framework density 19.595140000000001
#
# number of rings (size 3 to 8) (size 9 to 14) (size 15 to 20)
#    0.000    2.250    1.250    1.875    1.750    5.000 
#    0.000    4.375    0.000    0.000    0.000    0.000 
#    0.000    0.000    0.000    0.000    0.000    0.000 
#
# Total GULP energy -178579.242506 kJ/mol
# GULP energy per Si atom -5580.601328 kJ/mol
# Density = 1.955054 g / cm^3
# Si number density = 19.595140 Si / 1000 Ang^3
#
#
#
# Elastic Constant Matrix: (Units=GPa)
#
#
# Indices 1 2 3 4 5 6 
#
# 1 31.5562 27.2664 10.4991 0.0000 0.0000 0.0000
# 2 27.2664 65.3187 18.3491 0.0000 0.0000 0.0000
# 3 10.4991 18.3491 49.7344 0.0000 0.0000 0.0000
# 4 0.0000 0.0000 0.0000 24.3561 0.0000 0.0000
# 5 0.0000 0.0000 0.0000 0.0000 18.5208 0.0000
# 6 0.0000 0.0000 0.0000 0.0000 0.0000 31.0989
#
#
#
# Elastic Compliance Matrix: (Units=1/GPa)
#
#
# Indices 1 2 3 4 5 6 
#
# 1 0.050017 -0.019984 -0.003186 0.000000 0.000000 0.000000
# 2 -0.019984 0.025064 -0.005029 0.000000 0.000000 0.000000
# 3 -0.003186 -0.005029 0.022635 0.000000 0.000000 0.000000
# 4 0.000000 0.000000 0.000000 0.041057 0.000000 0.000000
# 5 0.000000 0.000000 0.000000 0.000000 0.053993 0.000000
# 6 0.000000 0.000000 0.000000 0.000000 0.000000 0.032156
#
#
# Mechanical properties :
#
#
# Convention : Reuss Voigt Hill
#
# Bulk Modulus (GPa) = 24.20194 28.75982 26.48088
# Shear Modulus (GPa) = 16.94394 20.82815 18.88604
#
# Velocity S-wave (km/s) = 2.94377 3.26379 3.10790
# Velocity P-wave (km/s) = 4.89205 5.37699 5.14024
#
# Compressibility (1/GPa) = 0.04131900
#
# Stress axis : x y z
#
# Youngs Moduli (GPa) = 19.99337 39.89769 44.18015
#
# Poissons Ratio (x) = 0.79731 0.14075
# Poissons Ratio (y) = 0.39954 0.22216
# Poissons Ratio (z) = 0.06369 0.20063
#
# Static dielectric constant tensor:
#      x y z
#    x 1.673410 0.000000 0.000000 
#    y 0.000000 1.689990 0.000000 
#    z 0.000000 0.000000 1.700780 
# 
# From -- ./inp_files/11004.got.cif
#   From: 2010.05.17/outbox.cif.g08.bks.cpg/sg36_6_cif.got.tgz:11004.got - 2010.06.03 17:41:39.
