data_PCOD9351927
_publ_section_title
;
Structure prediction by ZEFSAII (Michael W. Deem and Ramdas Pophale) SiO2 
 PCOD9351927
Probable space group: C M C 21
;
_chemical_formula_sum "Si O2"
_cell_formula_units_Z 64
_cell_length_a 7.816591
_cell_length_b 14.992980
_cell_length_c 23.339642
_cell_angle_alpha 90.000000
_cell_angle_beta 90.000000
_cell_angle_gamma 90.000000
_cell_volume 2735.265830
_symmetry_space_group_name_H-M "C M C 21"
_symmetry_group_IT_number 36
_symmetry_cell_setting 'orthorhombic'
loop_
_space_group_symop_operation_xyz
x,y,z
-x,-y,1/2+z
x,-y,1/2+z
-x,y,z
1/2+x,1/2+y,z
1/2-x,1/2-y,1/2+z
1/2+x,1/2-y,1/2+z
1/2-x,1/2+y,z
loop_
_atom_site_type_symbol
_atom_site_label
_atom_site_fract_x
_atom_site_fract_y
_atom_site_fract_z
Si Si1 0.704933 0.948925 0.088150
Si Si2 0.202167 0.067871 0.904173
Si Si3 0.793055 0.270016 0.867848
Si Si4 0.302874 0.339655 0.744402
Si Si5 0.288766 0.842374 0.199754
Si Si6 0.793976 0.885729 0.526285
Si Si7 0.790909 0.687102 0.493669
Si Si8 0.304593 0.019764 0.788080
O O1 0.500000 0.941755 0.088745
O O2 0.766320 0.897901 0.144571
O O3 0.770462 0.892552 0.033636
O O4 0.746742 0.052547 0.079585
O O5 0.246233 0.166155 0.879993
O O6 0.000000 0.065348 0.911179
O O7 0.242539 0.001863 0.852359
O O8 0.274942 0.065279 0.968278
O O9 0.709186 0.301593 0.809301
O O10 0.000000 0.279766 0.861744
O O11 0.738863 0.317593 0.927182
O O12 0.500000 0.357082 0.729934
O O13 0.235211 0.260388 0.704321
O O14 0.210167 0.433816 0.747857
O O15 0.500000 0.841126 0.200564
O O16 0.222974 0.897275 0.254832
O O17 0.738435 0.782837 0.520693
O O18 0.000000 0.882906 0.525022
O O19 0.000000 0.686934 0.493071
O O20 0.500000 0.043084 0.795964
#
# Coordination Sequence:
#
# PCOD9351927 Si02
#       8
#     8   8   8   8   8   8   8   8
#     4  10  20  37  60  82 107 149 194 229 270 331
#     4   9  18  34  56  82 117 150 182 229 282 333
#     4   9  17  33  56  83 114 147 182 227 276 335
#     4  11  22  37  56  83 112 148 188 232 285 335
#     4   9  21  40  57  77 113 150 188 234 278 329
#     4   9  19  36  55  82 116 146 179 228 279 328
#     4   8  17  34  56  80 110 146 181 218 274 335
#     4  11  22  37  56  81 111 148 190 235 284 334
#
# _framework density 23.398091000000001
#
# number of rings (size 3 to 8) (size 9 to 14) (size 15 to 20)
#    0.000    2.500    1.250    2.250    1.750    1.500 
#    0.000    6.250    0.000    0.000    0.000    0.000 
#    0.000    0.000    0.000    0.000    0.000    0.000 
#
# Total GULP energy -178647.429305 kJ/mol
# GULP energy per Si atom -5582.732166 kJ/mol
# Density = 2.334484 g / cm^3
# Si number density = 23.398091 Si / 1000 Ang^3
#
#
#
# Elastic Constant Matrix: (Units=GPa)
#
#
# Indices 1 2 3 4 5 6 
#
# 1 21.1536 -1.7773 -3.0596 0.0000 0.0000 0.0000
# 2 -1.7773 52.7286 -4.8404 0.0000 0.0000 0.0000
# 3 -3.0596 -4.8404 17.2672 0.0000 0.0000 0.0000
# 4 0.0000 0.0000 0.0000 28.1500 0.0000 0.0000
# 5 0.0000 0.0000 0.0000 0.0000 15.7496 0.0000
# 6 0.0000 0.0000 0.0000 0.0000 0.0000 7.5755
#
#
#
# Elastic Compliance Matrix: (Units=1/GPa)
#
#
# Indices 1 2 3 4 5 6 
#
# 1 0.048837 0.002505 0.009356 0.000000 0.000000 0.000000
# 2 0.002505 0.019594 0.005937 0.000000 0.000000 0.000000
# 3 0.009356 0.005937 0.061235 0.000000 0.000000 0.000000
# 4 0.000000 0.000000 0.000000 0.035524 0.000000 0.000000
# 5 0.000000 0.000000 0.000000 0.000000 0.063494 0.000000
# 6 0.000000 0.000000 0.000000 0.000000 0.000000 0.132004
#
#
# Mechanical properties :
#
#
# Convention : Reuss Voigt Hill
#
# Bulk Modulus (GPa) = 6.05104 7.97721 7.01413
# Shear Modulus (GPa) = 13.15165 17.01681 15.08423
#
# Velocity S-wave (km/s) = 2.37340 2.69973 2.54181
# Velocity P-wave (km/s) = 3.17843 3.62419 3.40861
#
# Compressibility (1/GPa) = 0.16526085
#
# Stress axis : x y z
#
# Youngs Moduli (GPa) = 20.47635 51.03488 16.33047
#
# Poissons Ratio (x) = -0.12784 -0.15278
# Poissons Ratio (y) = -0.05129 -0.09695
# Poissons Ratio (z) = -0.19157 -0.30297
#
# Static dielectric constant tensor:
#      x y z
#    x 1.844860 0.000000 0.000000 
#    y 0.000000 1.908940 0.000000 
#    z 0.000000 0.000000 1.942960 
# 
# From -- ./inp_files/16679.got.cif
#   From: 2010.05.17/outbox.cif.g08.bks.cpg/sg36_9_cif.got.tgz:16679.got - 2010.06.03 17:41:39.
