data_PCOD9351289
_publ_section_title
;
Structure prediction by ZEFSAII (Michael W. Deem and Ramdas Pophale) SiO2 
 PCOD9351289
Probable space group: C M C 21
;
_chemical_formula_sum "Si O2"
_cell_formula_units_Z 64
_cell_length_a 7.651632
_cell_length_b 30.135978
_cell_length_c 12.706828
_cell_angle_alpha 90.000000
_cell_angle_beta 90.000000
_cell_angle_gamma 90.000000
_cell_volume 2930.060017
_symmetry_space_group_name_H-M "C M C 21"
_symmetry_group_IT_number 36
_symmetry_cell_setting 'orthorhombic'
loop_
_space_group_symop_operation_xyz
x,y,z
-x,-y,1/2+z
x,-y,1/2+z
-x,y,z
1/2+x,1/2+y,z
1/2-x,1/2-y,1/2+z
1/2+x,1/2-y,1/2+z
1/2-x,1/2+y,z
loop_
_atom_site_type_symbol
_atom_site_label
_atom_site_fract_x
_atom_site_fract_y
_atom_site_fract_z
Si Si1 0.791430 0.926997 0.354250
Si Si2 0.797520 0.268775 0.284167
Si Si3 0.791708 0.165159 0.960224
Si Si4 0.697706 0.067493 0.623343
Si Si5 0.202143 0.324838 0.859692
Si Si6 0.709747 0.882732 0.674327
Si Si7 0.791005 0.472931 0.568202
Si Si8 0.714550 0.167510 0.595264
O O1 0.739928 0.877851 0.391884
O O2 0.695682 0.938690 0.248232
O O3 0.742250 0.958720 0.449241
O O4 0.000000 0.927649 0.337654
O O5 0.784097 0.293589 0.396712
O O6 0.709401 0.221319 0.297283
O O7 0.726847 0.300683 0.191008
O O8 0.000000 0.260127 0.260426
O O9 0.000000 0.170019 0.957708
O O10 0.742794 0.152111 0.079131
O O11 0.500000 0.069693 0.579524
O O12 0.774732 0.116448 0.607052
O O13 0.782984 0.022154 0.583505
O O14 0.279821 0.362602 0.783404
O O15 0.000000 0.337241 0.875635
O O16 0.271494 0.318370 0.978018
O O17 0.500000 0.886475 0.682880
O O18 0.776592 0.931356 0.638398
O O19 0.000000 0.475423 0.587806
O O20 0.500000 0.167785 0.602652
#
# Coordination Sequence:
#
# PCOD9351289 Si02
#       8
#     8   8   8   8   8   8   8   8
#     4  10  20  34  53  80 113 149 186 234 288 340
#     4  11  22  37  58  84 112 146 190 238 287 339
#     4  10  20  35  57  81 108 146 190 235 284 337
#     4  10  19  35  60  86 112 148 193 240 287 340
#     4  10  22  39  57  81 117 156 189 230 289 349
#     4   9  19  36  57  84 117 149 186 234 285 337
#     4   9  19  34  57  86 113 149 195 238 281 338
#     4   9  20  38  59  84 116 149 185 237 293 342
#
# _framework density 21.842555999999998
#
# number of rings (size 3 to 8) (size 9 to 14) (size 15 to 20)
#    0.000    2.250    1.250    1.125    1.750    3.000 
#    0.000    5.000    0.000    1.500    0.000    0.000 
#    0.000    0.000    0.000    0.000    0.000    0.000 
#
# Total GULP energy -178540.995627 kJ/mol
# GULP energy per Si atom -5579.406113 kJ/mol
# Density = 2.179284 g / cm^3
# Si number density = 21.842556 Si / 1000 Ang^3
#
#
#
# Elastic Constant Matrix: (Units=GPa)
#
#
# Indices 1 2 3 4 5 6 
#
# 1 38.9295 -1.7352 -2.8767 0.0000 0.0000 0.0000
# 2 -1.7352 115.2258 58.4963 0.0000 0.0000 0.0000
# 3 -2.8767 58.4963 74.7105 0.0000 0.0000 0.0000
# 4 0.0000 0.0000 0.0000 14.6805 0.0000 0.0000
# 5 0.0000 0.0000 0.0000 0.0000 -5.3637 0.0000
# 6 0.0000 0.0000 0.0000 0.0000 0.0000 8.8544
#
#
#
# Elastic Compliance Matrix: (Units=1/GPa)
#
#
# Indices 1 2 3 4 5 6 
#
# 1 0.025763 -0.000192 0.001142 0.000000 0.000000 0.000000
# 2 -0.000192 0.014406 -0.011287 0.000000 0.000000 0.000000
# 3 0.001142 -0.011287 0.022266 0.000000 0.000000 0.000000
# 4 0.000000 0.000000 0.000000 0.068117 0.000000 0.000000
# 5 0.000000 0.000000 0.000000 0.000000 -0.186438 0.000000
# 6 0.000000 0.000000 0.000000 0.000000 0.000000 0.112939
#
#
# Mechanical properties :
#
#
# Convention : Reuss Voigt Hill
#
# Bulk Modulus (GPa) = 23.94491 37.40386 30.67438
# Shear Modulus (GPa) = 54.55774 15.29966 34.92870
#
# Velocity S-wave (km/s) = 5.00319 2.64948 4.00323
# Velocity P-wave (km/s) = 6.66050 5.14987 5.95329
#
# Compressibility (1/GPa) = 0.04176253
#
# Stress axis : x y z
#
# Youngs Moduli (GPa) = 38.81485 69.41782 44.91148
#
# Poissons Ratio (x) = 0.01332 -0.05130
# Poissons Ratio (y) = 0.00745 0.50689
# Poissons Ratio (z) = -0.04434 0.78349
#
# Static dielectric constant tensor:
#      x y z
#    x 1.847600 0.000000 0.000000 
#    y 0.000000 1.813500 0.000000 
#    z 0.000000 0.000000 1.791570 
# 
# From -- ./inp_files/7126.got.cif
#   From: 2010.05.17/outbox.cif.g08.bks.cpg/sg36_4_cif.got.tgz:7126.got - 2010.06.03 17:41:39.
