data_PCOD9351416
_publ_section_title
;
Structure prediction by ZEFSAII (Michael W. Deem and Ramdas Pophale) SiO2 
 PCOD9351416
Probable space group: C M C 21
;
_chemical_formula_sum "Si O2"
_cell_formula_units_Z 56
_cell_length_a 15.295152
_cell_length_b 11.477581
_cell_length_c 15.452357
_cell_angle_alpha 90.000000
_cell_angle_beta 90.000000
_cell_angle_gamma 90.000000
_cell_volume 2712.682070
_symmetry_space_group_name_H-M "C M C 21"
_symmetry_group_IT_number 36
_symmetry_cell_setting 'orthorhombic'
loop_
_space_group_symop_operation_xyz
x,y,z
-x,-y,1/2+z
x,-y,1/2+z
-x,y,z
1/2+x,1/2+y,z
1/2-x,1/2-y,1/2+z
1/2+x,1/2-y,1/2+z
1/2-x,1/2+y,z
loop_
_atom_site_type_symbol
_atom_site_label
_atom_site_fract_x
_atom_site_fract_y
_atom_site_fract_z
Si Si1 0.899946 0.127415 0.253750
Si Si2 0.600230 0.656672 0.067110
Si Si3 0.866005 0.751659 0.929293
Si Si4 0.603643 0.973887 0.337831
Si Si5 0.675441 0.782431 0.899630
Si Si6 0.403793 0.382420 0.097602
Si Si7 0.220184 0.903960 0.251740
O O1 0.865934 0.185347 0.164304
O O2 0.904130 0.206535 0.337757
O O3 0.000000 0.089570 0.236738
O O4 0.836781 0.019503 0.271395
O O5 0.500000 0.693840 0.066837
O O6 0.604265 0.515705 0.063543
O O7 0.639479 0.714511 0.982689
O O8 0.871058 0.612655 0.917579
O O9 0.772420 0.814566 0.929322
O O10 0.906293 0.795682 0.017307
O O11 0.500000 0.959993 0.315971
O O12 0.621703 0.106361 0.367580
O O13 0.677669 0.938429 0.265799
O O14 0.693460 0.693903 0.820851
O O15 0.500000 0.371322 0.141551
O O16 0.320917 0.364063 0.160170
#
# Coordination Sequence:
#
# PCOD9351416 Si02
#       7
#     8   8   8   8   8   8   8
#     4  10  19  38  67  96 126 162 215 278 332 384
#     4   9  20  36  63  97 123 157 214 275 328 383
#     4  11  23  40  63  92 129 175 219 265 329 398
#     4  11  24  42  64  95 136 179 221 265 331 404
#     4  11  23  39  64  90 133 179 217 268 326 403
#     4  10  21  40  68 100 129 165 220 283 336 390
#     4  10  22  41  64  98 130 169 221 270 331 394
#
# _framework density 20.643775999999999
#
# number of rings (size 3 to 8) (size 9 to 14) (size 15 to 20)
#    0.000    1.714    1.429    3.857    2.000    5.714 
#    0.000    1.429    0.000    4.286    0.000    0.000 
#    0.000    0.000    0.000    0.000    0.000    0.000 
#
# Total GULP energy -156015.145388 kJ/mol
# GULP energy per Si atom -5571.969478 kJ/mol
# Density = 2.059679 g / cm^3
# Si number density = 20.643776 Si / 1000 Ang^3
#
#
#
# Elastic Constant Matrix: (Units=GPa)
#
#
# Indices 1 2 3 4 5 6 
#
# 1 138.4167 29.8865 41.4824 0.0000 0.0000 0.0000
# 2 29.8865 66.5907 44.4674 0.0000 0.0000 0.0000
# 3 41.4824 44.4674 108.3964 0.0000 0.0000 0.0000
# 4 0.0000 0.0000 0.0000 473.3103 0.0000 0.0000
# 5 0.0000 0.0000 0.0000 0.0000 28.7104 0.0000
# 6 0.0000 0.0000 0.0000 0.0000 0.0000 25.5544
#
#
#
# Elastic Compliance Matrix: (Units=1/GPa)
#
#
# Indices 1 2 3 4 5 6 
#
# 1 0.008395 -0.002235 -0.002296 0.000000 0.000000 0.000000
# 2 -0.002235 0.021278 -0.007874 0.000000 0.000000 0.000000
# 3 -0.002296 -0.007874 0.013334 0.000000 0.000000 0.000000
# 4 0.000000 0.000000 0.000000 0.002113 0.000000 0.000000
# 5 0.000000 0.000000 0.000000 0.000000 0.034831 0.000000
# 6 0.000000 0.000000 0.000000 0.000000 0.000000 0.039132
#
#
# Mechanical properties :
#
#
# Convention : Reuss Voigt Hill
#
# Bulk Modulus (GPa) = 54.94961 60.56405 57.75683
# Shear Modulus (GPa) = 33.34284 118.68619 76.01452
#
# Velocity S-wave (km/s) = 4.02326 7.59061 6.07470
# Velocity P-wave (km/s) = 6.94679 10.30652 8.78870
#
# Compressibility (1/GPa) = 0.01819849
#
# Stress axis : x y z
#
# Youngs Moduli (GPa) = 119.11624 46.99738 74.99582
#
# Poissons Ratio (x) = 0.10502 0.17220
# Poissons Ratio (y) = 0.26617 0.59049
# Poissons Ratio (z) = 0.27350 0.37004
#
# Static dielectric constant tensor:
#      x y z
#    x 1.848250 0.000000 0.000000 
#    y 0.000000 1.738160 0.000000 
#    z 0.000000 0.000000 1.782030 
# 
# From -- ./inp_files/12170.got.cif
#   From: 2010.05.17/outbox.cif.g08.bks.cpg/sg36_7_cif.got.tgz:12170.got - 2010.06.03 17:41:39.
