data_PCOD9351327
_publ_section_title
;
Structure prediction by ZEFSAII (Michael W. Deem and Ramdas Pophale) SiO2 
 PCOD9351327
Probable space group: C M C 21
;
_chemical_formula_sum "Si O2"
_cell_formula_units_Z 64
_cell_length_a 8.618232
_cell_length_b 20.827761
_cell_length_c 19.842674
_cell_angle_alpha 90.000000
_cell_angle_beta 90.000000
_cell_angle_gamma 90.000000
_cell_volume 3561.729749
_symmetry_space_group_name_H-M "C M C 21"
_symmetry_group_IT_number 36
_symmetry_cell_setting 'orthorhombic'
loop_
_space_group_symop_operation_xyz
x,y,z
-x,-y,1/2+z
x,-y,1/2+z
-x,y,z
1/2+x,1/2+y,z
1/2-x,1/2-y,1/2+z
1/2+x,1/2-y,1/2+z
1/2-x,1/2+y,z
loop_
_atom_site_type_symbol
_atom_site_label
_atom_site_fract_x
_atom_site_fract_y
_atom_site_fract_z
Si Si1 0.684444 0.110448 0.256870
Si Si2 0.813664 0.307807 0.113110
Si Si3 0.314205 0.059316 0.540401
Si Si4 0.688131 0.759644 0.403833
Si Si5 0.814872 0.316880 0.540603
Si Si6 0.816156 0.062078 0.120336
Si Si7 0.186203 0.889344 0.904048
Si Si8 0.313368 0.753492 0.253814
O O1 0.500000 0.108452 0.261274
O O2 0.741662 0.067912 0.194494
O O3 0.756214 0.092640 0.329401
O O4 0.738528 0.183742 0.242256
O O5 0.771826 0.375685 0.080810
O O6 0.725225 0.250005 0.076841
O O7 0.778887 0.300743 0.192441
O O8 0.000000 0.298626 0.104467
O O9 0.500000 0.053680 0.539641
O O10 0.253765 0.068395 0.464333
O O11 0.243564 0.998860 0.578791
O O12 0.500000 0.759766 0.406195
O O13 0.739505 0.806088 0.463552
O O14 0.736101 0.685390 0.415487
O O15 0.735398 0.776965 0.327909
O O16 0.732478 0.374451 0.579023
O O17 0.000000 0.327861 0.542273
O O18 0.000000 0.060052 0.127547
O O19 0.000000 0.891176 0.905567
O O20 0.500000 0.743543 0.255428
#
# Coordination Sequence:
#
# PCOD9351327 Si02
#       8
#     8   8   8   8   8   8   8   8
#     4  11  21  35  57  87 115 148 192 244 291 344
#     4  10  20  34  57  85 116 149 187 237 293 347
#     4  11  23  39  58  87 120 155 199 247 292 348
#     4   8  16  30  53  83 114 147 185 229 284 346
#     4  11  20  34  57  85 115 148 191 241 291 345
#     4  12  25  41  58  81 116 161 202 245 296 349
#     4  10  19  36  59  85 115 153 192 234 290 354
#     4   9  17  33  55  83 115 149 186 231 289 353
#
# _framework density 17.968798
#
# number of rings (size 3 to 8) (size 9 to 14) (size 15 to 20)
#    0.000    1.750    2.500    4.125    0.000    0.500 
#    0.000    1.875    0.000    3.000    0.000    0.000 
#    0.000    0.000    0.000    0.000    0.000    0.000 
#
# Total GULP energy -178654.894994 kJ/mol
# GULP energy per Si atom -5582.965469 kJ/mol
# Density = 1.792790 g / cm^3
# Si number density = 17.968798 Si / 1000 Ang^3
#
#
#
# Elastic Constant Matrix: (Units=GPa)
#
#
# Indices 1 2 3 4 5 6 
#
# 1 59.6917 27.8642 32.9400 0.0000 0.0000 0.0000
# 2 27.8642 69.5291 45.8624 0.0000 0.0000 0.0000
# 3 32.9400 45.8624 141.1827 0.0000 0.0000 0.0000
# 4 0.0000 0.0000 0.0000 28.4825 0.0000 0.0000
# 5 0.0000 0.0000 0.0000 0.0000 27.3814 0.0000
# 6 0.0000 0.0000 0.0000 0.0000 0.0000 23.9259
#
#
#
# Elastic Compliance Matrix: (Units=1/GPa)
#
#
# Indices 1 2 3 4 5 6 
#
# 1 0.021453 -0.006740 -0.002816 0.000000 0.000000 0.000000
# 2 -0.006740 0.020422 -0.005061 0.000000 0.000000 0.000000
# 3 -0.002816 -0.005061 0.009384 0.000000 0.000000 0.000000
# 4 0.000000 0.000000 0.000000 0.035109 0.000000 0.000000
# 5 0.000000 0.000000 0.000000 0.000000 0.036521 0.000000
# 6 0.000000 0.000000 0.000000 0.000000 0.000000 0.041796
#
#
# Mechanical properties :
#
#
# Convention : Reuss Voigt Hill
#
# Bulk Modulus (GPa) = 45.40373 53.74852 49.57612
# Shear Modulus (GPa) = 24.84330 26.87376 25.85853
#
# Velocity S-wave (km/s) = 3.72234 3.87147 3.79764
# Velocity P-wave (km/s) = 6.61796 7.06834 6.84685
#
# Compressibility (1/GPa) = 0.02202462
#
# Stress axis : x y z
#
# Youngs Moduli (GPa) = 46.61385 48.96638 106.56218
#
# Poissons Ratio (x) = 0.33003 0.30006
# Poissons Ratio (y) = 0.31418 0.53936
# Poissons Ratio (z) = 0.13126 0.24784
#
# Static dielectric constant tensor:
#      x y z
#    x 1.603070 0.000000 0.000000 
#    y 0.000000 1.578390 0.000000 
#    z 0.000000 0.000000 1.640320 
# 
# From -- ./inp_files/13913.got.cif
#   From: 2010.05.17/outbox.cif.g08.bks.cpg/sg36_7_cif.got.tgz:13913.got - 2010.06.03 17:41:39.
