data_PCOD9351544
_publ_section_title
;
Structure prediction by ZEFSAII (Michael W. Deem and Ramdas Pophale) SiO2 
 PCOD9351544
Probable space group: C M C 21
;
_chemical_formula_sum "Si O2"
_cell_formula_units_Z 64
_cell_length_a 11.610263
_cell_length_b 32.720894
_cell_length_c 8.411522
_cell_angle_alpha 90.000000
_cell_angle_beta 90.000000
_cell_angle_gamma 90.000000
_cell_volume 3195.521940
_symmetry_space_group_name_H-M "C M C 21"
_symmetry_group_IT_number 36
_symmetry_cell_setting 'orthorhombic'
loop_
_space_group_symop_operation_xyz
x,y,z
-x,-y,1/2+z
x,-y,1/2+z
-x,y,z
1/2+x,1/2+y,z
1/2-x,1/2-y,1/2+z
1/2+x,1/2-y,1/2+z
1/2-x,1/2+y,z
loop_
_atom_site_type_symbol
_atom_site_label
_atom_site_fract_x
_atom_site_fract_y
_atom_site_fract_z
Si Si1 0.368645 0.838044 0.657710
Si Si2 0.633900 0.858773 0.019423
Si Si3 0.241566 0.493401 0.622376
Si Si4 0.626808 0.755076 0.453071
Si Si5 0.129374 0.949998 0.354885
Si Si6 0.367083 0.054001 0.398268
Si Si7 0.786887 0.800540 0.225287
Si Si8 0.868809 0.859977 0.486911
O O1 0.500000 0.856344 0.627117
O O2 0.359882 0.835944 0.848654
O O3 0.371519 0.795009 0.566468
O O4 0.247520 0.857525 0.595244
O O5 0.500000 0.861613 0.066200
O O6 0.677454 0.904676 0.981388
O O7 0.700316 0.834548 0.155115
O O8 0.286452 0.530827 0.726942
O O9 0.341649 0.474699 0.515007
O O10 0.196090 0.457946 0.736440
O O11 0.147478 0.514264 0.509109
O O12 0.500000 0.750904 0.381133
O O13 0.717744 0.764378 0.314819
O O14 0.650921 0.717845 0.571601
O O15 0.142035 0.902442 0.391766
O O16 0.000000 0.957943 0.302553
O O17 0.500000 0.061538 0.363771
O O18 0.860989 0.822959 0.360284
O O19 0.000000 0.859549 0.559196
#
# Coordination Sequence:
#
# PCOD9351544 Si02
#       8
#     8   8   8   8   8   8   8   8
#     4   9  19  37  59  83 111 146 187 228 274 327
#     4  10  20  35  56  81 110 145 186 231 276 326
#     4  10  20  34  53  77 106 142 183 222 269 324
#     4  10  21  37  57  81 109 142 181 225 272 325
#     4  10  20  35  54  77 107 143 183 226 271 321
#     4  10  20  34  53  79 110 141 177 224 274 323
#     4  11  21  37  57  81 110 142 180 223 275 330
#     4  10  21  37  57  83 114 147 185 229 276 326
#
# _framework density 20.028027000000002
#
# number of rings (size 3 to 8) (size 9 to 14) (size 15 to 20)
#    0.000    2.000    0.000    3.750    0.000    0.500 
#    0.000   12.500    0.000    6.000    0.000    0.000 
#    0.000    0.000    0.000    0.000    0.000    0.000 
#
# Total GULP energy -178358.609791 kJ/mol
# GULP energy per Si atom -5573.706556 kJ/mol
# Density = 1.998244 g / cm^3
# Si number density = 20.028027 Si / 1000 Ang^3
#
#
#
# Elastic Constant Matrix: (Units=GPa)
#
#
# Indices 1 2 3 4 5 6 
#
# 1 85.1455 6.0190 14.3252 0.0000 0.0000 0.0000
# 2 6.0190 30.5463 -6.1912 0.0000 0.0000 0.0000
# 3 14.3252 -6.1912 44.4712 0.0000 0.0000 0.0000
# 4 0.0000 0.0000 0.0000 33.7533 0.0000 0.0000
# 5 0.0000 0.0000 0.0000 0.0000 16.8583 0.0000
# 6 0.0000 0.0000 0.0000 0.0000 0.0000 23.6049
#
#
#
# Elastic Compliance Matrix: (Units=1/GPa)
#
#
# Indices 1 2 3 4 5 6 
#
# 1 0.012760 -0.003445 -0.004590 0.000000 0.000000 0.000000
# 2 -0.003445 0.034618 0.005929 0.000000 0.000000 0.000000
# 3 -0.004590 0.005929 0.024790 0.000000 0.000000 0.000000
# 4 0.000000 0.000000 0.000000 0.029627 0.000000 0.000000
# 5 0.000000 0.000000 0.000000 0.000000 0.059318 0.000000
# 6 0.000000 0.000000 0.000000 0.000000 0.000000 0.042364
#
#
# Mechanical properties :
#
#
# Convention : Reuss Voigt Hill
#
# Bulk Modulus (GPa) = 14.71515 20.94100 17.82807
# Shear Modulus (GPa) = 21.70695 24.57728 23.14212
#
# Velocity S-wave (km/s) = 3.29573 3.50686 3.40293
# Velocity P-wave (km/s) = 4.67393 5.18421 4.93567
#
# Compressibility (1/GPa) = 0.06795717
#
# Stress axis : x y z
#
# Youngs Moduli (GPa) = 78.36777 28.88702 40.33812
#
# Poissons Ratio (x) = 0.09951 0.18515
# Poissons Ratio (y) = 0.26995 -0.23917
# Poissons Ratio (z) = 0.35971 -0.17127
#
# Static dielectric constant tensor:
#      x y z
#    x 1.727490 0.000000 0.000000 
#    y 0.000000 1.710780 0.000000 
#    z 0.000000 0.000000 1.693040 
# 
# From -- ./inp_files/3584.got.cif
#   From: 2010.05.17/outbox.cif.g08.bks.cpg/sg36_2_cif.got.tgz:3584.got - 2010.06.03 17:41:39.
