data_PCOD9351578
_publ_section_title
;
Structure prediction by ZEFSAII (Michael W. Deem and Ramdas Pophale) SiO2 
 PCOD9351578
Probable space group: C M C 21
;
_chemical_formula_sum "Si O2"
_cell_formula_units_Z 64
_cell_length_a 7.564927
_cell_length_b 14.973102
_cell_length_c 22.598687
_cell_angle_alpha 90.000000
_cell_angle_beta 90.000000
_cell_angle_gamma 90.000000
_cell_volume 2559.762849
_symmetry_space_group_name_H-M "C M C 21"
_symmetry_group_IT_number 36
_symmetry_cell_setting 'orthorhombic'
loop_
_space_group_symop_operation_xyz
x,y,z
-x,-y,1/2+z
x,-y,1/2+z
-x,y,z
1/2+x,1/2+y,z
1/2-x,1/2-y,1/2+z
1/2+x,1/2-y,1/2+z
1/2-x,1/2+y,z
loop_
_atom_site_type_symbol
_atom_site_label
_atom_site_fract_x
_atom_site_fract_y
_atom_site_fract_z
Si Si1 0.298605 0.822593 0.241000
Si Si2 0.786629 0.418157 0.030534
Si Si3 0.716682 0.960986 0.335812
Si Si4 0.782514 0.147476 0.188656
Si Si5 0.786332 0.373911 0.900752
Si Si6 0.293932 0.277068 0.564516
Si Si7 0.292948 0.539123 0.655250
Si Si8 0.206338 0.672935 0.936764
O O1 0.500000 0.809488 0.261450
O O2 0.217857 0.898572 0.282525
O O3 0.220439 0.724060 0.233658
O O4 0.299340 0.870659 0.176992
O O5 0.717833 0.320185 0.049878
O O6 0.729842 0.479160 0.085296
O O7 0.000000 0.420204 0.030067
O O8 0.733006 0.423877 0.962154
O O9 0.500000 0.963935 0.332608
O O10 0.770897 0.902676 0.392713
O O11 0.774988 0.062968 0.346933
O O12 0.721498 0.178412 0.123335
O O13 0.000000 0.146638 0.190132
O O14 0.725039 0.045251 0.193026
O O15 0.729312 0.271095 0.907083
O O16 0.000000 0.370929 0.899792
O O17 0.500000 0.263544 0.576690
O O18 0.283189 0.328741 0.502494
O O19 0.500000 0.550786 0.665610
O O20 0.000000 0.657222 0.944753
#
# Coordination Sequence:
#
# PCOD9351578 Si02
#       8
#     8   8   8   8   8   8   8   8
#     4  10  20  41  62  75 104 152 193 220 263 333
#     4   9  17  32  56  78 108 148 183 214 266 336
#     4   9  20  37  60  82 105 145 192 227 261 322
#     4   9  19  35  55  78 107 145 182 217 273 334
#     4   9  19  37  56  79 111 147 181 219 271 330
#     4   9  17  34  56  78 109 150 184 214 266 335
#     4  11  22  34  53  84 114 138 179 235 280 318
#     4  10  20  34  54  86 114 139 180 230 274 314
#
# _framework density 25.002317000000001
#
# number of rings (size 3 to 8) (size 9 to 14) (size 15 to 20)
#    0.000    2.500    1.250    1.500    1.750    3.000 
#    0.000    6.250    0.000    0.000    0.000    0.000 
#    0.000    0.000    0.000    0.000    0.000    0.000 
#
# Total GULP energy -178685.096053 kJ/mol
# GULP energy per Si atom -5583.909252 kJ/mol
# Density = 2.494541 g / cm^3
# Si number density = 25.002317 Si / 1000 Ang^3
#
#
#
# Elastic Constant Matrix: (Units=GPa)
#
#
# Indices 1 2 3 4 5 6 
#
# 1 64.3916 -5.2194 -7.5009 0.0000 0.0000 0.0000
# 2 -5.2194 98.8536 10.9901 0.0000 0.0000 0.0000
# 3 -7.5009 10.9901 28.4639 0.0000 0.0000 0.0000
# 4 0.0000 0.0000 0.0000 31.8373 0.0000 0.0000
# 5 0.0000 0.0000 0.0000 0.0000 12.3790 0.0000
# 6 0.0000 0.0000 0.0000 0.0000 0.0000 5.8867
#
#
#
# Elastic Compliance Matrix: (Units=1/GPa)
#
#
# Indices 1 2 3 4 5 6 
#
# 1 0.016036 0.000394 0.004074 0.000000 0.000000 0.000000
# 2 0.000394 0.010579 -0.003981 0.000000 0.000000 0.000000
# 3 0.004074 -0.003981 0.037743 0.000000 0.000000 0.000000
# 4 0.000000 0.000000 0.000000 0.031410 0.000000 0.000000
# 5 0.000000 0.000000 0.000000 0.000000 0.080782 0.000000
# 6 0.000000 0.000000 0.000000 0.000000 0.000000 0.169875
#
#
# Mechanical properties :
#
#
# Convention : Reuss Voigt Hill
#
# Bulk Modulus (GPa) = 15.30640 20.91652 18.11146
# Shear Modulus (GPa) = 13.61546 22.91655 18.26601
#
# Velocity S-wave (km/s) = 2.33613 3.03079 2.70584
# Velocity P-wave (km/s) = 3.66223 4.54220 4.12574
#
# Compressibility (1/GPa) = 0.06533217
#
# Stress axis : x y z
#
# Youngs Moduli (GPa) = 62.35793 94.52373 26.49506
#
# Poissons Ratio (x) = -0.03722 -0.10794
# Poissons Ratio (y) = -0.02456 0.10548
# Poissons Ratio (z) = -0.25404 0.37630
#
# Static dielectric constant tensor:
#      x y z
#    x 1.922390 0.000000 0.000000 
#    y 0.000000 1.986990 0.000000 
#    z 0.000000 0.000000 2.050220 
# 
# From -- ./inp_files/16627.got.cif
#   From: 2010.05.17/outbox.cif.g08.bks.cpg/sg36_9_cif.got.tgz:16627.got - 2010.06.03 17:41:39.
