data_PCOD9351215
_publ_section_title
;
Structure prediction by ZEFSAII (Michael W. Deem and Ramdas Pophale) SiO2 
 PCOD9351215
Probable space group: C M C 21
;
_chemical_formula_sum "Si O2"
_cell_formula_units_Z 48
_cell_length_a 7.827161
_cell_length_b 20.820655
_cell_length_c 14.532644
_cell_angle_alpha 90.000000
_cell_angle_beta 90.000000
_cell_angle_gamma 90.000000
_cell_volume 2368.335855
_symmetry_space_group_name_H-M "C M C 21"
_symmetry_group_IT_number 36
_symmetry_cell_setting 'orthorhombic'
loop_
_space_group_symop_operation_xyz
x,y,z
-x,-y,1/2+z
x,-y,1/2+z
-x,y,z
1/2+x,1/2+y,z
1/2-x,1/2-y,1/2+z
1/2+x,1/2-y,1/2+z
1/2-x,1/2+y,z
loop_
_atom_site_type_symbol
_atom_site_label
_atom_site_fract_x
_atom_site_fract_y
_atom_site_fract_z
Si Si1 0.296807 0.074325 0.246650
Si Si2 0.296893 0.442712 0.344696
Si Si3 0.706781 0.109163 0.043599
Si Si4 0.790822 0.812815 0.252146
Si Si5 0.703295 0.256513 0.059834
Si Si6 0.293733 0.191619 0.370616
O O1 0.500000 0.084686 0.239398
O O2 0.233607 0.078897 0.141077
O O3 0.228670 0.132555 0.309610
O O4 0.269055 0.008173 0.300122
O O5 0.500000 0.444334 0.335016
O O6 0.259246 0.429028 0.452037
O O7 0.229896 0.381675 0.286773
O O8 0.500000 0.109668 0.042841
O O9 0.768151 0.183823 0.041540
O O10 0.730402 0.788497 0.153121
O O11 0.739534 0.758189 0.324025
O O12 0.000000 0.814730 0.250728
O O13 0.500000 0.249216 0.071654
O O14 0.736755 0.303581 0.975234
O O15 0.500000 0.189488 0.369758
#
# Coordination Sequence:
#
# PCOD9351215 Si02
#       6
#     8   8   8   8   8   8
#     4  10  22  40  61  83 115 156 197 237 283 344
#     4  11  23  38  59  86 120 155 188 237 293 347
#     4  10  20  37  61  85 112 152 195 238 288 343
#     4   9  18  35  57  81 111 148 186 227 283 338
#     4  10  19  34  59  88 115 148 191 237 284 339
#     4  10  19  36  59  83 111 147 189 236 285 333
#
# _framework density 20.267395
#
# number of rings (size 3 to 8) (size 9 to 14) (size 15 to 20)
#    0.000    2.000    3.333    0.500    0.000    2.667 
#    0.000    5.833    0.000    0.000    0.000    0.000 
#    0.000    0.000    0.000    0.000    0.000    0.000 
#
# Total GULP energy -133964.555084 kJ/mol
# GULP energy per Si atom -5581.856462 kJ/mol
# Density = 2.022127 g / cm^3
# Si number density = 20.267395 Si / 1000 Ang^3
#
#
#
# Elastic Constant Matrix: (Units=GPa)
#
#
# Indices 1 2 3 4 5 6 
#
# 1 16.3590 -14.8012 -15.9391 0.0000 0.0000 0.0000
# 2 -14.8012 95.8896 23.7375 0.0000 0.0000 0.0000
# 3 -15.9391 23.7375 127.5095 0.0000 0.0000 0.0000
# 4 0.0000 0.0000 0.0000 34.1543 0.0000 0.0000
# 5 0.0000 0.0000 0.0000 0.0000 21.0171 0.0000
# 6 0.0000 0.0000 0.0000 0.0000 0.0000 20.0025
#
#
#
# Elastic Compliance Matrix: (Units=1/GPa)
#
#
# Indices 1 2 3 4 5 6 
#
# 1 0.077909 0.010079 0.007862 0.000000 0.000000 0.000000
# 2 0.010079 0.012236 -0.001018 0.000000 0.000000 0.000000
# 3 0.007862 -0.001018 0.009015 0.000000 0.000000 0.000000
# 4 0.000000 0.000000 0.000000 0.029279 0.000000 0.000000
# 5 0.000000 0.000000 0.000000 0.000000 0.047580 0.000000
# 6 0.000000 0.000000 0.000000 0.000000 0.000000 0.049994
#
#
# Mechanical properties :
#
#
# Convention : Reuss Voigt Hill
#
# Bulk Modulus (GPa) = 7.51837 25.08364 16.30101
# Shear Modulus (GPa) = 21.14152 31.48549 26.31350
#
# Velocity S-wave (km/s) = 3.23326 3.94573 3.60713
# Velocity P-wave (km/s) = 4.20193 5.75861 5.04072
#
# Compressibility (1/GPa) = 0.13300751
#
# Stress axis : x y z
#
# Youngs Moduli (GPa) = 12.83554 81.72284 110.92754
#
# Poissons Ratio (x) = -0.82371 -0.87216
# Poissons Ratio (y) = -0.12937 0.11293
# Poissons Ratio (z) = -0.10092 0.08320
#
# Static dielectric constant tensor:
#      x y z
#    x 1.747510 0.000000 0.000000 
#    y 0.000000 1.698580 0.000000 
#    z 0.000000 0.000000 1.707680 
# 
# From -- ./inp_files/7690.got.cif
#   From: 2010.05.17/outbox.cif.g08.bks.cpg/sg36_4_cif.got.tgz:7690.got - 2010.06.03 17:41:39.
