data_PCOD9351074
_publ_section_title
;
Structure prediction by ZEFSAII (Michael W. Deem and Ramdas Pophale) SiO2 
 PCOD9351074
Probable space group: C M C 21
;
_chemical_formula_sum "Si O2"
_cell_formula_units_Z 48
_cell_length_a 28.486756
_cell_length_b 14.369746
_cell_length_c 5.055676
_cell_angle_alpha 90.000000
_cell_angle_beta 90.000000
_cell_angle_gamma 90.000000
_cell_volume 2069.528069
_symmetry_space_group_name_H-M "C M C 21"
_symmetry_group_IT_number 36
_symmetry_cell_setting 'orthorhombic'
loop_
_space_group_symop_operation_xyz
x,y,z
-x,-y,1/2+z
x,-y,1/2+z
-x,y,z
1/2+x,1/2+y,z
1/2-x,1/2-y,1/2+z
1/2+x,1/2-y,1/2+z
1/2-x,1/2+y,z
loop_
_atom_site_type_symbol
_atom_site_label
_atom_site_fract_x
_atom_site_fract_y
_atom_site_fract_z
Si Si1 0.698223 0.061332 0.580380
Si Si2 0.894584 0.360538 0.829457
Si Si3 0.447352 0.863569 0.326136
Si Si4 0.105416 0.139462 0.768898
Si Si5 0.947352 0.136430 0.272219
Si Si6 0.301777 0.561332 0.517975
O O1 0.655048 0.119503 0.467729
O O2 0.750000 0.104856 0.549178
O O3 0.696155 0.971558 0.383880
O O4 0.933495 0.396100 0.034969
O O5 0.898168 0.250000 0.799178
O O6 0.908403 0.395176 0.538262
O O7 0.500000 0.889010 0.406302
O O8 0.446366 0.750000 0.299177
O O9 0.091597 0.104823 0.060093
O O10 0.066505 0.103900 0.563386
O O11 0.155048 0.119503 0.630625
O O12 0.000000 0.110989 0.192052
O O13 0.303845 0.528442 0.214476
#
# Coordination Sequence:
#
# PCOD9351074 Si02
#       6
#     8   8   8   8   8   8
#     4  10  21  38  57  76 104 144 180 212 265 329
#     4  10  19  33  55  82 106 134 178 225 262 302
#     4   9  17  30  51  79 109 139 172 213 263 317
#     4  10  19  33  55  82 106 134 178 225 262 302
#     4   9  17  30  51  79 109 139 172 213 263 317
#     4  10  21  38  57  76 104 144 180 212 265 329
#
# _framework density 23.193695999999999
#
# number of rings (size 3 to 8) (size 9 to 14) (size 15 to 20)
#    0.000    2.333    0.000    3.000    0.000    4.000 
#    0.000   10.000    0.000   20.000    0.000    0.000 
#    0.000    0.000    0.000    0.000    0.000    0.000 
#
# Total GULP energy -133946.073040 kJ/mol
# GULP energy per Si atom -5581.086377 kJ/mol
# Density = 2.314091 g / cm^3
# Si number density = 23.193696 Si / 1000 Ang^3
#
#
#
# Elastic Constant Matrix: (Units=GPa)
#
#
# Indices 1 2 3 4 5 6 
#
# 1 151.8164 -1.8580 46.7011 0.0000 0.0000 0.0000
# 2 -1.8580 45.2853 -6.5580 0.0000 0.0000 0.0000
# 3 46.7011 -6.5580 108.2402 0.0000 0.0000 0.0000
# 4 0.0000 0.0000 0.0000 9.6886 0.0000 0.0000
# 5 0.0000 0.0000 0.0000 0.0000 37.3405 0.0000
# 6 0.0000 0.0000 0.0000 0.0000 0.0000 30.8420
#
#
#
# Elastic Compliance Matrix: (Units=1/GPa)
#
#
# Indices 1 2 3 4 5 6 
#
# 1 0.007596 -0.000164 -0.003287 0.000000 0.000000 0.000000
# 2 -0.000164 0.022281 0.001421 0.000000 0.000000 0.000000
# 3 -0.003287 0.001421 0.010743 0.000000 0.000000 0.000000
# 4 0.000000 0.000000 0.000000 0.103214 0.000000 0.000000
# 5 0.000000 0.000000 0.000000 0.000000 0.026781 0.000000
# 6 0.000000 0.000000 0.000000 0.000000 0.000000 0.032423
#
#
# Mechanical properties :
#
#
# Convention : Reuss Voigt Hill
#
# Bulk Modulus (GPa) = 27.35324 42.43469 34.89396
# Shear Modulus (GPa) = 22.80120 33.37800 28.08960
#
# Velocity S-wave (km/s) = 3.13881 3.79766 3.48384
# Velocity P-wave (km/s) = 4.99551 6.12904 5.59108
#
# Compressibility (1/GPa) = 0.03655875
#
# Stress axis : x y z
#
# Youngs Moduli (GPa) = 131.64588 44.88085 93.08250
#
# Poissons Ratio (x) = 0.00738 0.30600
# Poissons Ratio (y) = 0.02164 -0.13226
# Poissons Ratio (z) = 0.43277 -0.06377
#
# Static dielectric constant tensor:
#      x y z
#    x 1.871540 0.000000 0.000000 
#    y 0.000000 1.887850 0.000000 
#    z 0.000000 0.000000 1.828310 
# 
# From -- ./inp_files/1572.got.cif
#   From: 2010.05.17/outbox.cif.g08.bks.cpg/sg36_1_cif.got.tgz:1572.got - 2010.06.03 17:41:39.
