data_PCOD9351272
_publ_section_title
;
Structure prediction by ZEFSAII (Michael W. Deem and Ramdas Pophale) SiO2 
 PCOD9351272
Probable space group: C M C 21
;
_chemical_formula_sum "Si O2"
_cell_formula_units_Z 56
_cell_length_a 9.615073
_cell_length_b 22.604877
_cell_length_c 13.671555
_cell_angle_alpha 90.000000
_cell_angle_beta 90.000000
_cell_angle_gamma 90.000000
_cell_volume 2971.478882
_symmetry_space_group_name_H-M "C M C 21"
_symmetry_group_IT_number 36
_symmetry_cell_setting 'orthorhombic'
loop_
_space_group_symop_operation_xyz
x,y,z
-x,-y,1/2+z
x,-y,1/2+z
-x,y,z
1/2+x,1/2+y,z
1/2-x,1/2-y,1/2+z
1/2+x,1/2-y,1/2+z
1/2-x,1/2+y,z
loop_
_atom_site_type_symbol
_atom_site_label
_atom_site_fract_x
_atom_site_fract_y
_atom_site_fract_z
Si Si1 0.658081 0.841240 0.218350
Si Si2 0.836431 0.713581 0.919451
Si Si3 0.836225 0.525599 0.145224
Si Si4 0.735298 0.038399 0.826756
Si Si5 0.840895 0.892545 0.503885
Si Si6 0.147162 0.438923 0.968054
Si Si7 0.662883 0.660366 0.521389
O O1 0.500000 0.833378 0.184272
O O2 0.689727 0.793304 0.303212
O O3 0.667427 0.903970 0.276281
O O4 0.759432 0.838337 0.126058
O O5 0.734424 0.667996 0.973187
O O6 0.000000 0.696495 0.933791
O O7 0.817602 0.778528 0.963236
O O8 0.740117 0.505033 0.235451
O O9 0.000000 0.539409 0.170607
O O10 0.757764 0.575977 0.083816
O O11 0.844181 0.468959 0.074064
O O12 0.840600 0.066595 0.905286
O O13 0.649050 0.994486 0.895800
O O14 0.000000 0.885031 0.536277
O O15 0.000000 0.406817 0.957621
O O16 0.271939 0.393437 0.959685
O O17 0.500000 0.650844 0.537479
#
# Coordination Sequence:
#
# PCOD9351272 Si02
#       7
#     8   8   8   8   8   8   8
#     4  10  19  38  66  87 107 151 205 244 287 350
#     4   9  21  42  62  80 112 158 201 240 289 353
#     4  10  19  35  59  84 115 155 196 234 283 352
#     4  10  20  36  59  87 118 151 194 239 290 351
#     4  10  22  37  57  88 118 148 192 248 302 347
#     4  10  20  35  58  87 116 151 194 236 282 344
#     4  11  23  39  59  87 122 154 192 245 299 349
#
# _framework density 18.845835000000001
#
# number of rings (size 3 to 8) (size 9 to 14) (size 15 to 20)
#    0.000    2.000    1.429    2.143    0.000   10.857 
#    2.571    0.000    0.000    0.000    0.000    0.000 
#    0.000    0.000    0.000    0.000    0.000    0.000 
#
# Total GULP energy -155918.764849 kJ/mol
# GULP energy per Si atom -5568.527316 kJ/mol
# Density = 1.880294 g / cm^3
# Si number density = 18.845835 Si / 1000 Ang^3
#
#
#
# Elastic Constant Matrix: (Units=GPa)
#
#
# Indices 1 2 3 4 5 6 
#
# 1 97.3682 56.2187 19.7701 0.0000 0.0000 0.0000
# 2 56.2187 73.0975 28.9805 0.0000 0.0000 0.0000
# 3 19.7701 28.9805 77.6180 0.0000 0.0000 0.0000
# 4 0.0000 0.0000 0.0000 27.2072 0.0000 0.0000
# 5 0.0000 0.0000 0.0000 0.0000 1.2189 0.0000
# 6 0.0000 0.0000 0.0000 0.0000 0.0000 7.8360
#
#
#
# Elastic Compliance Matrix: (Units=1/GPa)
#
#
# Indices 1 2 3 4 5 6 
#
# 1 0.018507 -0.014513 0.000705 0.000000 0.000000 0.000000
# 2 -0.014513 0.027438 -0.006548 0.000000 0.000000 0.000000
# 3 0.000705 -0.006548 0.015149 0.000000 0.000000 0.000000
# 4 0.000000 0.000000 0.000000 0.036755 0.000000 0.000000
# 5 0.000000 0.000000 0.000000 0.000000 0.820408 0.000000
# 6 0.000000 0.000000 0.000000 0.000000 0.000000 0.127617
#
#
# Mechanical properties :
#
#
# Convention : Reuss Voigt Hill
#
# Bulk Modulus (GPa) = 49.06371 50.89136 49.97754
# Shear Modulus (GPa) = 4.57298 16.79336 10.68317
#
# Velocity S-wave (km/s) = 1.55942 2.98835 2.38349
# Velocity P-wave (km/s) = 5.41601 6.24257 5.84392
#
# Compressibility (1/GPa) = 0.02038166
#
# Stress axis : x y z
#
# Youngs Moduli (GPa) = 54.03482 36.44566 66.01102
#
# Poissons Ratio (x) = 0.52893 -0.04653
# Poissons Ratio (y) = 0.78419 0.43225
# Poissons Ratio (z) = -0.03809 0.23865
#
# Static dielectric constant tensor:
#      x y z
#    x 1.665270 0.000000 0.000000 
#    y 0.000000 1.648790 0.000000 
#    z 0.000000 0.000000 1.702180 
# 
# From -- ./inp_files/10632.got.cif
#   From: 2010.05.17/outbox.cif.g08.bks.cpg/sg36_6_cif.got.tgz:10632.got - 2010.06.03 17:41:39.
