data_PCOD9351304
_publ_section_title
;
Structure prediction by ZEFSAII (Michael W. Deem and Ramdas Pophale) SiO2 
 PCOD9351304
Probable space group: C M C 21
;
_chemical_formula_sum "Si O2"
_cell_formula_units_Z 64
_cell_length_a 8.802857
_cell_length_b 32.388195
_cell_length_c 11.241475
_cell_angle_alpha 90.000000
_cell_angle_beta 90.000000
_cell_angle_gamma 90.000000
_cell_volume 3205.041751
_symmetry_space_group_name_H-M "C M C 21"
_symmetry_group_IT_number 36
_symmetry_cell_setting 'orthorhombic'
loop_
_space_group_symop_operation_xyz
x,y,z
-x,-y,1/2+z
x,-y,1/2+z
-x,y,z
1/2+x,1/2+y,z
1/2-x,1/2-y,1/2+z
1/2+x,1/2-y,1/2+z
1/2-x,1/2+y,z
loop_
_atom_site_type_symbol
_atom_site_label
_atom_site_fract_x
_atom_site_fract_y
_atom_site_fract_z
Si Si1 0.326813 0.611036 0.264130
Si Si2 0.181224 0.738666 0.303083
Si Si3 0.815762 0.981167 0.843695
Si Si4 0.821898 0.673485 0.098457
Si Si5 0.321534 0.669095 0.845318
Si Si6 0.177213 0.382168 0.156411
Si Si7 0.683369 0.529973 0.608551
Si Si8 0.328374 0.677469 0.477451
O O1 0.500000 0.607895 0.216108
O O2 0.280450 0.566284 0.310802
O O3 0.215558 0.631474 0.169234
O O4 0.332087 0.643086 0.373184
O O5 0.217075 0.711025 0.187895
O O6 0.218512 0.786510 0.288245
O O7 0.266296 0.718572 0.415444
O O8 0.000000 0.735217 0.323279
O O9 0.000000 0.984857 0.846048
O O10 0.762020 0.008495 0.731351
O O11 0.764446 0.988764 0.980536
O O12 0.000000 0.676230 0.068858
O O13 0.719824 0.674145 0.982481
O O14 0.500000 0.661505 0.828323
O O15 0.228800 0.632000 0.786898
O O16 0.267875 0.422344 0.113921
O O17 0.000000 0.390589 0.149494
O O18 0.222715 0.343182 0.075229
O O19 0.500000 0.527667 0.608403
O O20 0.500000 0.683549 0.523007
#
# Coordination Sequence:
#
# PCOD9351304 Si02
#       8
#     8   8   8   8   8   8   8   8
#     4   9  17  34  59  87 114 152 199 242 292 361
#     4   9  21  39  59  87 120 154 195 245 303 357
#     4   9  18  34  61  92 123 156 206 259 309 368
#     4  10  21  38  57  85 121 154 193 251 307 361
#     4  11  24  41  60  85 118 161 205 249 303 368
#     4  12  25  40  59  87 122 162 203 252 309 365
#     4  10  20  39  63  91 122 161 207 261 315 378
#     4  10  19  35  62  88 116 152 198 245 288 352
#
# _framework density 19.968537000000001
#
# number of rings (size 3 to 8) (size 9 to 14) (size 15 to 20)
#    0.000    2.000    1.250    2.250    1.750    3.000 
#    0.000    3.750    0.000    0.000    0.000    0.000 
#    0.000    0.000    0.000    0.000    0.000    0.000 
#
# Total GULP energy -178622.462478 kJ/mol
# GULP energy per Si atom -5581.951952 kJ/mol
# Density = 1.992309 g / cm^3
# Si number density = 19.968537 Si / 1000 Ang^3
#
#
#
# Elastic Constant Matrix: (Units=GPa)
#
#
# Indices 1 2 3 4 5 6 
#
# 1 16.1587 6.1370 15.0732 0.0000 0.0000 0.0000
# 2 6.1370 48.4480 36.2624 0.0000 0.0000 0.0000
# 3 15.0732 36.2624 99.9913 0.0000 0.0000 0.0000
# 4 0.0000 0.0000 0.0000 21.5388 0.0000 0.0000
# 5 0.0000 0.0000 0.0000 0.0000 23.6533 0.0000
# 6 0.0000 0.0000 0.0000 0.0000 0.0000 18.3665
#
#
#
# Elastic Compliance Matrix: (Units=1/GPa)
#
#
# Indices 1 2 3 4 5 6 
#
# 1 0.072079 -0.001369 -0.010369 0.000000 0.000000 0.000000
# 2 -0.001369 0.028357 -0.010077 0.000000 0.000000 0.000000
# 3 -0.010369 -0.010077 0.015219 0.000000 0.000000 0.000000
# 4 0.000000 0.000000 0.000000 0.046428 0.000000 0.000000
# 5 0.000000 0.000000 0.000000 0.000000 0.042277 0.000000
# 6 0.000000 0.000000 0.000000 0.000000 0.000000 0.054447
#
#
# Mechanical properties :
#
#
# Convention : Reuss Voigt Hill
#
# Bulk Modulus (GPa) = 13.88454 31.06037 22.47245
# Shear Modulus (GPa) = 15.31652 19.85341 17.58496
#
# Velocity S-wave (km/s) = 2.77254 3.15657 2.97077
# Velocity P-wave (km/s) = 4.14941 5.37342 4.80059
#
# Compressibility (1/GPa) = 0.07202257
#
# Stress axis : x y z
#
# Youngs Moduli (GPa) = 13.87375 35.26484 65.70934
#
# Poissons Ratio (x) = 0.04829 0.68133
# Poissons Ratio (y) = 0.01900 0.66218
# Poissons Ratio (z) = 0.14385 0.35538
#
# Static dielectric constant tensor:
#      x y z
#    x 1.668930 0.000000 0.000000 
#    y 0.000000 1.681530 0.000000 
#    z 0.000000 0.000000 1.745060 
# 
# From -- ./inp_files/7269.got.cif
#   From: 2010.05.17/outbox.cif.g08.bks.cpg/sg36_4_cif.got.tgz:7269.got - 2010.06.03 17:41:39.
