data_PCOD9351351
_publ_section_title
;
Structure prediction by ZEFSAII (Michael W. Deem and Ramdas Pophale) SiO2 
 PCOD9351351
Probable space group: C M C 21
;
_chemical_formula_sum "Si O2"
_cell_formula_units_Z 64
_cell_length_a 21.328871
_cell_length_b 13.506281
_cell_length_c 9.225762
_cell_angle_alpha 90.000000
_cell_angle_beta 90.000000
_cell_angle_gamma 90.000000
_cell_volume 2657.699627
_symmetry_space_group_name_H-M "C M C 21"
_symmetry_group_IT_number 36
_symmetry_cell_setting 'orthorhombic'
loop_
_space_group_symop_operation_xyz
x,y,z
-x,-y,1/2+z
x,-y,1/2+z
-x,y,z
1/2+x,1/2+y,z
1/2-x,1/2-y,1/2+z
1/2+x,1/2-y,1/2+z
1/2-x,1/2+y,z
loop_
_atom_site_type_symbol
_atom_site_label
_atom_site_fract_x
_atom_site_fract_y
_atom_site_fract_z
Si Si1 0.066920 0.769492 0.298170
Si Si2 0.072121 0.436384 0.264699
Si Si3 0.657411 0.045687 0.048560
Si Si4 0.262101 0.154509 0.550896
Si Si5 0.571540 0.561536 0.018452
Si Si6 0.198453 0.282172 0.750938
Si Si7 0.624166 0.737611 0.201202
Si Si8 0.927876 0.840659 0.978230
O O1 0.070238 0.878746 0.367679
O O2 0.130890 0.715045 0.333259
O O3 0.067047 0.781565 0.126547
O O4 0.000000 0.725692 0.345672
O O5 0.099721 0.516288 0.153807
O O6 0.123460 0.435412 0.395015
O O7 0.076960 0.330318 0.183332
O O8 0.000000 0.453346 0.309298
O O9 0.706779 0.954132 0.044004
O O10 0.693826 0.136076 0.124577
O O11 0.206135 0.177367 0.665430
O O12 0.255999 0.191472 0.385005
O O13 0.311760 0.225033 0.634269
O O14 0.500000 0.550546 0.070578
O O15 0.605955 0.635933 0.124397
O O16 0.596265 0.451708 0.001765
O O17 0.616868 0.714548 0.369245
O O18 0.000000 0.846871 0.919188
#
# Coordination Sequence:
#
# PCOD9351351 Si02
#       8
#     8   8   8   8   8   8   8   8
#     4  10  22  40  65 100 137 176 226 288 358 422
#     4  11  23  41  73 110 149 197 240 298 376 444
#     4  11  25  49  73 106 151 184 246 307 356 440
#     4  11  28  48  72 102 136 192 237 299 361 419
#     4  10  19  36  61  92 139 181 227 291 346 416
#     4  12  26  50  74 101 142 187 240 295 358 433
#     4  11  22  41  62  98 141 185 248 293 359 435
#     4  10  20  35  60  95 138 186 230 287 352 417
#
# _framework density 24.080974999999999
#
# number of rings (size 3 to 8) (size 9 to 14) (size 15 to 20)
#    0.000    1.250    2.500    3.000    5.250    4.000 
#    4.500    0.000    0.000    0.000    0.000    0.000 
#    0.000    0.000    0.000    0.000    0.000    0.000 
#
# Total GULP energy -178821.090136 kJ/mol
# GULP energy per Si atom -5588.159067 kJ/mol
# Density = 2.402617 g / cm^3
# Si number density = 24.080975 Si / 1000 Ang^3
#
#
#
# Elastic Constant Matrix: (Units=GPa)
#
#
# Indices 1 2 3 4 5 6 
#
# 1 81.1569 10.1902 9.7578 0.0000 0.0000 0.0000
# 2 10.1902 73.3193 -7.5382 0.0000 0.0000 0.0000
# 3 9.7578 -7.5382 98.4502 0.0000 0.0000 0.0000
# 4 0.0000 0.0000 0.0000 37.5494 0.0000 0.0000
# 5 0.0000 0.0000 0.0000 0.0000 34.3864 0.0000
# 6 0.0000 0.0000 0.0000 0.0000 0.0000 30.5660
#
#
#
# Elastic Compliance Matrix: (Units=1/GPa)
#
#
# Indices 1 2 3 4 5 6 
#
# 1 0.012732 -0.001914 -0.001408 0.000000 0.000000 0.000000
# 2 -0.001914 0.014035 0.001264 0.000000 0.000000 0.000000
# 3 -0.001408 0.001264 0.010394 0.000000 0.000000 0.000000
# 4 0.000000 0.000000 0.000000 0.026632 0.000000 0.000000
# 5 0.000000 0.000000 0.000000 0.000000 0.029081 0.000000
# 6 0.000000 0.000000 0.000000 0.000000 0.000000 0.032716
#
#
# Mechanical properties :
#
#
# Convention : Reuss Voigt Hill
#
# Bulk Modulus (GPa) = 30.26300 30.86067 30.56183
# Shear Modulus (GPa) = 35.53140 36.53480 36.03310
#
# Velocity S-wave (km/s) = 3.84539 3.89930 3.87244
# Velocity P-wave (km/s) = 5.68423 5.75465 5.71955
#
# Compressibility (1/GPa) = 0.03304365
#
# Stress axis : x y z
#
# Youngs Moduli (GPa) = 78.54519 71.25033 96.21094
#
# Poissons Ratio (x) = 0.13639 0.13551
# Poissons Ratio (y) = 0.15036 -0.12165
# Poissons Ratio (z) = 0.11063 -0.09009
#
# Static dielectric constant tensor:
#      x y z
#    x 2.064690 0.000000 0.000000 
#    y 0.000000 1.728120 0.000000 
#    z 0.000000 0.000000 1.920560 
# 
# From -- ./inp_files/5673.got.cif
#   From: 2010.05.17/outbox.cif.g08.bks.cpg/sg36_3_cif.got.tgz:5673.got - 2010.06.03 17:41:39.
