data_PCOD9351138
_publ_section_title
;
Structure prediction by ZEFSAII (Michael W. Deem and Ramdas Pophale) SiO2 
 PCOD9351138
Probable space group: C M C 21
;
_chemical_formula_sum "Si O2"
_cell_formula_units_Z 64
_cell_length_a 7.367119
_cell_length_b 21.091481
_cell_length_c 17.839008
_cell_angle_alpha 90.000000
_cell_angle_beta 90.000000
_cell_angle_gamma 90.000000
_cell_volume 2771.886615
_symmetry_space_group_name_H-M "C M C 21"
_symmetry_group_IT_number 36
_symmetry_cell_setting 'orthorhombic'
loop_
_space_group_symop_operation_xyz
x,y,z
-x,-y,1/2+z
x,-y,1/2+z
-x,y,z
1/2+x,1/2+y,z
1/2-x,1/2-y,1/2+z
1/2+x,1/2-y,1/2+z
1/2-x,1/2+y,z
loop_
_atom_site_type_symbol
_atom_site_label
_atom_site_fract_x
_atom_site_fract_y
_atom_site_fract_z
Si Si1 0.777446 0.596225 0.653470
Si Si2 0.795013 0.675533 0.790393
Si Si3 0.277707 0.950884 0.679883
Si Si4 0.281180 0.098992 0.019882
Si Si5 0.297896 0.908270 0.830976
Si Si6 0.790882 0.367108 0.988412
Si Si7 0.220607 0.728872 0.941819
Si Si8 0.790122 0.045595 0.868475
O O1 0.715467 0.651445 0.711246
O O2 0.724174 0.525362 0.679798
O O3 0.718248 0.608784 0.567928
O O4 0.000000 0.597870 0.654988
O O5 0.716726 0.722233 0.854489
O O6 0.797679 0.609158 0.836313
O O7 0.000000 0.697590 0.775234
O O8 0.500000 0.950424 0.682845
O O9 0.220207 0.920495 0.601659
O O10 0.213468 0.906786 0.748622
O O11 0.500000 0.099342 0.020315
O O12 0.220920 0.166973 0.988269
O O13 0.221608 0.048444 0.957997
O O14 0.500000 0.879386 0.828154
O O15 0.206808 0.886520 0.908149
O O16 0.308439 0.983963 0.840213
O O17 0.785486 0.291327 0.983523
O O18 0.000000 0.390390 0.985890
O O19 0.000000 0.729453 0.939605
O O20 0.000000 0.044384 0.845938
#
# Coordination Sequence:
#
# PCOD9351138 Si02
#       8
#     8   8   8   8   8   8   8   8
#     4   9  16  30  55  82 103 131 175 224 265 310
#     4   9  17  34  58  77  99 141 188 220 252 313
#     4   9  16  30  57  84 102 127 176 227 262 310
#     4   9  18  34  56  78 100 138 185 221 254 314
#     4  10  19  34  55  77 106 143 176 216 265 320
#     4  10  21  35  54  80 107 138 182 226 265 311
#     4   9  19  35  53  73 103 142 182 220 265 315
#     4  11  20  30  50  81 112 138 166 212 274 325
#
# _framework density 23.088965999999999
#
# number of rings (size 3 to 8) (size 9 to 14) (size 15 to 20)
#    0.000    2.500    1.250    2.625    0.000    4.500 
#    2.250    1.250    0.000    0.000    0.000    0.000 
#    0.000    0.000    0.000    0.000    0.000    0.000 
#
# Total GULP energy -178502.800222 kJ/mol
# GULP energy per Si atom -5578.212507 kJ/mol
# Density = 2.303641 g / cm^3
# Si number density = 23.088966 Si / 1000 Ang^3
#
#
#
# Elastic Constant Matrix: (Units=GPa)
#
#
# Indices 1 2 3 4 5 6 
#
# 1 97.1176 -3.5284 7.1114 0.0000 0.0000 0.0000
# 2 -3.5284 31.1089 17.4385 0.0000 0.0000 0.0000
# 3 7.1114 17.4385 199.7837 0.0000 0.0000 0.0000
# 4 0.0000 0.0000 0.0000 36.1403 0.0000 0.0000
# 5 0.0000 0.0000 0.0000 0.0000 23.8439 0.0000
# 6 0.0000 0.0000 0.0000 0.0000 0.0000 6.6193
#
#
#
# Elastic Compliance Matrix: (Units=1/GPa)
#
#
# Indices 1 2 3 4 5 6 
#
# 1 0.010386 0.001457 -0.000497 0.000000 0.000000 0.000000
# 2 0.001457 0.034003 -0.003020 0.000000 0.000000 0.000000
# 3 -0.000497 -0.003020 0.005287 0.000000 0.000000 0.000000
# 4 0.000000 0.000000 0.000000 0.027670 0.000000 0.000000
# 5 0.000000 0.000000 0.000000 0.000000 0.041939 0.000000
# 6 0.000000 0.000000 0.000000 0.000000 0.000000 0.151074
#
#
# Mechanical properties :
#
#
# Convention : Reuss Voigt Hill
#
# Bulk Modulus (GPa) = 21.95121 41.11703 31.53412
# Shear Modulus (GPa) = 17.26133 33.78660 25.52397
#
# Velocity S-wave (km/s) = 2.73720 3.82949 3.32846
# Velocity P-wave (km/s) = 4.41786 6.11556 5.33468
#
# Compressibility (1/GPa) = 0.04555557
#
# Stress axis : x y z
#
# Youngs Moduli (GPa) = 96.28265 29.40898 189.15413
#
# Poissons Ratio (x) = -0.04283 0.09398
# Poissons Ratio (y) = -0.14024 0.57122
# Poissons Ratio (z) = 0.04784 0.08881
#
# Static dielectric constant tensor:
#      x y z
#    x 1.821250 0.000000 0.000000 
#    y 0.000000 1.814710 0.000000 
#    z 0.000000 0.000000 1.920120 
# 
# From -- ./inp_files/14102.got.cif
#   From: 2010.05.17/outbox.cif.g08.bks.cpg/sg36_8_cif.got.tgz:14102.got - 2010.06.03 17:41:39.
