data_PCOD9351121
_publ_section_title
;
Structure prediction by ZEFSAII (Michael W. Deem and Ramdas Pophale) SiO2 
 PCOD9351121
Probable space group: C M C 21
;
_chemical_formula_sum "Si O2"
_cell_formula_units_Z 64
_cell_length_a 8.493264
_cell_length_b 15.310085
_cell_length_c 23.737155
_cell_angle_alpha 90.000000
_cell_angle_beta 90.000000
_cell_angle_gamma 90.000000
_cell_volume 3086.603833
_symmetry_space_group_name_H-M "C M C 21"
_symmetry_group_IT_number 36
_symmetry_cell_setting 'orthorhombic'
loop_
_space_group_symop_operation_xyz
x,y,z
-x,-y,1/2+z
x,-y,1/2+z
-x,y,z
1/2+x,1/2+y,z
1/2-x,1/2-y,1/2+z
1/2+x,1/2-y,1/2+z
1/2-x,1/2+y,z
loop_
_atom_site_type_symbol
_atom_site_label
_atom_site_fract_x
_atom_site_fract_y
_atom_site_fract_z
Si Si1 0.186050 0.742562 0.205830
Si Si2 0.809880 0.567843 0.419309
Si Si3 0.187719 0.596799 0.855861
Si Si4 0.689932 0.502277 0.121524
Si Si5 0.689486 0.788217 0.830361
Si Si6 0.685122 0.313455 0.586474
Si Si7 0.685504 0.931777 0.228878
Si Si8 0.313101 0.356250 0.035443
O O1 0.241973 0.702637 0.265383
O O2 0.279027 0.712640 0.151077
O O3 0.213696 0.846073 0.213832
O O4 0.000000 0.725601 0.197497
O O5 0.754465 0.470444 0.403174
O O6 0.753491 0.636457 0.371925
O O7 0.759671 0.603444 0.479506
O O8 0.000000 0.566117 0.416668
O O9 0.262733 0.692380 0.852565
O O10 0.212738 0.550710 0.794800
O O11 0.000000 0.609226 0.862075
O O12 0.500000 0.503319 0.127668
O O13 0.735658 0.585691 0.084007
O O14 0.766627 0.503637 0.183212
O O15 0.739134 0.414623 0.088916
O O16 0.500000 0.791513 0.828649
O O17 0.500000 0.307836 0.575398
O O18 0.769110 0.243808 0.546772
O O19 0.500000 0.912166 0.222642
O O20 0.500000 0.364310 0.031890
#
# Coordination Sequence:
#
# PCOD9351121 Si02
#       8
#     8   8   8   8   8   8   8   8
#     4  10  19  34  58  87 123 158 192 240 295 353
#     4  10  22  41  62  84 116 159 199 241 291 351
#     4   9  20  37  58  87 121 153 193 244 290 343
#     4  10  23  40  58  84 120 155 193 245 302 353
#     4   9  20  37  59  85 118 157 194 236 295 350
#     4  11  23  39  60  88 118 156 197 244 301 354
#     4  10  19  33  59  89 121 157 196 240 294 352
#     4  11  24  43  62  84 117 157 200 250 296 350
#
# _framework density 20.734763000000001
#
# number of rings (size 3 to 8) (size 9 to 14) (size 15 to 20)
#    0.000    2.000    1.250    1.500    1.750    4.500 
#    0.000    3.750    0.000    0.000    0.000    0.000 
#    0.000    0.000    0.000    0.000    0.000    0.000 
#
# Total GULP energy -178725.280729 kJ/mol
# GULP energy per Si atom -5585.165023 kJ/mol
# Density = 2.068757 g / cm^3
# Si number density = 20.734763 Si / 1000 Ang^3
#
#
#
# Elastic Constant Matrix: (Units=GPa)
#
#
# Indices 1 2 3 4 5 6 
#
# 1 10.1744 2.5401 -2.0789 0.0000 0.0000 0.0000
# 2 2.5401 37.8524 -15.6556 0.0000 0.0000 0.0000
# 3 -2.0789 -15.6556 26.9640 0.0000 0.0000 0.0000
# 4 0.0000 0.0000 0.0000 25.7358 0.0000 0.0000
# 5 0.0000 0.0000 0.0000 0.0000 28.7676 0.0000
# 6 0.0000 0.0000 0.0000 0.0000 0.0000 21.8008
#
#
#
# Elastic Compliance Matrix: (Units=1/GPa)
#
#
# Indices 1 2 3 4 5 6 
#
# 1 0.100478 -0.004657 0.005043 0.000000 0.000000 0.000000
# 2 -0.004657 0.034983 0.019953 0.000000 0.000000 0.000000
# 3 0.005043 0.019953 0.049060 0.000000 0.000000 0.000000
# 4 0.000000 0.000000 0.000000 0.038856 0.000000 0.000000
# 5 0.000000 0.000000 0.000000 0.000000 0.034761 0.000000
# 6 0.000000 0.000000 0.000000 0.000000 0.000000 0.045870
#
#
# Mechanical properties :
#
#
# Convention : Reuss Voigt Hill
#
# Bulk Modulus (GPa) = 4.44052 4.95579 4.69815
# Shear Modulus (GPa) = 14.77549 21.27318 18.02434
#
# Velocity S-wave (km/s) = 2.67234 3.20655 2.95156
# Velocity P-wave (km/s) = 3.41586 4.01305 3.72644
#
# Compressibility (1/GPa) = 0.22519869
#
# Stress axis : x y z
#
# Youngs Moduli (GPa) = 9.95239 28.58513 20.38322
#
# Poissons Ratio (x) = 0.13312 -0.10279
# Poissons Ratio (y) = 0.04635 -0.40670
# Poissons Ratio (z) = -0.05019 -0.57035
#
# Static dielectric constant tensor:
#      x y z
#    x 1.700390 0.000000 0.000000 
#    y 0.000000 1.763410 0.000000 
#    z 0.000000 0.000000 1.740040 
# 
# From -- ./inp_files/16669.got.cif
#   From: 2010.05.17/outbox.cif.g08.bks.cpg/sg36_9_cif.got.tgz:16669.got - 2010.06.03 17:41:39.
