data_PCOD9351491
_publ_section_title
;
Structure prediction by ZEFSAII (Michael W. Deem and Ramdas Pophale) SiO2 
 PCOD9351491
Probable space group: C M C 21
;
_chemical_formula_sum "Si O2"
_cell_formula_units_Z 64
_cell_length_a 18.693709
_cell_length_b 14.819112
_cell_length_c 10.323855
_cell_angle_alpha 90.000000
_cell_angle_beta 90.000000
_cell_angle_gamma 90.000000
_cell_volume 2859.957335
_symmetry_space_group_name_H-M "C M C 21"
_symmetry_group_IT_number 36
_symmetry_cell_setting 'orthorhombic'
loop_
_space_group_symop_operation_xyz
x,y,z
-x,-y,1/2+z
x,-y,1/2+z
-x,y,z
1/2+x,1/2+y,z
1/2-x,1/2-y,1/2+z
1/2+x,1/2-y,1/2+z
1/2-x,1/2+y,z
loop_
_atom_site_type_symbol
_atom_site_label
_atom_site_fract_x
_atom_site_fract_y
_atom_site_fract_z
Si Si1 0.277035 0.747201 0.755230
Si Si2 0.415649 0.840204 0.178327
Si Si3 0.215801 0.454268 0.220136
Si Si4 0.794059 0.032636 0.977916
Si Si5 0.581945 0.490129 0.667435
Si Si6 0.192687 0.233763 0.015621
Si Si7 0.415479 0.332370 0.864384
Si Si8 0.918443 0.806792 0.161676
O O1 0.251896 0.645676 0.716481
O O2 0.234695 0.796261 0.643450
O O3 0.361518 0.754149 0.734796
O O4 0.260866 0.778414 0.900769
O O5 0.500000 0.856745 0.158433
O O6 0.368095 0.926980 0.219038
O O7 0.375024 0.793195 0.056260
O O8 0.407875 0.761784 0.287168
O O9 0.238950 0.508310 0.093564
O O10 0.251297 0.496061 0.348751
O O11 0.868557 0.000386 0.041151
O O12 0.817668 0.136169 0.953242
O O13 0.500000 0.466728 0.631868
O O14 0.608900 0.414448 0.769361
O O15 0.581521 0.591951 0.720692
O O16 0.500000 0.352755 0.878995
O O17 0.392677 0.315180 0.012135
O O18 0.000000 0.773785 0.163874
#
# Coordination Sequence:
#
# PCOD9351491 Si02
#       8
#     8   8   8   8   8   8   8   8
#     4  10  22  39  56  88 125 157 202 251 305 377
#     4  10  21  42  67  91 121 161 217 263 312 386
#     4  10  24  40  60  91 120 167 205 256 323 364
#     4  11  22  38  58  89 125 157 205 253 308 382
#     4  10  20  33  51  86 125 164 202 241 302 374
#     4  10  23  36  61  90 117 161 202 252 319 367
#     4   9  19  34  56  84 117 162 204 247 308 365
#     4  10  21  34  55  85 125 163 195 247 306 367
#
# _framework density 22.377956000000001
#
# number of rings (size 3 to 8) (size 9 to 14) (size 15 to 20)
#    0.000    2.000    2.500    0.000    7.000    2.500 
#    0.000    2.500    0.000    0.750    0.000    0.000 
#    0.000    0.000    0.000    0.000    0.000    0.000 
#
# Total GULP energy -178242.366393 kJ/mol
# GULP energy per Si atom -5570.073950 kJ/mol
# Density = 2.232702 g / cm^3
# Si number density = 22.377956 Si / 1000 Ang^3
#
#
#
# Elastic Constant Matrix: (Units=GPa)
#
#
# Indices 1 2 3 4 5 6 
#
# 1 158.8721 20.5302 46.3201 0.0000 0.0000 0.0000
# 2 20.5302 23.3122 10.0170 0.0000 0.0000 0.0000
# 3 46.3201 10.0170 129.4716 0.0000 0.0000 0.0000
# 4 0.0000 0.0000 0.0000 14.7017 0.0000 0.0000
# 5 0.0000 0.0000 0.0000 0.0000 27.7335 0.0000
# 6 0.0000 0.0000 0.0000 0.0000 0.0000 22.8185
#
#
#
# Elastic Compliance Matrix: (Units=1/GPa)
#
#
# Indices 1 2 3 4 5 6 
#
# 1 0.007719 -0.005804 -0.002312 0.000000 0.000000 0.000000
# 2 -0.005804 0.048735 -0.001694 0.000000 0.000000 0.000000
# 3 -0.002312 -0.001694 0.008682 0.000000 0.000000 0.000000
# 4 0.000000 0.000000 0.000000 0.068019 0.000000 0.000000
# 5 0.000000 0.000000 0.000000 0.000000 0.036058 0.000000
# 6 0.000000 0.000000 0.000000 0.000000 0.000000 0.043824
#
#
# Mechanical properties :
#
#
# Convention : Reuss Voigt Hill
#
# Bulk Modulus (GPa) = 21.97080 51.71006 36.84043
# Shear Modulus (GPa) = 20.17521 28.70331 24.43926
#
# Velocity S-wave (km/s) = 3.00587 3.58531 3.30830
# Velocity P-wave (km/s) = 4.67828 6.34799 5.57599
#
# Compressibility (1/GPa) = 0.04551495
#
# Stress axis : x y z
#
# Youngs Moduli (GPa) = 129.55788 20.51910 115.18001
#
# Poissons Ratio (x) = 0.11909 0.26634
# Poissons Ratio (y) = 0.75193 0.19513
# Poissons Ratio (z) = 0.29959 0.03476
#
# Static dielectric constant tensor:
#      x y z
#    x 1.908710 0.000000 0.000000 
#    y 0.000000 1.901770 0.000000 
#    z 0.000000 0.000000 1.974650 
# 
# From -- ./inp_files/9023.got.cif
#   From: 2010.05.17/outbox.cif.g08.bks.cpg/sg36_5_cif.got.tgz:9023.got - 2010.06.03 17:41:39.
