data_PCOD9351909
_publ_section_title
;
Structure prediction by ZEFSAII (Michael W. Deem and Ramdas Pophale) SiO2 
 PCOD9351909
Probable space group: C M C 21
;
_chemical_formula_sum "Si O2"
_cell_formula_units_Z 64
_cell_length_a 7.883948
_cell_length_b 29.176089
_cell_length_c 12.578463
_cell_angle_alpha 90.000000
_cell_angle_beta 90.000000
_cell_angle_gamma 90.000000
_cell_volume 2893.332883
_symmetry_space_group_name_H-M "C M C 21"
_symmetry_group_IT_number 36
_symmetry_cell_setting 'orthorhombic'
loop_
_space_group_symop_operation_xyz
x,y,z
-x,-y,1/2+z
x,-y,1/2+z
-x,y,z
1/2+x,1/2+y,z
1/2-x,1/2-y,1/2+z
1/2+x,1/2-y,1/2+z
1/2-x,1/2+y,z
loop_
_atom_site_type_symbol
_atom_site_label
_atom_site_fract_x
_atom_site_fract_y
_atom_site_fract_z
Si Si1 0.793182 0.162712 0.458900
Si Si2 0.805600 0.663668 0.026096
Si Si3 0.302274 0.900814 0.157966
Si Si4 0.698696 0.411538 0.805840
Si Si5 0.292985 0.742501 0.601480
Si Si6 0.802265 0.472453 0.000448
Si Si7 0.304380 0.434735 0.577893
Si Si8 0.696696 0.678986 0.797328
O O1 0.723658 0.130915 0.553805
O O2 0.734946 0.137116 0.351878
O O3 0.742876 0.213486 0.495990
O O4 0.000000 0.160494 0.461603
O O5 0.734008 0.705354 0.096265
O O6 0.707557 0.616277 0.032492
O O7 0.000000 0.654604 0.056763
O O8 0.798875 0.681336 0.905398
O O9 0.500000 0.903693 0.187416
O O10 0.209938 0.872510 0.249457
O O11 0.241302 0.949667 0.112272
O O12 0.500000 0.403995 0.783350
O O13 0.714601 0.448379 0.900473
O O14 0.773145 0.430266 0.696429
O O15 0.500000 0.743434 0.601749
O O16 0.241328 0.713686 0.705243
O O17 0.000000 0.460147 0.991517
O O18 0.783710 0.526614 0.007879
O O19 0.500000 0.449309 0.583910
O O20 0.500000 0.689106 0.818795
#
# Coordination Sequence:
#
# PCOD9351909 Si02
#       8
#     8   8   8   8   8   8   8   8
#     4   8  14  30  55  81 109 141 180 226 274 325
#     4  11  23  39  57  81 115 151 188 233 283 330
#     4   9  17  31  53  83 112 140 181 230 279 329
#     4   9  19  36  59  84 111 146 187 231 278 330
#     4   8  17  34  57  82 109 145 186 228 276 330
#     4  10  21  37  59  85 113 146 186 233 282 335
#     4  11  24  40  57  81 114 151 190 230 277 335
#     4  10  20  37  59  83 113 150 190 231 279 334
#
# _framework density 22.119821000000002
#
# number of rings (size 3 to 8) (size 9 to 14) (size 15 to 20)
#    0.000    2.500    0.000    2.625    0.000    4.500 
#    0.000   10.000    0.000    3.000    0.000    0.000 
#    0.000    0.000    0.000    0.000    0.000    0.000 
#
# Total GULP energy -178489.354496 kJ/mol
# GULP energy per Si atom -5577.792328 kJ/mol
# Density = 2.206947 g / cm^3
# Si number density = 22.119821 Si / 1000 Ang^3
#
#
#
# Elastic Constant Matrix: (Units=GPa)
#
#
# Indices 1 2 3 4 5 6 
#
# 1 35.7176 -6.7281 -5.4585 0.0000 0.0000 0.0000
# 2 -6.7281 104.8971 10.6361 0.0000 0.0000 0.0000
# 3 -5.4585 10.6361 56.9754 0.0000 0.0000 0.0000
# 4 0.0000 0.0000 0.0000 19.7038 0.0000 0.0000
# 5 0.0000 0.0000 0.0000 0.0000 15.1469 0.0000
# 6 0.0000 0.0000 0.0000 0.0000 0.0000 1.5933
#
#
#
# Elastic Compliance Matrix: (Units=1/GPa)
#
#
# Indices 1 2 3 4 5 6 
#
# 1 0.028671 0.001591 0.002450 0.000000 0.000000 0.000000
# 2 0.001591 0.009805 -0.001678 0.000000 0.000000 0.000000
# 3 0.002450 -0.001678 0.018099 0.000000 0.000000 0.000000
# 4 0.000000 0.000000 0.000000 0.050752 0.000000 0.000000
# 5 0.000000 0.000000 0.000000 0.000000 0.066020 0.000000
# 6 0.000000 0.000000 0.000000 0.000000 0.000000 0.627636
#
#
# Mechanical properties :
#
#
# Convention : Reuss Voigt Hill
#
# Bulk Modulus (GPa) = 16.31293 21.60990 18.96141
# Shear Modulus (GPa) = 6.12225 20.56484 13.34355
#
# Velocity S-wave (km/s) = 1.66547 3.05241 2.45876
# Velocity P-wave (km/s) = 3.33004 4.71313 4.08061
#
# Compressibility (1/GPa) = 0.06130107
#
# Stress axis : x y z
#
# Youngs Moduli (GPa) = 34.87791 101.98551 55.25045
#
# Poissons Ratio (x) = -0.16221 -0.13536
# Poissons Ratio (y) = -0.05548 0.09271
# Poissons Ratio (z) = -0.08545 0.17114
#
# Static dielectric constant tensor:
#      x y z
#    x 1.778560 0.000000 0.000000 
#    y 0.000000 1.844070 0.000000 
#    z 0.000000 0.000000 1.844110 
# 
# From -- ./inp_files/7224.got.cif
#   From: 2010.05.17/outbox.cif.g08.bks.cpg/sg36_4_cif.got.tgz:7224.got - 2010.06.03 17:41:39.
