data_PCOD9351297
_publ_section_title
;
Structure prediction by ZEFSAII (Michael W. Deem and Ramdas Pophale) SiO2 
 PCOD9351297
Probable space group: C M C 21
;
_chemical_formula_sum "Si O2"
_cell_formula_units_Z 48
_cell_length_a 14.265059
_cell_length_b 34.973214
_cell_length_c 4.984466
_cell_angle_alpha 90.000000
_cell_angle_beta 90.000000
_cell_angle_gamma 90.000000
_cell_volume 2486.724971
_symmetry_space_group_name_H-M "C M C 21"
_symmetry_group_IT_number 36
_symmetry_cell_setting 'orthorhombic'
loop_
_space_group_symop_operation_xyz
x,y,z
-x,-y,1/2+z
x,-y,1/2+z
-x,y,z
1/2+x,1/2+y,z
1/2-x,1/2-y,1/2+z
1/2+x,1/2-y,1/2+z
1/2-x,1/2+y,z
loop_
_atom_site_type_symbol
_atom_site_label
_atom_site_fract_x
_atom_site_fract_y
_atom_site_fract_z
Si Si1 0.388086 0.346100 0.133520
Si Si2 0.112772 0.975900 0.652283
Si Si3 0.261840 0.725313 0.700631
Si Si4 0.102967 0.671917 0.469760
Si Si5 0.690389 0.607452 0.136764
Si Si6 0.895225 0.378626 0.470535
O O1 0.500000 0.346590 0.085481
O O2 0.350542 0.303377 0.199977
O O3 0.361207 0.373623 0.381314
O O4 0.331357 0.363266 0.879312
O O5 0.149597 0.933790 0.708365
O O6 0.000000 0.973726 0.659653
O O7 0.142330 0.007765 0.865999
O O8 0.268467 0.760702 0.494640
O O9 0.180132 0.700541 0.567741
O O10 0.111109 0.634713 0.662629
O O11 0.000000 0.688451 0.517992
O O12 0.108207 0.658685 0.163262
O O13 0.799517 0.601342 0.059519
O O14 0.000000 0.395677 0.513445
#
# Coordination Sequence:
#
# PCOD9351297 Si02
#       6
#     8   8   8   8   8   8
#     4  12  25  40  60  89 118 155 202 244 295 355
#     4  10  21  36  56  87 122 156 194 231 280 347
#     4  12  24  38  57  79 116 151 190 245 299 350
#     4  10  20  37  57  79 105 141 191 240 288 338
#     4  12  21  40  65  87 121 158 195 243 294 343
#     4  10  19  35  61  87 108 139 190 245 282 327
#
# _framework density 19.302498
#
# number of rings (size 3 to 8) (size 9 to 14) (size 15 to 20)
#    0.000    1.000    3.333    4.500    0.000    2.667 
#    0.000    0.000    0.000    1.000    0.000    0.000 
#    0.000    0.000    0.000    0.000    0.000    0.000 
#
# Total GULP energy -133942.362948 kJ/mol
# GULP energy per Si atom -5580.931789 kJ/mol
# Density = 1.925856 g / cm^3
# Si number density = 19.302498 Si / 1000 Ang^3
#
#
#
# Elastic Constant Matrix: (Units=GPa)
#
#
# Indices 1 2 3 4 5 6 
#
# 1 83.9817 19.7931 -4.2396 0.0000 0.0000 0.0000
# 2 19.7931 60.7392 2.3786 0.0000 0.0000 0.0000
# 3 -4.2396 2.3786 55.7621 0.0000 0.0000 0.0000
# 4 0.0000 0.0000 0.0000 24.7763 0.0000 0.0000
# 5 0.0000 0.0000 0.0000 0.0000 22.4864 0.0000
# 6 0.0000 0.0000 0.0000 0.0000 0.0000 29.6068
#
#
#
# Elastic Compliance Matrix: (Units=1/GPa)
#
#
# Indices 1 2 3 4 5 6 
#
# 1 0.012974 -0.004273 0.001169 0.000000 0.000000 0.000000
# 2 -0.004273 0.017899 -0.001088 0.000000 0.000000 0.000000
# 3 0.001169 -0.001088 0.018069 0.000000 0.000000 0.000000
# 4 0.000000 0.000000 0.000000 0.040361 0.000000 0.000000
# 5 0.000000 0.000000 0.000000 0.000000 0.044471 0.000000
# 6 0.000000 0.000000 0.000000 0.000000 0.000000 0.033776
#
#
# Mechanical properties :
#
#
# Convention : Reuss Voigt Hill
#
# Bulk Modulus (GPa) = 24.65802 26.26081 25.45942
# Shear Modulus (GPa) = 26.39158 27.54396 26.96777
#
# Velocity S-wave (km/s) = 3.70166 3.78161 3.74185
# Velocity P-wave (km/s) = 5.57423 5.71856 5.64685
#
# Compressibility (1/GPa) = 0.04055476
#
# Stress axis : x y z
#
# Youngs Moduli (GPa) = 77.08003 55.86889 55.34465
#
# Poissons Ratio (x) = 0.23875 -0.06468
# Poissons Ratio (y) = 0.32940 0.06024
# Poissons Ratio (z) = -0.09008 0.06081
#
# Static dielectric constant tensor:
#      x y z
#    x 1.703140 0.000000 0.000000 
#    y 0.000000 1.657920 0.000000 
#    z 0.000000 0.000000 1.682960 
# 
# From -- ./inp_files/829.got.cif
#   From: 2010.05.17/outbox.cif.g08.bks.cpg/sg36_1_cif.got.tgz:829.got - 2010.06.03 17:41:39.
