data_PCOD9351223
_publ_section_title
;
Structure prediction by ZEFSAII (Michael W. Deem and Ramdas Pophale) SiO2 
 PCOD9351223
Probable space group: C M C 21
;
_chemical_formula_sum "Si O2"
_cell_formula_units_Z 64
_cell_length_a 8.525861
_cell_length_b 29.719374
_cell_length_c 12.355104
_cell_angle_alpha 90.000000
_cell_angle_beta 90.000000
_cell_angle_gamma 90.000000
_cell_volume 3130.576427
_symmetry_space_group_name_H-M "C M C 21"
_symmetry_group_IT_number 36
_symmetry_cell_setting 'orthorhombic'
loop_
_space_group_symop_operation_xyz
x,y,z
-x,-y,1/2+z
x,-y,1/2+z
-x,y,z
1/2+x,1/2+y,z
1/2-x,1/2-y,1/2+z
1/2+x,1/2-y,1/2+z
1/2-x,1/2+y,z
loop_
_atom_site_type_symbol
_atom_site_label
_atom_site_fract_x
_atom_site_fract_y
_atom_site_fract_z
Si Si1 0.184750 0.182469 0.941740
Si Si2 0.322996 0.414922 0.948478
Si Si3 0.817009 0.329950 0.672988
Si Si4 0.686039 0.525979 0.654329
Si Si5 0.190040 0.882182 0.258032
Si Si6 0.180309 0.332313 0.048983
Si Si7 0.317081 0.728573 0.368465
Si Si8 0.182011 0.928189 0.696784
O O1 0.235016 0.138486 0.873509
O O2 0.218862 0.225561 0.866835
O O3 0.000000 0.179115 0.964162
O O4 0.273014 0.188414 0.054726
O O5 0.500000 0.395944 0.969016
O O6 0.318659 0.430712 0.826699
O O7 0.300665 0.454522 0.033848
O O8 0.198370 0.376504 0.973463
O O9 0.726093 0.304520 0.769479
O O10 0.770317 0.382490 0.668770
O O11 0.000000 0.324713 0.694901
O O12 0.500000 0.521042 0.679959
O O13 0.744616 0.566894 0.730662
O O14 0.751757 0.475816 0.659559
O O15 0.252232 0.849379 0.163192
O O16 0.000000 0.882183 0.252005
O O17 0.000000 0.318457 0.060036
O O18 0.275385 0.295240 0.982469
O O19 0.500000 0.739086 0.363298
O O20 0.000000 0.923549 0.659271
#
# Coordination Sequence:
#
# PCOD9351223 Si02
#       8
#     8   8   8   8   8   8   8   8
#     4  11  25  44  67  95 128 166 210 258 321 384
#     4   9  17  32  54  82 118 159 208 260 311 367
#     4  12  26  44  64  92 130 167 212 261 319 379
#     4   8  16  32  57  90 121 160 214 263 309 371
#     4   9  20  40  64  90 125 164 209 259 311 373
#     4  11  21  35  60  89 120 156 202 257 313 371
#     4  12  25  43  66  91 123 162 210 261 316 374
#     4  10  19  34  60  89 121 164 213 263 316 369
#
# _framework density 20.443518999999998
#
# number of rings (size 3 to 8) (size 9 to 14) (size 15 to 20)
#    0.000    1.750    1.250    4.500    1.750    2.000 
#    0.000    6.250    0.000    1.500    0.000    0.000 
#    0.000    0.000    0.000    0.000    0.000    0.000 
#
# Total GULP energy -178666.931483 kJ/mol
# GULP energy per Si atom -5583.341609 kJ/mol
# Density = 2.039699 g / cm^3
# Si number density = 20.443519 Si / 1000 Ang^3
#
#
#
# Elastic Constant Matrix: (Units=GPa)
#
#
# Indices 1 2 3 4 5 6 
#
# 1 30.4263 -9.6070 4.0555 0.0000 0.0000 0.0000
# 2 -9.6070 84.3760 16.0478 0.0000 0.0000 0.0000
# 3 4.0555 16.0478 43.7349 0.0000 0.0000 0.0000
# 4 0.0000 0.0000 0.0000 11.8199 0.0000 0.0000
# 5 0.0000 0.0000 0.0000 0.0000 21.1022 0.0000
# 6 0.0000 0.0000 0.0000 0.0000 0.0000 20.9400
#
#
#
# Elastic Compliance Matrix: (Units=1/GPa)
#
#
# Indices 1 2 3 4 5 6 
#
# 1 0.035110 0.004963 -0.005077 0.000000 0.000000 0.000000
# 2 0.004963 0.013442 -0.005393 0.000000 0.000000 0.000000
# 3 -0.005077 -0.005393 0.025315 0.000000 0.000000 0.000000
# 4 0.000000 0.000000 0.000000 0.084603 0.000000 0.000000
# 5 0.000000 0.000000 0.000000 0.000000 0.047388 0.000000
# 6 0.000000 0.000000 0.000000 0.000000 0.000000 0.047756
#
#
# Mechanical properties :
#
#
# Convention : Reuss Voigt Hill
#
# Bulk Modulus (GPa) = 15.90982 19.94776 17.92879
# Shear Modulus (GPa) = 17.50834 20.64182 19.07508
#
# Velocity S-wave (km/s) = 2.92965 3.18102 3.05792
# Velocity P-wave (km/s) = 4.38669 4.82396 4.61051
#
# Compressibility (1/GPa) = 0.06285428
#
# Stress axis : x y z
#
# Youngs Moduli (GPa) = 28.48185 74.39108 39.50292
#
# Poissons Ratio (x) = -0.36922 0.20055
# Poissons Ratio (y) = -0.14136 0.21303
# Poissons Ratio (z) = 0.14460 0.40117
#
# Static dielectric constant tensor:
#      x y z
#    x 1.715490 0.000000 0.000000 
#    y 0.000000 1.757640 0.000000 
#    z 0.000000 0.000000 1.723670 
# 
# From -- ./inp_files/7087.got.cif
#   From: 2010.05.17/outbox.cif.g08.bks.cpg/sg36_4_cif.got.tgz:7087.got - 2010.06.03 17:41:39.
