data_PCOD9351241
_publ_section_title
;
Structure prediction by ZEFSAII (Michael W. Deem and Ramdas Pophale) SiO2 
 PCOD9351241
Probable space group: C M C 21
;
_chemical_formula_sum "Si O2"
_cell_formula_units_Z 56
_cell_length_a 9.370261
_cell_length_b 23.860382
_cell_length_c 12.860624
_cell_angle_alpha 90.000000
_cell_angle_beta 90.000000
_cell_angle_gamma 90.000000
_cell_volume 2875.352681
_symmetry_space_group_name_H-M "C M C 21"
_symmetry_group_IT_number 36
_symmetry_cell_setting 'orthorhombic'
loop_
_space_group_symop_operation_xyz
x,y,z
-x,-y,1/2+z
x,-y,1/2+z
-x,y,z
1/2+x,1/2+y,z
1/2-x,1/2-y,1/2+z
1/2+x,1/2-y,1/2+z
1/2-x,1/2+y,z
loop_
_atom_site_type_symbol
_atom_site_label
_atom_site_fract_x
_atom_site_fract_y
_atom_site_fract_z
Si Si1 0.660965 0.195580 0.391250
Si Si2 0.254053 0.207675 0.027907
Si Si3 0.336651 0.403827 0.643150
Si Si4 0.838203 0.774152 0.217618
Si Si5 0.669621 0.465159 0.426636
Si Si6 0.664492 0.862880 0.326690
Si Si7 0.171477 0.424128 0.854679
O O1 0.500000 0.184220 0.355709
O O2 0.659545 0.242787 0.478783
O O3 0.729830 0.226968 0.293577
O O4 0.715576 0.133691 0.413956
O O5 0.180056 0.157838 0.091922
O O6 0.346134 0.243974 0.107622
O O7 0.327196 0.176488 0.930408
O O8 0.500000 0.410627 0.680422
O O9 0.311702 0.446036 0.546661
O O10 0.226198 0.413991 0.736430
O O11 0.740274 0.828223 0.234398
O O12 0.000000 0.788734 0.252391
O O13 0.500000 0.467120 0.406129
O O14 0.744831 0.417536 0.356403
O O15 0.746026 0.523364 0.402045
O O16 0.500000 0.875722 0.304321
O O17 0.000000 0.433512 0.859025
#
# Coordination Sequence:
#
# PCOD9351241 Si02
#       7
#     8   8   8   8   8   8   8
#     4   9  19  35  55  85 121 154 190 237 292 345
#     4  10  19  35  59  88 119 156 196 242 290 360
#     4  10  21  38  64  90 116 158 203 247 302 362
#     4  10  19  35  56  82 119 157 189 233 294 353
#     4  10  22  42  63  85 116 157 202 249 299 356
#     4  10  21  36  58  88 116 149 198 248 295 352
#     4  11  22  39  63  90 121 159 202 252 300 352
#
# _framework density 19.475873
#
# number of rings (size 3 to 8) (size 9 to 14) (size 15 to 20)
#    0.000    2.000    1.429    2.143    0.000    7.429 
#    2.571    2.143    0.000    0.000    0.000    0.000 
#    0.000    0.000    0.000    0.000    0.000    0.000 
#
# Total GULP energy -155935.858033 kJ/mol
# GULP energy per Si atom -5569.137787 kJ/mol
# Density = 1.943155 g / cm^3
# Si number density = 19.475873 Si / 1000 Ang^3
#
#
#
# Elastic Constant Matrix: (Units=GPa)
#
#
# Indices 1 2 3 4 5 6 
#
# 1 104.0924 48.4327 17.3066 0.0000 0.0000 0.0000
# 2 48.4327 135.7572 26.0143 0.0000 0.0000 0.0000
# 3 17.3066 26.0143 40.4290 0.0000 0.0000 0.0000
# 4 0.0000 0.0000 0.0000 30.4523 0.0000 0.0000
# 5 0.0000 0.0000 0.0000 0.0000 15.1428 0.0000
# 6 0.0000 0.0000 0.0000 0.0000 0.0000 10.7597
#
#
#
# Elastic Compliance Matrix: (Units=1/GPa)
#
#
# Indices 1 2 3 4 5 6 
#
# 1 0.011765 -0.003687 -0.002664 0.000000 0.000000 0.000000
# 2 -0.003687 0.009557 -0.004572 0.000000 0.000000 0.000000
# 3 -0.002664 -0.004572 0.028817 0.000000 0.000000 0.000000
# 4 0.000000 0.000000 0.000000 0.032838 0.000000 0.000000
# 5 0.000000 0.000000 0.000000 0.000000 0.066038 0.000000
# 6 0.000000 0.000000 0.000000 0.000000 0.000000 0.092939
#
#
# Mechanical properties :
#
#
# Convention : Reuss Voigt Hill
#
# Bulk Modulus (GPa) = 35.34263 51.53176 43.43719
# Shear Modulus (GPa) = 18.29953 23.83931 21.06942
#
# Velocity S-wave (km/s) = 3.06862 3.50243 3.29267
# Velocity P-wave (km/s) = 5.54450 6.54773 6.06689
#
# Compressibility (1/GPa) = 0.02829445
#
# Stress axis : x y z
#
# Youngs Moduli (GPa) = 84.99623 104.63063 34.70210
#
# Poissons Ratio (x) = 0.38576 0.09245
# Poissons Ratio (y) = 0.31337 0.15864
# Poissons Ratio (z) = 0.22644 0.47832
#
# Static dielectric constant tensor:
#      x y z
#    x 1.691390 0.000000 0.000000 
#    y 0.000000 1.714700 0.000000 
#    z 0.000000 0.000000 1.706050 
# 
# From -- ./inp_files/10643.got.cif
#   From: 2010.05.17/outbox.cif.g08.bks.cpg/sg36_6_cif.got.tgz:10643.got - 2010.06.03 17:41:39.
