data_PCOD9351115
_publ_section_title
;
Structure prediction by ZEFSAII (Michael W. Deem and Ramdas Pophale) SiO2 
 PCOD9351115
Probable space group: C M C 21
;
_chemical_formula_sum "Si O2"
_cell_formula_units_Z 64
_cell_length_a 9.065946
_cell_length_b 15.474053
_cell_length_c 24.529085
_cell_angle_alpha 90.000000
_cell_angle_beta 90.000000
_cell_angle_gamma 90.000000
_cell_volume 3441.110003
_symmetry_space_group_name_H-M "C M C 21"
_symmetry_group_IT_number 36
_symmetry_cell_setting 'orthorhombic'
loop_
_space_group_symop_operation_xyz
x,y,z
-x,-y,1/2+z
x,-y,1/2+z
-x,y,z
1/2+x,1/2+y,z
1/2-x,1/2-y,1/2+z
1/2+x,1/2-y,1/2+z
1/2-x,1/2+y,z
loop_
_atom_site_type_symbol
_atom_site_label
_atom_site_fract_x
_atom_site_fract_y
_atom_site_fract_z
Si Si1 0.676077 0.028328 0.500000
Si Si2 0.822771 0.619141 0.189197
Si Si3 0.830083 0.729745 0.881684
Si Si4 0.823132 0.119128 0.070896
Si Si5 0.329459 0.021346 0.877907
Si Si6 0.823567 0.774895 0.268889
Si Si7 0.676316 0.476635 0.265416
Si Si8 0.675532 0.222256 0.493307
O O1 0.500000 0.010186 0.504678
O O2 0.704428 0.126984 0.516072
O O3 0.766478 0.962294 0.536350
O O4 0.713846 0.018218 0.435940
O O5 0.753473 0.620536 0.129399
O O6 0.784767 0.707427 0.221666
O O7 0.757018 0.538997 0.223115
O O8 0.000000 0.612341 0.186445
O O9 0.823737 0.625128 0.885020
O O10 0.749425 0.753477 0.825683
O O11 0.754519 0.765471 0.935669
O O12 0.000000 0.756175 0.879371
O O13 0.000000 0.117006 0.076808
O O14 0.781515 0.203517 0.035578
O O15 0.500000 0.997063 0.866195
O O16 0.228854 0.999017 0.826469
O O17 0.000000 0.773504 0.275883
O O18 0.782512 0.875066 0.257392
O O19 0.500000 0.484525 0.260466
O O20 0.500000 0.229296 0.483682
#
# Coordination Sequence:
#
# PCOD9351115 Si02
#       8
#     8   8   8   8   8   8   8   8
#     4  10  21  39  61  86 118 159 201 239 291 359
#     4  11  24  42  64  85 114 160 204 240 293 360
#     4  10  19  33  58  90 122 155 194 244 294 345
#     4  11  24  42  61  86 120 154 198 252 299 343
#     4   9  18  34  57  86 122 159 195 236 290 356
#     4   9  21  40  60  85 119 159 196 237 294 355
#     4  10  21  38  60  89 122 153 195 248 297 344
#     4  10  22  38  59  87 119 157 197 242 296 352
#
# _framework density 18.598649999999999
#
# number of rings (size 3 to 8) (size 9 to 14) (size 15 to 20)
#    0.000    2.000    1.250    1.500    1.750    4.500 
#    0.000    2.500    0.000    0.000    0.000    0.000 
#    0.000    0.000    0.000    0.000    0.000    0.000 
#
# Total GULP energy -178758.090640 kJ/mol
# GULP energy per Si atom -5586.190332 kJ/mol
# Density = 1.855632 g / cm^3
# Si number density = 18.598650 Si / 1000 Ang^3
#
#
#
# Elastic Constant Matrix: (Units=GPa)
#
#
# Indices 1 2 3 4 5 6 
#
# 1 55.1158 59.2177 67.4557 0.0000 0.0000 0.0000
# 2 59.2177 108.4096 86.9164 0.0000 0.0000 0.0000
# 3 67.4557 86.9164 151.8166 0.0000 0.0000 0.0000
# 4 0.0000 0.0000 0.0000 -19.6750 0.0000 0.0000
# 5 0.0000 0.0000 0.0000 0.0000 36.7490 0.0000
# 6 0.0000 0.0000 0.0000 0.0000 0.0000 22.9239
#
#
#
# Elastic Compliance Matrix: (Units=1/GPa)
#
#
# Indices 1 2 3 4 5 6 
#
# 1 0.055838 -0.019611 -0.013582 0.000000 0.000000 0.000000
# 2 -0.019611 0.023938 -0.004991 0.000000 0.000000 0.000000
# 3 -0.013582 -0.004991 0.015479 0.000000 0.000000 0.000000
# 4 0.000000 0.000000 0.000000 -0.050826 0.000000 0.000000
# 5 0.000000 0.000000 0.000000 0.000000 0.027212 0.000000
# 6 0.000000 0.000000 0.000000 0.000000 0.000000 0.043623
#
#
# Mechanical properties :
#
#
# Convention : Reuss Voigt Hill
#
# Bulk Modulus (GPa) = 52.94981 82.50238 67.72609
# Shear Modulus (GPa) = 25.26158 14.78307 20.02233
#
# Velocity S-wave (km/s) = 3.68944 2.82236 3.28464
# Velocity P-wave (km/s) = 6.83233 7.42136 7.13293
#
# Compressibility (1/GPa) = 0.01888581
#
# Stress axis : x y z
#
# Youngs Moduli (GPa) = 17.90900 41.77387 64.60207
#
# Poissons Ratio (x) = 0.81924 0.87745
# Poissons Ratio (y) = 0.35122 0.32244
# Poissons Ratio (z) = 0.24325 0.20850
#
# Static dielectric constant tensor:
#      x y z
#    x 1.625850 0.000000 0.000000 
#    y 0.000000 1.658430 0.000000 
#    z 0.000000 0.000000 1.599620 
# 
# From -- ./inp_files/16697.got.cif
#   From: 2010.05.17/outbox.cif.g08.bks.cpg/sg36_9_cif.got.tgz:16697.got - 2010.06.03 17:41:39.
