data_PCOD9351501
_publ_section_title
;
Structure prediction by ZEFSAII (Michael W. Deem and Ramdas Pophale) SiO2 
 PCOD9351501
Probable space group: C M C 21
;
_chemical_formula_sum "Si O2"
_cell_formula_units_Z 48
_cell_length_a 12.787436
_cell_length_b 12.308027
_cell_length_c 14.887805
_cell_angle_alpha 90.000000
_cell_angle_beta 90.000000
_cell_angle_gamma 90.000000
_cell_volume 2343.163455
_symmetry_space_group_name_H-M "C M C 21"
_symmetry_group_IT_number 36
_symmetry_cell_setting 'orthorhombic'
loop_
_space_group_symop_operation_xyz
x,y,z
-x,-y,1/2+z
x,-y,1/2+z
-x,y,z
1/2+x,1/2+y,z
1/2-x,1/2-y,1/2+z
1/2+x,1/2-y,1/2+z
1/2-x,1/2+y,z
loop_
_atom_site_type_symbol
_atom_site_label
_atom_site_fract_x
_atom_site_fract_y
_atom_site_fract_z
Si Si1 0.194995 0.432348 0.701830
Si Si2 0.879672 0.871086 0.573367
Si Si3 0.381197 0.094176 0.387158
Si Si4 0.119973 0.856254 0.373473
Si Si5 0.676478 0.121881 0.582270
Si Si6 0.378056 0.687207 0.675314
O O1 0.304819 0.418078 0.650005
O O2 0.195205 0.443944 0.808885
O O3 0.141852 0.536998 0.657707
O O4 0.135717 0.317906 0.683852
O O5 0.839261 0.894736 0.471115
O O6 0.876504 0.740040 0.585790
O O7 0.000000 0.906775 0.580702
O O8 0.500000 0.057212 0.369044
O O9 0.381883 0.225337 0.384363
O O10 0.347247 0.067625 0.487223
O O11 0.159389 0.865420 0.270760
O O12 0.000000 0.895509 0.370130
O O13 0.799140 0.147642 0.598854
O O14 0.500000 0.663266 0.661596
#
# Coordination Sequence:
#
# PCOD9351501 Si02
#       6
#     8   8   8   8   8   8
#     4  10  20  33  53  78 103 134 177 215 252 305
#     4   9  18  33  53  77 106 138 171 210 255 303
#     4   9  18  33  51  73 104 138 169 208 261 313
#     4   7  12  27  50  71  96 134 168 194 240 305
#     4  10  20  33  53  78 103 134 177 215 252 305
#     4   9  18  33  53  77 106 138 171 210 255 303
#
# _framework density 20.485126999999999
#
# number of rings (size 3 to 8) (size 9 to 14) (size 15 to 20)
#    0.000    3.000    0.000    3.000    0.000    4.667 
#    0.000    2.500    0.000    0.000    0.000    0.000 
#    0.000    0.000    0.000    0.000    0.000    0.000 
#
# Total GULP energy -133682.554540 kJ/mol
# GULP energy per Si atom -5570.106439 kJ/mol
# Density = 2.043850 g / cm^3
# Si number density = 20.485127 Si / 1000 Ang^3
#
#
#
# Elastic Constant Matrix: (Units=GPa)
#
#
# Indices 1 2 3 4 5 6 
#
# 1 73.8905 -10.2018 9.2660 0.0000 0.0000 0.0000
# 2 -10.2018 46.2974 -16.3732 0.0000 0.0000 0.0000
# 3 9.2660 -16.3732 86.3350 0.0000 0.0000 0.0000
# 4 0.0000 0.0000 0.0000 18.3805 0.0000 0.0000
# 5 0.0000 0.0000 0.0000 0.0000 28.6259 0.0000
# 6 0.0000 0.0000 0.0000 0.0000 0.0000 -0.6863
#
#
#
# Elastic Compliance Matrix: (Units=1/GPa)
#
#
# Indices 1 2 3 4 5 6 
#
# 1 0.014036 0.002744 -0.000986 0.000000 0.000000 0.000000
# 2 0.002744 0.023689 0.004198 0.000000 0.000000 0.000000
# 3 -0.000986 0.004198 0.012485 0.000000 0.000000 0.000000
# 4 0.000000 0.000000 0.000000 0.054405 0.000000 0.000000
# 5 0.000000 0.000000 0.000000 0.000000 0.034933 0.000000
# 6 0.000000 0.000000 0.000000 0.000000 0.000000 -1.457136
#
#
# Mechanical properties :
#
#
# Convention : Reuss Voigt Hill
#
# Bulk Modulus (GPa) = 16.09738 19.10056 17.59897
# Shear Modulus (GPa) = -3.82031 24.18615 10.18292
#
# Velocity S-wave (km/s) = -1.36710 3.43981 2.23197
# Velocity P-wave (km/s) = 2.32017 5.01206 3.90538
#
# Compressibility (1/GPa) = 0.06212192
#
# Stress axis : x y z
#
# Youngs Moduli (GPa) = 71.24501 42.21407 80.09775
#
# Poissons Ratio (x) = -0.11584 0.07898
# Poissons Ratio (y) = -0.19551 -0.33625
# Poissons Ratio (z) = 0.07025 -0.17721
#
# Static dielectric constant tensor:
#      x y z
#    x 1.745070 0.000000 0.000000 
#    y 0.000000 1.748770 0.000000 
#    z 0.000000 0.000000 1.760550 
# 
# From -- ./inp_files/8408.got.cif
#   From: 2010.05.17/outbox.cif.g08.bks.cpg/sg36_5_cif.got.tgz:8408.got - 2010.06.03 17:41:39.
