data_PCOD9351039
_publ_section_title
;
Structure prediction by ZEFSAII (Michael W. Deem and Ramdas Pophale) SiO2 
 PCOD9351039
Probable space group: C M C 21
;
_chemical_formula_sum "Si O2"
_cell_formula_units_Z 48
_cell_length_a 8.711114
_cell_length_b 19.023200
_cell_length_c 16.865030
_cell_angle_alpha 90.000000
_cell_angle_beta 90.000000
_cell_angle_gamma 90.000000
_cell_volume 2794.759166
_symmetry_space_group_name_H-M "C M C 21"
_symmetry_group_IT_number 36
_symmetry_cell_setting 'orthorhombic'
loop_
_space_group_symop_operation_xyz
x,y,z
-x,-y,1/2+z
x,-y,1/2+z
-x,y,z
1/2+x,1/2+y,z
1/2-x,1/2-y,1/2+z
1/2+x,1/2-y,1/2+z
1/2-x,1/2+y,z
loop_
_atom_site_type_symbol
_atom_site_label
_atom_site_fract_x
_atom_site_fract_y
_atom_site_fract_z
Si Si1 0.181227 0.094609 0.161910
Si Si2 0.314306 0.168284 0.490340
Si Si3 0.323792 0.965699 0.081612
Si Si4 0.323902 0.949367 0.414585
Si Si5 0.185034 0.322974 0.512447
Si Si6 0.686270 0.915741 0.831670
O O1 0.256706 0.143619 0.094689
O O2 0.248436 0.109053 0.248498
O O3 0.000000 0.104234 0.160480
O O4 0.224543 0.014404 0.138364
O O5 0.500000 0.172311 0.492536
O O6 0.269429 0.112218 0.558737
O O7 0.242963 0.244284 0.501954
O O8 0.271447 0.134362 0.405402
O O9 0.500000 0.963256 0.110929
O O10 0.328233 0.006340 0.996897
O O11 0.500000 0.936362 0.389665
O O12 0.256550 0.874750 0.441533
O O13 0.256440 0.004907 0.352429
O O14 0.000000 0.325810 0.512063
O O15 0.500000 0.917991 0.828876
#
# Coordination Sequence:
#
# PCOD9351039 Si02
#       6
#     8   8   8   8   8   8
#     4  11  21  32  49  75 103 130 169 214 251 292
#     4   9  18  33  54  78 102 131 167 207 251 303
#     4   8  15  31  52  71  94 126 162 198 244 298
#     4   7  13  28  50  71  89 120 164 198 232 290
#     4  10  19  33  53  75 102 136 170 204 250 304
#     4   9  17  33  54  72  96 131 168 207 256 305
#
# _framework density 17.175004999999999
#
# number of rings (size 3 to 8) (size 9 to 14) (size 15 to 20)
#    0.000    3.000    0.000    5.000    0.000    1.333 
#    0.000    9.167    0.000    6.000    0.000    0.000 
#    0.000    0.000    0.000    0.000    0.000    0.000 
#
# Total GULP energy -133611.197380 kJ/mol
# GULP energy per Si atom -5567.133224 kJ/mol
# Density = 1.713591 g / cm^3
# Si number density = 17.175005 Si / 1000 Ang^3
#
#
#
# Elastic Constant Matrix: (Units=GPa)
#
#
# Indices 1 2 3 4 5 6 
#
# 1 38.0732 33.8144 27.3032 0.0000 0.0000 0.0000
# 2 33.8144 147.8458 42.5525 0.0000 0.0000 0.0000
# 3 27.3032 42.5525 75.8135 0.0000 0.0000 0.0000
# 4 0.0000 0.0000 0.0000 16.2929 0.0000 0.0000
# 5 0.0000 0.0000 0.0000 0.0000 13.3434 0.0000
# 6 0.0000 0.0000 0.0000 0.0000 0.0000 28.5720
#
#
#
# Elastic Compliance Matrix: (Units=1/GPa)
#
#
# Indices 1 2 3 4 5 6 
#
# 1 0.039243 -0.005853 -0.010847 0.000000 0.000000 0.000000
# 2 -0.005853 0.008940 -0.002910 0.000000 0.000000 0.000000
# 3 -0.010847 -0.002910 0.018730 0.000000 0.000000 0.000000
# 4 0.000000 0.000000 0.000000 0.061376 0.000000 0.000000
# 5 0.000000 0.000000 0.000000 0.000000 0.074943 0.000000
# 6 0.000000 0.000000 0.000000 0.000000 0.000000 0.034999
#
#
# Mechanical properties :
#
#
# Convention : Reuss Voigt Hill
#
# Bulk Modulus (GPa) = 36.11196 52.11920 44.11558
# Shear Modulus (GPa) = 17.44084 22.17915 19.81000
#
# Velocity S-wave (km/s) = 3.19011 3.59745 3.39989
# Velocity P-wave (km/s) = 5.88563 6.90416 6.41514
#
# Compressibility (1/GPa) = 0.02769166
#
# Stress axis : x y z
#
# Youngs Moduli (GPa) = 25.48246 111.85630 53.39012
#
# Poissons Ratio (x) = 0.65473 0.57914
# Poissons Ratio (y) = 0.14916 0.15536
# Poissons Ratio (z) = 0.27642 0.32549
#
# Static dielectric constant tensor:
#      x y z
#    x 1.580790 0.000000 0.000000 
#    y 0.000000 1.605140 0.000000 
#    z 0.000000 0.000000 1.580120 
# 
# From -- ./inp_files/13558.got.cif
#   From: 2010.05.17/outbox.cif.g08.bks.cpg/sg36_7_cif.got.tgz:13558.got - 2010.06.03 17:41:39.
