data_PCOD9351727
_publ_section_title
;
Structure prediction by ZEFSAII (Michael W. Deem and Ramdas Pophale) SiO2 
 PCOD9351727
Probable space group: C M C 21
;
_chemical_formula_sum "Si O2"
_cell_formula_units_Z 64
_cell_length_a 8.104715
_cell_length_b 16.951825
_cell_length_c 19.646434
_cell_angle_alpha 90.000000
_cell_angle_beta 90.000000
_cell_angle_gamma 90.000000
_cell_volume 2699.217877
_symmetry_space_group_name_H-M "C M C 21"
_symmetry_group_IT_number 36
_symmetry_cell_setting 'orthorhombic'
loop_
_space_group_symop_operation_xyz
x,y,z
-x,-y,1/2+z
x,-y,1/2+z
-x,y,z
1/2+x,1/2+y,z
1/2-x,1/2-y,1/2+z
1/2+x,1/2-y,1/2+z
1/2-x,1/2+y,z
loop_
_atom_site_type_symbol
_atom_site_label
_atom_site_fract_x
_atom_site_fract_y
_atom_site_fract_z
Si Si1 0.198823 0.162201 0.426860
Si Si2 0.189789 0.419104 0.383518
Si Si3 0.799970 0.161927 0.676948
Si Si4 0.803567 0.759267 0.309675
Si Si5 0.701645 0.756778 0.551701
Si Si6 0.195317 0.996814 0.252437
Si Si7 0.190887 0.007926 0.506079
Si Si8 0.193248 0.588061 0.128920
O O1 0.252365 0.182067 0.350804
O O2 0.253117 0.234290 0.475951
O O3 0.257389 0.083414 0.464660
O O4 0.000000 0.158195 0.426069
O O5 0.233499 0.336181 0.348533
O O6 0.219813 0.485413 0.325314
O O7 0.294976 0.438920 0.449937
O O8 0.000000 0.417921 0.404979
O O9 0.751711 0.229390 0.731391
O O10 0.748030 0.185787 0.601975
O O11 0.745811 0.079232 0.708267
O O12 0.000000 0.158797 0.675186
O O13 0.000000 0.764737 0.311109
O O14 0.500000 0.760852 0.549942
O O15 0.760116 0.836101 0.588079
O O16 0.000000 0.989958 0.265198
O O17 0.228306 0.068687 0.201725
O O18 0.000000 0.022882 0.524219
O O19 0.280279 0.982512 0.574819
O O20 0.000000 0.600372 0.141239
#
# Coordination Sequence:
#
# PCOD9351727 Si02
#       8
#     8   8   8   8   8   8   8   8
#     4  10  21  37  58  82 110 148 191 238 290 340
#     4  11  22  38  60  85 116 152 192 240 292 345
#     4   8  16  33  56  79 104 140 183 224 271 329
#     4  10  20  35  58  86 115 148 186 230 284 347
#     4   9  18  34  55  79 107 141 183 229 280 336
#     4  10  20  37  60  84 113 150 191 235 286 344
#     4  11  23  39  59  83 114 153 197 244 293 345
#     4  11  22  35  56  86 117 150 189 236 290 348
#
# _framework density 23.710571000000002
#
# number of rings (size 3 to 8) (size 9 to 14) (size 15 to 20)
#    0.000    2.000    0.000    4.875    0.000    5.000 
#    0.000    1.875    0.000    9.750    0.000    0.000 
#    0.000    0.000    0.000    0.000    0.000    0.000 
#
# Total GULP energy -178897.956972 kJ/mol
# GULP energy per Si atom -5590.561155 kJ/mol
# Density = 2.365660 g / cm^3
# Si number density = 23.710571 Si / 1000 Ang^3
#
#
#
# Elastic Constant Matrix: (Units=GPa)
#
#
# Indices 1 2 3 4 5 6 
#
# 1 27.9821 -5.3861 -8.8660 0.0000 0.0000 0.0000
# 2 -5.3861 47.1215 -6.6911 0.0000 0.0000 0.0000
# 3 -8.8660 -6.6911 96.3860 0.0000 0.0000 0.0000
# 4 0.0000 0.0000 0.0000 38.0756 0.0000 0.0000
# 5 0.0000 0.0000 0.0000 0.0000 24.7145 0.0000
# 6 0.0000 0.0000 0.0000 0.0000 0.0000 13.1842
#
#
#
# Elastic Compliance Matrix: (Units=1/GPa)
#
#
# Indices 1 2 3 4 5 6 
#
# 1 0.037887 0.004873 0.003823 0.000000 0.000000 0.000000
# 2 0.004873 0.022060 0.001980 0.000000 0.000000 0.000000
# 3 0.003823 0.001980 0.010864 0.000000 0.000000 0.000000
# 4 0.000000 0.000000 0.000000 0.026264 0.000000 0.000000
# 5 0.000000 0.000000 0.000000 0.000000 0.040462 0.000000
# 6 0.000000 0.000000 0.000000 0.000000 0.000000 0.075848
#
#
# Mechanical properties :
#
#
# Convention : Reuss Voigt Hill
#
# Bulk Modulus (GPa) = 10.85032 14.40035 12.62534
# Shear Modulus (GPa) = 22.44642 28.02372 25.23507
#
# Velocity S-wave (km/s) = 3.08016 3.44162 3.26589
# Velocity P-wave (km/s) = 4.15162 4.67756 4.42241
#
# Compressibility (1/GPa) = 0.09216319
#
# Stress axis : x y z
#
# Youngs Moduli (GPa) = 26.39462 45.33120 92.04656
#
# Poissons Ratio (x) = -0.22092 -0.35192
# Poissons Ratio (y) = -0.12863 -0.18222
# Poissons Ratio (z) = -0.10091 -0.08974
#
# Static dielectric constant tensor:
#      x y z
#    x 1.832430 0.000000 0.000000 
#    y 0.000000 1.985810 0.000000 
#    z 0.000000 0.000000 1.856140 
# 
# From -- ./inp_files/15671.got.cif
#   From: 2010.05.17/outbox.cif.g08.bks.cpg/sg36_8_cif.got.tgz:15671.got - 2010.06.03 17:41:39.
