data_PCOD9351530
_publ_section_title
;
Structure prediction by ZEFSAII (Michael W. Deem and Ramdas Pophale) SiO2 
 PCOD9351530
Probable space group: C M C 21
;
_chemical_formula_sum "Si O2"
_cell_formula_units_Z 48
_cell_length_a 7.456580
_cell_length_b 29.375246
_cell_length_c 8.147883
_cell_angle_alpha 90.000000
_cell_angle_beta 90.000000
_cell_angle_gamma 90.000000
_cell_volume 1784.703100
_symmetry_space_group_name_H-M "C M C 21"
_symmetry_group_IT_number 36
_symmetry_cell_setting 'orthorhombic'
loop_
_space_group_symop_operation_xyz
x,y,z
-x,-y,1/2+z
x,-y,1/2+z
-x,y,z
1/2+x,1/2+y,z
1/2-x,1/2-y,1/2+z
1/2+x,1/2-y,1/2+z
1/2-x,1/2+y,z
loop_
_atom_site_type_symbol
_atom_site_label
_atom_site_fract_x
_atom_site_fract_y
_atom_site_fract_z
Si Si1 0.282520 0.151154 0.437360
Si Si2 0.794983 0.906913 0.259162
Si Si3 0.292957 0.988477 0.040389
Si Si4 0.786718 0.179168 0.913443
Si Si5 0.719086 0.930901 0.732998
Si Si6 0.715809 0.765573 0.744336
O O1 0.500000 0.149895 0.447963
O O2 0.212330 0.126434 0.598750
O O3 0.227878 0.119833 0.280574
O O4 0.223434 0.201848 0.394417
O O5 0.710453 0.953931 0.196225
O O6 0.713366 0.872304 0.394916
O O7 0.000000 0.917826 0.294703
O O8 0.500000 0.995499 0.999675
O O9 0.217445 0.038004 0.083084
O O10 0.215946 0.960250 0.890464
O O11 0.715553 0.214656 0.775689
O O12 0.000000 0.173618 0.891033
O O13 0.761006 0.207067 0.080444
O O14 0.500000 0.930990 0.729396
O O15 0.500000 0.763339 0.751801
#
# Coordination Sequence:
#
# PCOD9351530 Si02
#       6
#     8   8   8   8   8   8
#     4   9  18  34  55  78 101 128 170 216 253 296
#     4  10  20  34  51  73 104 139 171 204 250 304
#     4   9  17  31  50  71  97 130 168 209 252 295
#     4  10  22  37  52  76 108 136 165 206 254 301
#     4   8  15  28  48  72  96 124 160 207 256 292
#     4  10  21  36  56  80 102 131 172 210 247 300
#
# _framework density 26.895232
#
# number of rings (size 3 to 8) (size 9 to 14) (size 15 to 20)
#    0.000    2.667    0.000    2.500    0.000    4.000 
#    0.000    6.667    0.000    0.000    0.000    0.000 
#    0.000    0.000    0.000    0.000    0.000    0.000 
#
# Total GULP energy -134166.402171 kJ/mol
# GULP energy per Si atom -5590.266757 kJ/mol
# Density = 2.683402 g / cm^3
# Si number density = 26.895232 Si / 1000 Ang^3
#
#
#
# Elastic Constant Matrix: (Units=GPa)
#
#
# Indices 1 2 3 4 5 6 
#
# 1 100.3773 11.8817 -1.5891 0.0000 0.0000 0.0000
# 2 11.8817 162.6726 10.2979 0.0000 0.0000 0.0000
# 3 -1.5891 10.2979 72.3963 0.0000 0.0000 0.0000
# 4 0.0000 0.0000 0.0000 54.2485 0.0000 0.0000
# 5 0.0000 0.0000 0.0000 0.0000 22.1501 0.0000
# 6 0.0000 0.0000 0.0000 0.0000 0.0000 13.1576
#
#
#
# Elastic Compliance Matrix: (Units=1/GPa)
#
#
# Indices 1 2 3 4 5 6 
#
# 1 0.010057 -0.000755 0.000328 0.000000 0.000000 0.000000
# 2 -0.000755 0.006260 -0.000907 0.000000 0.000000 0.000000
# 3 0.000328 -0.000907 0.013949 0.000000 0.000000 0.000000
# 4 0.000000 0.000000 0.000000 0.018434 0.000000 0.000000
# 5 0.000000 0.000000 0.000000 0.000000 0.045147 0.000000
# 6 0.000000 0.000000 0.000000 0.000000 0.000000 0.076002
#
#
# Mechanical properties :
#
#
# Convention : Reuss Voigt Hill
#
# Bulk Modulus (GPa) = 36.23495 41.84748 39.04122
# Shear Modulus (GPa) = 27.51553 38.90162 33.20858
#
# Velocity S-wave (km/s) = 3.20201 3.80730 3.51770
# Velocity P-wave (km/s) = 5.21271 5.90937 5.57194
#
# Compressibility (1/GPa) = 0.02759766
#
# Stress axis : x y z
#
# Youngs Moduli (GPa) = 99.43308 159.74680 71.68935
#
# Poissons Ratio (x) = 0.12066 -0.02353
# Poissons Ratio (y) = 0.07511 0.06502
# Poissons Ratio (z) = -0.03263 0.14489
#
# Static dielectric constant tensor:
#      x y z
#    x 1.989430 0.000000 0.000000 
#    y 0.000000 2.111300 0.000000 
#    z 0.000000 0.000000 2.228210 
# 
# From -- ./inp_files/2655.got.cif
#   From: 2010.05.17/outbox.cif.g08.bks.cpg/sg36_2_cif.got.tgz:2655.got - 2010.06.03 17:41:39.
