data_PCOD9351837
_publ_section_title
;
Structure prediction by ZEFSAII (Michael W. Deem and Ramdas Pophale) SiO2 
 PCOD9351837
Probable space group: C M C 21
;
_chemical_formula_sum "Si O2"
_cell_formula_units_Z 64
_cell_length_a 8.797892
_cell_length_b 29.277963
_cell_length_c 12.531028
_cell_angle_alpha 90.000000
_cell_angle_beta 90.000000
_cell_angle_gamma 90.000000
_cell_volume 3227.796783
_symmetry_space_group_name_H-M "C M C 21"
_symmetry_group_IT_number 36
_symmetry_cell_setting 'orthorhombic'
loop_
_space_group_symop_operation_xyz
x,y,z
-x,-y,1/2+z
x,-y,1/2+z
-x,y,z
1/2+x,1/2+y,z
1/2-x,1/2-y,1/2+z
1/2+x,1/2-y,1/2+z
1/2-x,1/2+y,z
loop_
_atom_site_type_symbol
_atom_site_label
_atom_site_fract_x
_atom_site_fract_y
_atom_site_fract_z
Si Si1 0.822436 0.685380 0.989640
Si Si2 0.181225 0.629528 0.449775
Si Si3 0.683045 0.917454 0.551469
Si Si4 0.319344 0.431543 0.780662
Si Si5 0.173993 0.082667 0.652977
Si Si6 0.182349 0.474940 0.340553
Si Si7 0.828886 0.819772 0.269590
Si Si8 0.820386 0.277328 0.069546
O O1 0.790767 0.681474 0.864142
O O2 0.000000 0.693798 0.011312
O O3 0.780064 0.636117 0.037347
O O4 0.723551 0.727679 0.028751
O O5 0.258236 0.613545 0.340504
O O6 0.241409 0.596284 0.544103
O O7 0.216792 0.681456 0.486681
O O8 0.000000 0.625264 0.440741
O O9 0.500000 0.921622 0.561544
O O10 0.760290 0.934313 0.659508
O O11 0.727844 0.945066 0.444380
O O12 0.500000 0.432670 0.783267
O O13 0.251118 0.474665 0.843976
O O14 0.257965 0.047628 0.730877
O O15 0.169279 0.129815 0.719538
O O16 0.000000 0.068177 0.631445
O O17 0.000000 0.476786 0.338127
O O18 0.775833 0.786979 0.175340
O O19 0.000000 0.808768 0.307030
O O20 0.000000 0.280989 0.091667
#
# Coordination Sequence:
#
# PCOD9351837 Si02
#       8
#     8   8   8   8   8   8   8   8
#     4  11  22  39  64  93 126 164 211 264 317 378
#     4  10  22  42  65  89 125 169 214 259 313 383
#     4  10  24  45  67  93 126 168 215 259 315 387
#     4  12  27  43  64  94 131 169 212 268 325 377
#     4  10  20  36  62  93 123 155 202 263 315 365
#     4  11  23  42  67  92 124 166 212 256 313 382
#     4  10  20  36  59  88 122 160 204 258 315 373
#     4  10  22  39  62  92 125 167 216 263 317 379
#
# _framework density 19.827767000000001
#
# number of rings (size 3 to 8) (size 9 to 14) (size 15 to 20)
#    0.000    1.500    1.250    3.375    1.750    5.500 
#    0.000    1.250    0.000    0.000    0.000    0.000 
#    0.000    0.000    0.000    0.000    0.000    0.000 
#
# Total GULP energy -178835.715265 kJ/mol
# GULP energy per Si atom -5588.616102 kJ/mol
# Density = 1.978264 g / cm^3
# Si number density = 19.827767 Si / 1000 Ang^3
#
#
#
# Elastic Constant Matrix: (Units=GPa)
#
#
# Indices 1 2 3 4 5 6 
#
# 1 66.2107 40.9212 22.3849 0.0000 0.0000 0.0000
# 2 40.9212 86.3780 32.5838 0.0000 0.0000 0.0000
# 3 22.3849 32.5838 58.4399 0.0000 0.0000 0.0000
# 4 0.0000 0.0000 0.0000 18.5342 0.0000 0.0000
# 5 0.0000 0.0000 0.0000 0.0000 19.8574 0.0000
# 6 0.0000 0.0000 0.0000 0.0000 0.0000 28.5737
#
#
#
# Elastic Compliance Matrix: (Units=1/GPa)
#
#
# Indices 1 2 3 4 5 6 
#
# 1 0.021844 -0.009108 -0.003289 0.000000 0.000000 0.000000
# 2 -0.009108 0.018458 -0.006803 0.000000 0.000000 0.000000
# 3 -0.003289 -0.006803 0.022164 0.000000 0.000000 0.000000
# 4 0.000000 0.000000 0.000000 0.053954 0.000000 0.000000
# 5 0.000000 0.000000 0.000000 0.000000 0.050359 0.000000
# 6 0.000000 0.000000 0.000000 0.000000 0.000000 0.034997
#
#
# Mechanical properties :
#
#
# Convention : Reuss Voigt Hill
#
# Bulk Modulus (GPa) = 41.55022 44.75649 43.15336
# Shear Modulus (GPa) = 20.14508 21.06897 20.60703
#
# Velocity S-wave (km/s) = 3.19094 3.26329 3.22732
# Velocity P-wave (km/s) = 5.88024 6.06798 5.97485
#
# Compressibility (1/GPa) = 0.02406726
#
# Stress axis : x y z
#
# Youngs Moduli (GPa) = 45.77825 54.17693 45.11743
#
# Poissons Ratio (x) = 0.49344 0.14839
# Poissons Ratio (y) = 0.41695 0.30692
# Poissons Ratio (z) = 0.15057 0.36855
#
# Static dielectric constant tensor:
#      x y z
#    x 1.668570 0.000000 0.000000 
#    y 0.000000 1.705860 0.000000 
#    z 0.000000 0.000000 1.686520 
# 
# From -- ./inp_files/7078.got.cif
#   From: 2010.05.17/outbox.cif.g08.bks.cpg/sg36_4_cif.got.tgz:7078.got - 2010.06.03 17:41:39.
