data_PCOD9351461
_publ_section_title
;
Structure prediction by ZEFSAII (Michael W. Deem and Ramdas Pophale) SiO2 
 PCOD9351461
Probable space group: C M C 21
;
_chemical_formula_sum "Si O2"
_cell_formula_units_Z 40
_cell_length_a 18.387829
_cell_length_b 21.849745
_cell_length_c 5.056301
_cell_angle_alpha 90.000000
_cell_angle_beta 90.000000
_cell_angle_gamma 90.000000
_cell_volume 2031.466891
_symmetry_space_group_name_H-M "C M C 21"
_symmetry_group_IT_number 36
_symmetry_cell_setting 'orthorhombic'
loop_
_space_group_symop_operation_xyz
x,y,z
-x,-y,1/2+z
x,-y,1/2+z
-x,y,z
1/2+x,1/2+y,z
1/2-x,1/2-y,1/2+z
1/2+x,1/2-y,1/2+z
1/2-x,1/2+y,z
loop_
_atom_site_type_symbol
_atom_site_label
_atom_site_fract_x
_atom_site_fract_y
_atom_site_fract_z
Si Si1 0.500000 0.637850 0.363940
Si Si2 0.219021 0.464631 0.040083
Si Si3 0.717113 0.173261 0.674394
Si Si4 0.344211 0.240114 0.179317
Si Si5 0.606760 0.465054 0.971291
Si Si6 0.000000 0.219269 0.856833
O O1 0.429027 0.595215 0.349344
O O2 0.500000 0.662035 0.660853
O O3 0.500000 0.692968 0.154251
O O4 0.193249 0.516055 0.248729
O O5 0.203375 0.398831 0.168991
O O6 0.306304 0.462788 0.991983
O O7 0.696196 0.196342 0.384699
O O8 0.801177 0.195052 0.707659
O O9 0.670270 0.210836 0.891388
O O10 0.426687 0.245659 0.274892
O O11 0.584005 0.481381 0.268463
#
# Coordination Sequence:
#
# PCOD9351461 Si02
#       6
#     4   8   8   8   8   4
#     4  12  22  33  52  72 110 153 186 226 264 326
#     4  10  20  33  54  82 109 139 181 230 274 327
#     4  10  20  38  58  82 112 147 184 228 286 336
#     4  10  22  37  58  81 111 147 186 232 279 338
#     4  10  20  33  48  73 109 149 188 220 260 314
#     4  12  24  37  54  84 108 141 192 234 286 334
#
# _framework density 19.690207000000001
#
# number of rings (size 3 to 8) (size 9 to 14) (size 15 to 20)
#    0.000    1.600    0.000    5.400    0.000    6.400 
#    0.000    0.000    0.000    0.000    0.000   14.000 
#    0.000    0.000    0.000    0.000    0.000    0.000 
#
# Total GULP energy -111501.150346 kJ/mol
# GULP energy per Si atom -5575.057517 kJ/mol
# Density = 1.964539 g / cm^3
# Si number density = 19.690207 Si / 1000 Ang^3
#
#
#
# Elastic Constant Matrix: (Units=GPa)
#
#
# Indices 1 2 3 4 5 6 
#
# 1 53.3621 2.1152 -17.9118 0.0000 0.0000 0.0000
# 2 2.1152 69.2804 8.8719 0.0000 0.0000 0.0000
# 3 -17.9118 8.8719 72.6819 0.0000 0.0000 0.0000
# 4 0.0000 0.0000 0.0000 33.4359 0.0000 0.0000
# 5 0.0000 0.0000 0.0000 0.0000 15.5145 0.0000
# 6 0.0000 0.0000 0.0000 0.0000 0.0000 18.9740
#
#
#
# Elastic Compliance Matrix: (Units=1/GPa)
#
#
# Indices 1 2 3 4 5 6 
#
# 1 0.020544 -0.001296 0.005221 0.000000 0.000000 0.000000
# 2 -0.001296 0.014745 -0.002119 0.000000 0.000000 0.000000
# 3 0.005221 -0.002119 0.015304 0.000000 0.000000 0.000000
# 4 0.000000 0.000000 0.000000 0.029908 0.000000 0.000000
# 5 0.000000 0.000000 0.000000 0.000000 0.064456 0.000000
# 6 0.000000 0.000000 0.000000 0.000000 0.000000 0.052704
#
#
# Mechanical properties :
#
#
# Convention : Reuss Voigt Hill
#
# Bulk Modulus (GPa) = 18.44859 20.16390 19.30624
# Shear Modulus (GPa) = 23.57195 27.06815 25.32005
#
# Velocity S-wave (km/s) = 3.46373 3.71172 3.58986
# Velocity P-wave (km/s) = 5.03848 5.35088 5.19703
#
# Compressibility (1/GPa) = 0.05420468
#
# Stress axis : x y z
#
# Youngs Moduli (GPa) = 48.67661 67.81940 65.34271
#
# Poissons Ratio (x) = 0.08788 -0.34115
# Poissons Ratio (y) = 0.06308 0.13847
# Poissons Ratio (z) = -0.25414 0.14372
#
# Static dielectric constant tensor:
#      x y z
#    x 1.717840 0.000000 0.000000 
#    y 0.000000 1.722920 0.000000 
#    z 0.000000 0.000000 1.674910 
# 
# From -- ./inp_files/1047.got.cif
#   From: 2010.05.17/outbox.cif.g08.bks.cpg/sg36_1_cif.got.tgz:1047.got - 2010.06.03 17:41:39.
