data_PCOD9351242
_publ_section_title
;
Structure prediction by ZEFSAII (Michael W. Deem and Ramdas Pophale) SiO2 
 PCOD9351242
Probable space group: C M C 21
;
_chemical_formula_sum "Si O2"
_cell_formula_units_Z 56
_cell_length_a 12.933426
_cell_length_b 19.071336
_cell_length_c 10.012925
_cell_angle_alpha 90.000000
_cell_angle_beta 90.000000
_cell_angle_gamma 90.000000
_cell_volume 2469.765180
_symmetry_space_group_name_H-M "C M C 21"
_symmetry_group_IT_number 36
_symmetry_cell_setting 'orthorhombic'
loop_
_space_group_symop_operation_xyz
x,y,z
-x,-y,1/2+z
x,-y,1/2+z
-x,y,z
1/2+x,1/2+y,z
1/2-x,1/2-y,1/2+z
1/2+x,1/2-y,1/2+z
1/2-x,1/2+y,z
loop_
_atom_site_type_symbol
_atom_site_label
_atom_site_fract_x
_atom_site_fract_y
_atom_site_fract_z
Si Si1 0.382357 0.621336 0.510000
Si Si2 0.381537 0.998921 0.189090
Si Si3 0.384751 0.202888 0.333348
Si Si4 0.830253 0.657811 0.626612
Si Si5 0.333416 0.310476 0.727694
Si Si6 0.248880 0.990101 0.433133
Si Si7 0.884556 0.139145 0.938199
O O1 0.500000 0.623165 0.559728
O O2 0.294118 0.654456 0.604154
O O3 0.376346 0.660719 0.367121
O O4 0.339652 0.542776 0.484950
O O5 0.500000 0.020019 0.203587
O O6 0.372673 0.913865 0.187541
O O7 0.309879 0.023515 0.310093
O O8 0.330569 0.022140 0.050773
O O9 0.500000 0.193393 0.278956
O O10 0.373484 0.163202 0.475105
O O11 0.290942 0.183657 0.237526
O O12 0.370162 0.284080 0.376593
O O13 0.858970 0.728484 0.704088
O O14 0.372875 0.351539 0.598228
O O15 0.196646 0.917832 0.391371
O O16 0.000000 0.114991 0.907023
#
# Coordination Sequence:
#
# PCOD9351242 Si02
#       7
#     8   8   8   8   8   8   8
#     4  10  21  37  58  83 115 153 191 241 300 352
#     4  11  23  40  61  84 117 159 199 244 296 349
#     4   9  18  33  54  81 114 151 190 240 300 352
#     4   9  20  36  55  81 113 148 194 243 293 353
#     4  10  19  35  56  83 115 146 192 245 294 354
#     4  11  23  41  61  89 120 155 201 246 288 351
#     4  10  20  36  59  85 116 154 195 243 295 347
#
# _framework density 22.674220999999999
#
# number of rings (size 3 to 8) (size 9 to 14) (size 15 to 20)
#    0.000    2.000    0.000    3.429    0.000    2.286 
#    0.000   14.286    0.000    0.857    0.000    0.000 
#    0.000    0.000    0.000    0.000    0.000    0.000 
#
# Total GULP energy -156736.802083 kJ/mol
# GULP energy per Si atom -5597.742932 kJ/mol
# Density = 2.262261 g / cm^3
# Si number density = 22.674221 Si / 1000 Ang^3
#
#
#
# Elastic Constant Matrix: (Units=GPa)
#
#
# Indices 1 2 3 4 5 6 
#
# 1 129.7724 16.4417 10.2583 0.0000 0.0000 0.0000
# 2 16.4417 76.7428 -1.9191 0.0000 0.0000 0.0000
# 3 10.2583 -1.9191 61.7719 0.0000 0.0000 0.0000
# 4 0.0000 0.0000 0.0000 20.2986 0.0000 0.0000
# 5 0.0000 0.0000 0.0000 0.0000 10.0065 0.0000
# 6 0.0000 0.0000 0.0000 0.0000 0.0000 21.6461
#
#
#
# Elastic Compliance Matrix: (Units=1/GPa)
#
#
# Indices 1 2 3 4 5 6 
#
# 1 0.008038 -0.001757 -0.001389 0.000000 0.000000 0.000000
# 2 -0.001757 0.013425 0.000709 0.000000 0.000000 0.000000
# 3 -0.001389 0.000709 0.016441 0.000000 0.000000 0.000000
# 4 0.000000 0.000000 0.000000 0.049265 0.000000 0.000000
# 5 0.000000 0.000000 0.000000 0.000000 0.099935 0.000000
# 6 0.000000 0.000000 0.000000 0.000000 0.000000 0.046198
#
#
# Mechanical properties :
#
#
# Convention : Reuss Voigt Hill
#
# Bulk Modulus (GPa) = 30.27627 35.31656 32.79641
# Shear Modulus (GPa) = 20.06528 26.62397 23.34463
#
# Velocity S-wave (km/s) = 2.97802 3.43037 3.21217
# Velocity P-wave (km/s) = 5.02061 5.59459 5.31535
#
# Compressibility (1/GPa) = 0.03302917
#
# Stress axis : x y z
#
# Youngs Moduli (GPa) = 124.40555 74.48978 60.82226
#
# Poissons Ratio (x) = 0.13087 0.08451
# Poissons Ratio (y) = 0.21857 -0.04311
# Poissons Ratio (z) = 0.17286 -0.05280
#
# Static dielectric constant tensor:
#      x y z
#    x 1.837020 0.000000 0.000000 
#    y 0.000000 1.846600 0.000000 
#    z 0.000000 0.000000 1.816670 
# 
# From -- ./inp_files/7843.got.cif
#   From: 2010.05.17/outbox.cif.g08.bks.cpg/sg36_4_cif.got.tgz:7843.got - 2010.06.03 17:41:39.
