data_PCOD9351656
_publ_section_title
;
Structure prediction by ZEFSAII (Michael W. Deem and Ramdas Pophale) SiO2 
 PCOD9351656
Probable space group: C M C 21
;
_chemical_formula_sum "Si O2"
_cell_formula_units_Z 64
_cell_length_a 19.927789
_cell_length_b 8.713113
_cell_length_c 20.843503
_cell_angle_alpha 90.000000
_cell_angle_beta 90.000000
_cell_angle_gamma 90.000000
_cell_volume 3619.121570
_symmetry_space_group_name_H-M "C M C 21"
_symmetry_group_IT_number 36
_symmetry_cell_setting 'orthorhombic'
loop_
_space_group_symop_operation_xyz
x,y,z
-x,-y,1/2+z
x,-y,1/2+z
-x,y,z
1/2+x,1/2+y,z
1/2-x,1/2-y,1/2+z
1/2+x,1/2-y,1/2+z
1/2-x,1/2+y,z
loop_
_atom_site_type_symbol
_atom_site_label
_atom_site_fract_x
_atom_site_fract_y
_atom_site_fract_z
Si Si1 0.175730 0.566977 0.928720
Si Si2 0.078785 0.933073 0.535945
Si Si3 0.675853 0.065365 0.290439
Si Si4 0.324270 0.433023 0.928720
Si Si5 0.175853 0.065365 0.790439
Si Si6 0.577949 0.434402 0.174530
Si Si7 0.578785 0.933073 0.035945
Si Si8 0.577949 0.934402 0.674530
O O1 0.154504 0.500891 0.859381
O O2 0.250000 0.500000 0.941656
O O3 0.179692 0.750000 0.925506
O O4 0.124820 0.513928 0.983481
O O5 0.085943 0.750000 0.530529
O O6 0.000000 0.972270 0.526716
O O7 0.124820 0.013928 0.483481
O O8 0.097229 0.986570 0.607706
O O9 0.678862 0.250000 0.294640
O O10 0.625301 0.022019 0.233591
O O11 0.750000 0.000000 0.277334
O O12 0.345496 0.499109 0.859381
O O13 0.125301 0.022019 0.733591
O O14 0.500000 0.472293 0.187971
O O15 0.582426 0.250000 0.166282
O O16 0.500000 0.972270 0.026716
O O17 0.597229 0.986570 0.107706
O O18 0.500000 0.972293 0.687971
#
# Coordination Sequence:
#
# PCOD9351656 Si02
#       8
#     8   8   8   8   8   8   8   8
#     4  11  22  37  57  80 109 143 181 225 270 320
#     4  10  21  37  57  81 110 143 180 223 269 319
#     4  10  20  35  55  79 108 141 177 220 268 318
#     4  11  22  37  57  80 109 143 181 225 270 320
#     4  10  20  35  55  79 108 141 177 220 268 318
#     4   9  19  36  56  78 106 141 180 221 265 314
#     4  10  21  37  57  81 110 143 180 223 269 319
#     4   9  19  36  56  78 106 141 180 221 265 314
#
# _framework density 17.68385
#
# number of rings (size 3 to 8) (size 9 to 14) (size 15 to 20)
#    0.000    2.000    0.000    5.250    0.000    5.500 
#    0.000    5.000    0.000    0.000    0.000    0.000 
#    0.000    0.000    0.000    0.000    0.000    0.000 
#
# Total GULP energy -178712.408718 kJ/mol
# GULP energy per Si atom -5584.762772 kJ/mol
# Density = 1.764360 g / cm^3
# Si number density = 17.683850 Si / 1000 Ang^3
#
#
#
# Elastic Constant Matrix: (Units=GPa)
#
#
# Indices 1 2 3 4 5 6 
#
# 1 82.9375 55.8703 111.3553 0.0000 0.0000 0.0000
# 2 55.8703 90.5227 79.6421 0.0000 0.0000 0.0000
# 3 111.3553 79.6421 179.5913 0.0000 0.0000 0.0000
# 4 0.0000 0.0000 0.0000 36.7321 0.0000 0.0000
# 5 0.0000 0.0000 0.0000 0.0000 44.0025 0.0000
# 6 0.0000 0.0000 0.0000 0.0000 0.0000 27.7152
#
#
#
# Elastic Compliance Matrix: (Units=1/GPa)
#
#
# Indices 1 2 3 4 5 6 
#
# 1 0.076166 -0.008952 -0.043257 0.000000 0.000000 0.000000
# 2 -0.008952 0.019167 -0.002949 0.000000 0.000000 0.000000
# 3 -0.043257 -0.002949 0.033697 0.000000 0.000000 0.000000
# 4 0.000000 0.000000 0.000000 0.027224 0.000000 0.000000
# 5 0.000000 0.000000 0.000000 0.000000 0.022726 0.000000
# 6 0.000000 0.000000 0.000000 0.000000 0.000000 0.036081
#
#
# Mechanical properties :
#
#
# Convention : Reuss Voigt Hill
#
# Bulk Modulus (GPa) = 53.43477 94.08745 73.76111
# Shear Modulus (GPa) = 15.07771 28.76887 21.92329
#
# Velocity S-wave (km/s) = 2.92314 4.03779 3.52481
# Velocity P-wave (km/s) = 6.45564 8.66367 7.63985
#
# Compressibility (1/GPa) = 0.01871441
#
# Stress axis : x y z
#
# Youngs Moduli (GPa) = 13.12920 52.17393 29.67596
#
# Poissons Ratio (x) = 0.46706 1.28369
# Poissons Ratio (y) = 0.11753 0.08752
# Poissons Ratio (z) = 0.56793 0.15386
#
# Static dielectric constant tensor:
#      x y z
#    x 1.584390 0.000000 0.000000 
#    y 0.000000 1.593770 0.000000 
#    z 0.000000 0.000000 1.575630 
# 
# From -- ./inp_files/15051.got.cif
#   From: 2010.05.17/outbox.cif.g08.bks.cpg/sg36_8_cif.got.tgz:15051.got - 2010.06.03 17:41:39.
