data_PCOD9351736
_publ_section_title
;
Structure prediction by ZEFSAII (Michael W. Deem and Ramdas Pophale) SiO2 
 PCOD9351736
Probable space group: C M C 21
;
_chemical_formula_sum "Si O2"
_cell_formula_units_Z 64
_cell_length_a 8.396750
_cell_length_b 15.789413
_cell_length_c 24.376270
_cell_angle_alpha 90.000000
_cell_angle_beta 90.000000
_cell_angle_gamma 90.000000
_cell_volume 3231.799870
_symmetry_space_group_name_H-M "C M C 21"
_symmetry_group_IT_number 36
_symmetry_cell_setting 'orthorhombic'
loop_
_space_group_symop_operation_xyz
x,y,z
-x,-y,1/2+z
x,-y,1/2+z
-x,y,z
1/2+x,1/2+y,z
1/2-x,1/2-y,1/2+z
1/2+x,1/2-y,1/2+z
1/2-x,1/2+y,z
loop_
_atom_site_type_symbol
_atom_site_label
_atom_site_fract_x
_atom_site_fract_y
_atom_site_fract_z
Si Si1 0.307850 0.499809 0.032930
Si Si2 0.184713 0.652258 0.218863
Si Si3 0.194373 0.845657 0.956476
Si Si4 0.689518 0.400424 0.835115
Si Si5 0.311496 0.489968 0.158571
Si Si6 0.192025 0.343351 0.463312
Si Si7 0.188436 0.667770 0.727360
Si Si8 0.307177 0.908238 0.342564
O O1 0.500000 0.497665 0.032994
O O2 0.254635 0.491619 0.095681
O O3 0.250410 0.421502 0.995517
O O4 0.255623 0.586948 0.004946
O O5 0.225406 0.639715 0.282936
O O6 0.280837 0.580990 0.185978
O O7 0.227560 0.748602 0.204569
O O8 0.000000 0.635722 0.209206
O O9 0.241473 0.862682 0.893569
O O10 0.245886 0.752412 0.974747
O O11 0.000000 0.846976 0.956935
O O12 0.500000 0.387051 0.829272
O O13 0.728002 0.500142 0.836302
O O14 0.500000 0.472431 0.159484
O O15 0.227271 0.416262 0.193052
O O16 0.237375 0.368643 0.401054
O O17 0.000000 0.344707 0.465490
O O18 0.237238 0.648779 0.790343
O O19 0.000000 0.683384 0.727139
O O20 0.500000 0.918426 0.341337
#
# Coordination Sequence:
#
# PCOD9351736 Si02
#       8
#     8   8   8   8   8   8   8   8
#     4  10  22  41  61  85 118 155 202 253 299 352
#     4  12  25  41  62  90 125 161 204 253 306 367
#     4   9  19  37  60  87 119 158 194 238 299 358
#     4  11  20  35  63  90 121 160 200 245 305 367
#     4  11  24  42  63  88 121 162 210 258 306 361
#     4  10  20  36  60  88 121 158 197 238 294 362
#     4  11  23  41  65  92 125 160 200 250 309 370
#     4  10  20  35  58  90 126 158 193 243 302 365
#
# _framework density 19.803207
#
# number of rings (size 3 to 8) (size 9 to 14) (size 15 to 20)
#    0.000    1.500    2.500    3.000    0.000    4.500 
#    0.000    4.375    0.000    0.000    0.000    0.000 
#    0.000    0.000    0.000    0.000    0.000    0.000 
#
# Total GULP energy -178880.409634 kJ/mol
# GULP energy per Si atom -5590.012801 kJ/mol
# Density = 1.975813 g / cm^3
# Si number density = 19.803207 Si / 1000 Ang^3
#
#
#
# Elastic Constant Matrix: (Units=GPa)
#
#
# Indices 1 2 3 4 5 6 
#
# 1 10.9517 -9.8798 -3.2267 0.0000 0.0000 0.0000
# 2 -9.8798 92.9658 10.4344 0.0000 0.0000 0.0000
# 3 -3.2267 10.4344 90.3562 0.0000 0.0000 0.0000
# 4 0.0000 0.0000 0.0000 -0.2159 0.0000 0.0000
# 5 0.0000 0.0000 0.0000 0.0000 9.4936 0.0000
# 6 0.0000 0.0000 0.0000 0.0000 0.0000 31.0809
#
#
#
# Elastic Compliance Matrix: (Units=1/GPa)
#
#
# Indices 1 2 3 4 5 6 
#
# 1 0.101508 0.010517 0.002410 0.000000 0.000000 0.000000
# 2 0.010517 0.011988 -0.001009 0.000000 0.000000 0.000000
# 3 0.002410 -0.001009 0.011270 0.000000 0.000000 0.000000
# 4 0.000000 0.000000 0.000000 -4.631182 0.000000 0.000000
# 5 0.000000 0.000000 0.000000 0.000000 0.105334 0.000000
# 6 0.000000 0.000000 0.000000 0.000000 0.000000 0.032174
#
#
# Mechanical properties :
#
#
# Convention : Reuss Voigt Hill
#
# Bulk Modulus (GPa) = 6.72938 20.99218 13.86078
# Shear Modulus (GPa) = -1.15122 21.20144 10.02511
#
# Velocity S-wave (km/s) = -0.76328 3.27556 2.25241
# Velocity P-wave (km/s) = 1.62133 4.99291 3.71200
#
# Compressibility (1/GPa) = 0.14860219
#
# Stress axis : x y z
#
# Youngs Moduli (GPa) = 9.85149 83.42003 88.73215
#
# Poissons Ratio (x) = -0.87733 -0.21388
# Poissons Ratio (y) = -0.10361 0.08951
# Poissons Ratio (z) = -0.02375 0.08415
#
# Static dielectric constant tensor:
#      x y z
#    x 1.684480 0.000000 0.000000 
#    y 0.000000 1.678310 0.000000 
#    z 0.000000 0.000000 1.680820 
# 
# From -- ./inp_files/16534.got.cif
#   From: 2010.05.17/outbox.cif.g08.bks.cpg/sg36_9_cif.got.tgz:16534.got - 2010.06.03 17:41:39.
