data_PCOD9351041
_publ_section_title
;
Structure prediction by ZEFSAII (Michael W. Deem and Ramdas Pophale) SiO2 
 PCOD9351041
Probable space group: C M C 21
;
_chemical_formula_sum "Si O2"
_cell_formula_units_Z 48
_cell_length_a 8.742738
_cell_length_b 18.868098
_cell_length_c 16.836755
_cell_angle_alpha 90.000000
_cell_angle_beta 90.000000
_cell_angle_gamma 90.000000
_cell_volume 2777.371530
_symmetry_space_group_name_H-M "C M C 21"
_symmetry_group_IT_number 36
_symmetry_cell_setting 'orthorhombic'
loop_
_space_group_symop_operation_xyz
x,y,z
-x,-y,1/2+z
x,-y,1/2+z
-x,y,z
1/2+x,1/2+y,z
1/2-x,1/2-y,1/2+z
1/2+x,1/2-y,1/2+z
1/2-x,1/2+y,z
loop_
_atom_site_type_symbol
_atom_site_label
_atom_site_fract_x
_atom_site_fract_y
_atom_site_fract_z
Si Si1 0.183370 0.413626 0.727700
Si Si2 0.316871 0.539695 0.809889
Si Si3 0.317424 0.956851 0.961744
Si Si4 0.683467 0.093743 0.049729
Si Si5 0.681936 0.668392 0.379594
Si Si6 0.182905 0.823618 0.399300
O O1 0.241471 0.494349 0.740031
O O2 0.226422 0.387877 0.639696
O O3 0.252842 0.366018 0.798169
O O4 0.000000 0.412704 0.734680
O O5 0.500000 0.533046 0.805863
O O6 0.253596 0.499471 0.887602
O O7 0.278414 0.621435 0.827706
O O8 0.500000 0.950925 0.952731
O O9 0.245012 0.879574 0.952501
O O10 0.285040 0.009979 0.034230
O O11 0.500000 0.102933 0.040409
O O12 0.764358 0.139541 0.981592
O O13 0.500000 0.664005 0.378108
O O14 0.737866 0.748469 0.388103
O O15 0.000000 0.815283 0.400407
#
# Coordination Sequence:
#
# PCOD9351041 Si02
#       6
#     8   8   8   8   8   8
#     4  10  19  33  53  76 103 132 165 207 254 301
#     4   9  17  30  49  73  97 124 163 203 241 291
#     4   9  16  30  51  72  96 127 163 201 244 295
#     4   9  19  34  53  77 102 130 165 208 255 303
#     4  11  21  33  51  75 103 136 173 209 249 300
#     4  10  20  34  53  75 101 135 171 210 255 302
#
# _framework density 17.282527000000002
#
# number of rings (size 3 to 8) (size 9 to 14) (size 15 to 20)
#    0.000    2.333    0.000    5.500    0.000    4.000 
#    0.000    1.667    0.000    4.000    0.000    0.000 
#    0.000    0.000    0.000    0.000    0.000    0.000 
#
# Total GULP energy -133697.519894 kJ/mol
# GULP energy per Si atom -5570.729996 kJ/mol
# Density = 1.724319 g / cm^3
# Si number density = 17.282527 Si / 1000 Ang^3
#
#
#
# Elastic Constant Matrix: (Units=GPa)
#
#
# Indices 1 2 3 4 5 6 
#
# 1 117.2127 61.9873 40.3522 0.0000 0.0000 0.0000
# 2 61.9873 136.3477 36.9701 0.0000 0.0000 0.0000
# 3 40.3522 36.9701 74.5659 0.0000 0.0000 0.0000
# 4 0.0000 0.0000 0.0000 19.3110 0.0000 0.0000
# 5 0.0000 0.0000 0.0000 0.0000 13.6311 0.0000
# 6 0.0000 0.0000 0.0000 0.0000 0.0000 31.2663
#
#
#
# Elastic Compliance Matrix: (Units=1/GPa)
#
#
# Indices 1 2 3 4 5 6 
#
# 1 0.012431 -0.004422 -0.004535 0.000000 0.000000 0.000000
# 2 -0.004422 0.010046 -0.002588 0.000000 0.000000 0.000000
# 3 -0.004535 -0.002588 0.017148 0.000000 0.000000 0.000000
# 4 0.000000 0.000000 0.000000 0.051784 0.000000 0.000000
# 5 0.000000 0.000000 0.000000 0.000000 0.073362 0.000000
# 6 0.000000 0.000000 0.000000 0.000000 0.000000 0.031983
#
#
# Mechanical properties :
#
#
# Convention : Reuss Voigt Hill
#
# Bulk Modulus (GPa) = 60.47399 67.41616 63.94507
# Shear Modulus (GPa) = 22.18710 25.42946 23.80828
#
# Velocity S-wave (km/s) = 3.58689 3.84004 3.71562
# Velocity P-wave (km/s) = 7.22646 7.66513 7.44902
#
# Compressibility (1/GPa) = 0.01653604
#
# Stress axis : x y z
#
# Youngs Moduli (GPa) = 80.44271 99.53959 58.31524
#
# Poissons Ratio (x) = 0.44016 0.26445
# Poissons Ratio (y) = 0.35571 0.15092
# Poissons Ratio (z) = 0.36480 0.25761
#
# Static dielectric constant tensor:
#      x y z
#    x 1.574150 0.000000 0.000000 
#    y 0.000000 1.609360 0.000000 
#    z 0.000000 0.000000 1.588260 
# 
# From -- ./inp_files/13555.got.cif
#   From: 2010.05.17/outbox.cif.g08.bks.cpg/sg36_7_cif.got.tgz:13555.got - 2010.06.03 17:41:39.
