data_PCOD9351415
_publ_section_title
;
Structure prediction by ZEFSAII (Michael W. Deem and Ramdas Pophale) SiO2 
 PCOD9351415
Probable space group: C M C 21
;
_chemical_formula_sum "Si O2"
_cell_formula_units_Z 52
_cell_length_a 8.009652
_cell_length_b 30.386287
_cell_length_c 10.679100
_cell_angle_alpha 90.000000
_cell_angle_beta 90.000000
_cell_angle_gamma 90.000000
_cell_volume 2599.117637
_symmetry_space_group_name_H-M "C M C 21"
_symmetry_group_IT_number 36
_symmetry_cell_setting 'orthorhombic'
loop_
_space_group_symop_operation_xyz
x,y,z
-x,-y,1/2+z
x,-y,1/2+z
-x,y,z
1/2+x,1/2+y,z
1/2-x,1/2-y,1/2+z
1/2+x,1/2-y,1/2+z
1/2-x,1/2+y,z
loop_
_atom_site_type_symbol
_atom_site_label
_atom_site_fract_x
_atom_site_fract_y
_atom_site_fract_z
Si Si1 0.313229 0.385379 0.484300
Si Si2 0.500000 0.092524 0.553706
Si Si3 0.301944 0.791104 0.553976
Si Si4 0.000000 0.484979 0.849270
Si Si5 0.186053 0.943999 0.727065
Si Si6 0.299187 0.228569 0.328903
Si Si7 0.500000 0.916853 0.342802
Si Si8 0.687534 0.365623 0.931116
O O1 0.500000 0.388730 0.431420
O O2 0.290894 0.337701 0.547582
O O3 0.293488 0.422612 0.590783
O O4 0.164802 0.391623 0.386996
O O5 0.500000 0.051000 0.459833
O O6 0.500000 0.077405 0.695096
O O7 0.665007 0.121019 0.524566
O O8 0.500000 0.799976 0.562001
O O9 0.254444 0.765562 0.682091
O O10 0.265330 0.764180 0.427964
O O11 0.165186 0.475844 0.766866
O O12 0.000000 0.534213 0.899571
O O13 0.191684 0.902758 0.822914
O O14 0.000000 0.963974 0.735986
O O15 0.500000 0.227731 0.337570
O O16 0.228209 0.181418 0.371179
O O17 0.500000 0.365148 0.984927
#
# Coordination Sequence:
#
# PCOD9351415 Si02
#       8
#     8   4   8   4   8   8   4   8
#     4  11  23  42  68  95 129 175 218 267 331 402
#     4  10  24  42  60  96 130 168 212 274 326 391
#     4  11  24  41  65  95 133 178 229 277 336 397
#     4  10  23  40  69  94 128 165 214 269 330 396
#     4   9  19  37  68  97 120 161 213 266 315 390
#     4  11  23  39  64  97 132 173 225 283 330 393
#     4  12  27  42  65  96 134 173 216 271 336 393
#     4  10  19  38  67  91 120 165 215 261 326 386
#
# _framework density 20.006791
#
# number of rings (size 3 to 8) (size 9 to 14) (size 15 to 20)
#    0.000    1.538    3.077    1.385    2.154    4.308 
#    0.000    0.000    0.000    0.000    0.000    0.000 
#    0.000    0.000    0.000    0.000    0.000    0.000 
#
# Total GULP energy -145252.571161 kJ/mol
# GULP energy per Si atom -5586.637352 kJ/mol
# Density = 1.996125 g / cm^3
# Si number density = 20.006791 Si / 1000 Ang^3
#
#
#
# Elastic Constant Matrix: (Units=GPa)
#
#
# Indices 1 2 3 4 5 6 
#
# 1 127.4841 9.1693 45.3197 0.0000 0.0000 0.0000
# 2 9.1693 33.5371 13.9138 0.0000 0.0000 0.0000
# 3 45.3197 13.9138 82.5077 0.0000 0.0000 0.0000
# 4 0.0000 0.0000 0.0000 18.6341 0.0000 0.0000
# 5 0.0000 0.0000 0.0000 0.0000 14.0525 0.0000
# 6 0.0000 0.0000 0.0000 0.0000 0.0000 14.5576
#
#
#
# Elastic Compliance Matrix: (Units=1/GPa)
#
#
# Indices 1 2 3 4 5 6 
#
# 1 0.009755 -0.000477 -0.005277 0.000000 0.000000 0.000000
# 2 -0.000477 0.032084 -0.005148 0.000000 0.000000 0.000000
# 3 -0.005277 -0.005148 0.015887 0.000000 0.000000 0.000000
# 4 0.000000 0.000000 0.000000 0.053665 0.000000 0.000000
# 5 0.000000 0.000000 0.000000 0.000000 0.071162 0.000000
# 6 0.000000 0.000000 0.000000 0.000000 0.000000 0.068693
#
#
# Mechanical properties :
#
#
# Convention : Reuss Voigt Hill
#
# Bulk Modulus (GPa) = 27.84012 42.25939 35.04976
# Shear Modulus (GPa) = 17.54235 21.12392 19.33314
#
# Velocity S-wave (km/s) = 2.96433 3.25289 3.11196
# Velocity P-wave (km/s) = 5.06575 5.93943 5.51990
#
# Compressibility (1/GPa) = 0.03591938
#
# Stress axis : x y z
#
# Youngs Moduli (GPa) = 102.51621 31.16801 62.94433
#
# Poissons Ratio (x) = 0.01488 0.33219
# Poissons Ratio (y) = 0.04895 0.32405
# Poissons Ratio (z) = 0.54102 0.16046
#
# Static dielectric constant tensor:
#      x y z
#    x 1.711760 0.000000 0.000000 
#    y 0.000000 1.664830 0.000000 
#    z 0.000000 0.000000 1.689880 
# 
# From -- ./inp_files/6930.got.cif
#   From: 2010.05.17/outbox.cif.g08.bks.cpg/sg36_4_cif.got.tgz:6930.got - 2010.06.03 17:41:39.
