data_PCOD9351105
_publ_section_title
;
Structure prediction by ZEFSAII (Michael W. Deem and Ramdas Pophale) SiO2 
 PCOD9351105
Probable space group: C M C 21
;
_chemical_formula_sum "Si O2"
_cell_formula_units_Z 64
_cell_length_a 8.466501
_cell_length_b 22.192274
_cell_length_c 14.279377
_cell_angle_alpha 90.000000
_cell_angle_beta 90.000000
_cell_angle_gamma 90.000000
_cell_volume 2682.965139
_symmetry_space_group_name_H-M "C M C 21"
_symmetry_group_IT_number 36
_symmetry_cell_setting 'orthorhombic'
loop_
_space_group_symop_operation_xyz
x,y,z
-x,-y,1/2+z
x,-y,1/2+z
-x,y,z
1/2+x,1/2+y,z
1/2-x,1/2-y,1/2+z
1/2+x,1/2-y,1/2+z
1/2-x,1/2+y,z
loop_
_atom_site_type_symbol
_atom_site_label
_atom_site_fract_x
_atom_site_fract_y
_atom_site_fract_z
Si Si1 0.813981 0.280882 0.794570
Si Si2 0.812392 0.531879 0.252008
Si Si3 0.814368 0.844712 0.971980
Si Si4 0.683980 0.033700 0.925915
Si Si5 0.314568 0.601440 0.092286
Si Si6 0.687831 0.090703 0.640786
Si Si7 0.312680 0.732067 0.086290
Si Si8 0.182615 0.144572 0.819137
O O1 0.759000 0.329712 0.870733
O O2 0.719528 0.274702 0.697478
O O3 0.795490 0.214528 0.841652
O O4 0.000000 0.288933 0.773667
O O5 0.748336 0.516293 0.354810
O O6 0.776489 0.474290 0.185670
O O7 0.000000 0.534476 0.262105
O O8 0.757503 0.588563 0.193473
O O9 0.000000 0.854574 0.963134
O O10 0.736312 0.897730 0.033944
O O11 0.779248 0.785177 0.035230
O O12 0.500000 0.022143 0.946053
O O13 0.770308 0.048716 0.021223
O O14 0.703627 0.096211 0.867579
O O15 0.500000 0.604351 0.103550
O O16 0.263512 0.665651 0.050937
O O17 0.500000 0.101393 0.649630
O O18 0.783829 0.135752 0.708510
O O19 0.500000 0.742059 0.070259
O O20 0.000000 0.128351 0.840860
#
# Coordination Sequence:
#
# PCOD9351105 Si02
#       8
#     8   8   8   8   8   8   8   8
#     4  11  23  38  58  88 123 163 205 248 305 367
#     4   9  21  41  64  90 118 156 203 252 305 364
#     4  12  24  38  60  91 124 163 205 249 307 369
#     4  10  21  38  63  92 120 160 208 252 304 365
#     4  11  24  41  63  92 124 162 204 255 311 364
#     4  10  20  37  61  86 116 153 197 248 302 358
#     4  11  24  42  62  89 127 165 206 255 306 368
#     4  10  19  33  57  88 120 152 198 251 298 353
#
# _framework density 23.854202999999998
#
# number of rings (size 3 to 8) (size 9 to 14) (size 15 to 20)
#    0.000    1.500    1.250    4.875    0.000    9.500 
#    2.250    0.000    0.000    0.000    0.000    0.000 
#    0.000    0.000    0.000    0.000    0.000    0.000 
#
# Total GULP energy -179046.272979 kJ/mol
# GULP energy per Si atom -5595.196031 kJ/mol
# Density = 2.379991 g / cm^3
# Si number density = 23.854203 Si / 1000 Ang^3
#
#
#
# Elastic Constant Matrix: (Units=GPa)
#
#
# Indices 1 2 3 4 5 6 
#
# 1 24.4939 5.1057 -9.1006 0.0000 0.0000 0.0000
# 2 5.1057 48.2223 10.4617 0.0000 0.0000 0.0000
# 3 -9.1006 10.4617 104.1667 0.0000 0.0000 0.0000
# 4 0.0000 0.0000 0.0000 50.4054 0.0000 0.0000
# 5 0.0000 0.0000 0.0000 0.0000 27.9322 0.0000
# 6 0.0000 0.0000 0.0000 0.0000 0.0000 20.5100
#
#
#
# Elastic Compliance Matrix: (Units=1/GPa)
#
#
# Indices 1 2 3 4 5 6 
#
# 1 0.043610 -0.005565 0.004369 0.000000 0.000000 0.000000
# 2 -0.005565 0.021909 -0.002687 0.000000 0.000000 0.000000
# 3 0.004369 -0.002687 0.010252 0.000000 0.000000 0.000000
# 4 0.000000 0.000000 0.000000 0.019839 0.000000 0.000000
# 5 0.000000 0.000000 0.000000 0.000000 0.035801 0.000000
# 6 0.000000 0.000000 0.000000 0.000000 0.000000 0.048757
#
#
# Mechanical properties :
#
#
# Convention : Reuss Voigt Hill
#
# Bulk Modulus (GPa) = 14.70481 21.09072 17.89776
# Shear Modulus (GPa) = 23.74153 31.13058 27.43606
#
# Velocity S-wave (km/s) = 3.15822 3.61645 3.39507
# Velocity P-wave (km/s) = 4.41328 5.12825 4.78414
#
# Compressibility (1/GPa) = 0.06800497
#
# Stress axis : x y z
#
# Youngs Moduli (GPa) = 22.93066 45.64254 97.54655
#
# Poissons Ratio (x) = 0.25401 -0.42617
# Poissons Ratio (y) = 0.12761 0.26207
# Poissons Ratio (z) = -0.10018 0.12262
#
# Static dielectric constant tensor:
#      x y z
#    x 1.793870 0.000000 0.000000 
#    y 0.000000 1.996510 0.000000 
#    z 0.000000 0.000000 1.950360 
# 
# From -- ./inp_files/10963.got.cif
#   From: 2010.05.17/outbox.cif.g08.bks.cpg/sg36_6_cif.got.tgz:10963.got - 2010.06.03 17:41:39.
