data_PCOD9351395
_publ_section_title
;
Structure prediction by ZEFSAII (Michael W. Deem and Ramdas Pophale) SiO2 
 PCOD9351395
Probable space group: C M C 21
;
_chemical_formula_sum "Si O2"
_cell_formula_units_Z 64
_cell_length_a 7.546017
_cell_length_b 19.759276
_cell_length_c 16.906932
_cell_angle_alpha 90.000000
_cell_angle_beta 90.000000
_cell_angle_gamma 90.000000
_cell_volume 2520.888359
_symmetry_space_group_name_H-M "C M C 21"
_symmetry_group_IT_number 36
_symmetry_cell_setting 'orthorhombic'
loop_
_space_group_symop_operation_xyz
x,y,z
-x,-y,1/2+z
x,-y,1/2+z
-x,y,z
1/2+x,1/2+y,z
1/2-x,1/2-y,1/2+z
1/2+x,1/2-y,1/2+z
1/2-x,1/2+y,z
loop_
_atom_site_type_symbol
_atom_site_label
_atom_site_fract_x
_atom_site_fract_y
_atom_site_fract_z
Si Si1 0.707717 0.589481 0.706140
Si Si2 0.714092 0.662507 0.547614
Si Si3 0.298201 0.802065 0.796223
Si Si4 0.206679 0.794308 0.628123
Si Si5 0.215817 0.909782 0.522391
Si Si6 0.785255 0.956653 0.945837
Si Si7 0.282168 0.666876 0.862596
Si Si8 0.297123 0.049831 0.270440
O O1 0.500000 0.604712 0.704853
O O2 0.778760 0.621792 0.625643
O O3 0.779020 0.624687 0.785725
O O4 0.721991 0.508478 0.714832
O O5 0.500000 0.662718 0.546337
O O6 0.774463 0.738952 0.559188
O O7 0.771742 0.617902 0.472903
O O8 0.500000 0.814174 0.822175
O O9 0.300685 0.770518 0.707752
O O10 0.220238 0.744420 0.852197
O O11 0.213035 0.875479 0.780676
O O12 0.276850 0.866151 0.596912
O O13 0.000000 0.799609 0.646774
O O14 0.269844 0.869588 0.443196
O O15 0.000000 0.908541 0.525848
O O16 0.268748 0.987126 0.509989
O O17 0.715314 0.976772 0.860463
O O18 0.000000 0.958232 0.941187
O O19 0.500000 0.667714 0.861968
O O20 0.500000 0.058843 0.247105
#
# Coordination Sequence:
#
# PCOD9351395 Si02
#       8
#     8   8   8   8   8   8   8   8
#     4  10  19  37  65  84 107 155 202 238 280 349
#     4  10  22  39  61  86 118 158 196 237 293 357
#     4  10  22  40  60  82 116 158 196 234 292 358
#     4  11  23  37  60  89 119 151 193 248 289 340
#     4   9  19  35  58  86 111 147 196 237 282 339
#     4  10  21  40  62  84 114 156 203 241 281 354
#     4   9  16  34  62  80 100 148 200 234 272 340
#     4  11  24  38  58  89 123 153 190 249 303 343
#
# _framework density 25.387875000000001
#
# number of rings (size 3 to 8) (size 9 to 14) (size 15 to 20)
#    0.000    2.000    2.500    0.750    3.500    2.000 
#    0.000    1.250    0.000    0.000    0.000    0.000 
#    0.000    0.000    0.000    0.000    0.000    0.000 
#
# Total GULP energy -178971.792428 kJ/mol
# GULP energy per Si atom -5592.868513 kJ/mol
# Density = 2.533009 g / cm^3
# Si number density = 25.387875 Si / 1000 Ang^3
#
#
#
# Elastic Constant Matrix: (Units=GPa)
#
#
# Indices 1 2 3 4 5 6 
#
# 1 74.6968 3.3520 7.3780 0.0000 0.0000 0.0000
# 2 3.3520 124.6312 -3.8463 0.0000 0.0000 0.0000
# 3 7.3780 -3.8463 49.9604 0.0000 0.0000 0.0000
# 4 0.0000 0.0000 0.0000 50.5494 0.0000 0.0000
# 5 0.0000 0.0000 0.0000 0.0000 10.2643 0.0000
# 6 0.0000 0.0000 0.0000 0.0000 0.0000 18.0776
#
#
#
# Elastic Compliance Matrix: (Units=1/GPa)
#
#
# Indices 1 2 3 4 5 6 
#
# 1 0.013608 -0.000429 -0.002043 0.000000 0.000000 0.000000
# 2 -0.000429 0.008056 0.000684 0.000000 0.000000 0.000000
# 3 -0.002043 0.000684 0.020370 0.000000 0.000000 0.000000
# 4 0.000000 0.000000 0.000000 0.019783 0.000000 0.000000
# 5 0.000000 0.000000 0.000000 0.000000 0.097426 0.000000
# 6 0.000000 0.000000 0.000000 0.000000 0.000000 0.055317
#
#
# Mechanical properties :
#
#
# Convention : Reuss Voigt Hill
#
# Bulk Modulus (GPa) = 26.00197 29.22842 27.61519
# Shear Modulus (GPa) = 21.64915 31.93857 26.79386
#
# Velocity S-wave (km/s) = 2.92333 3.55071 3.25219
# Velocity P-wave (km/s) = 4.65388 5.32427 5.00032
#
# Compressibility (1/GPa) = 0.03845863
#
# Stress axis : x y z
#
# Youngs Moduli (GPa) = 73.48370 124.12635 49.09150
#
# Poissons Ratio (x) = 0.05326 0.10028
# Poissons Ratio (y) = 0.03153 -0.03356
# Poissons Ratio (z) = 0.15010 -0.08485
#
# Static dielectric constant tensor:
#      x y z
#    x 1.965710 0.000000 0.000000 
#    y 0.000000 2.030260 0.000000 
#    z 0.000000 0.000000 2.005770 
# 
# From -- ./inp_files/13982.got.cif
#   From: 2010.05.17/outbox.cif.g08.bks.cpg/sg36_7_cif.got.tgz:13982.got - 2010.06.03 17:41:39.
