data_PCOD9351744
_publ_section_title
;
Structure prediction by ZEFSAII (Michael W. Deem and Ramdas Pophale) SiO2 
 PCOD9351744
Probable space group: C M C 21
;
_chemical_formula_sum "Si O2"
_cell_formula_units_Z 64
_cell_length_a 9.368493
_cell_length_b 24.922295
_cell_length_c 13.974099
_cell_angle_alpha 90.000000
_cell_angle_beta 90.000000
_cell_angle_gamma 90.000000
_cell_volume 3262.733369
_symmetry_space_group_name_H-M "C M C 21"
_symmetry_group_IT_number 36
_symmetry_cell_setting 'orthorhombic'
loop_
_space_group_symop_operation_xyz
x,y,z
-x,-y,1/2+z
x,-y,1/2+z
-x,y,z
1/2+x,1/2+y,z
1/2-x,1/2-y,1/2+z
1/2+x,1/2-y,1/2+z
1/2-x,1/2+y,z
loop_
_atom_site_type_symbol
_atom_site_label
_atom_site_fract_x
_atom_site_fract_y
_atom_site_fract_z
Si Si1 0.672788 0.839699 0.379110
Si Si2 0.336276 0.869770 0.740370
Si Si3 0.334094 0.961048 0.395155
Si Si4 0.158923 0.520354 0.122590
Si Si5 0.163001 0.080447 0.611163
Si Si6 0.327763 0.783438 0.577595
Si Si7 0.837005 0.931849 0.881718
Si Si8 0.670777 0.814604 0.169125
O O1 0.500000 0.843799 0.385159
O O2 0.722433 0.901728 0.369857
O O3 0.718046 0.811017 0.477473
O O4 0.706845 0.807684 0.282213
O O5 0.500000 0.861526 0.771621
O O6 0.330029 0.924917 0.680260
O O7 0.297273 0.823286 0.666290
O O8 0.235492 0.881494 0.829535
O O9 0.500000 0.965809 0.364871
O O10 0.330838 0.964502 0.510691
O O11 0.248272 0.013093 0.361249
O O12 0.276226 0.476295 0.146547
O O13 0.000000 0.497088 0.137486
O O14 0.165771 0.076837 0.495675
O O15 0.267782 0.127411 0.642489
O O16 0.000000 0.090033 0.641791
O O17 0.500000 0.775602 0.573498
O O18 0.247565 0.728835 0.602580
O O19 0.000000 0.937413 0.850251
O O20 0.500000 0.812430 0.158776
#
# Coordination Sequence:
#
# PCOD9351744 Si02
#       8
#     8   8   8   8   8   8   8   8
#     4   9  19  38  63  86 111 149 194 241 291 351
#     4  10  20  35  59  88 116 154 200 240 287 350
#     4   9  16  33  59  84 111 149 197 241 287 348
#     4   9  17  32  57  86 114 147 191 241 290 344
#     4  10  22  40  57  80 119 161 196 236 293 351
#     4  10  21  42  65  86 116 156 200 244 295 351
#     4  10  22  36  53  84 125 163 195 237 295 350
#     4  11  24  40  61  90 118 151 199 248 296 347
#
# _framework density 19.615455000000001
#
# number of rings (size 3 to 8) (size 9 to 14) (size 15 to 20)
#    0.000    2.250    1.250    1.125    1.750    3.500 
#    0.000    6.250    0.000    0.000    0.000    0.000 
#    0.000    0.000    0.000    0.000    0.000    0.000 
#
# Total GULP energy -178647.958772 kJ/mol
# GULP energy per Si atom -5582.748712 kJ/mol
# Density = 1.957081 g / cm^3
# Si number density = 19.615455 Si / 1000 Ang^3
#
#
#
# Elastic Constant Matrix: (Units=GPa)
#
#
# Indices 1 2 3 4 5 6 
#
# 1 40.9191 14.9571 12.7506 0.0000 0.0000 0.0000
# 2 14.9571 63.4609 11.6304 0.0000 0.0000 0.0000
# 3 12.7506 11.6304 50.9496 0.0000 0.0000 0.0000
# 4 0.0000 0.0000 0.0000 22.3169 0.0000 0.0000
# 5 0.0000 0.0000 0.0000 0.0000 19.4899 0.0000
# 6 0.0000 0.0000 0.0000 0.0000 0.0000 24.0687
#
#
#
# Elastic Compliance Matrix: (Units=1/GPa)
#
#
# Indices 1 2 3 4 5 6 
#
# 1 0.028295 -0.005606 -0.005802 0.000000 0.000000 0.000000
# 2 -0.005606 0.017556 -0.002605 0.000000 0.000000 0.000000
# 3 -0.005802 -0.002605 0.021674 0.000000 0.000000 0.000000
# 4 0.000000 0.000000 0.000000 0.044809 0.000000 0.000000
# 5 0.000000 0.000000 0.000000 0.000000 0.051309 0.000000
# 6 0.000000 0.000000 0.000000 0.000000 0.000000 0.041548
#
#
# Mechanical properties :
#
#
# Convention : Reuss Voigt Hill
#
# Bulk Modulus (GPa) = 25.31556 26.00064 25.65810
# Shear Modulus (GPa) = 20.29372 20.90788 20.60080
#
# Velocity S-wave (km/s) = 3.21997 3.26834 3.24425
# Velocity P-wave (km/s) = 5.17284 5.24658 5.20984
#
# Compressibility (1/GPa) = 0.03950140
#
# Stress axis : x y z
#
# Youngs Moduli (GPa) = 35.34154 56.95957 46.13885
#
# Poissons Ratio (x) = 0.31930 0.26768
# Poissons Ratio (y) = 0.19811 0.12018
# Poissons Ratio (z) = 0.20503 0.14837
#
# Static dielectric constant tensor:
#      x y z
#    x 1.672650 0.000000 0.000000 
#    y 0.000000 1.658390 0.000000 
#    z 0.000000 0.000000 1.718940 
# 
# From -- ./inp_files/10943.got.cif
#   From: 2010.05.17/outbox.cif.g08.bks.cpg/sg36_6_cif.got.tgz:10943.got - 2010.06.03 17:41:39.
