data_PCOD9351920
_publ_section_title
;
Structure prediction by ZEFSAII (Michael W. Deem and Ramdas Pophale) SiO2 
 PCOD9351920
Probable space group: C M C 21
;
_chemical_formula_sum "Si O2"
_cell_formula_units_Z 64
_cell_length_a 8.880309
_cell_length_b 29.512532
_cell_length_c 12.477936
_cell_angle_alpha 90.000000
_cell_angle_beta 90.000000
_cell_angle_gamma 90.000000
_cell_volume 3270.222502
_symmetry_space_group_name_H-M "C M C 21"
_symmetry_group_IT_number 36
_symmetry_cell_setting 'orthorhombic'
loop_
_space_group_symop_operation_xyz
x,y,z
-x,-y,1/2+z
x,-y,1/2+z
-x,y,z
1/2+x,1/2+y,z
1/2-x,1/2-y,1/2+z
1/2+x,1/2-y,1/2+z
1/2-x,1/2+y,z
loop_
_atom_site_type_symbol
_atom_site_label
_atom_site_fract_x
_atom_site_fract_y
_atom_site_fract_z
Si Si1 0.322622 0.838191 0.063150
Si Si2 0.829474 0.079585 0.456648
Si Si3 0.180762 0.323363 0.445640
Si Si4 0.819234 0.883959 0.271484
Si Si5 0.672852 0.477613 0.171270
Si Si6 0.322829 0.063293 0.243540
Si Si7 0.179748 0.222864 0.389080
Si Si8 0.680342 0.832469 0.691452
O O1 0.500000 0.831810 0.076931
O O2 0.248127 0.853029 0.175375
O O3 0.285343 0.880281 0.984494
O O4 0.249117 0.796695 0.999343
O O5 0.828713 0.045495 0.555229
O O6 0.774664 0.056209 0.349853
O O7 0.000000 0.098019 0.446230
O O8 0.260791 0.363880 0.382661
O O9 0.215471 0.276205 0.385883
O O10 0.224345 0.319173 0.570492
O O11 0.000000 0.330447 0.442520
O O12 0.775101 0.936334 0.248688
O O13 0.000000 0.882225 0.264237
O O14 0.500000 0.489590 0.199078
O O15 0.775097 0.521761 0.169517
O O16 0.500000 0.061632 0.265890
O O17 0.287473 0.113900 0.203250
O O18 0.242337 0.195912 0.286233
O O19 0.000000 0.217757 0.393225
O O20 0.500000 0.826232 0.702437
#
# Coordination Sequence:
#
# PCOD9351920 Si02
#       8
#     8   8   8   8   8   8   8   8
#     4  11  21  36  61  89 119 156 201 257 311 363
#     4  10  20  37  59  85 118 157 202 256 309 363
#     4  10  24  43  62  90 128 167 206 255 315 373
#     4  10  22  41  63  89 122 163 210 257 314 371
#     4   9  21  39  59  86 120 161 207 254 308 367
#     4  11  22  36  60  91 121 161 206 252 313 372
#     4  11  23  39  62  92 121 160 208 253 309 373
#     4  10  23  43  62  88 127 165 204 258 315 370
#
# _framework density 19.570533999999999
#
# number of rings (size 3 to 8) (size 9 to 14) (size 15 to 20)
#    0.000    1.750    1.250    3.375    1.750    6.000 
#    0.000    2.500    0.000    0.000    0.000    0.000 
#    0.000    0.000    0.000    0.000    0.000    0.000 
#
# Total GULP energy -178688.904320 kJ/mol
# GULP energy per Si atom -5584.028260 kJ/mol
# Density = 1.952599 g / cm^3
# Si number density = 19.570534 Si / 1000 Ang^3
#
#
#
# Elastic Constant Matrix: (Units=GPa)
#
#
# Indices 1 2 3 4 5 6 
#
# 1 59.2444 41.5400 27.4046 0.0000 0.0000 0.0000
# 2 41.5400 90.6679 30.7338 0.0000 0.0000 0.0000
# 3 27.4046 30.7338 58.7485 0.0000 0.0000 0.0000
# 4 0.0000 0.0000 0.0000 15.1437 0.0000 0.0000
# 5 0.0000 0.0000 0.0000 0.0000 30.1792 0.0000
# 6 0.0000 0.0000 0.0000 0.0000 0.0000 23.7123
#
#
#
# Elastic Compliance Matrix: (Units=1/GPa)
#
#
# Indices 1 2 3 4 5 6 
#
# 1 0.027368 -0.009981 -0.007545 0.000000 0.000000 0.000000
# 2 -0.009981 0.017047 -0.004262 0.000000 0.000000 0.000000
# 3 -0.007545 -0.004262 0.022771 0.000000 0.000000 0.000000
# 4 0.000000 0.000000 0.000000 0.066034 0.000000 0.000000
# 5 0.000000 0.000000 0.000000 0.000000 0.033135 0.000000
# 6 0.000000 0.000000 0.000000 0.000000 0.000000 0.042172
#
#
# Mechanical properties :
#
#
# Convention : Reuss Voigt Hill
#
# Bulk Modulus (GPa) = 42.35581 45.33531 43.84556
# Shear Modulus (GPa) = 19.23281 21.07254 20.15268
#
# Velocity S-wave (km/s) = 3.13827 3.28494 3.21245
# Velocity P-wave (km/s) = 5.90096 6.13214 6.01766
#
# Compressibility (1/GPa) = 0.02360951
#
# Stress axis : x y z
#
# Youngs Moduli (GPa) = 36.53955 58.66165 43.91600
#
# Poissons Ratio (x) = 0.58551 0.33133
# Poissons Ratio (y) = 0.36471 0.18717
# Poissons Ratio (z) = 0.27568 0.25002
#
# Static dielectric constant tensor:
#      x y z
#    x 1.661170 0.000000 0.000000 
#    y 0.000000 1.691780 0.000000 
#    z 0.000000 0.000000 1.687960 
# 
# From -- ./inp_files/7125.got.cif
#   From: 2010.05.17/outbox.cif.g08.bks.cpg/sg36_4_cif.got.tgz:7125.got - 2010.06.03 17:41:39.
