data_PCOD9351113
_publ_section_title
;
Structure prediction by ZEFSAII (Michael W. Deem and Ramdas Pophale) SiO2 
 PCOD9351113
Probable space group: C M C 21
;
_chemical_formula_sum "Si O2"
_cell_formula_units_Z 64
_cell_length_a 9.484854
_cell_length_b 14.776021
_cell_length_c 22.267581
_cell_angle_alpha 90.000000
_cell_angle_beta 90.000000
_cell_angle_gamma 90.000000
_cell_volume 3120.765891
_symmetry_space_group_name_H-M "C M C 21"
_symmetry_group_IT_number 36
_symmetry_cell_setting 'orthorhombic'
loop_
_space_group_symop_operation_xyz
x,y,z
-x,-y,1/2+z
x,-y,1/2+z
-x,y,z
1/2+x,1/2+y,z
1/2-x,1/2-y,1/2+z
1/2+x,1/2-y,1/2+z
1/2-x,1/2+y,z
loop_
_atom_site_type_symbol
_atom_site_label
_atom_site_fract_x
_atom_site_fract_y
_atom_site_fract_z
Si Si1 0.831537 0.873333 0.071140
Si Si2 0.839695 0.754618 0.730918
Si Si3 0.663285 0.007151 0.812962
Si Si4 0.336588 0.650784 0.359761
Si Si5 0.166716 0.921231 0.207203
Si Si6 0.163978 0.658984 0.908205
Si Si7 0.332836 0.456516 0.503889
Si Si8 0.162687 0.195049 0.098336
O O1 0.804698 0.921070 0.135918
O O2 0.757949 0.776433 0.073697
O O3 0.000000 0.861611 0.066411
O O4 0.785132 0.941493 0.018559
O O5 0.832873 0.810942 0.791590
O O6 0.721386 0.677928 0.727133
O O7 0.821740 0.812212 0.670057
O O8 0.000000 0.714406 0.727978
O O9 0.500000 0.983574 0.804170
O O10 0.746415 0.012377 0.750265
O O11 0.669855 0.105292 0.845016
O O12 0.738077 0.936180 0.857554
O O13 0.500000 0.628095 0.374016
O O14 0.291845 0.736732 0.399897
O O15 0.000000 0.933385 0.216734
O O16 0.254410 0.600032 0.953429
O O17 0.000000 0.659653 0.926762
O O18 0.500000 0.459285 0.491253
O O19 0.311075 0.397657 0.564143
O O20 0.000000 0.220325 0.086823
#
# Coordination Sequence:
#
# PCOD9351113 Si02
#       8
#     8   8   8   8   8   8   8   8
#     4   9  20  37  57  84 118 151 188 235 283 337
#     4   9  17  34  59  83 118 155 184 229 289 345
#     4  11  23  39  58  85 117 151 193 241 290 342
#     4  10  21  38  60  85 113 152 192 232 289 347
#     4  10  19  33  58  87 119 153 189 234 288 344
#     4  10  23  43  60  79 115 155 192 237 287 338
#     4  10  22  39  60  84 112 152 196 234 278 338
#     4   9  19  35  58  85 114 149 188 230 282 339
#
# _framework density 20.507788000000001
#
# number of rings (size 3 to 8) (size 9 to 14) (size 15 to 20)
#    0.000    2.250    1.250    0.750    1.750    4.500 
#    0.000    5.000    0.000    0.000    0.000    0.000 
#    0.000    0.000    0.000    0.000    0.000    0.000 
#
# Total GULP energy -178662.720453 kJ/mol
# GULP energy per Si atom -5583.210014 kJ/mol
# Density = 2.046111 g / cm^3
# Si number density = 20.507788 Si / 1000 Ang^3
#
#
#
# Elastic Constant Matrix: (Units=GPa)
#
#
# Indices 1 2 3 4 5 6 
#
# 1 45.1181 21.1796 3.9007 0.0000 0.0000 0.0000
# 2 21.1796 62.3908 -6.7705 0.0000 0.0000 0.0000
# 3 3.9007 -6.7705 20.6978 0.0000 0.0000 0.0000
# 4 0.0000 0.0000 0.0000 24.2595 0.0000 0.0000
# 5 0.0000 0.0000 0.0000 0.0000 29.2755 0.0000
# 6 0.0000 0.0000 0.0000 0.0000 0.0000 28.6570
#
#
#
# Elastic Compliance Matrix: (Units=1/GPa)
#
#
# Indices 1 2 3 4 5 6 
#
# 1 0.027775 -0.010365 -0.008625 0.000000 0.000000 0.000000
# 2 -0.010365 0.020486 0.008654 0.000000 0.000000 0.000000
# 3 -0.008625 0.008654 0.052771 0.000000 0.000000 0.000000
# 4 0.000000 0.000000 0.000000 0.041221 0.000000 0.000000
# 5 0.000000 0.000000 0.000000 0.000000 0.034158 0.000000
# 6 0.000000 0.000000 0.000000 0.000000 0.000000 0.034896
#
#
# Mechanical properties :
#
#
# Convention : Reuss Voigt Hill
#
# Bulk Modulus (GPa) = 12.44381 18.31402 15.37892
# Shear Modulus (GPa) = 19.32265 23.76485 21.54375
#
# Velocity S-wave (km/s) = 3.07287 3.40784 3.24468
# Velocity P-wave (km/s) = 4.32101 4.94309 4.64248
#
# Compressibility (1/GPa) = 0.08036121
#
# Stress axis : x y z
#
# Youngs Moduli (GPa) = 36.00340 48.81474 18.94990
#
# Poissons Ratio (x) = 0.50595 0.16344
# Poissons Ratio (y) = 0.37316 -0.16400
# Poissons Ratio (z) = 0.31053 -0.42246
#
# Static dielectric constant tensor:
#      x y z
#    x 1.689410 0.000000 0.000000 
#    y 0.000000 1.739260 0.000000 
#    z 0.000000 0.000000 1.778840 
# 
# From -- ./inp_files/16568.got.cif
#   From: 2010.05.17/outbox.cif.g08.bks.cpg/sg36_9_cif.got.tgz:16568.got - 2010.06.03 17:41:39.
