data_PCOD9351904
_publ_section_title
;
Structure prediction by ZEFSAII (Michael W. Deem and Ramdas Pophale) SiO2 
 PCOD9351904
Probable space group: C M C 21
;
_chemical_formula_sum "Si O2"
_cell_formula_units_Z 64
_cell_length_a 7.829922
_cell_length_b 14.536983
_cell_length_c 25.572783
_cell_angle_alpha 90.000000
_cell_angle_beta 90.000000
_cell_angle_gamma 90.000000
_cell_volume 2910.782208
_symmetry_space_group_name_H-M "C M C 21"
_symmetry_group_IT_number 36
_symmetry_cell_setting 'orthorhombic'
loop_
_space_group_symop_operation_xyz
x,y,z
-x,-y,1/2+z
x,-y,1/2+z
-x,y,z
1/2+x,1/2+y,z
1/2-x,1/2-y,1/2+z
1/2+x,1/2-y,1/2+z
1/2-x,1/2+y,z
loop_
_atom_site_type_symbol
_atom_site_label
_atom_site_fract_x
_atom_site_fract_y
_atom_site_fract_z
Si Si1 0.708584 0.366057 0.036260
Si Si2 0.197986 0.076520 0.013634
Si Si3 0.705907 0.446256 0.260278
Si Si4 0.203779 0.787221 0.328030
Si Si5 0.695084 0.235293 0.945802
Si Si6 0.702329 0.154527 0.238054
Si Si7 0.792896 0.909577 0.147152
Si Si8 0.699394 0.879484 0.625761
O O1 0.500000 0.359808 0.036459
O O2 0.754824 0.471497 0.022439
O O3 0.760828 0.349876 0.096857
O O4 0.775244 0.299827 0.990832
O O5 0.217194 0.128944 0.069117
O O6 0.000000 0.073906 0.998976
O O7 0.294060 0.133171 0.969556
O O8 0.500000 0.456356 0.261598
O O9 0.765268 0.388082 0.310051
O O10 0.778150 0.547980 0.254225
O O11 0.747908 0.388465 0.207299
O O12 0.233997 0.762052 0.387706
O O13 0.273319 0.715638 0.285107
O O14 0.000000 0.788631 0.321263
O O15 0.500000 0.264391 0.940840
O O16 0.500000 0.173797 0.232886
O O17 0.771371 0.166030 0.178769
O O18 0.000000 0.917063 0.144446
O O19 0.717290 0.011326 0.137839
O O20 0.500000 0.854490 0.619803
#
# Coordination Sequence:
#
# PCOD9351904 Si02
#       8
#     8   8   8   8   8   8   8   8
#     4   8  17  34  56  78 104 136 171 211 262 318
#     4  10  20  37  58  80 108 142 174 213 265 324
#     4   9  18  33  56  80 104 136 175 214 260 317
#     4  10  22  39  54  74 105 144 184 220 261 316
#     4  11  23  38  55  78 104 137 183 231 268 307
#     4   9  19  35  56  80 109 141 175 218 268 313
#     4   8  14  29  53  79 104 135 173 213 258 317
#     4   9  16  29  52  83 112 137 169 214 264 318
#
# _framework density 21.987217999999999
#
# number of rings (size 3 to 8) (size 9 to 14) (size 15 to 20)
#    0.000    2.750    0.000    1.875    0.000    3.500 
#    0.000   13.750    0.000    4.500    0.000    0.000 
#    0.000    0.000    0.000    0.000    0.000    0.000 
#
# Total GULP energy -178477.271604 kJ/mol
# GULP energy per Si atom -5577.414738 kJ/mol
# Density = 2.193717 g / cm^3
# Si number density = 21.987218 Si / 1000 Ang^3
#
#
#
# Elastic Constant Matrix: (Units=GPa)
#
#
# Indices 1 2 3 4 5 6 
#
# 1 21.4516 -5.2629 5.5198 0.0000 0.0000 0.0000
# 2 -5.2629 47.8038 34.0107 0.0000 0.0000 0.0000
# 3 5.5198 34.0107 121.7890 0.0000 0.0000 0.0000
# 4 0.0000 0.0000 0.0000 29.4384 0.0000 0.0000
# 5 0.0000 0.0000 0.0000 0.0000 26.6542 0.0000
# 6 0.0000 0.0000 0.0000 0.0000 0.0000 8.0593
#
#
#
# Elastic Compliance Matrix: (Units=1/GPa)
#
#
# Indices 1 2 3 4 5 6 
#
# 1 0.050018 0.008885 -0.004748 0.000000 0.000000 0.000000
# 2 0.008885 0.027684 -0.008134 0.000000 0.000000 0.000000
# 3 -0.004748 -0.008134 0.010698 0.000000 0.000000 0.000000
# 4 0.000000 0.000000 0.000000 0.033969 0.000000 0.000000
# 5 0.000000 0.000000 0.000000 0.000000 0.037517 0.000000
# 6 0.000000 0.000000 0.000000 0.000000 0.000000 0.124080
#
#
# Mechanical properties :
#
#
# Convention : Reuss Voigt Hill
#
# Bulk Modulus (GPa) = 12.43696 28.84217 20.63957
# Shear Modulus (GPa) = 15.68572 23.28219 19.48395
#
# Velocity S-wave (km/s) = 2.67386 3.25760 2.98006
# Velocity P-wave (km/s) = 3.89890 5.22450 4.60960
#
# Compressibility (1/GPa) = 0.08040547
#
# Stress axis : x y z
#
# Youngs Moduli (GPa) = 19.99279 36.12220 93.47977
#
# Poissons Ratio (x) = -0.32094 0.44385
# Poissons Ratio (y) = -0.17763 0.76033
# Poissons Ratio (z) = 0.09493 0.29380
#
# Static dielectric constant tensor:
#      x y z
#    x 1.808640 0.000000 0.000000 
#    y 0.000000 1.835890 0.000000 
#    z 0.000000 0.000000 1.821150 
# 
# From -- ./inp_files/16574.got.cif
#   From: 2010.05.17/outbox.cif.g08.bks.cpg/sg36_9_cif.got.tgz:16574.got - 2010.06.03 17:41:39.
