data_PCOD9351333
_publ_section_title
;
Structure prediction by ZEFSAII (Michael W. Deem and Ramdas Pophale) SiO2 
 PCOD9351333
Probable space group: C M C 21
;
_chemical_formula_sum "Si O2"
_cell_formula_units_Z 64
_cell_length_a 7.531018
_cell_length_b 31.815011
_cell_length_c 12.153795
_cell_angle_alpha 90.000000
_cell_angle_beta 90.000000
_cell_angle_gamma 90.000000
_cell_volume 2912.042239
_symmetry_space_group_name_H-M "C M C 21"
_symmetry_group_IT_number 36
_symmetry_cell_setting 'orthorhombic'
loop_
_space_group_symop_operation_xyz
x,y,z
-x,-y,1/2+z
x,-y,1/2+z
-x,y,z
1/2+x,1/2+y,z
1/2-x,1/2-y,1/2+z
1/2+x,1/2-y,1/2+z
1/2-x,1/2+y,z
loop_
_atom_site_type_symbol
_atom_site_label
_atom_site_fract_x
_atom_site_fract_y
_atom_site_fract_z
Si Si1 0.791512 0.873340 0.307650
Si Si2 0.784946 0.553766 0.977060
Si Si3 0.782029 0.196267 0.980963
Si Si4 0.285615 0.082807 0.215572
Si Si5 0.794158 0.375636 0.054552
Si Si6 0.216405 0.459617 0.934400
Si Si7 0.298260 0.209729 0.452061
Si Si8 0.795787 0.823347 0.725978
O O1 0.768633 0.916110 0.377103
O O2 0.722005 0.835472 0.385255
O O3 0.710825 0.875821 0.186411
O O4 0.000000 0.866096 0.290418
O O5 0.722366 0.505762 0.968365
O O6 0.000000 0.553413 0.978451
O O7 0.722929 0.572773 0.093087
O O8 0.719708 0.244196 0.969442
O O9 0.000000 0.195209 0.977166
O O10 0.726934 0.181062 0.102018
O O11 0.500000 0.085284 0.213549
O O12 0.237014 0.048996 0.307506
O O13 0.215895 0.127644 0.253868
O O14 0.000000 0.374925 0.016716
O O15 0.721090 0.419451 0.005675
O O16 0.715483 0.331766 0.008438
O O17 0.000000 0.460467 0.942792
O O18 0.500000 0.212633 0.495530
O O19 0.300563 0.201487 0.321809
O O20 0.000000 0.809329 0.726837
#
# Coordination Sequence:
#
# PCOD9351333 Si02
#       8
#     8   8   8   8   8   8   8   8
#     4  11  23  40  57  80 120 157 185 228 289 346
#     4  10  21  36  61  88 111 146 195 240 279 333
#     4   9  21  39  58  81 115 154 185 229 288 337
#     4  10  19  36  60  85 112 148 192 236 282 335
#     4  10  21  38  61  84 112 149 191 239 284 332
#     4   9  19  36  59  87 114 144 187 242 288 322
#     4  10  21  40  62  84 112 150 194 238 283 331
#     4  11  21  37  60  85 116 150 187 234 287 340
#
# _framework density 21.977703999999999
#
# number of rings (size 3 to 8) (size 9 to 14) (size 15 to 20)
#    0.000    2.000    2.500    0.750    3.500    0.500 
#    0.000    3.125    0.000    0.000    0.000    0.000 
#    0.000    0.000    0.000    0.000    0.000    0.000 
#
# Total GULP energy -178727.999600 kJ/mol
# GULP energy per Si atom -5585.249988 kJ/mol
# Density = 2.192768 g / cm^3
# Si number density = 21.977704 Si / 1000 Ang^3
#
#
#
# Elastic Constant Matrix: (Units=GPa)
#
#
# Indices 1 2 3 4 5 6 
#
# 1 55.2234 -4.4288 -8.1163 0.0000 0.0000 0.0000
# 2 -4.4288 145.7477 35.4696 0.0000 0.0000 0.0000
# 3 -8.1163 35.4696 103.2535 0.0000 0.0000 0.0000
# 4 0.0000 0.0000 0.0000 33.8977 0.0000 0.0000
# 5 0.0000 0.0000 0.0000 0.0000 -92.2781 0.0000
# 6 0.0000 0.0000 0.0000 0.0000 0.0000 -52.9851
#
#
#
# Elastic Compliance Matrix: (Units=1/GPa)
#
#
# Indices 1 2 3 4 5 6 
#
# 1 0.018327 0.000225 0.001363 0.000000 0.000000 0.000000
# 2 0.000225 0.007490 -0.002555 0.000000 0.000000 0.000000
# 3 0.001363 -0.002555 0.010670 0.000000 0.000000 0.000000
# 4 0.000000 0.000000 0.000000 0.029501 0.000000 0.000000
# 5 0.000000 0.000000 0.000000 0.000000 -0.010837 0.000000
# 6 0.000000 0.000000 0.000000 0.000000 0.000000 -0.018873
#
#
# Mechanical properties :
#
#
# Convention : Reuss Voigt Hill
#
# Bulk Modulus (GPa) = 28.94134 38.89707 33.91920
# Shear Modulus (GPa) = 100.54681 -3.51976 48.51353
#
# Velocity S-wave (km/s) = 6.77117 -1.26688 4.70339
# Velocity P-wave (km/s) = 8.62141 3.94929 6.70543
#
# Compressibility (1/GPa) = 0.03455265
#
# Stress axis : x y z
#
# Youngs Moduli (GPa) = 54.56529 133.51387 93.72226
#
# Poissons Ratio (x) = -0.03006 -0.12777
# Poissons Ratio (y) = -0.01228 0.23948
# Poissons Ratio (z) = -0.07439 0.34116
#
# Static dielectric constant tensor:
#      x y z
#    x 1.895470 0.000000 0.000000 
#    y 0.000000 1.781430 0.000000 
#    z 0.000000 0.000000 1.753580 
# 
# From -- ./inp_files/7098.got.cif
#   From: 2010.05.17/outbox.cif.g08.bks.cpg/sg36_4_cif.got.tgz:7098.got - 2010.06.03 17:41:39.
