data_PCOD9351224
_publ_section_title
;
Structure prediction by ZEFSAII (Michael W. Deem and Ramdas Pophale) SiO2 
 PCOD9351224
Probable space group: C M C 21
;
_chemical_formula_sum "Si O2"
_cell_formula_units_Z 64
_cell_length_a 8.526138
_cell_length_b 15.105647
_cell_length_c 23.723941
_cell_angle_alpha 90.000000
_cell_angle_beta 90.000000
_cell_angle_gamma 90.000000
_cell_volume 3055.473522
_symmetry_space_group_name_H-M "C M C 21"
_symmetry_group_IT_number 36
_symmetry_cell_setting 'orthorhombic'
loop_
_space_group_symop_operation_xyz
x,y,z
-x,-y,1/2+z
x,-y,1/2+z
-x,y,z
1/2+x,1/2+y,z
1/2-x,1/2-y,1/2+z
1/2+x,1/2-y,1/2+z
1/2-x,1/2+y,z
loop_
_atom_site_type_symbol
_atom_site_label
_atom_site_fract_x
_atom_site_fract_y
_atom_site_fract_z
Si Si1 0.682949 0.139968 0.819040
Si Si2 0.316334 0.489419 0.746552
Si Si3 0.309231 0.430584 0.436613
Si Si4 0.811676 0.933726 0.132485
Si Si5 0.312386 0.593686 0.506405
Si Si6 0.313996 0.260072 0.654304
Si Si7 0.181614 0.312134 0.774677
Si Si8 0.811557 0.211881 0.030021
O O1 0.733975 0.102184 0.879112
O O2 0.721789 0.243419 0.812384
O O3 0.000000 0.071136 0.931397
O O4 0.780107 0.084980 0.772692
O O5 0.500000 0.469576 0.750851
O O6 0.273565 0.494626 0.680284
O O7 0.224757 0.414787 0.780739
O O8 0.500000 0.603895 0.502502
O O9 0.261463 0.528718 0.456572
O O10 0.262556 0.362903 0.486288
O O11 0.781125 0.953313 0.067015
O O12 0.718195 0.844429 0.146612
O O13 0.000000 0.916677 0.137765
O O14 0.239848 0.690986 0.509226
O O15 0.000000 0.374339 0.308620
O O16 0.500000 0.276544 0.661747
O O17 0.225488 0.291114 0.709803
O O18 0.258319 0.300814 0.594722
O O19 0.000000 0.296671 0.785242
O O20 0.000000 0.210583 0.032419
#
# Coordination Sequence:
#
# PCOD9351224 Si02
#       8
#     8   8   8   8   8   8   8   8
#     4  12  26  45  65  89 124 164 212 263 311 366
#     4  11  23  40  65  94 125 162 206 254 311 372
#     4  10  22  41  64  87 119 166 209 249 304 367
#     4   9  18  34  60  90 125 162 199 246 306 368
#     4   9  19  36  60  89 122 159 200 246 301 365
#     4  10  19  34  60  91 127 163 202 252 309 367
#     4  12  25  41  62  91 125 165 210 257 311 370
#     4   9  20  37  60  89 123 161 202 251 305 361
#
# _framework density 20.946017000000001
#
# number of rings (size 3 to 8) (size 9 to 14) (size 15 to 20)
#    0.000    1.750    1.250    3.000    1.750    3.000 
#    0.000    2.500    0.000    0.000    0.000    0.000 
#    0.000    0.000    0.000    0.000    0.000    0.000 
#
# Total GULP energy -178822.750389 kJ/mol
# GULP energy per Si atom -5588.210950 kJ/mol
# Density = 2.089834 g / cm^3
# Si number density = 20.946017 Si / 1000 Ang^3
#
#
#
# Elastic Constant Matrix: (Units=GPa)
#
#
# Indices 1 2 3 4 5 6 
#
# 1 18.6730 -3.4308 3.7836 0.0000 0.0000 0.0000
# 2 -3.4308 38.0036 -13.5255 0.0000 0.0000 0.0000
# 3 3.7836 -13.5255 30.8529 0.0000 0.0000 0.0000
# 4 0.0000 0.0000 0.0000 25.0655 0.0000 0.0000
# 5 0.0000 0.0000 0.0000 0.0000 26.1161 0.0000
# 6 0.0000 0.0000 0.0000 0.0000 0.0000 27.2892
#
#
#
# Elastic Compliance Matrix: (Units=1/GPa)
#
#
# Indices 1 2 3 4 5 6 
#
# 1 0.055215 0.003051 -0.005434 0.000000 0.000000 0.000000
# 2 0.003051 0.031346 0.013368 0.000000 0.000000 0.000000
# 3 -0.005434 0.013368 0.038938 0.000000 0.000000 0.000000
# 4 0.000000 0.000000 0.000000 0.039895 0.000000 0.000000
# 5 0.000000 0.000000 0.000000 0.000000 0.038291 0.000000
# 6 0.000000 0.000000 0.000000 0.000000 0.000000 0.036645
#
#
# Mechanical properties :
#
#
# Convention : Reuss Voigt Hill
#
# Bulk Modulus (GPa) = 6.78111 6.79823 6.78967
# Shear Modulus (GPa) = 18.69042 22.40765 20.54904
#
# Velocity S-wave (km/s) = 2.99040 3.27430 3.13557
# Velocity P-wave (km/s) = 3.89459 4.18896 4.04445
#
# Compressibility (1/GPa) = 0.14746853
#
# Stress axis : x y z
#
# Youngs Moduli (GPa) = 18.11114 31.90181 25.68157
#
# Poissons Ratio (x) = -0.09732 0.13955
# Poissons Ratio (y) = -0.05525 -0.34330
# Poissons Ratio (z) = 0.09841 -0.42645
#
# Static dielectric constant tensor:
#      x y z
#    x 1.708340 0.000000 0.000000 
#    y 0.000000 1.754730 0.000000 
#    z 0.000000 0.000000 1.759160 
# 
# From -- ./inp_files/16543.got.cif
#   From: 2010.05.17/outbox.cif.g08.bks.cpg/sg36_9_cif.got.tgz:16543.got - 2010.06.03 17:41:39.
