data_PCOD9351761
_publ_section_title
;
Structure prediction by ZEFSAII (Michael W. Deem and Ramdas Pophale) SiO2 
 PCOD9351761
Probable space group: C M C 21
;
_chemical_formula_sum "Si O2"
_cell_formula_units_Z 52
_cell_length_a 7.550897
_cell_length_b 24.259047
_cell_length_c 14.712642
_cell_angle_alpha 90.000000
_cell_angle_beta 90.000000
_cell_angle_gamma 90.000000
_cell_volume 2695.025939
_symmetry_space_group_name_H-M "C M C 21"
_symmetry_group_IT_number 36
_symmetry_cell_setting 'orthorhombic'
loop_
_space_group_symop_operation_xyz
x,y,z
-x,-y,1/2+z
x,-y,1/2+z
-x,y,z
1/2+x,1/2+y,z
1/2-x,1/2-y,1/2+z
1/2+x,1/2-y,1/2+z
1/2-x,1/2+y,z
loop_
_atom_site_type_symbol
_atom_site_label
_atom_site_fract_x
_atom_site_fract_y
_atom_site_fract_z
Si Si1 0.793395 0.913190 0.405430
Si Si2 0.786503 0.641661 0.096224
Si Si3 0.284640 0.306002 0.292154
Si Si4 0.000000 0.495504 0.855722
Si Si5 0.785815 0.230326 0.594717
Si Si6 0.206451 0.696013 0.394798
Si Si7 0.194992 0.088829 0.289183
O O1 0.782692 0.888795 0.507056
O O2 0.734377 0.863080 0.338936
O O3 0.656769 0.962506 0.393145
O O4 0.000000 0.926752 0.386119
O O5 0.729450 0.705705 0.095890
O O6 0.725585 0.612236 0.187983
O O7 0.000000 0.641056 0.094115
O O8 0.500000 0.304934 0.294068
O O9 0.227923 0.298589 0.188017
O O10 0.224735 0.252674 0.349652
O O11 0.153876 0.453312 0.816757
O O12 0.721928 0.201848 0.502822
O O13 0.000000 0.229590 0.593159
O O14 0.296334 0.641981 0.355190
O O15 0.000000 0.691177 0.368866
O O16 0.000000 0.063592 0.294604
#
# Coordination Sequence:
#
# PCOD9351761 Si02
#       7
#     8   8   8   4   8   8   8
#     4  11  23  43  70  99 136 183 233 282 343 411
#     4  11  20  39  67 103 139 174 231 288 333 411
#     4   9  19  37  62  93 137 175 216 279 345 405
#     4  12  26  48  66  94 136 182 240 290 336 396
#     4  10  20  35  61  98 140 182 221 276 350 417
#     4  11  20  38  61  97 141 174 214 285 347 405
#     4  12  25  44  71  99 135 184 236 283 342 412
#
# _framework density 19.294806000000001
#
# number of rings (size 3 to 8) (size 9 to 14) (size 15 to 20)
#    0.000    1.231    5.385    1.385    0.000    0.615 
#    2.769    3.077    0.000    1.846    0.000    0.000 
#    0.000    0.000    0.000    0.000    0.000    0.000 
#
# Total GULP energy -144793.310841 kJ/mol
# GULP energy per Si atom -5568.973494 kJ/mol
# Density = 1.925089 g / cm^3
# Si number density = 19.294806 Si / 1000 Ang^3
#
#
#
# Elastic Constant Matrix: (Units=GPa)
#
#
# Indices 1 2 3 4 5 6 
#
# 1 113.2914 3.3821 -19.7995 0.0000 0.0000 0.0000
# 2 3.3821 0.8942 -24.2831 0.0000 0.0000 0.0000
# 3 -19.7995 -24.2831 36.5021 0.0000 0.0000 0.0000
# 4 0.0000 0.0000 0.0000 4.6878 0.0000 0.0000
# 5 0.0000 0.0000 0.0000 0.0000 43.6267 0.0000
# 6 0.0000 0.0000 0.0000 0.0000 0.0000 33.6305
#
#
#
# Elastic Compliance Matrix: (Units=1/GPa)
#
#
# Indices 1 2 3 4 5 6 
#
# 1 0.009188 -0.005894 0.001063 0.000000 0.000000 0.000000
# 2 -0.005894 -0.061748 -0.044276 0.000000 0.000000 0.000000
# 3 0.001063 -0.044276 -0.001482 0.000000 0.000000 0.000000
# 4 0.000000 0.000000 0.000000 0.213319 0.000000 0.000000
# 5 0.000000 0.000000 0.000000 0.000000 0.022922 0.000000
# 6 0.000000 0.000000 0.000000 0.000000 0.000000 0.029735
#
#
# Mechanical properties :
#
#
# Convention : Reuss Voigt Hill
#
# Bulk Modulus (GPa) = -6.56784 7.69852 0.56534
# Shear Modulus (GPa) = 19.27554 29.14822 24.21188
#
# Velocity S-wave (km/s) = 3.16413 3.89096 3.54621
# Velocity P-wave (km/s) = 3.15240 4.91779 4.13051
#
# Compressibility (1/GPa) = -0.15225699
#
# Stress axis : x y z
#
# Youngs Moduli (GPa) = 108.83185 -16.19474 -674.62124
#
# Poissons Ratio (x) = -0.09546 0.71691
# Poissons Ratio (y) = 0.64151 -29.86923
# Poissons Ratio (z) = -0.11565 -0.71703
#
# Static dielectric constant tensor:
#      x y z
#    x 1.706070 0.000000 0.000000 
#    y 0.000000 1.634670 0.000000 
#    z 0.000000 0.000000 1.678570 
# 
# From -- ./inp_files/10526.got.cif
#   From: 2010.05.17/outbox.cif.g08.bks.cpg/sg36_6_cif.got.tgz:10526.got - 2010.06.03 17:41:39.
