data_PCOD9351602
_publ_section_title
;
Structure prediction by ZEFSAII (Michael W. Deem and Ramdas Pophale) SiO2 
 PCOD9351602
Probable space group: C M C 21
;
_chemical_formula_sum "Si O2"
_cell_formula_units_Z 64
_cell_length_a 7.580728
_cell_length_b 15.247581
_cell_length_c 24.128840
_cell_angle_alpha 90.000000
_cell_angle_beta 90.000000
_cell_angle_gamma 90.000000
_cell_volume 2788.998669
_symmetry_space_group_name_H-M "C M C 21"
_symmetry_group_IT_number 36
_symmetry_cell_setting 'orthorhombic'
loop_
_space_group_symop_operation_xyz
x,y,z
-x,-y,1/2+z
x,-y,1/2+z
-x,y,z
1/2+x,1/2+y,z
1/2-x,1/2-y,1/2+z
1/2+x,1/2-y,1/2+z
1/2-x,1/2+y,z
loop_
_atom_site_type_symbol
_atom_site_label
_atom_site_fract_x
_atom_site_fract_y
_atom_site_fract_z
Si Si1 0.712570 0.853091 0.710730
Si Si2 0.209004 0.504496 0.295638
Si Si3 0.792202 0.936983 0.592846
Si Si4 0.283336 0.706555 0.006889
Si Si5 0.789562 0.754885 0.386412
Si Si6 0.291631 0.903207 0.028062
Si Si7 0.709265 0.952012 0.911410
Si Si8 0.713133 0.316835 0.266707
O O1 0.500000 0.852508 0.713953
O O2 0.757733 0.896879 0.652798
O O3 0.773619 0.753806 0.721492
O O4 0.779770 0.913529 0.761131
O O5 0.282282 0.495853 0.358309
O O6 0.233727 0.416961 0.260512
O O7 0.000000 0.519884 0.302253
O O8 0.718147 0.870136 0.546658
O O9 0.000000 0.939855 0.585159
O O10 0.730228 0.035588 0.581035
O O11 0.500000 0.704993 0.007045
O O12 0.226330 0.803100 0.028739
O O13 0.224290 0.699832 0.942862
O O14 0.767966 0.650394 0.394347
O O15 0.720049 0.786678 0.327514
O O16 0.000000 0.769170 0.384848
O O17 0.500000 0.894028 0.017942
O O18 0.217230 0.954643 0.973798
O O19 0.500000 0.972312 0.915326
O O20 0.500000 0.314606 0.267401
#
# Coordination Sequence:
#
# PCOD9351602 Si02
#       8
#     8   8   8   8   8   8   8   8
#     4  10  22  41  58  75 107 151 192 223 263 326
#     4  10  20  35  56  82 110 143 182 224 272 325
#     4  11  23  37  56  82 111 144 184 231 278 319
#     4   8  17  33  54  80 109 143 180 218 267 325
#     4   8  13  28  54  80 108 141 177 216 261 325
#     4   9  18  35  58  82 109 145 185 220 264 328
#     4   8  14  29  55  82 109 142 181 221 261 321
#     4  10  20  34  57  85 109 141 183 227 274 323
#
# _framework density 22.947303000000002
#
# number of rings (size 3 to 8) (size 9 to 14) (size 15 to 20)
#    0.000    2.750    1.250    1.875    1.750    2.000 
#    0.000    5.000    0.000    3.000    0.000    0.000 
#    0.000    0.000    0.000    0.000    0.000    0.000 
#
# Total GULP energy -178604.867744 kJ/mol
# GULP energy per Si atom -5581.402117 kJ/mol
# Density = 2.289507 g / cm^3
# Si number density = 22.947303 Si / 1000 Ang^3
#
#
#
# Elastic Constant Matrix: (Units=GPa)
#
#
# Indices 1 2 3 4 5 6 
#
# 1 48.3720 -1.3758 -1.0481 0.0000 0.0000 0.0000
# 2 -1.3758 46.2155 -10.5672 0.0000 0.0000 0.0000
# 3 -1.0481 -10.5672 26.2970 0.0000 0.0000 0.0000
# 4 0.0000 0.0000 0.0000 29.3506 0.0000 0.0000
# 5 0.0000 0.0000 0.0000 0.0000 5.4773 0.0000
# 6 0.0000 0.0000 0.0000 0.0000 0.0000 11.3710
#
#
#
# Elastic Compliance Matrix: (Units=1/GPa)
#
#
# Indices 1 2 3 4 5 6 
#
# 1 0.020724 0.000887 0.001183 0.000000 0.000000 0.000000
# 2 0.000887 0.023865 0.009625 0.000000 0.000000 0.000000
# 3 0.001183 0.009625 0.041942 0.000000 0.000000 0.000000
# 4 0.000000 0.000000 0.000000 0.034071 0.000000 0.000000
# 5 0.000000 0.000000 0.000000 0.000000 0.182573 0.000000
# 6 0.000000 0.000000 0.000000 0.000000 0.000000 0.087943
#
#
# Mechanical properties :
#
#
# Convention : Reuss Voigt Hill
#
# Bulk Modulus (GPa) = 9.09742 10.54471 9.82106
# Shear Modulus (GPa) = 12.36496 18.16480 15.26488
#
# Velocity S-wave (km/s) = 2.32381 2.81657 2.58197
# Velocity P-wave (km/s) = 3.34264 3.89648 3.63014
#
# Compressibility (1/GPa) = 0.10992132
#
# Stress axis : x y z
#
# Youngs Moduli (GPa) = 48.25324 41.90242 23.84237
#
# Poissons Ratio (x) = -0.03718 -0.02819
# Poissons Ratio (y) = -0.04282 -0.22949
# Poissons Ratio (z) = -0.05706 -0.40332
#
# Static dielectric constant tensor:
#      x y z
#    x 1.876010 0.000000 0.000000 
#    y 0.000000 1.878670 0.000000 
#    z 0.000000 0.000000 1.879930 
# 
# From -- ./inp_files/16653.got.cif
#   From: 2010.05.17/outbox.cif.g08.bks.cpg/sg36_9_cif.got.tgz:16653.got - 2010.06.03 17:41:39.
