data_PCOD9351025
_publ_section_title
;
Structure prediction by ZEFSAII (Michael W. Deem and Ramdas Pophale) SiO2 
 PCOD9351025
Probable space group: C M C 21
;
_chemical_formula_sum "Si O2"
_cell_formula_units_Z 64
_cell_length_a 7.806953
_cell_length_b 23.970781
_cell_length_c 16.656235
_cell_angle_alpha 90.000000
_cell_angle_beta 90.000000
_cell_angle_gamma 90.000000
_cell_volume 3117.027175
_symmetry_space_group_name_H-M "C M C 21"
_symmetry_group_IT_number 36
_symmetry_cell_setting 'orthorhombic'
loop_
_space_group_symop_operation_xyz
x,y,z
-x,-y,1/2+z
x,-y,1/2+z
-x,y,z
1/2+x,1/2+y,z
1/2-x,1/2-y,1/2+z
1/2+x,1/2-y,1/2+z
1/2-x,1/2+y,z
loop_
_atom_site_type_symbol
_atom_site_label
_atom_site_fract_x
_atom_site_fract_y
_atom_site_fract_z
Si Si1 0.710299 0.908785 0.202330
Si Si2 0.703263 0.701442 0.244678
Si Si3 0.707228 0.035543 0.226642
Si Si4 0.302229 0.156901 0.544745
Si Si5 0.700595 0.388131 0.877458
Si Si6 0.793619 0.281535 0.490311
Si Si7 0.292028 0.813419 0.314485
Si Si8 0.692173 0.126224 0.107299
O O1 0.500000 0.909957 0.200201
O O2 0.770149 0.877299 0.121110
O O3 0.763542 0.872048 0.279079
O O4 0.765908 0.972399 0.214390
O O5 0.500000 0.696159 0.225108
O O6 0.727424 0.669699 0.328925
O O7 0.750118 0.765480 0.250854
O O8 0.814149 0.669554 0.180671
O O9 0.500000 0.037158 0.222169
O O10 0.751031 0.064272 0.312314
O O11 0.773778 0.073214 0.152015
O O12 0.500000 0.165430 0.564186
O O13 0.286787 0.119503 0.463850
O O14 0.238274 0.219607 0.524831
O O15 0.500000 0.393802 0.893584
O O16 0.729811 0.291903 0.400136
O O17 0.724584 0.334751 0.540211
O O18 0.000000 0.286746 0.490668
O O19 0.500000 0.814339 0.319454
O O20 0.500000 0.110116 0.080471
#
# Coordination Sequence:
#
# PCOD9351025 Si02
#       8
#     8   8   8   8   8   8   8   8
#     4   9  19  34  53  79 109 142 182 227 270 318
#     4   9  16  29  51  73  97 130 169 209 258 319
#     4   9  18  36  55  78 108 138 181 227 265 314
#     4  11  21  34  55  83 111 139 178 228 277 322
#     4  10  19  34  56  80 105 140 179 219 267 324
#     4  10  19  33  51  77 108 140 176 215 269 331
#     4   9  16  30  50  73 103 138 174 213 262 321
#     4   9  18  30  49  75 103 131 165 214 262 309
#
# _framework density 20.532382999999999
#
# number of rings (size 3 to 8) (size 9 to 14) (size 15 to 20)
#    0.000    2.500    1.250    1.500    0.000    2.000 
#    2.250    1.250    0.000    2.250    0.000    0.000 
#    0.000    0.000    0.000    0.000    0.000    0.000 
#
# Total GULP energy -178267.491717 kJ/mol
# GULP energy per Si atom -5570.859116 kJ/mol
# Density = 2.048565 g / cm^3
# Si number density = 20.532383 Si / 1000 Ang^3
#
#
#
# Elastic Constant Matrix: (Units=GPa)
#
#
# Indices 1 2 3 4 5 6 
#
# 1 17.7010 5.1717 3.4738 0.0000 0.0000 0.0000
# 2 5.1717 182.6674 59.6290 0.0000 0.0000 0.0000
# 3 3.4738 59.6290 63.9529 0.0000 0.0000 0.0000
# 4 0.0000 0.0000 0.0000 26.4208 0.0000 0.0000
# 5 0.0000 0.0000 0.0000 0.0000 11.5589 0.0000
# 6 0.0000 0.0000 0.0000 0.0000 0.0000 20.5559
#
#
#
# Elastic Compliance Matrix: (Units=1/GPa)
#
#
# Indices 1 2 3 4 5 6 
#
# 1 0.057199 -0.000870 -0.002296 0.000000 0.000000 0.000000
# 2 -0.000870 0.007883 -0.007303 0.000000 0.000000 0.000000
# 3 -0.002296 -0.007303 0.022570 0.000000 0.000000 0.000000
# 4 0.000000 0.000000 0.000000 0.037849 0.000000 0.000000
# 5 0.000000 0.000000 0.000000 0.000000 0.086514 0.000000
# 6 0.000000 0.000000 0.000000 0.000000 0.000000 0.048648
#
#
# Mechanical properties :
#
#
# Convention : Reuss Voigt Hill
#
# Bulk Modulus (GPa) = 14.98915 44.54114 29.76515
# Shear Modulus (GPa) = 16.45616 24.77690 20.61653
#
# Velocity S-wave (km/s) = 2.83410 3.47756 3.17219
# Velocity P-wave (km/s) = 4.24566 6.15344 5.28632
#
# Compressibility (1/GPa) = 0.06671494
#
# Stress axis : x y z
#
# Youngs Moduli (GPa) = 17.48289 126.85675 44.30631
#
# Poissons Ratio (x) = 0.11036 0.10172
# Poissons Ratio (y) = 0.01521 0.32355
# Poissons Ratio (z) = 0.04014 0.92639
#
# Static dielectric constant tensor:
#      x y z
#    x 1.782110 0.000000 0.000000 
#    y 0.000000 1.736720 0.000000 
#    z 0.000000 0.000000 1.790250 
# 
# From -- ./inp_files/11043.got.cif
#   From: 2010.05.17/outbox.cif.g08.bks.cpg/sg36_6_cif.got.tgz:11043.got - 2010.06.03 17:41:39.
