data_PCOD9351471
_publ_section_title
;
Structure prediction by ZEFSAII (Michael W. Deem and Ramdas Pophale) SiO2 
 PCOD9351471
Probable space group: C M C 21
;
_chemical_formula_sum "Si O2"
_cell_formula_units_Z 64
_cell_length_a 20.996388
_cell_length_b 8.220808
_cell_length_c 20.437455
_cell_angle_alpha 90.000000
_cell_angle_beta 90.000000
_cell_angle_gamma 90.000000
_cell_volume 3527.653404
_symmetry_space_group_name_H-M "C M C 21"
_symmetry_group_IT_number 36
_symmetry_cell_setting 'orthorhombic'
loop_
_space_group_symop_operation_xyz
x,y,z
-x,-y,1/2+z
x,-y,1/2+z
-x,y,z
1/2+x,1/2+y,z
1/2-x,1/2-y,1/2+z
1/2+x,1/2-y,1/2+z
1/2-x,1/2+y,z
loop_
_atom_site_type_symbol
_atom_site_label
_atom_site_fract_x
_atom_site_fract_y
_atom_site_fract_z
Si Si1 0.427938 0.946081 0.248520
Si Si2 0.179243 0.446700 0.997904
Si Si3 0.679243 0.446700 0.497904
Si Si4 0.572454 0.448565 0.599041
Si Si5 0.072062 0.053916 0.248520
Si Si6 0.820421 0.443928 0.848493
Si Si7 0.072454 0.448564 0.099042
Si Si8 0.820421 0.056075 0.848492
O O1 0.500000 0.001057 0.265094
O O2 0.428573 0.749999 0.248060
O O3 0.413940 0.999240 0.173841
O O4 0.375240 0.001116 0.299539
O O5 0.250000 0.500000 0.018083
O O6 0.177473 0.250000 0.997508
O O7 0.168959 0.504374 0.923101
O O8 0.124927 0.505306 0.047464
O O9 0.624927 0.505306 0.547464
O O10 0.668958 0.504373 0.423100
O O11 0.500000 0.497869 0.582655
O O12 0.586059 0.499242 0.673841
O O13 0.573244 0.250000 0.598415
O O14 0.000000 0.998940 0.265094
O O15 0.124760 0.998881 0.299538
O O16 0.820355 0.250001 0.850638
O O17 0.750000 0.500002 0.827637
O O18 0.000000 0.497868 0.082656
#
# Coordination Sequence:
#
# PCOD9351471 Si02
#       8
#     8   8   8   8   8   8   8   8
#     4   9  18  33  52  73  99 130 161 196 240 289
#     4   9  18  32  50  71  95 124 158 197 238 281
#     4   9  18  32  50  71  95 124 158 197 238 281
#     4   8  15  30  51  72  94 123 159 195 233 281
#     4   9  18  33  52  73  99 130 161 196 240 289
#     4  10  20  33  50  72  99 130 163 201 242 285
#     4   8  15  30  51  72  94 123 159 195 233 281
#     4  10  20  33  50  72  99 130 163 201 242 285
#
# _framework density 18.142372999999999
#
# number of rings (size 3 to 8) (size 9 to 14) (size 15 to 20)
#    0.000    3.000    0.000    2.250    0.000    3.500 
#    0.000    6.250    0.000    2.250    0.000    0.000 
#    0.000    0.000    0.000    0.000    0.000    0.000 
#
# Total GULP energy -178383.398689 kJ/mol
# GULP energy per Si atom -5574.481209 kJ/mol
# Density = 1.810108 g / cm^3
# Si number density = 18.142373 Si / 1000 Ang^3
#
#
#
# Elastic Constant Matrix: (Units=GPa)
#
#
# Indices 1 2 3 4 5 6 
#
# 1 195.8415 17.1920 140.1787 0.0000 0.0000 0.0000
# 2 17.1920 9.9174 15.2625 0.0000 0.0000 0.0000
# 3 140.1787 15.2625 123.4985 0.0000 0.0000 0.0000
# 4 0.0000 0.0000 0.0000 13.6465 0.0000 0.0000
# 5 0.0000 0.0000 0.0000 0.0000 42.4997 0.0000
# 6 0.0000 0.0000 0.0000 0.0000 0.0000 25.6740
#
#
#
# Elastic Compliance Matrix: (Units=1/GPa)
#
#
# Indices 1 2 3 4 5 6 
#
# 1 0.027227 0.000447 -0.030960 0.000000 0.000000 0.000000
# 2 0.000447 0.124521 -0.015896 0.000000 0.000000 0.000000
# 3 -0.030960 -0.015896 0.045204 0.000000 0.000000 0.000000
# 4 0.000000 0.000000 0.000000 0.073279 0.000000 0.000000
# 5 0.000000 0.000000 0.000000 0.000000 0.023530 0.000000
# 6 0.000000 0.000000 0.000000 0.000000 0.000000 0.038950
#
#
# Mechanical properties :
#
#
# Convention : Reuss Voigt Hill
#
# Bulk Modulus (GPa) = 9.60305 74.94707 42.27506
# Shear Modulus (GPa) = 10.86387 26.80565 18.83476
#
# Velocity S-wave (km/s) = 2.44972 3.84802 3.22555
# Velocity P-wave (km/s) = 3.64776 7.81941 6.10120
#
# Compressibility (1/GPa) = 0.10413360
#
# Stress axis : x y z
#
# Youngs Moduli (GPa) = 36.72762 8.03075 22.12215
#
# Poissons Ratio (x) = -0.00359 0.68491
# Poissons Ratio (y) = -0.01642 0.35166
# Poissons Ratio (z) = 1.13709 0.12766
#
# Static dielectric constant tensor:
#      x y z
#    x 1.603050 0.000000 0.000000 
#    y 0.000000 1.637160 0.000000 
#    z 0.000000 0.000000 1.623670 
# 
# From -- ./inp_files/15038.got.cif
#   From: 2010.05.17/outbox.cif.g08.bks.cpg/sg36_8_cif.got.tgz:15038.got - 2010.06.03 17:41:39.
