data_PCOD9351449
_publ_section_title
;
Structure prediction by ZEFSAII (Michael W. Deem and Ramdas Pophale) SiO2 
 PCOD9351449
Probable space group: C M C 21
;
_chemical_formula_sum "Si O2"
_cell_formula_units_Z 64
_cell_length_a 9.385737
_cell_length_b 23.712263
_cell_length_c 17.498328
_cell_angle_alpha 90.000000
_cell_angle_beta 90.000000
_cell_angle_gamma 90.000000
_cell_volume 3894.376508
_symmetry_space_group_name_H-M "C M C 21"
_symmetry_group_IT_number 36
_symmetry_cell_setting 'orthorhombic'
loop_
_space_group_symop_operation_xyz
x,y,z
-x,-y,1/2+z
x,-y,1/2+z
-x,y,z
1/2+x,1/2+y,z
1/2-x,1/2-y,1/2+z
1/2+x,1/2-y,1/2+z
1/2-x,1/2+y,z
loop_
_atom_site_type_symbol
_atom_site_label
_atom_site_fract_x
_atom_site_fract_y
_atom_site_fract_z
Si Si1 0.170625 0.936409 0.346850
Si Si2 0.338029 0.326127 0.813325
Si Si3 0.668240 0.120280 0.708486
Si Si4 0.837644 0.773273 0.258965
Si Si5 0.838028 0.826127 0.430550
Si Si6 0.670625 0.436409 0.897025
Si Si7 0.162356 0.773273 0.984910
Si Si8 0.668240 0.120280 0.535388
O O1 0.254867 0.918407 0.271161
O O2 0.205677 0.890301 0.412435
O O3 0.000000 0.930675 0.333064
O O4 0.200439 1.000000 0.371937
O O5 0.500000 0.324671 0.783497
O O6 0.233157 0.288188 0.763391
O O7 0.294324 0.390301 0.831440
O O8 0.341236 0.297258 0.897687
O O9 0.500000 0.124664 0.724952
O O10 0.740375 0.181831 0.715297
O O11 0.686756 0.099342 0.621937
O O12 0.841236 0.797258 0.346187
O O13 0.000000 0.772294 0.231007
O O14 0.733157 0.788188 0.480484
O O15 0.000000 0.824671 0.460377
O O16 0.500000 0.430675 0.910811
O O17 0.754867 0.418407 0.972713
O O18 0.259625 0.818169 0.028577
O O19 0.000000 0.772294 0.012867
O O20 0.500000 0.124664 0.518923
#
# Coordination Sequence:
#
# PCOD9351449 Si02
#       8
#     8   8   8   8   8   8   8   8
#     4   9  18  32  50  72  96 125 164 203 237 280
#     4   8  14  25  42  65  92 117 143 182 228 272
#     4  10  20  32  47  69  96 125 157 196 244 293
#     4   9  16  26  43  66  90 117 148 183 226 275
#     4   8  14  25  42  65  92 117 143 182 228 272
#     4   9  18  32  50  72  96 125 164 203 237 280
#     4   9  16  26  43  66  90 117 148 183 226 275
#     4  10  20  32  47  69  96 125 157 196 244 293
#
# _framework density 16.433952999999999
#
# number of rings (size 3 to 8) (size 9 to 14) (size 15 to 20)
#    0.000    3.000    0.000    3.000    0.000    8.500 
#    0.000    0.000    0.000    1.500    0.000    3.500 
#    0.000    0.000    0.000    0.000    0.000    0.000 
#
# Total GULP energy -178206.275573 kJ/mol
# GULP energy per Si atom -5568.946112 kJ/mol
# Density = 1.639655 g / cm^3
# Si number density = 16.433953 Si / 1000 Ang^3
#
#
#
# Elastic Constant Matrix: (Units=GPa)
#
#
# Indices 1 2 3 4 5 6 
#
# 1 90.9489 66.8649 46.4740 0.0000 0.0000 0.0000
# 2 66.8649 145.7241 36.7990 0.0000 0.0000 0.0000
# 3 46.4740 36.7990 46.8879 0.0000 0.0000 0.0000
# 4 0.0000 0.0000 0.0000 9.5078 0.0000 0.0000
# 5 0.0000 0.0000 0.0000 0.0000 17.0748 0.0000
# 6 0.0000 0.0000 0.0000 0.0000 0.0000 25.4549
#
#
#
# Elastic Compliance Matrix: (Units=1/GPa)
#
#
# Indices 1 2 3 4 5 6 
#
# 1 0.027041 -0.007033 -0.021282 0.000000 0.000000 0.000000
# 2 -0.007033 0.010388 -0.001181 0.000000 0.000000 0.000000
# 3 -0.021282 -0.001181 0.043349 0.000000 0.000000 0.000000
# 4 0.000000 0.000000 0.000000 0.105176 0.000000 0.000000
# 5 0.000000 0.000000 0.000000 0.000000 0.058566 0.000000
# 6 0.000000 0.000000 0.000000 0.000000 0.000000 0.039285
#
#
# Mechanical properties :
#
#
# Convention : Reuss Voigt Hill
#
# Bulk Modulus (GPa) = 45.90571 64.87075 55.38823
# Shear Modulus (GPa) = 14.28321 19.30238 16.79279
#
# Velocity S-wave (km/s) = 2.95130 3.43088 3.20008
# Velocity P-wave (km/s) = 6.29346 7.43329 6.88700
#
# Compressibility (1/GPa) = 0.02178378
#
# Stress axis : x y z
#
# Youngs Moduli (GPa) = 36.98060 96.26625 23.06844
#
# Poissons Ratio (x) = 0.67708 0.49095
# Poissons Ratio (y) = 0.26010 0.02725
# Poissons Ratio (z) = 0.78704 0.11373
#
# Static dielectric constant tensor:
#      x y z
#    x 1.558710 0.000000 0.000000 
#    y 0.000000 1.557360 0.000000 
#    z 0.000000 0.000000 1.548880 
# 
# From -- ./inp_files/14111.got.cif
#   From: 2010.05.17/outbox.cif.g08.bks.cpg/sg36_8_cif.got.tgz:14111.got - 2010.06.03 17:41:39.
