data_PCOD9351895
_publ_section_title
;
Structure prediction by ZEFSAII (Michael W. Deem and Ramdas Pophale) SiO2 
 PCOD9351895
Probable space group: C M C 21
;
_chemical_formula_sum "Si O2"
_cell_formula_units_Z 48
_cell_length_a 29.222744
_cell_length_b 7.587079
_cell_length_c 8.694179
_cell_angle_alpha 90.000000
_cell_angle_beta 90.000000
_cell_angle_gamma 90.000000
_cell_volume 1927.632221
_symmetry_space_group_name_H-M "C M C 21"
_symmetry_group_IT_number 36
_symmetry_cell_setting 'orthorhombic'
loop_
_space_group_symop_operation_xyz
x,y,z
-x,-y,1/2+z
x,-y,1/2+z
-x,y,z
1/2+x,1/2+y,z
1/2-x,1/2-y,1/2+z
1/2+x,1/2-y,1/2+z
1/2-x,1/2+y,z
loop_
_atom_site_type_symbol
_atom_site_label
_atom_site_fract_x
_atom_site_fract_y
_atom_site_fract_z
Si Si1 0.695412 0.612737 0.872890
Si Si2 0.411837 0.130297 0.035145
Si Si3 0.906640 0.257172 0.879793
Si Si4 0.722689 0.893327 0.131516
Si Si5 0.000000 0.244985 0.990688
Si Si6 0.684836 0.783742 0.441486
Si Si7 0.000000 0.367100 0.346323
O O1 0.641287 0.654034 0.856220
O O2 0.729240 0.624613 0.725633
O O3 0.703611 0.412908 0.925359
O O4 0.711458 0.748534 0.002876
O O5 0.366912 0.235595 0.991551
O O6 0.454460 0.192965 0.934176
O O7 0.401081 0.925290 0.994046
O O8 0.419179 0.160520 0.214476
O O9 0.951491 0.156356 0.946354
O O10 0.687337 0.866762 0.272052
O O11 0.790785 0.576711 0.052702
O O12 0.000000 0.423590 0.887020
O O13 0.000000 0.310315 0.168310
#
# Coordination Sequence:
#
# PCOD9351895 Si02
#       7
#     8   8   8   8   4   8   4
#     4  12  33  53  85 120 165 223 282 353 423 513
#     4  11  22  42  74 114 163 216 278 346 407 504
#     4  11  23  45  75 118 163 221 278 341 425 497
#     4  12  33  53  80 116 164 214 284 349 426 507
#     4  10  20  38  73 114 165 217 275 345 409 505
#     4  12  31  52  83 115 162 216 280 348 423 503
#     4  10  20  36  71 116 159 223 277 333 421 495
#
# _framework density 24.901015999999998
#
# number of rings (size 3 to 8) (size 9 to 14) (size 15 to 20)
#    0.000    0.667    1.667    5.500   11.667    1.333 
#    0.000    0.833    0.000    0.000    0.000    0.000 
#    0.000    0.000    0.000    0.000    0.000    0.000 
#
# Total GULP energy -134391.672392 kJ/mol
# GULP energy per Si atom -5599.653016 kJ/mol
# Density = 2.484434 g / cm^3
# Si number density = 24.901016 Si / 1000 Ang^3
#
#
#
# Elastic Constant Matrix: (Units=GPa)
#
#
# Indices 1 2 3 4 5 6 
#
# 1 196.3392 36.7266 86.1798 0.0000 0.0000 0.0000
# 2 36.7266 133.1127 80.6373 0.0000 0.0000 0.0000
# 3 86.1798 80.6373 211.9861 0.0000 0.0000 0.0000
# 4 0.0000 0.0000 0.0000 37.5572 0.0000 0.0000
# 5 0.0000 0.0000 0.0000 0.0000 50.0834 0.0000
# 6 0.0000 0.0000 0.0000 0.0000 0.0000 18.4259
#
#
#
# Elastic Compliance Matrix: (Units=1/GPa)
#
#
# Indices 1 2 3 4 5 6 
#
# 1 0.006205 -0.000239 -0.002432 0.000000 0.000000 0.000000
# 2 -0.000239 0.009771 -0.003620 0.000000 0.000000 0.000000
# 3 -0.002432 -0.003620 0.007083 0.000000 0.000000 0.000000
# 4 0.000000 0.000000 0.000000 0.026626 0.000000 0.000000
# 5 0.000000 0.000000 0.000000 0.000000 0.019967 0.000000
# 6 0.000000 0.000000 0.000000 0.000000 0.000000 0.054271
#
#
# Mechanical properties :
#
#
# Convention : Reuss Voigt Hill
#
# Bulk Modulus (GPa) = 95.43475 105.39170 100.41323
# Shear Modulus (GPa) = 35.71509 43.73960 39.72735
#
# Velocity S-wave (km/s) = 3.79130 4.19565 3.99859
# Velocity P-wave (km/s) = 7.58776 8.11711 7.85690
#
# Compressibility (1/GPa) = 0.01047836
#
# Stress axis : x y z
#
# Youngs Moduli (GPa) = 161.15218 102.34264 141.18745
#
# Poissons Ratio (x) = 0.02446 0.34334
# Poissons Ratio (y) = 0.03851 0.51105
# Poissons Ratio (z) = 0.39189 0.37045
#
# Static dielectric constant tensor:
#      x y z
#    x 2.092390 0.000000 0.000000 
#    y 0.000000 1.944720 0.000000 
#    z 0.000000 0.000000 1.970750 
# 
# From -- ./inp_files/6019.got.cif
#   From: 2010.05.17/outbox.cif.g08.bks.cpg/sg36_4_cif.got.tgz:6019.got - 2010.06.03 17:41:39.
