data_PCOD9351037
_publ_section_title
;
Structure prediction by ZEFSAII (Michael W. Deem and Ramdas Pophale) SiO2 
 PCOD9351037
Probable space group: C M C 21
;
_chemical_formula_sum "Si O2"
_cell_formula_units_Z 64
_cell_length_a 19.377981
_cell_length_b 27.168780
_cell_length_c 5.491238
_cell_angle_alpha 90.000000
_cell_angle_beta 90.000000
_cell_angle_gamma 90.000000
_cell_volume 2891.005581
_symmetry_space_group_name_H-M "C M C 21"
_symmetry_group_IT_number 36
_symmetry_cell_setting 'orthorhombic'
loop_
_space_group_symop_operation_xyz
x,y,z
-x,-y,1/2+z
x,-y,1/2+z
-x,y,z
1/2+x,1/2+y,z
1/2-x,1/2-y,1/2+z
1/2+x,1/2-y,1/2+z
1/2-x,1/2+y,z
loop_
_atom_site_type_symbol
_atom_site_label
_atom_site_fract_x
_atom_site_fract_y
_atom_site_fract_z
Si Si1 0.306832 0.605699 0.990820
Si Si2 0.574708 0.861499 0.868337
Si Si3 0.836168 0.794594 0.269452
Si Si4 0.423014 0.771540 0.485792
Si Si5 0.187304 0.700089 0.588938
Si Si6 0.893183 0.473487 0.884413
Si Si7 0.107458 0.011699 0.986410
Si Si8 0.740908 0.438258 0.984801
O O1 0.262139 0.587728 0.752470
O O2 0.336510 0.660248 0.955450
O O3 0.369590 0.567814 0.990690
O O4 0.269930 0.597595 0.250670
O O5 0.500000 0.854207 0.994454
O O6 0.642155 0.847237 0.020024
O O7 0.575231 0.821059 0.652353
O O8 0.580656 0.918976 0.813732
O O9 0.905282 0.779209 0.128489
O O10 0.818453 0.742782 0.391895
O O11 0.767858 0.808014 0.118592
O O12 0.500000 0.767252 0.374787
O O13 0.356527 0.778965 0.315714
O O14 0.914136 0.507835 0.655377
O O15 0.810561 0.467550 0.922286
O O16 0.071810 0.999278 0.235616
O O17 0.177024 0.976988 0.984916
#
# Coordination Sequence:
#
# PCOD9351037 Si02
#       8
#     8   8   8   8   8   8   8   8
#     4  10  20  30  55  81 121 160 197 254 318 378
#     4  10  25  44  64  88 119 173 231 268 330 405
#     4  11  23  36  60  96 126 153 214 275 335 384
#     4  10  23  44  66  88 126 174 217 267 333 414
#     4  11  22  39  64  91 124 163 210 279 327 398
#     4  12  25  39  61  90 124 166 223 285 328 374
#     4   8  14  27  42  68 106 151 188 223 283 370
#     4  10  19  33  52  82 122 168 203 249 321 393
#
# _framework density 22.137626000000001
#
# number of rings (size 3 to 8) (size 9 to 14) (size 15 to 20)
#    0.000    1.750    1.250    4.125    5.250    1.000 
#    0.000    0.000    0.000    0.000    0.000    0.000 
#    0.000    9.000    0.000    0.000    0.000    0.000 
#
# Total GULP energy -178369.339963 kJ/mol
# GULP energy per Si atom -5574.041874 kJ/mol
# Density = 2.208724 g / cm^3
# Si number density = 22.137626 Si / 1000 Ang^3
#
#
#
# Elastic Constant Matrix: (Units=GPa)
#
#
# Indices 1 2 3 4 5 6 
#
# 1 104.9402 19.0003 14.6540 0.0000 0.0000 0.0000
# 2 19.0003 80.6234 2.2282 0.0000 0.0000 0.0000
# 3 14.6540 2.2282 102.6243 0.0000 0.0000 0.0000
# 4 0.0000 0.0000 0.0000 24.5701 0.0000 0.0000
# 5 0.0000 0.0000 0.0000 0.0000 23.1622 0.0000
# 6 0.0000 0.0000 0.0000 0.0000 0.0000 -484.6713
#
#
#
# Elastic Compliance Matrix: (Units=1/GPa)
#
#
# Indices 1 2 3 4 5 6 
#
# 1 0.010151 -0.002354 -0.001398 0.000000 0.000000 0.000000
# 2 -0.002354 0.012956 0.000055 0.000000 0.000000 0.000000
# 3 -0.001398 0.000055 0.009943 0.000000 0.000000 0.000000
# 4 0.000000 0.000000 0.000000 0.040700 0.000000 0.000000
# 5 0.000000 0.000000 0.000000 0.000000 0.043174 0.000000
# 6 0.000000 0.000000 0.000000 0.000000 0.000000 -0.002063
#
#
# Mechanical properties :
#
#
# Convention : Reuss Voigt Hill
#
# Bulk Modulus (GPa) = 38.97775 39.99476 39.48626
# Shear Modulus (GPa) = 38.22444 -70.56744 -16.17150
#
# Velocity S-wave (km/s) = 4.15983 -5.65207 -2.70571
# Velocity P-wave (km/s) = 6.38103 4.94863 2.84856
#
# Compressibility (1/GPa) = 0.02565566
#
# Stress axis : x y z
#
# Youngs Moduli (GPa) = 98.51611 77.18141 100.57571
#
# Poissons Ratio (x) = 0.18165 0.14064
# Poissons Ratio (y) = 0.23186 -0.00551
# Poissons Ratio (z) = 0.13776 -0.00423
#
# Static dielectric constant tensor:
#      x y z
#    x 2.330190 0.000000 0.000000 
#    y 0.000000 1.807400 0.000000 
#    z 0.000000 0.000000 1.919020 
# 
# From -- ./inp_files/1492.got.cif
#   From: 2010.05.17/outbox.cif.g08.bks.cpg/sg36_1_cif.got.tgz:1492.got - 2010.06.03 17:41:39.
