data_PCOD9351403
_publ_section_title
;
Structure prediction by ZEFSAII (Michael W. Deem and Ramdas Pophale) SiO2 
 PCOD9351403
Probable space group: C M C 21
;
_chemical_formula_sum "Si O2"
_cell_formula_units_Z 40
_cell_length_a 18.652534
_cell_length_b 9.641531
_cell_length_c 9.584806
_cell_angle_alpha 90.000000
_cell_angle_beta 90.000000
_cell_angle_gamma 90.000000
_cell_volume 1723.721780
_symmetry_space_group_name_H-M "C M C 21"
_symmetry_group_IT_number 36
_symmetry_cell_setting 'orthorhombic'
loop_
_space_group_symop_operation_xyz
x,y,z
-x,-y,1/2+z
x,-y,1/2+z
-x,y,z
1/2+x,1/2+y,z
1/2-x,1/2-y,1/2+z
1/2+x,1/2-y,1/2+z
1/2-x,1/2+y,z
loop_
_atom_site_type_symbol
_atom_site_label
_atom_site_fract_x
_atom_site_fract_y
_atom_site_fract_z
Si Si1 0.291119 0.187057 0.268240
Si Si2 0.331747 0.884844 0.189875
Si Si3 0.419827 0.754543 0.954352
Si Si4 0.649596 0.662798 0.399456
Si Si5 0.081468 0.983571 0.149542
O O1 0.239859 0.289366 0.181927
O O2 0.362442 0.253326 0.330841
O O3 0.310892 0.043807 0.196830
O O4 0.235406 0.145513 0.391907
O O5 0.364695 0.815716 0.332564
O O6 0.386386 0.860757 0.065261
O O7 0.500000 0.792143 0.911089
O O8 0.421584 0.612136 0.040536
O O9 0.617451 0.632336 0.550469
O O10 0.619449 0.553912 0.283311
O O11 0.000000 0.945061 0.188444
#
# Coordination Sequence:
#
# PCOD9351403 Si02
#       5
#     8   8   8   8   8
#     4  10  21  38  63  89 117 167 213 261 302 388
#     4   9  22  38  63  90 126 162 211 262 320 373
#     4  10  22  39  61  89 130 169 203 261 329 373
#     4   9  21  35  61  93 123 164 213 255 316 373
#     4  10  19  38  61  91 128 166 208 263 322 377
#
# _framework density 23.205601000000001
#
# number of rings (size 3 to 8) (size 9 to 14) (size 15 to 20)
#    1.200    1.200    0.000    1.800    2.800    3.200 
#    0.000    0.000    0.000    0.000    0.000    0.000 
#    0.000    0.000    0.000    0.000    0.000    0.000 
#
# Total GULP energy -111651.451657 kJ/mol
# GULP energy per Si atom -5582.572583 kJ/mol
# Density = 2.315278 g / cm^3
# Si number density = 23.205601 Si / 1000 Ang^3
#
#
#
# Elastic Constant Matrix: (Units=GPa)
#
#
# Indices 1 2 3 4 5 6 
#
# 1 171.5209 15.2915 60.3763 0.0000 0.0000 0.0000
# 2 15.2915 76.9845 21.8550 0.0000 0.0000 0.0000
# 3 60.3763 21.8550 127.1124 0.0000 0.0000 0.0000
# 4 0.0000 0.0000 0.0000 28.5770 0.0000 0.0000
# 5 0.0000 0.0000 0.0000 0.0000 35.5970 0.0000
# 6 0.0000 0.0000 0.0000 0.0000 0.0000 16.1116
#
#
#
# Elastic Compliance Matrix: (Units=1/GPa)
#
#
# Indices 1 2 3 4 5 6 
#
# 1 0.007017 -0.000471 -0.003252 0.000000 0.000000 0.000000
# 2 -0.000471 0.013688 -0.002130 0.000000 0.000000 0.000000
# 3 -0.003252 -0.002130 0.009778 0.000000 0.000000 0.000000
# 4 0.000000 0.000000 0.000000 0.034993 0.000000 0.000000
# 5 0.000000 0.000000 0.000000 0.000000 0.028092 0.000000
# 6 0.000000 0.000000 0.000000 0.000000 0.000000 0.062067
#
#
# Mechanical properties :
#
#
# Convention : Reuss Voigt Hill
#
# Bulk Modulus (GPa) = 53.25483 63.40703 58.33093
# Shear Modulus (GPa) = 28.80201 34.59678 31.69939
#
# Velocity S-wave (km/s) = 3.52684 3.86538 3.69999
# Velocity P-wave (km/s) = 6.29156 6.87786 6.59123
#
# Compressibility (1/GPa) = 0.01877764
#
# Stress axis : x y z
#
# Youngs Moduli (GPa) = 142.51381 73.05804 102.27149
#
# Poissons Ratio (x) = 0.03438 0.33259
# Poissons Ratio (y) = 0.06706 0.21783
# Poissons Ratio (z) = 0.46345 0.15560
#
# Static dielectric constant tensor:
#      x y z
#    x 1.881870 0.000000 0.000000 
#    y 0.000000 1.903770 0.000000 
#    z 0.000000 0.000000 1.946820 
# 
# From -- ./inp_files/8782.got.cif
#   From: 2010.05.17/outbox.cif.g08.bks.cpg/sg36_5_cif.got.tgz:8782.got - 2010.06.03 17:41:39.
