data_PCOD9351369
_publ_section_title
;
Structure prediction by ZEFSAII (Michael W. Deem and Ramdas Pophale) SiO2 
 PCOD9351369
Probable space group: C M C 21
;
_chemical_formula_sum "Si O2"
_cell_formula_units_Z 48
_cell_length_a 28.136582
_cell_length_b 17.097440
_cell_length_c 5.195710
_cell_angle_alpha 90.000000
_cell_angle_beta 90.000000
_cell_angle_gamma 90.000000
_cell_volume 2499.466555
_symmetry_space_group_name_H-M "C M C 21"
_symmetry_group_IT_number 36
_symmetry_cell_setting 'orthorhombic'
loop_
_space_group_symop_operation_xyz
x,y,z
-x,-y,1/2+z
x,-y,1/2+z
-x,y,z
1/2+x,1/2+y,z
1/2-x,1/2-y,1/2+z
1/2+x,1/2-y,1/2+z
1/2-x,1/2+y,z
loop_
_atom_site_type_symbol
_atom_site_label
_atom_site_fract_x
_atom_site_fract_y
_atom_site_fract_z
Si Si1 0.580294 0.205876 0.692470
Si Si2 0.128250 0.051801 0.692342
Si Si3 0.555098 0.305108 0.194157
Si Si4 0.310706 0.228970 0.747525
Si Si5 0.944637 0.465609 0.353779
Si Si6 0.710112 0.669031 0.748194
O O1 0.565542 0.242792 0.420527
O O2 0.637054 0.196181 0.707214
O O3 0.558159 0.121901 0.750442
O O4 0.564793 0.264706 0.919474
O O5 0.090652 0.122135 0.725457
O O6 0.180533 0.090219 0.714834
O O7 0.121926 0.011186 0.417412
O O8 0.500000 0.329016 0.209742
O O9 0.302216 0.292823 0.523239
O O10 0.267237 0.167908 0.728772
O O11 0.307083 0.272358 0.022077
O O12 0.922866 0.478503 0.635206
O O13 0.000000 0.486737 0.392651
#
# Coordination Sequence:
#
# PCOD9351369 Si02
#       6
#     8   8   8   8   8   8
#     4  12  21  40  64  91 118 160 201 263 301 360
#     4  12  24  40  61  86 127 167 204 257 316 366
#     4  12  25  40  61  90 121 162 221 262 298 357
#     4  10  19  36  65  86 115 143 198 248 293 359
#     4  10  21  36  54  81 117 155 188 230 299 366
#     4  10  20  38  59  90 112 151 194 242 301 364
#
# _framework density 19.204097000000001
#
# number of rings (size 3 to 8) (size 9 to 14) (size 15 to 20)
#    0.000    1.000    3.333    4.500    0.000    2.000 
#    0.000    1.667    0.000    0.000    0.000    0.000 
#    0.000    0.000    0.000    0.000    0.000    0.000 
#
# Total GULP energy -134077.152917 kJ/mol
# GULP energy per Si atom -5586.548038 kJ/mol
# Density = 1.916039 g / cm^3
# Si number density = 19.204097 Si / 1000 Ang^3
#
#
#
# Elastic Constant Matrix: (Units=GPa)
#
#
# Indices 1 2 3 4 5 6 
#
# 1 85.6309 4.0482 6.5960 0.0000 0.0000 0.0000
# 2 4.0482 39.3363 -14.7694 0.0000 0.0000 0.0000
# 3 6.5960 -14.7694 42.0609 0.0000 0.0000 0.0000
# 4 0.0000 0.0000 0.0000 36.8920 0.0000 0.0000
# 5 0.0000 0.0000 0.0000 0.0000 12.4253 0.0000
# 6 0.0000 0.0000 0.0000 0.0000 0.0000 16.1307
#
#
#
# Elastic Compliance Matrix: (Units=1/GPa)
#
#
# Indices 1 2 3 4 5 6 
#
# 1 0.011989 -0.002234 -0.002665 0.000000 0.000000 0.000000
# 2 -0.002234 0.029699 0.010779 0.000000 0.000000 0.000000
# 3 -0.002665 0.010779 0.027978 0.000000 0.000000 0.000000
# 4 0.000000 0.000000 0.000000 0.027106 0.000000 0.000000
# 5 0.000000 0.000000 0.000000 0.000000 0.080481 0.000000
# 6 0.000000 0.000000 0.000000 0.000000 0.000000 0.061993
#
#
# Mechanical properties :
#
#
# Convention : Reuss Voigt Hill
#
# Bulk Modulus (GPa) = 12.28115 17.64196 14.96155
# Shear Modulus (GPa) = 19.63650 24.49983 22.06816
#
# Velocity S-wave (km/s) = 3.20115 3.57565 3.39357
# Velocity P-wave (km/s) = 4.48019 5.12382 4.81278
#
# Compressibility (1/GPa) = 0.08142562
#
# Stress axis : x y z
#
# Youngs Moduli (GPa) = 83.41047 33.67133 35.74251
#
# Poissons Ratio (x) = 0.07523 0.09524
# Poissons Ratio (y) = 0.18636 -0.38527
# Poissons Ratio (z) = 0.22226 -0.36294
#
# Static dielectric constant tensor:
#      x y z
#    x 1.676150 0.000000 0.000000 
#    y 0.000000 1.634250 0.000000 
#    z 0.000000 0.000000 1.681450 
# 
# From -- ./inp_files/1723.got.cif
#   From: 2010.05.17/outbox.cif.g08.bks.cpg/sg36_1_cif.got.tgz:1723.got - 2010.06.03 17:41:39.
