data_PCOD9351187
_publ_section_title
;
Structure prediction by ZEFSAII (Michael W. Deem and Ramdas Pophale) SiO2 
 PCOD9351187
Probable space group: C M C 21
;
_chemical_formula_sum "Si O2"
_cell_formula_units_Z 44
_cell_length_a 25.959252
_cell_length_b 16.167274
_cell_length_c 5.389120
_cell_angle_alpha 90.000000
_cell_angle_beta 90.000000
_cell_angle_gamma 90.000000
_cell_volume 2261.761605
_symmetry_space_group_name_H-M "C M C 21"
_symmetry_group_IT_number 36
_symmetry_cell_setting 'orthorhombic'
loop_
_space_group_symop_operation_xyz
x,y,z
-x,-y,1/2+z
x,-y,1/2+z
-x,y,z
1/2+x,1/2+y,z
1/2-x,1/2-y,1/2+z
1/2+x,1/2-y,1/2+z
1/2-x,1/2+y,z
loop_
_atom_site_type_symbol
_atom_site_label
_atom_site_fract_x
_atom_site_fract_y
_atom_site_fract_z
Si Si1 0.770502 0.018320 0.712100
Si Si2 0.343044 0.952792 0.712027
Si Si3 0.381607 0.235873 0.211375
Si Si4 0.000000 0.945767 0.711613
Si Si5 0.558209 0.718032 0.211384
Si Si6 0.230995 0.206129 0.712605
O O1 0.750900 0.111831 0.712209
O O2 0.800351 0.000008 0.462097
O O3 0.719605 0.960131 0.712090
O O4 0.361783 0.858907 0.711663
O O5 0.360060 0.000078 0.462154
O O6 0.413069 0.254432 0.461746
O O7 0.330575 0.291853 0.211509
O O8 0.413001 0.254352 0.960761
O O9 0.952021 0.881050 0.711557
O O10 0.000000 0.000016 0.461643
O O11 0.500000 0.753600 0.211503
O O12 0.250173 0.250178 0.463188
#
# Coordination Sequence:
#
# PCOD9351187 Si02
#       6
#     8   8   8   4   8   8
#     4  10  20  36  53  79 120 163 202 250 308 356
#     4  10  19  34  57  85 118 166 217 250 303 373
#     4  12  22  40  66  96 126 172 223 265 322 396
#     4  10  20  42  72  96 124 162 204 260 340 402
#     4  10  24  42  68  97 128 163 215 269 337 384
#     4  12  23  38  61  92 130 169 220 267 314 383
#
# _framework density 19.453865
#
# number of rings (size 3 to 8) (size 9 to 14) (size 15 to 20)
#    0.545    0.727    0.000    9.273    0.000    0.000 
#    0.000    5.455    0.000   10.909    0.000    0.000 
#    0.000    0.000    0.000    0.000    0.000    0.000 
#
# Total GULP energy -122813.144255 kJ/mol
# GULP energy per Si atom -5582.415648 kJ/mol
# Density = 1.940959 g / cm^3
# Si number density = 19.453865 Si / 1000 Ang^3
#
#
#
# Elastic Constant Matrix: (Units=GPa)
#
#
# Indices 1 2 3 4 5 6 
#
# 1 104.6235 14.8910 50.8861 0.0000 0.0000 0.0000
# 2 14.8910 106.5151 50.5716 0.0000 0.0000 0.0000
# 3 50.8861 50.5716 221.7806 0.0000 0.0000 0.0000
# 4 0.0000 0.0000 0.0000 44.4032 0.0000 0.0000
# 5 0.0000 0.0000 0.0000 0.0000 30.4829 0.0000
# 6 0.0000 0.0000 0.0000 0.0000 0.0000 33.7859
#
#
#
# Elastic Compliance Matrix: (Units=1/GPa)
#
#
# Indices 1 2 3 4 5 6 
#
# 1 0.010772 -0.000373 -0.002387 0.000000 0.000000 0.000000
# 2 -0.000373 0.010541 -0.002318 0.000000 0.000000 0.000000
# 3 -0.002387 -0.002318 0.005585 0.000000 0.000000 0.000000
# 4 0.000000 0.000000 0.000000 0.022521 0.000000 0.000000
# 5 0.000000 0.000000 0.000000 0.000000 0.032805 0.000000
# 6 0.000000 0.000000 0.000000 0.000000 0.000000 0.029598
#
#
# Mechanical properties :
#
#
# Convention : Reuss Voigt Hill
#
# Bulk Modulus (GPa) = 59.72591 73.95741 66.84166
# Shear Modulus (GPa) = 39.19776 42.83910 41.01843
#
# Velocity S-wave (km/s) = 4.49364 4.69773 4.59682
# Velocity P-wave (km/s) = 7.59551 8.21731 7.91252
#
# Compressibility (1/GPa) = 0.01674315
#
# Stress axis : x y z
#
# Youngs Moduli (GPa) = 92.83421 94.86718 179.04740
#
# Poissons Ratio (x) = 0.03537 0.42730
# Poissons Ratio (y) = 0.03461 0.41505
# Poissons Ratio (z) = 0.22155 0.21991
#
# Static dielectric constant tensor:
#      x y z
#    x 1.660720 0.000000 0.000000 
#    y 0.000000 1.691410 0.000000 
#    z 0.000000 0.000000 1.827580 
# 
# From -- ./inp_files/1713.got.cif
#   From: 2010.05.17/outbox.cif.g08.bks.cpg/sg36_1_cif.got.tgz:1713.got - 2010.06.03 17:41:39.
