data_PCOD9351528
_publ_section_title
;
Structure prediction by ZEFSAII (Michael W. Deem and Ramdas Pophale) SiO2 
 PCOD9351528
Probable space group: C M C 21
;
_chemical_formula_sum "Si O2"
_cell_formula_units_Z 64
_cell_length_a 7.565658
_cell_length_b 29.930364
_cell_length_c 12.890233
_cell_angle_alpha 90.000000
_cell_angle_beta 90.000000
_cell_angle_gamma 90.000000
_cell_volume 2918.901714
_symmetry_space_group_name_H-M "C M C 21"
_symmetry_group_IT_number 36
_symmetry_cell_setting 'orthorhombic'
loop_
_space_group_symop_operation_xyz
x,y,z
-x,-y,1/2+z
x,-y,1/2+z
-x,y,z
1/2+x,1/2+y,z
1/2-x,1/2-y,1/2+z
1/2+x,1/2-y,1/2+z
1/2-x,1/2+y,z
loop_
_atom_site_type_symbol
_atom_site_label
_atom_site_fract_x
_atom_site_fract_y
_atom_site_fract_z
Si Si1 0.793976 0.424142 0.400500
Si Si2 0.281767 0.077118 0.667680
Si Si3 0.792320 0.673960 0.601427
Si Si4 0.207004 0.909700 0.732672
Si Si5 0.282864 0.732550 0.173995
Si Si6 0.707077 0.344258 0.533440
Si Si7 0.707088 0.014634 0.084789
Si Si8 0.285731 0.669891 0.363914
O O1 0.720666 0.428992 0.286039
O O2 0.785397 0.372976 0.440408
O O3 0.715403 0.455946 0.490420
O O4 0.000000 0.435471 0.392446
O O5 0.500000 0.076893 0.666009
O O6 0.220056 0.125211 0.628154
O O7 0.219977 0.034671 0.601537
O O8 0.720455 0.716854 0.662483
O O9 0.772764 0.681413 0.478779
O O10 0.000000 0.672337 0.626810
O O11 0.226488 0.875981 0.634804
O O12 0.281882 0.956131 0.690647
O O13 0.277079 0.879693 0.827488
O O14 0.000000 0.917460 0.750247
O O15 0.500000 0.731836 0.172697
O O16 0.224669 0.703208 0.073982
O O17 0.229127 0.706311 0.277996
O O18 0.500000 0.339633 0.511166
O O19 0.500000 0.009544 0.063132
O O20 0.500000 0.668738 0.360982
#
# Coordination Sequence:
#
# PCOD9351528 Si02
#       8
#     8   8   8   8   8   8   8   8
#     4   9  17  30  48  70  95 123 157 195 237 284
#     4   9  19  33  47  68 100 131 156 192 244 293
#     4  10  20  34  51  72  99 131 166 199 238 293
#     4   8  15  29  49  71  95 123 155 195 243 288
#     4   8  16  32  52  71  95 131 166 195 238 295
#     4   8  14  28  49  70  92 119 155 196 236 279
#     4   9  17  30  49  71  94 125 166 203 233 277
#     4   9  18  34  53  73 100 131 161 199 249 293
#
# _framework density 21.926055999999999
#
# number of rings (size 3 to 8) (size 9 to 14) (size 15 to 20)
#    0.000    3.250    0.000    1.500    0.000    2.500 
#    0.000    8.750    0.000    3.000    0.000    0.000 
#    0.000    0.000    0.000    0.000    0.000    0.000 
#
# Total GULP energy -178373.892075 kJ/mol
# GULP energy per Si atom -5574.184127 kJ/mol
# Density = 2.187615 g / cm^3
# Si number density = 21.926056 Si / 1000 Ang^3
#
#
#
# Elastic Constant Matrix: (Units=GPa)
#
#
# Indices 1 2 3 4 5 6 
#
# 1 136.1342 55.7248 162.1613 0.0000 0.0000 0.0000
# 2 55.7248 210.6978 148.2270 0.0000 0.0000 0.0000
# 3 162.1613 148.2270 385.3958 0.0000 0.0000 0.0000
# 4 0.0000 0.0000 0.0000 461.8185 0.0000 0.0000
# 5 0.0000 0.0000 0.0000 0.0000 6.1765 0.0000
# 6 0.0000 0.0000 0.0000 0.0000 0.0000 33.8935
#
#
#
# Elastic Compliance Matrix: (Units=1/GPa)
#
#
# Indices 1 2 3 4 5 6 
#
# 1 0.014790 0.000639 -0.006469 0.000000 0.000000 0.000000
# 2 0.000639 0.006534 -0.002782 0.000000 0.000000 0.000000
# 3 -0.006469 -0.002782 0.006387 0.000000 0.000000 0.000000
# 4 0.000000 0.000000 0.000000 0.002165 0.000000 0.000000
# 5 0.000000 0.000000 0.000000 0.000000 0.161903 0.000000
# 6 0.000000 0.000000 0.000000 0.000000 0.000000 0.029504
#
#
# Mechanical properties :
#
#
# Convention : Reuss Voigt Hill
#
# Bulk Modulus (GPa) = 95.35414 162.71709 129.03562
# Shear Modulus (GPa) = 20.66095 124.78537 72.72316
#
# Velocity S-wave (km/s) = 3.07302 7.55218 5.76537
# Velocity P-wave (km/s) = 7.49498 12.26459 10.16353
#
# Compressibility (1/GPa) = 0.01048722
#
# Stress axis : x y z
#
# Youngs Moduli (GPa) = 67.61509 153.03813 156.57629
#
# Poissons Ratio (x) = -0.09785 1.01287
# Poissons Ratio (y) = -0.04323 0.43562
# Poissons Ratio (z) = 0.43739 0.42578
#
# Static dielectric constant tensor:
#      x y z
#    x 1.857720 0.000000 0.000000 
#    y 0.000000 1.777590 0.000000 
#    z 0.000000 0.000000 1.813430 
# 
# From -- ./inp_files/8084.got.cif
#   From: 2010.05.17/outbox.cif.g08.bks.cpg/sg36_5_cif.got.tgz:8084.got - 2010.06.03 17:41:39.
