data_PCOD9351466
_publ_section_title
;
Structure prediction by ZEFSAII (Michael W. Deem and Ramdas Pophale) SiO2 
 PCOD9351466
Probable space group: C M C 21
;
_chemical_formula_sum "Si O2"
_cell_formula_units_Z 64
_cell_length_a 7.685770
_cell_length_b 21.385953
_cell_length_c 19.793399
_cell_angle_alpha 90.000000
_cell_angle_beta 90.000000
_cell_angle_gamma 90.000000
_cell_volume 3253.391827
_symmetry_space_group_name_H-M "C M C 21"
_symmetry_group_IT_number 36
_symmetry_cell_setting 'orthorhombic'
loop_
_space_group_symop_operation_xyz
x,y,z
-x,-y,1/2+z
x,-y,1/2+z
-x,y,z
1/2+x,1/2+y,z
1/2-x,1/2-y,1/2+z
1/2+x,1/2-y,1/2+z
1/2-x,1/2+y,z
loop_
_atom_site_type_symbol
_atom_site_label
_atom_site_fract_x
_atom_site_fract_y
_atom_site_fract_z
Si Si1 0.289337 0.988406 0.033630
Si Si2 0.790162 0.512206 0.381379
Si Si3 0.794912 0.942768 0.739864
Si Si4 0.296535 0.805947 0.245139
Si Si5 0.703365 0.430986 0.172240
Si Si6 0.709012 0.867969 0.530962
Si Si7 0.791389 0.816798 0.671572
Si Si8 0.787046 0.367711 0.379665
O O1 0.500000 0.987843 0.035651
O O2 0.231393 0.060532 0.045532
O O3 0.223330 0.944418 0.092930
O O4 0.235057 0.970959 0.957464
O O5 0.725955 0.554451 0.320278
O O6 0.735344 0.440149 0.368595
O O7 0.000000 0.513087 0.380365
O O8 0.721486 0.880108 0.706514
O O9 0.000000 0.943814 0.723520
O O10 0.720896 0.007226 0.709156
O O11 0.500000 0.792676 0.257029
O O12 0.285889 0.867339 0.198473
O O13 0.221610 0.745602 0.207209
O O14 0.222512 0.825255 0.318285
O O15 0.500000 0.426074 0.189323
O O16 0.500000 0.870721 0.528533
O O17 0.758664 0.823085 0.591890
O O18 0.768436 0.850088 0.455548
O O19 0.000000 0.816622 0.679940
O O20 0.000000 0.367244 0.378583
#
# Coordination Sequence:
#
# PCOD9351466 Si02
#       8
#     8   8   8   8   8   8   8   8
#     4   9  18  32  52  79 106 136 176 219 262 310
#     4   9  17  31  53  79 103 131 175 222 259 304
#     4  10  20  33  49  75 109 138 168 209 262 317
#     4  10  20  36  57  75 102 142 179 216 258 312
#     4  11  21  33  52  78 108 137 169 216 264 310
#     4   9  17  31  53  77 102 134 175 221 258 303
#     4  10  21  36  52  76 109 144 175 209 261 318
#     4   8  15  30  52  77  99 128 175 218 256 304
#
# _framework density 19.671776000000001
#
# number of rings (size 3 to 8) (size 9 to 14) (size 15 to 20)
#    0.000    2.500    2.500    1.875    0.000    2.000 
#    0.000    3.750    0.000    1.500    0.000    0.000 
#    0.000    0.000    0.000    0.000    0.000    0.000 
#
# Total GULP energy -178513.826412 kJ/mol
# GULP energy per Si atom -5578.557075 kJ/mol
# Density = 1.962700 g / cm^3
# Si number density = 19.671776 Si / 1000 Ang^3
#
#
#
# Elastic Constant Matrix: (Units=GPa)
#
#
# Indices 1 2 3 4 5 6 
#
# 1 31.8815 0.5394 -8.7652 0.0000 0.0000 0.0000
# 2 0.5394 99.8295 73.0906 0.0000 0.0000 0.0000
# 3 -8.7652 73.0906 155.2256 0.0000 0.0000 0.0000
# 4 0.0000 0.0000 0.0000 29.4641 0.0000 0.0000
# 5 0.0000 0.0000 0.0000 0.0000 38.8856 0.0000
# 6 0.0000 0.0000 0.0000 0.0000 0.0000 8.6239
#
#
#
# Elastic Compliance Matrix: (Units=1/GPa)
#
#
# Indices 1 2 3 4 5 6 
#
# 1 0.032202 -0.002297 0.002900 0.000000 0.000000 0.000000
# 2 -0.002297 0.015451 -0.007405 0.000000 0.000000 0.000000
# 3 0.002900 -0.007405 0.010093 0.000000 0.000000 0.000000
# 4 0.000000 0.000000 0.000000 0.033940 0.000000 0.000000
# 5 0.000000 0.000000 0.000000 0.000000 0.025716 0.000000
# 6 0.000000 0.000000 0.000000 0.000000 0.000000 0.115956
#
#
# Mechanical properties :
#
#
# Convention : Reuss Voigt Hill
#
# Bulk Modulus (GPa) = 22.65433 46.29624 34.47528
# Shear Modulus (GPa) = 19.10748 30.19950 24.65349
#
# Velocity S-wave (km/s) = 3.11997 3.92237 3.54396
# Velocity P-wave (km/s) = 4.95178 6.64069 5.85743
#
# Compressibility (1/GPa) = 0.04414168
#
# Stress axis : x y z
#
# Youngs Moduli (GPa) = 31.05359 64.71972 99.07986
#
# Poissons Ratio (x) = 0.14868 -0.28734
# Poissons Ratio (y) = 0.07134 0.73371
# Poissons Ratio (z) = -0.09006 0.47926
#
# Static dielectric constant tensor:
#      x y z
#    x 1.243030 0.000000 0.000000 
#    y 0.000000 1.676700 0.000000 
#    z 0.000000 0.000000 1.707320 
# 
# From -- ./inp_files/13988.got.cif
#   From: 2010.05.17/outbox.cif.g08.bks.cpg/sg36_7_cif.got.tgz:13988.got - 2010.06.03 17:41:39.
