data_PCOD9351042
_publ_section_title
;
Structure prediction by ZEFSAII (Michael W. Deem and Ramdas Pophale) SiO2 
 PCOD9351042
Probable space group: C M C 21
;
_chemical_formula_sum "Si O2"
_cell_formula_units_Z 64
_cell_length_a 8.393128
_cell_length_b 14.629180
_cell_length_c 29.192911
_cell_angle_alpha 90.000000
_cell_angle_beta 90.000000
_cell_angle_gamma 90.000000
_cell_volume 3584.439324
_symmetry_space_group_name_H-M "C M C 21"
_symmetry_group_IT_number 36
_symmetry_cell_setting 'orthorhombic'
loop_
_space_group_symop_operation_xyz
x,y,z
-x,-y,1/2+z
x,-y,1/2+z
-x,y,z
1/2+x,1/2+y,z
1/2-x,1/2-y,1/2+z
1/2+x,1/2-y,1/2+z
1/2-x,1/2+y,z
loop_
_atom_site_type_symbol
_atom_site_label
_atom_site_fract_x
_atom_site_fract_y
_atom_site_fract_z
Si Si1 0.692557 0.646710 0.714700
Si Si2 0.307528 0.001358 0.644511
Si Si3 0.308928 0.365672 0.966720
Si Si4 0.809373 0.998899 0.290460
Si Si5 0.809235 0.491555 0.393761
Si Si6 0.307356 0.008846 0.040016
Si Si7 0.694133 0.842952 0.466930
Si Si8 0.192606 0.355709 0.720265
O O1 0.500000 0.647106 0.714273
O O2 0.750480 0.592891 0.669867
O O3 0.744915 0.585603 0.758228
O O4 0.747963 0.751199 0.717522
O O5 0.500000 0.001260 0.644140
O O6 0.251161 0.993263 0.592323
O O7 0.255376 0.916642 0.676629
O O8 0.500000 0.365238 0.967461
O O9 0.252801 0.421369 0.922145
O O10 0.250510 0.261220 0.966665
O O11 0.248332 0.422097 0.010575
O O12 0.000000 0.999004 0.290914
O O13 0.748049 0.990935 0.341859
O O14 0.750624 0.090375 0.265031
O O15 0.756244 0.402256 0.422714
O O16 0.000000 0.493625 0.394742
O O17 0.500000 0.008746 0.040292
O O18 0.256139 0.098555 0.011429
O O19 0.500000 0.841173 0.466948
O O20 0.000000 0.355275 0.720755
#
# Coordination Sequence:
#
# PCOD9351042 Si02
#       8
#     8   8   8   8   8   8   8   8
#     4   9  19  34  52  74 102 130 164 209 252 289
#     4   9  18  32  52  74 100 133 169 203 241 294
#     4  10  19  33  53  77 100 127 166 211 249 287
#     4  10  20  34  51  75 103 129 160 206 251 291
#     4  10  20  36  54  72  98 133 165 199 244 300
#     4   9  18  34  51  72 102 135 166 200 244 297
#     4   8  17  33  52  72  98 130 164 199 243 295
#     4   9  18  34  53  74  99 133 170 203 244 297
#
# _framework density 17.854955
#
# number of rings (size 3 to 8) (size 9 to 14) (size 15 to 20)
#    0.000    2.750    0.000    1.875    0.000    3.500 
#    0.000   11.250    0.000    0.000    0.000    0.000 
#    0.000    0.000    0.000    0.000    0.000    0.000 
#
# Total GULP energy -178453.267173 kJ/mol
# GULP energy per Si atom -5576.664599 kJ/mol
# Density = 1.781432 g / cm^3
# Si number density = 17.854955 Si / 1000 Ang^3
#
#
#
# Elastic Constant Matrix: (Units=GPa)
#
#
# Indices 1 2 3 4 5 6 
#
# 1 13.9693 18.0453 17.7567 0.0000 0.0000 0.0000
# 2 18.0453 174.4599 80.1958 0.0000 0.0000 0.0000
# 3 17.7567 80.1958 168.1253 0.0000 0.0000 0.0000
# 4 0.0000 0.0000 0.0000 6.1808 0.0000 0.0000
# 5 0.0000 0.0000 0.0000 0.0000 27.0563 0.0000
# 6 0.0000 0.0000 0.0000 0.0000 0.0000 14.7705
#
#
#
# Elastic Compliance Matrix: (Units=1/GPa)
#
#
# Indices 1 2 3 4 5 6 
#
# 1 0.087560 -0.006155 -0.006312 0.000000 0.000000 0.000000
# 2 -0.006155 0.007775 -0.003058 0.000000 0.000000 0.000000
# 3 -0.006312 -0.003058 0.008073 0.000000 0.000000 0.000000
# 4 0.000000 0.000000 0.000000 0.161790 0.000000 0.000000
# 5 0.000000 0.000000 0.000000 0.000000 0.036960 0.000000
# 6 0.000000 0.000000 0.000000 0.000000 0.000000 0.067703
#
#
# Mechanical properties :
#
#
# Convention : Reuss Voigt Hill
#
# Bulk Modulus (GPa) = 13.82032 65.39444 39.60738
# Shear Modulus (GPa) = 11.76385 25.63864 18.70125
#
# Velocity S-wave (km/s) = 2.56960 3.79349 3.23986
# Velocity P-wave (km/s) = 4.06952 7.47612 6.01886
#
# Compressibility (1/GPa) = 0.07235721
#
# Stress axis : x y z
#
# Youngs Moduli (GPa) = 11.42073 128.62527 123.86397
#
# Poissons Ratio (x) = 0.79175 0.78178
# Poissons Ratio (y) = 0.07030 0.37882
# Poissons Ratio (z) = 0.07208 0.39338
#
# Static dielectric constant tensor:
#      x y z
#    x 1.617670 0.000000 0.000000 
#    y 0.000000 1.601850 0.000000 
#    z 0.000000 0.000000 1.591160 
# 
# From -- ./inp_files/16698.got.cif
#   From: 2010.05.17/outbox.cif.g08.bks.cpg/sg36_9_cif.got.tgz:16698.got - 2010.06.03 17:41:39.
