data_PCOD9351232
_publ_section_title
;
Structure prediction by ZEFSAII (Michael W. Deem and Ramdas Pophale) SiO2 
 PCOD9351232
Probable space group: C M C 21
;
_chemical_formula_sum "Si O2"
_cell_formula_units_Z 64
_cell_length_a 16.451820
_cell_length_b 20.423502
_cell_length_c 8.197394
_cell_angle_alpha 90.000000
_cell_angle_beta 90.000000
_cell_angle_gamma 90.000000
_cell_volume 2754.355359
_symmetry_space_group_name_H-M "C M C 21"
_symmetry_group_IT_number 36
_symmetry_cell_setting 'orthorhombic'
loop_
_space_group_symop_operation_xyz
x,y,z
-x,-y,1/2+z
x,-y,1/2+z
-x,y,z
1/2+x,1/2+y,z
1/2-x,1/2-y,1/2+z
1/2+x,1/2-y,1/2+z
1/2-x,1/2+y,z
loop_
_atom_site_type_symbol
_atom_site_label
_atom_site_fract_x
_atom_site_fract_y
_atom_site_fract_z
Si Si1 0.592776 0.253715 0.603980
Si Si2 0.595833 0.521170 0.044482
Si Si3 0.096083 0.645817 0.105506
Si Si4 0.839228 0.369039 0.282011
Si Si5 0.346440 0.362319 0.363593
Si Si6 0.335849 0.854462 0.936821
Si Si7 0.160863 0.209646 0.525315
Si Si8 0.596682 0.595552 0.355112
O O1 0.500000 0.266514 0.648773
O O2 0.639721 0.207661 0.734964
O O3 0.632611 0.316269 0.518322
O O4 0.594733 0.200570 0.455817
O O5 0.500000 0.513428 0.074003
O O6 0.631847 0.561043 0.195106
O O7 0.606765 0.569905 0.891385
O O8 0.630194 0.450306 0.000461
O O9 0.147529 0.617218 0.258450
O O10 0.140577 0.715631 0.065975
O O11 0.000000 0.652878 0.138533
O O12 0.104365 0.609531 0.930410
O O13 0.749052 0.374890 0.350446
O O14 0.844210 0.399091 0.099343
O O15 0.364802 0.325803 0.194688
O O16 0.252238 0.812860 0.970318
O O17 0.112228 0.171281 0.384724
O O18 0.500000 0.588302 0.350627
#
# Coordination Sequence:
#
# PCOD9351232 Si02
#       8
#     8   8   8   8   8   8   8   8
#     4  10  19  35  53  75 112 150 187 229 272 328
#     4  10  22  38  57  80 109 146 187 238 286 330
#     4  12  23  34  55  80 109 153 195 231 276 333
#     4   9  23  35  51  76 110 146 187 231 275 330
#     4  11  21  35  57  78 108 152 188 228 287 333
#     4   9  22  36  50  76 113 145 184 234 277 325
#     4  11  22  35  55  79 110 149 191 229 281 340
#     4  10  22  38  56  80 111 145 189 240 282 333
#
# _framework density 23.235927
#
# number of rings (size 3 to 8) (size 9 to 14) (size 15 to 20)
#    0.750    1.000    1.250    3.000    5.250    2.500 
#    0.000    0.000    0.000    0.000    0.000    0.000 
#    0.000    6.000    0.000    0.000    0.000    0.000 
#
# Total GULP energy -178215.984846 kJ/mol
# GULP energy per Si atom -5569.249526 kJ/mol
# Density = 2.318304 g / cm^3
# Si number density = 23.235927 Si / 1000 Ang^3
#
#
#
# Elastic Constant Matrix: (Units=GPa)
#
#
# Indices 1 2 3 4 5 6 
#
# 1 77.6154 -13.0569 33.3951 0.0000 0.0000 0.0000
# 2 -13.0569 10.3590 -4.5140 0.0000 0.0000 0.0000
# 3 33.3951 -4.5140 113.2024 0.0000 0.0000 0.0000
# 4 0.0000 0.0000 0.0000 11.2439 0.0000 0.0000
# 5 0.0000 0.0000 0.0000 0.0000 32.2563 0.0000
# 6 0.0000 0.0000 0.0000 0.0000 0.0000 5.8631
#
#
#
# Elastic Compliance Matrix: (Units=1/GPa)
#
#
# Indices 1 2 3 4 5 6 
#
# 1 0.018431 0.021231 -0.004591 0.000000 0.000000 0.000000
# 2 0.021231 0.122697 -0.001371 0.000000 0.000000 0.000000
# 3 -0.004591 -0.001371 0.010133 0.000000 0.000000 0.000000
# 4 0.000000 0.000000 0.000000 0.088937 0.000000 0.000000
# 5 0.000000 0.000000 0.000000 0.000000 0.031002 0.000000
# 6 0.000000 0.000000 0.000000 0.000000 0.000000 0.170559
#
#
# Mechanical properties :
#
#
# Convention : Reuss Voigt Hill
#
# Bulk Modulus (GPa) = 5.50054 25.86947 15.68501
# Shear Modulus (GPa) = 10.59724 22.22948 16.41336
#
# Velocity S-wave (km/s) = 2.13790 3.09639 2.66066
# Velocity P-wave (km/s) = 2.90973 4.89296 4.02540
#
# Compressibility (1/GPa) = 0.18180022
#
# Stress axis : x y z
#
# Youngs Moduli (GPa) = 54.25724 8.15015 98.68435
#
# Poissons Ratio (x) = -0.17303 0.45302
# Poissons Ratio (y) = -1.15191 0.13525
# Poissons Ratio (z) = 0.24907 0.01117
#
# Static dielectric constant tensor:
#      x y z
#    x 1.855530 0.000000 0.000000 
#    y 0.000000 1.854600 0.000000 
#    z 0.000000 0.000000 2.104330 
# 
# From -- ./inp_files/4993.got.cif
#   From: 2010.05.17/outbox.cif.g08.bks.cpg/sg36_3_cif.got.tgz:4993.got - 2010.06.03 17:41:39.
