data_PCOD9351839
_publ_section_title
;
Structure prediction by ZEFSAII (Michael W. Deem and Ramdas Pophale) SiO2 
 PCOD9351839
Probable space group: C M C 21
;
_chemical_formula_sum "Si O2"
_cell_formula_units_Z 64
_cell_length_a 8.612869
_cell_length_b 26.960773
_cell_length_c 13.095247
_cell_angle_alpha 90.000000
_cell_angle_beta 90.000000
_cell_angle_gamma 90.000000
_cell_volume 3040.842146
_symmetry_space_group_name_H-M "C M C 21"
_symmetry_group_IT_number 36
_symmetry_cell_setting 'orthorhombic'
loop_
_space_group_symop_operation_xyz
x,y,z
-x,-y,1/2+z
x,-y,1/2+z
-x,y,z
1/2+x,1/2+y,z
1/2-x,1/2-y,1/2+z
1/2+x,1/2-y,1/2+z
1/2-x,1/2+y,z
loop_
_atom_site_type_symbol
_atom_site_label
_atom_site_fract_x
_atom_site_fract_y
_atom_site_fract_z
Si Si1 0.314671 0.051263 0.202490
Si Si2 0.322705 0.806370 0.847061
Si Si3 0.822298 0.754917 0.551443
Si Si4 0.816066 0.617752 0.827353
Si Si5 0.812455 0.588541 0.423131
Si Si6 0.183983 0.216808 0.733758
Si Si7 0.686290 0.630073 0.047188
Si Si8 0.316172 0.553118 0.640446
O O1 0.500000 0.046353 0.191659
O O2 0.279965 0.054953 0.323626
O O3 0.260367 0.099955 0.140801
O O4 0.231150 0.004037 0.154153
O O5 0.500000 0.818934 0.814740
O O6 0.253956 0.857124 0.887801
O O7 0.252004 0.772066 0.759848
O O8 0.328457 0.766872 0.938190
O O9 0.717900 0.716405 0.614207
O O10 0.767683 0.811796 0.548308
O O11 0.000000 0.753023 0.590280
O O12 0.768321 0.673138 0.792524
O O13 0.758680 0.582780 0.735378
O O14 0.000000 0.613403 0.837550
O O15 0.739638 0.608178 0.937792
O O16 0.742504 0.571850 0.530271
O O17 0.000000 0.590906 0.436706
O O18 0.000000 0.213971 0.754490
O O19 0.500000 0.627679 0.053651
O O20 0.500000 0.559466 0.646068
#
# Coordination Sequence:
#
# PCOD9351839 Si02
#       8
#     8   8   8   8   8   8   8   8
#     4  11  25  45  70 100 133 175 221 274 339 405
#     4   9  18  36  60  87 125 168 205 251 313 376
#     4  10  20  36  59  90 131 175 214 259 320 383
#     4  12  25  43  67  97 135 178 226 278 336 401
#     4  10  22  43  70  98 133 173 220 273 332 405
#     4  11  21  37  61  93 131 172 217 265 320 385
#     4  11  23  42  67  99 138 179 224 277 332 395
#     4  12  27  46  70  98 130 172 223 283 342 400
#
# _framework density 21.046800999999999
#
# number of rings (size 3 to 8) (size 9 to 14) (size 15 to 20)
#    0.000    1.250    1.250    4.875    1.750    4.000 
#    0.000    1.250    0.000    0.000    0.000    0.000 
#    0.000    0.000    0.000    0.000    0.000    0.000 
#
# Total GULP energy -178776.153050 kJ/mol
# GULP energy per Si atom -5586.754783 kJ/mol
# Density = 2.099890 g / cm^3
# Si number density = 21.046801 Si / 1000 Ang^3
#
#
#
# Elastic Constant Matrix: (Units=GPa)
#
#
# Indices 1 2 3 4 5 6 
#
# 1 56.3099 -2.4243 18.0689 0.0000 0.0000 0.0000
# 2 -2.4243 57.2962 -4.7588 0.0000 0.0000 0.0000
# 3 18.0689 -4.7588 91.1908 0.0000 0.0000 0.0000
# 4 0.0000 0.0000 0.0000 34.5974 0.0000 0.0000
# 5 0.0000 0.0000 0.0000 0.0000 25.5326 0.0000
# 6 0.0000 0.0000 0.0000 0.0000 0.0000 24.8125
#
#
#
# Elastic Compliance Matrix: (Units=1/GPa)
#
#
# Indices 1 2 3 4 5 6 
#
# 1 0.018979 0.000493 -0.003735 0.000000 0.000000 0.000000
# 2 0.000493 0.017542 0.000818 0.000000 0.000000 0.000000
# 3 -0.003735 0.000818 0.011749 0.000000 0.000000 0.000000
# 4 0.000000 0.000000 0.000000 0.028904 0.000000 0.000000
# 5 0.000000 0.000000 0.000000 0.000000 0.039166 0.000000
# 6 0.000000 0.000000 0.000000 0.000000 0.000000 0.040302
#
#
# Mechanical properties :
#
#
# Convention : Reuss Voigt Hill
#
# Bulk Modulus (GPa) = 23.03039 25.17425 24.10232
# Shear Modulus (GPa) = 28.41510 29.91592 29.16551
#
# Velocity S-wave (km/s) = 3.67834 3.77424 3.72660
# Velocity P-wave (km/s) = 5.38577 5.56599 5.47662
#
# Compressibility (1/GPa) = 0.04342088
#
# Stress axis : x y z
#
# Youngs Moduli (GPa) = 52.69119 57.00624 85.11568
#
# Poissons Ratio (x) = -0.02809 0.31789
# Poissons Ratio (y) = -0.02597 -0.06961
# Poissons Ratio (z) = 0.19679 -0.04662
#
# Static dielectric constant tensor:
#      x y z
#    x 1.728750 0.000000 0.000000 
#    y 0.000000 1.775760 0.000000 
#    z 0.000000 0.000000 1.752050 
# 
# From -- ./inp_files/7239.got.cif
#   From: 2010.05.17/outbox.cif.g08.bks.cpg/sg36_4_cif.got.tgz:7239.got - 2010.06.03 17:41:39.
