data_PCOD9351431
_publ_section_title
;
Structure prediction by ZEFSAII (Michael W. Deem and Ramdas Pophale) SiO2 
 PCOD9351431
Probable space group: C M C 21
;
_chemical_formula_sum "Si O2"
_cell_formula_units_Z 56
_cell_length_a 30.549962
_cell_length_b 11.323700
_cell_length_c 7.960519
_cell_angle_alpha 90.000000
_cell_angle_beta 90.000000
_cell_angle_gamma 90.000000
_cell_volume 2753.850836
_symmetry_space_group_name_H-M "C M C 21"
_symmetry_group_IT_number 36
_symmetry_cell_setting 'orthorhombic'
loop_
_space_group_symop_operation_xyz
x,y,z
-x,-y,1/2+z
x,-y,1/2+z
-x,y,z
1/2+x,1/2+y,z
1/2-x,1/2-y,1/2+z
1/2+x,1/2-y,1/2+z
1/2-x,1/2+y,z
loop_
_atom_site_type_symbol
_atom_site_label
_atom_site_fract_x
_atom_site_fract_y
_atom_site_fract_z
Si Si1 0.597368 0.167608 0.200040
Si Si2 0.288903 0.977649 0.952810
Si Si3 0.694254 0.232774 0.208958
Si Si4 0.776225 0.155665 0.047840
Si Si5 0.590947 0.896702 0.089877
Si Si6 0.500000 0.088850 0.746794
Si Si7 0.000000 0.327607 0.631116
Si Si8 0.671329 0.180318 0.747617
O O1 0.643212 0.233588 0.157050
O O2 0.600177 0.141469 0.399922
O O3 0.549214 0.224066 0.163541
O O4 0.597910 0.037914 0.112704
O O5 0.292674 0.895207 0.789333
O O6 0.312926 0.099728 0.900966
O O7 0.313401 0.900548 0.089815
O O8 0.242518 0.024422 0.020528
O O9 0.734919 0.246252 0.080600
O O10 0.701419 0.316272 0.369724
O O11 0.807607 0.193241 0.202515
O O12 0.541847 0.872858 0.143328
O O13 0.619921 0.824985 0.224035
O O14 0.500000 0.946034 0.745683
O O15 0.500000 0.133262 0.936529
#
# Coordination Sequence:
#
# PCOD9351431 Si02
#       8
#     8   8   8   8   8   4   4   8
#     4  11  19  30  47  67  92 129 165 205 243 288
#     4  11  19  33  47  65  95 127 166 200 241 285
#     4  11  22  33  50  72  95 137 169 206 248 287
#     4  11  21  33  46  70  98 123 176 204 241 294
#     4  11  17  30  44  65  91 122 168 199 239 286
#     4  10  20  28  44  64  88 126 162 209 239 274
#     4  10  20  32  40  64  94 122 166 203 241 286
#     4  11  20  31  48  68  92 133 164 205 239 288
#
# _framework density 20.335160999999999
#
# number of rings (size 3 to 8) (size 9 to 14) (size 15 to 20)
#    0.000    1.143    7.143    3.857    0.000    1.143 
#    0.000    0.000    0.000    0.000    0.000    0.000 
#    0.000    0.000    0.000   25.714    0.000    6.286 
#
# Total GULP energy -156014.364260 kJ/mol
# GULP energy per Si atom -5571.941581 kJ/mol
# Density = 2.028888 g / cm^3
# Si number density = 20.335161 Si / 1000 Ang^3
#
#
#
# Elastic Constant Matrix: (Units=GPa)
#
#
# Indices 1 2 3 4 5 6 
#
# 1 142.5492 11.3330 -1.2660 0.0000 0.0000 0.0000
# 2 11.3330 25.9738 -7.7998 0.0000 0.0000 0.0000
# 3 -1.2660 -7.7998 49.8977 0.0000 0.0000 0.0000
# 4 0.0000 0.0000 0.0000 16.9293 0.0000 0.0000
# 5 0.0000 0.0000 0.0000 0.0000 32.8813 0.0000
# 6 0.0000 0.0000 0.0000 0.0000 0.0000 26.0736
#
#
#
# Elastic Compliance Matrix: (Units=1/GPa)
#
#
# Indices 1 2 3 4 5 6 
#
# 1 0.007272 -0.003271 -0.000327 0.000000 0.000000 0.000000
# 2 -0.003271 0.041868 0.006462 0.000000 0.000000 0.000000
# 3 -0.000327 0.006462 0.021043 0.000000 0.000000 0.000000
# 4 0.000000 0.000000 0.000000 0.059069 0.000000 0.000000
# 5 0.000000 0.000000 0.000000 0.000000 0.030412 0.000000
# 6 0.000000 0.000000 0.000000 0.000000 0.000000 0.038353
#
#
# Mechanical properties :
#
#
# Convention : Reuss Voigt Hill
#
# Bulk Modulus (GPa) = 13.17346 24.77279 18.97312
# Shear Modulus (GPa) = 22.97858 29.58707 26.28283
#
# Velocity S-wave (km/s) = 3.36518 3.81855 3.59901
# Velocity P-wave (km/s) = 4.64667 5.62587 5.15955
#
# Compressibility (1/GPa) = 0.07591019
#
# Stress axis : x y z
#
# Youngs Moduli (GPa) = 137.50827 23.88459 47.52230
#
# Poissons Ratio (x) = 0.07813 0.01553
# Poissons Ratio (y) = 0.44982 -0.30707
# Poissons Ratio (z) = 0.04494 -0.15433
#
# Static dielectric constant tensor:
#      x y z
#    x 1.850390 0.000000 0.000000 
#    y 0.000000 1.753180 0.000000 
#    z 0.000000 0.000000 1.850480 
# 
# From -- ./inp_files/6117.got.cif
#   From: 2010.05.17/outbox.cif.g08.bks.cpg/sg36_4_cif.got.tgz:6117.got - 2010.06.03 17:41:39.
