data_PCOD9351492
_publ_section_title
;
Structure prediction by ZEFSAII (Michael W. Deem and Ramdas Pophale) SiO2 
 PCOD9351492
Probable space group: C M C 21
;
_chemical_formula_sum "Si O2"
_cell_formula_units_Z 64
_cell_length_a 7.481811
_cell_length_b 16.566478
_cell_length_c 19.559399
_cell_angle_alpha 90.000000
_cell_angle_beta 90.000000
_cell_angle_gamma 90.000000
_cell_volume 2424.333861
_symmetry_space_group_name_H-M "C M C 21"
_symmetry_group_IT_number 36
_symmetry_cell_setting 'orthorhombic'
loop_
_space_group_symop_operation_xyz
x,y,z
-x,-y,1/2+z
x,-y,1/2+z
-x,y,z
1/2+x,1/2+y,z
1/2-x,1/2-y,1/2+z
1/2+x,1/2-y,1/2+z
1/2-x,1/2+y,z
loop_
_atom_site_type_symbol
_atom_site_label
_atom_site_fract_x
_atom_site_fract_y
_atom_site_fract_z
Si Si1 0.786461 0.257051 0.841060
Si Si2 0.204818 0.499287 0.800248
Si Si3 0.783875 0.158952 0.716846
Si Si4 0.717407 0.755185 0.589448
Si Si5 0.713153 0.344679 0.968078
Si Si6 0.709463 0.906433 0.675013
Si Si7 0.782411 0.004041 0.045286
Si Si8 0.206963 0.895100 0.424267
O O1 0.730564 0.236192 0.764178
O O2 0.749269 0.333910 0.887959
O O3 0.712230 0.181282 0.885394
O O4 0.000000 0.251765 0.838391
O O5 0.208306 0.579909 0.752633
O O6 0.283991 0.431869 0.748987
O O7 0.288813 0.529807 0.870836
O O8 0.000000 0.478373 0.815353
O O9 0.738663 0.180393 0.639632
O O10 0.000000 0.150029 0.719608
O O11 0.500000 0.762228 0.587370
O O12 0.779845 0.730956 0.514002
O O13 0.786078 0.833532 0.629589
O O14 0.500000 0.346102 0.974475
O O15 0.779637 0.424383 0.005828
O O16 0.500000 0.888293 0.687475
O O17 0.722366 0.981082 0.622193
O O18 0.000000 0.003233 0.046057
O O19 0.716800 0.076979 0.996373
O O20 0.000000 0.876652 0.435706
#
# Coordination Sequence:
#
# PCOD9351492 Si02
#       8
#     8   8   8   8   8   8   8   8
#     4   9  18  32  52  76 100 131 167 203 248 300
#     4  10  20  33  52  79 107 134 169 212 255 303
#     4   9  18  35  57  76 100 137 174 208 251 304
#     4   9  18  34  54  74  99 134 173 207 247 303
#     4  10  20  33  52  76 101 132 168 208 253 301
#     4  10  21  35  52  77 106 136 173 215 258 307
#     4  10  21  36  54  77 103 134 175 217 258 307
#     4   9  19  36  55  75 102 136 173 210 252 307
#
# _framework density 26.399003
#
# number of rings (size 3 to 8) (size 9 to 14) (size 15 to 20)
#    0.000    2.500    0.000    2.625    0.000    6.000 
#    0.000    2.500    0.000    0.000    0.000    0.000 
#    0.000    0.000    0.000    0.000    0.000    0.000 
#
# Total GULP energy -178889.694920 kJ/mol
# GULP energy per Si atom -5590.302966 kJ/mol
# Density = 2.633892 g / cm^3
# Si number density = 26.399003 Si / 1000 Ang^3
#
#
#
# Elastic Constant Matrix: (Units=GPa)
#
#
# Indices 1 2 3 4 5 6 
#
# 1 79.6527 -3.5056 -2.9922 0.0000 0.0000 0.0000
# 2 -3.5056 65.3791 3.2224 0.0000 0.0000 0.0000
# 3 -2.9922 3.2224 143.9155 0.0000 0.0000 0.0000
# 4 0.0000 0.0000 0.0000 49.0209 0.0000 0.0000
# 5 0.0000 0.0000 0.0000 0.0000 16.6416 0.0000
# 6 0.0000 0.0000 0.0000 0.0000 0.0000 10.0936
#
#
#
# Elastic Compliance Matrix: (Units=1/GPa)
#
#
# Indices 1 2 3 4 5 6 
#
# 1 0.012593 0.000663 0.000247 0.000000 0.000000 0.000000
# 2 0.000663 0.015347 -0.000330 0.000000 0.000000 0.000000
# 3 0.000247 -0.000330 0.006961 0.000000 0.000000 0.000000
# 4 0.000000 0.000000 0.000000 0.020399 0.000000 0.000000
# 5 0.000000 0.000000 0.000000 0.000000 0.060090 0.000000
# 6 0.000000 0.000000 0.000000 0.000000 0.000000 0.099073
#
#
# Mechanical properties :
#
#
# Convention : Reuss Voigt Hill
#
# Bulk Modulus (GPa) = 27.73033 31.37738 29.55385
# Shear Modulus (GPa) = 22.19027 34.63273 28.41150
#
# Velocity S-wave (km/s) = 2.90241 3.62594 3.28416
# Velocity P-wave (km/s) = 4.66466 5.42601 5.05967
#
# Compressibility (1/GPa) = 0.03606160
#
# Stress axis : x y z
#
# Youngs Moduli (GPa) = 79.40947 65.15839 143.65665
#
# Poissons Ratio (x) = -0.04320 -0.03548
# Poissons Ratio (y) = -0.05265 0.04738
# Poissons Ratio (z) = -0.01961 0.02149
#
# Static dielectric constant tensor:
#      x y z
#    x 1.978050 0.000000 0.000000 
#    y 0.000000 2.185850 0.000000 
#    z 0.000000 0.000000 2.014340 
# 
# From -- ./inp_files/15676.got.cif
#   From: 2010.05.17/outbox.cif.g08.bks.cpg/sg36_8_cif.got.tgz:15676.got - 2010.06.03 17:41:39.
