data_PCOD9351966
_publ_section_title
;
Structure prediction by ZEFSAII (Michael W. Deem and Ramdas Pophale) SiO2 
 PCOD9351966
Probable space group: C M C 21
;
_chemical_formula_sum "Si O2"
_cell_formula_units_Z 48
_cell_length_a 12.575514
_cell_length_b 30.957083
_cell_length_c 5.589651
_cell_angle_alpha 90.000000
_cell_angle_beta 90.000000
_cell_angle_gamma 90.000000
_cell_volume 2176.058013
_symmetry_space_group_name_H-M "C M C 21"
_symmetry_group_IT_number 36
_symmetry_cell_setting 'orthorhombic'
loop_
_space_group_symop_operation_xyz
x,y,z
-x,-y,1/2+z
x,-y,1/2+z
-x,y,z
1/2+x,1/2+y,z
1/2-x,1/2-y,1/2+z
1/2+x,1/2-y,1/2+z
1/2-x,1/2+y,z
loop_
_atom_site_type_symbol
_atom_site_label
_atom_site_fract_x
_atom_site_fract_y
_atom_site_fract_z
Si Si1 0.203166 0.387807 0.975600
Si Si2 0.379897 0.342058 0.257317
Si Si3 0.884502 0.237594 0.408686
Si Si4 0.000000 0.533660 0.215240
Si Si5 0.267492 0.982042 0.755363
Si Si6 0.500000 0.914914 0.218988
Si Si7 0.287041 0.185280 0.129735
O O1 0.224562 0.431844 0.828930
O O2 0.162566 0.348981 0.808389
O O3 0.317176 0.372567 0.074250
O O4 0.116016 0.392676 0.186729
O O5 0.500000 0.355824 0.308115
O O6 0.302874 0.339650 0.481935
O O7 0.384432 0.294440 0.137232
O O8 0.783124 0.221898 0.261846
O O9 0.869066 0.287408 0.474638
O O10 0.000000 0.230941 0.287887
O O11 0.892330 0.505841 0.220950
O O12 0.000000 0.561164 0.457978
O O13 0.000000 0.563332 0.980054
O O14 0.222412 0.993148 0.490702
#
# Coordination Sequence:
#
# PCOD9351966 Si02
#       7
#     8   8   8   4   8   4   8
#     4  10  25  39  62  97 134 173 222 278 353 409
#     4  10  22  42  67  87 125 171 231 279 336 416
#     4  10  21  38  59  89 121 166 217 274 342 407
#     4  10  20  37  62  92 132 182 220 260 328 410
#     4  11  22  38  65  94 132 176 219 272 331 410
#     4  10  22  39  62  96 144 170 218 274 334 422
#     4  11  21  39  61  92 129 170 223 285 340 419
#
# _framework density 22.058233000000001
#
# number of rings (size 3 to 8) (size 9 to 14) (size 15 to 20)
#    0.000    1.667    1.667    3.000    8.167    0.667 
#    1.500    0.000    0.000    1.000    0.000    0.000 
#    0.000    0.000    0.000    0.000    0.000    0.000 
#
# Total GULP energy -133888.229800 kJ/mol
# GULP energy per Si atom -5578.676242 kJ/mol
# Density = 2.200803 g / cm^3
# Si number density = 22.058233 Si / 1000 Ang^3
#
#
#
# Elastic Constant Matrix: (Units=GPa)
#
#
# Indices 1 2 3 4 5 6 
#
# 1 62.7717 22.0219 14.8985 0.0000 0.0000 0.0000
# 2 22.0219 98.2629 39.3875 0.0000 0.0000 0.0000
# 3 14.8985 39.3875 108.2420 0.0000 0.0000 0.0000
# 4 0.0000 0.0000 0.0000 35.4556 0.0000 0.0000
# 5 0.0000 0.0000 0.0000 0.0000 14.5748 0.0000
# 6 0.0000 0.0000 0.0000 0.0000 0.0000 13.5085
#
#
#
# Elastic Compliance Matrix: (Units=1/GPa)
#
#
# Indices 1 2 3 4 5 6 
#
# 1 0.017410 -0.003444 -0.001143 0.000000 0.000000 0.000000
# 2 -0.003444 0.012596 -0.004109 0.000000 0.000000 0.000000
# 3 -0.001143 -0.004109 0.010891 0.000000 0.000000 0.000000
# 4 0.000000 0.000000 0.000000 0.028204 0.000000 0.000000
# 5 0.000000 0.000000 0.000000 0.000000 0.068611 0.000000
# 6 0.000000 0.000000 0.000000 0.000000 0.000000 0.074027
#
#
# Mechanical properties :
#
#
# Convention : Reuss Voigt Hill
#
# Bulk Modulus (GPa) = 42.54474 46.87692 44.71083
# Shear Modulus (GPa) = 21.09992 25.57237 23.33614
#
# Velocity S-wave (km/s) = 3.09618 3.40856 3.25612
# Velocity P-wave (km/s) = 5.66667 6.06536 5.86940
#
# Compressibility (1/GPa) = 0.02350467
#
# Stress axis : x y z
#
# Youngs Moduli (GPa) = 57.43764 79.39197 91.81666
#
# Poissons Ratio (x) = 0.27339 0.10497
# Poissons Ratio (y) = 0.19779 0.37731
# Poissons Ratio (z) = 0.06567 0.32625
#
# Static dielectric constant tensor:
#      x y z
#    x 1.827060 0.000000 0.000000 
#    y 0.000000 1.852730 0.000000 
#    z 0.000000 0.000000 1.884900 
# 
# From -- ./inp_files/841.got.cif
#   From: 2010.05.17/outbox.cif.g08.bks.cpg/sg36_1_cif.got.tgz:841.got - 2010.06.03 17:41:39.
