data_PCOD9351191
_publ_section_title
;
Structure prediction by ZEFSAII (Michael W. Deem and Ramdas Pophale) SiO2 
 PCOD9351191
Probable space group: C M C 21
;
_chemical_formula_sum "Si O2"
_cell_formula_units_Z 64
_cell_length_a 8.822578
_cell_length_b 23.356547
_cell_length_c 16.379691
_cell_angle_alpha 90.000000
_cell_angle_beta 90.000000
_cell_angle_gamma 90.000000
_cell_volume 3375.280333
_symmetry_space_group_name_H-M "C M C 21"
_symmetry_group_IT_number 36
_symmetry_cell_setting 'orthorhombic'
loop_
_space_group_symop_operation_xyz
x,y,z
-x,-y,1/2+z
x,-y,1/2+z
-x,y,z
1/2+x,1/2+y,z
1/2-x,1/2-y,1/2+z
1/2+x,1/2-y,1/2+z
1/2-x,1/2+y,z
loop_
_atom_site_type_symbol
_atom_site_label
_atom_site_fract_x
_atom_site_fract_y
_atom_site_fract_z
Si Si1 0.318177 0.461297 0.934350
Si Si2 0.317540 0.150926 0.113270
Si Si3 0.678067 0.181473 0.836144
Si Si4 0.319501 0.719942 0.665613
Si Si5 0.681219 0.594469 0.950601
Si Si6 0.817654 0.115185 0.279291
Si Si7 0.328708 0.866567 0.044000
Si Si8 0.172144 0.713439 0.386487
O O1 0.500000 0.455158 0.941848
O O2 0.278403 0.527540 0.944842
O O3 0.278739 0.434871 0.844832
O O4 0.240783 0.423651 0.004896
O O5 0.500000 0.148582 0.113471
O O6 0.272203 0.217738 0.129498
O O7 0.251824 0.113719 0.188943
O O8 0.255044 0.125395 0.028869
O O9 0.500000 0.172705 0.832415
O O10 0.740993 0.206135 0.751524
O O11 0.761399 0.125621 0.868937
O O12 0.723539 0.231726 0.898943
O O13 0.500000 0.721672 0.674849
O O14 0.272103 0.666916 0.608807
O O15 0.500000 0.599614 0.956731
O O16 0.746994 0.172167 0.319628
O O17 0.000000 0.119237 0.274610
O O18 0.500000 0.875998 0.074851
O O19 0.336058 0.823239 0.967910
O O20 0.000000 0.729848 0.363186
#
# Coordination Sequence:
#
# PCOD9351191 Si02
#       8
#     8   8   8   8   8   8   8   8
#     4   9  21  42  64  87 117 160 208 248 299 365
#     4  11  23  39  62  93 126 159 202 253 309 367
#     4  12  24  38  59  87 122 159 199 248 306 364
#     4  11  23  39  60  88 125 160 197 246 304 369
#     4  11  24  43  64  87 121 165 209 254 306 365
#     4  10  19  35  62  91 119 155 201 250 299 359
#     4  10  21  36  60  90 119 153 196 247 298 353
#     4  10  19  34  57  87 121 155 192 238 299 362
#
# _framework density 18.961389
#
# number of rings (size 3 to 8) (size 9 to 14) (size 15 to 20)
#    0.000    1.500    1.250    4.125    0.000    6.500 
#    2.250    0.000    0.000    0.000    0.000    0.000 
#    0.000    0.000    0.000    0.000    0.000    0.000 
#
# Total GULP energy -178684.985071 kJ/mol
# GULP energy per Si atom -5583.905783 kJ/mol
# Density = 1.891823 g / cm^3
# Si number density = 18.961389 Si / 1000 Ang^3
#
#
#
# Elastic Constant Matrix: (Units=GPa)
#
#
# Indices 1 2 3 4 5 6 
#
# 1 59.0437 35.2683 33.6305 0.0000 0.0000 0.0000
# 2 35.2683 120.3996 52.0298 0.0000 0.0000 0.0000
# 3 33.6305 52.0298 78.4045 0.0000 0.0000 0.0000
# 4 0.0000 0.0000 0.0000 25.7290 0.0000 0.0000
# 5 0.0000 0.0000 0.0000 0.0000 33.1713 0.0000
# 6 0.0000 0.0000 0.0000 0.0000 0.0000 25.5614
#
#
#
# Elastic Compliance Matrix: (Units=1/GPa)
#
#
# Indices 1 2 3 4 5 6 
#
# 1 0.023438 -0.003535 -0.007708 0.000000 0.000000 0.000000
# 2 -0.003535 0.012178 -0.006565 0.000000 0.000000 0.000000
# 3 -0.007708 -0.006565 0.020417 0.000000 0.000000 0.000000
# 4 0.000000 0.000000 0.000000 0.038867 0.000000 0.000000
# 5 0.000000 0.000000 0.000000 0.000000 0.030146 0.000000
# 6 0.000000 0.000000 0.000000 0.000000 0.000000 0.039121
#
#
# Mechanical properties :
#
#
# Convention : Reuss Voigt Hill
#
# Bulk Modulus (GPa) = 48.97656 55.52277 52.24967
# Shear Modulus (GPa) = 24.20245 26.02030 25.11138
#
# Velocity S-wave (km/s) = 3.57656 3.70845 3.64310
# Velocity P-wave (km/s) = 6.55297 6.90524 6.73141
#
# Compressibility (1/GPa) = 0.02041793
#
# Stress axis : x y z
#
# Youngs Moduli (GPa) = 42.66522 82.11313 48.97791
#
# Poissons Ratio (x) = 0.29026 0.37751
# Poissons Ratio (y) = 0.15082 0.32156
# Poissons Ratio (z) = 0.32885 0.53911
#
# Static dielectric constant tensor:
#      x y z
#    x 1.650770 0.000000 0.000000 
#    y 0.000000 1.659570 0.000000 
#    z 0.000000 0.000000 1.697200 
# 
# From -- ./inp_files/11074.got.cif
#   From: 2010.05.17/outbox.cif.g08.bks.cpg/sg36_6_cif.got.tgz:11074.got - 2010.06.03 17:41:39.
