data_PCOD9351630
_publ_section_title
;
Structure prediction by ZEFSAII (Michael W. Deem and Ramdas Pophale) SiO2 
 PCOD9351630
Probable space group: C M C 21
;
_chemical_formula_sum "Si O2"
_cell_formula_units_Z 64
_cell_length_a 7.422597
_cell_length_b 14.377801
_cell_length_c 25.787330
_cell_angle_alpha 90.000000
_cell_angle_beta 90.000000
_cell_angle_gamma 90.000000
_cell_volume 2752.039912
_symmetry_space_group_name_H-M "C M C 21"
_symmetry_group_IT_number 36
_symmetry_cell_setting 'orthorhombic'
loop_
_space_group_symop_operation_xyz
x,y,z
-x,-y,1/2+z
x,-y,1/2+z
-x,y,z
1/2+x,1/2+y,z
1/2-x,1/2-y,1/2+z
1/2+x,1/2-y,1/2+z
1/2-x,1/2+y,z
loop_
_atom_site_type_symbol
_atom_site_label
_atom_site_fract_x
_atom_site_fract_y
_atom_site_fract_z
Si Si1 0.208047 0.591546 0.818730
Si Si2 0.721721 0.882775 0.020192
Si Si3 0.204481 0.363884 0.908442
Si Si4 0.718405 0.194032 0.299939
Si Si5 0.779221 0.462383 0.726603
Si Si6 0.214550 0.649422 0.925933
Si Si7 0.294082 0.012275 0.111852
Si Si8 0.286607 0.670875 0.039901
O O1 0.216152 0.700839 0.804508
O O2 0.284409 0.533644 0.770959
O O3 0.280658 0.587034 0.877782
O O4 0.000000 0.561916 0.821790
O O5 0.500000 0.886311 0.017768
O O6 0.785872 0.948967 0.066192
O O7 0.774569 0.777112 0.033927
O O8 0.785306 0.903664 0.961480
O O9 0.281681 0.364800 0.850513
O O10 0.200628 0.252053 0.919652
O O11 0.000000 0.399839 0.905232
O O12 0.500000 0.197137 0.303110
O O13 0.769769 0.139356 0.248239
O O14 0.713790 0.486056 0.669160
O O15 0.000000 0.464656 0.724571
O O16 0.000000 0.660674 0.919033
O O17 0.245329 0.620800 0.985035
O O18 0.500000 0.979370 0.117607
O O19 0.294148 0.115053 0.087531
O O20 0.500000 0.672061 0.046759
#
# Coordination Sequence:
#
# PCOD9351630 Si02
#       8
#     8   8   8   8   8   8   8   8
#     4   9  18  33  53  76 102 133 169 208 248 295
#     4   8  16  31  51  72  95 128 166 203 246 297
#     4   8  14  27  48  72  99 130 164 201 246 302
#     4   9  17  31  51  73  99 131 163 201 253 304
#     4   9  19  34  51  73 101 134 172 210 247 293
#     4   9  16  28  50  78 103 128 163 205 251 303
#     4  10  20  35  53  73  98 132 177 216 244 287
#     4  10  20  35  53  75 103 132 164 206 259 309
#
# _framework density 23.255475000000001
#
# number of rings (size 3 to 8) (size 9 to 14) (size 15 to 20)
#    0.000    3.000    0.000    1.500    0.000    2.500 
#    0.000   10.000    0.000    4.500    0.000    0.000 
#    0.000    0.000    0.000    0.000    0.000    0.000 
#
# Total GULP energy -178610.732792 kJ/mol
# GULP energy per Si atom -5581.585400 kJ/mol
# Density = 2.320254 g / cm^3
# Si number density = 23.255475 Si / 1000 Ang^3
#
#
#
# Elastic Constant Matrix: (Units=GPa)
#
#
# Indices 1 2 3 4 5 6 
#
# 1 81.6600 -3.1002 2.7221 0.0000 0.0000 0.0000
# 2 -3.1002 69.0404 45.6180 0.0000 0.0000 0.0000
# 3 2.7221 45.6180 181.9482 0.0000 0.0000 0.0000
# 4 0.0000 0.0000 0.0000 34.6906 0.0000 0.0000
# 5 0.0000 0.0000 0.0000 0.0000 6.2411 0.0000
# 6 0.0000 0.0000 0.0000 0.0000 0.0000 8.8042
#
#
#
# Elastic Compliance Matrix: (Units=1/GPa)
#
#
# Indices 1 2 3 4 5 6 
#
# 1 0.012289 0.000807 -0.000386 0.000000 0.000000 0.000000
# 2 0.000807 0.017413 -0.004378 0.000000 0.000000 0.000000
# 3 -0.000386 -0.004378 0.006599 0.000000 0.000000 0.000000
# 4 0.000000 0.000000 0.000000 0.028826 0.000000 0.000000
# 5 0.000000 0.000000 0.000000 0.000000 0.160229 0.000000
# 6 0.000000 0.000000 0.000000 0.000000 0.000000 0.113583
#
#
# Mechanical properties :
#
#
# Convention : Reuss Voigt Hill
#
# Bulk Modulus (GPa) = 35.22624 47.01426 41.12025
# Shear Modulus (GPa) = 14.03245 29.10773 21.57009
#
# Velocity S-wave (km/s) = 2.45909 3.54171 3.04884
# Velocity P-wave (km/s) = 4.82112 6.08155 5.48764
#
# Compressibility (1/GPa) = 0.02838793
#
# Stress axis : x y z
#
# Youngs Moduli (GPa) = 81.37085 57.42771 151.52722
#
# Poissons Ratio (x) = -0.04635 0.05852
# Poissons Ratio (y) = -0.06567 0.66337
# Poissons Ratio (z) = 0.03143 0.25141
#
# Static dielectric constant tensor:
#      x y z
#    x 1.878210 0.000000 0.000000 
#    y 0.000000 1.873380 0.000000 
#    z 0.000000 0.000000 1.880860 
# 
# From -- ./inp_files/16613.got.cif
#   From: 2010.05.17/outbox.cif.g08.bks.cpg/sg36_9_cif.got.tgz:16613.got - 2010.06.03 17:41:39.
