data_PCOD9351171
_publ_section_title
;
Structure prediction by ZEFSAII (Michael W. Deem and Ramdas Pophale) SiO2 
 PCOD9351171
Probable space group: C M C 21
;
_chemical_formula_sum "Si O2"
_cell_formula_units_Z 64
_cell_length_a 9.353662
_cell_length_b 20.590057
_cell_length_c 15.925606
_cell_angle_alpha 90.000000
_cell_angle_beta 90.000000
_cell_angle_gamma 90.000000
_cell_volume 3067.151218
_symmetry_space_group_name_H-M "C M C 21"
_symmetry_group_IT_number 36
_symmetry_cell_setting 'orthorhombic'
loop_
_space_group_symop_operation_xyz
x,y,z
-x,-y,1/2+z
x,-y,1/2+z
-x,y,z
1/2+x,1/2+y,z
1/2-x,1/2-y,1/2+z
1/2+x,1/2-y,1/2+z
1/2-x,1/2+y,z
loop_
_atom_site_type_symbol
_atom_site_label
_atom_site_fract_x
_atom_site_fract_y
_atom_site_fract_z
Si Si1 0.329198 0.509995 0.962980
Si Si2 0.838135 0.137552 0.505478
Si Si3 0.336863 0.885046 0.553329
Si Si4 0.163138 0.114962 0.705627
Si Si5 0.163267 0.239574 0.027482
Si Si6 0.170801 0.510002 0.795979
Si Si7 0.663267 0.760418 0.231472
Si Si8 0.838137 0.362455 0.753477
O O1 0.500000 0.518287 0.960502
O O2 0.250003 0.533733 0.879480
O O3 0.298750 0.433429 0.972316
O O4 0.259275 0.552114 0.036516
O O5 0.841664 0.129404 0.606470
O O6 0.729852 0.195672 0.487538
O O7 0.000000 0.153695 0.477949
O O8 0.500000 0.894657 0.524452
O O9 0.261964 0.822753 0.511320
O O10 0.341667 0.870601 0.652485
O O11 0.259278 0.052124 0.722445
O O12 0.238033 0.177257 0.747634
O O13 0.000000 0.105351 0.734502
O O14 0.162997 0.249996 0.129477
O O15 0.000000 0.228527 0.001743
O O16 0.201245 0.433436 0.786637
O O17 0.000000 0.518296 0.798462
O O18 0.500000 0.771466 0.257211
O O19 0.729849 0.695663 0.271418
O O20 0.000000 0.346310 0.781007
#
# Coordination Sequence:
#
# PCOD9351171 Si02
#       8
#     8   8   8   8   8   8   8   8
#     4  11  23  38  54  76 108 143 180 220 264 315
#     4   9  19  35  56  81 108 139 176 220 268 318
#     4  10  19  34  57  82 108 139 176 219 267 317
#     4  10  19  34  57  82 108 139 176 219 267 317
#     4   9  17  30  52  82 111 137 171 218 267 316
#     4  11  23  38  54  76 108 143 180 220 264 315
#     4   9  17  30  52  82 111 137 171 218 267 316
#     4   9  19  35  56  81 108 139 176 220 268 318
#
# _framework density 20.866268000000002
#
# number of rings (size 3 to 8) (size 9 to 14) (size 15 to 20)
#    0.000    2.250    0.000    3.000    0.000    6.000 
#    0.000    1.250    0.000    3.000    0.000    0.000 
#    0.000    0.000    0.000    0.000    0.000    0.000 
#
# Total GULP energy -178717.918369 kJ/mol
# GULP energy per Si atom -5584.934949 kJ/mol
# Density = 2.081878 g / cm^3
# Si number density = 20.866268 Si / 1000 Ang^3
#
#
#
# Elastic Constant Matrix: (Units=GPa)
#
#
# Indices 1 2 3 4 5 6 
#
# 1 126.4781 80.0366 19.1188 0.0000 0.0000 0.0000
# 2 80.0366 90.6836 7.3843 0.0000 0.0000 0.0000
# 3 19.1188 7.3843 13.5330 0.0000 0.0000 0.0000
# 4 0.0000 0.0000 0.0000 -8.3256 0.0000 0.0000
# 5 0.0000 0.0000 0.0000 0.0000 17.1757 0.0000
# 6 0.0000 0.0000 0.0000 0.0000 0.0000 31.0313
#
#
#
# Elastic Compliance Matrix: (Units=1/GPa)
#
#
# Indices 1 2 3 4 5 6 
#
# 1 0.022957 -0.018440 -0.022371 0.000000 0.000000 0.000000
# 2 -0.018440 0.026352 0.011673 0.000000 0.000000 0.000000
# 3 -0.022371 0.011673 0.099129 0.000000 0.000000 0.000000
# 4 0.000000 0.000000 0.000000 -0.120112 0.000000 0.000000
# 5 0.000000 0.000000 0.000000 0.000000 0.058222 0.000000
# 6 0.000000 0.000000 0.000000 0.000000 0.000000 0.032226
#
#
# Mechanical properties :
#
#
# Convention : Reuss Voigt Hill
#
# Bulk Modulus (GPa) = 11.09125 49.30822 30.19973
# Shear Modulus (GPa) = 24.14216 16.25328 20.19772
#
# Velocity S-wave (km/s) = 3.40515 2.79395 3.11458
# Velocity P-wave (km/s) = 4.55928 5.83867 5.23818
#
# Compressibility (1/GPa) = 0.09016118
#
# Stress axis : x y z
#
# Youngs Moduli (GPa) = 43.55878 37.94747 10.08782
#
# Poissons Ratio (x) = 0.69977 0.22568
# Poissons Ratio (y) = 0.80324 -0.11775
# Poissons Ratio (z) = 0.97447 -0.44295
#
# Static dielectric constant tensor:
#      x y z
#    x 1.711140 0.000000 0.000000 
#    y 0.000000 1.721540 0.000000 
#    z 0.000000 0.000000 1.939770 
# 
# From -- ./inp_files/13932.got.cif
#   From: 2010.05.17/outbox.cif.g08.bks.cpg/sg36_7_cif.got.tgz:13932.got - 2010.06.03 17:41:39.
