data_PCOD9351526
_publ_section_title
;
Structure prediction by ZEFSAII (Michael W. Deem and Ramdas Pophale) SiO2 
 PCOD9351526
Probable space group: C M C 21
;
_chemical_formula_sum "Si O2"
_cell_formula_units_Z 64
_cell_length_a 7.375400
_cell_length_b 29.555798
_cell_length_c 12.880875
_cell_angle_alpha 90.000000
_cell_angle_beta 90.000000
_cell_angle_gamma 90.000000
_cell_volume 2807.848261
_symmetry_space_group_name_H-M "C M C 21"
_symmetry_group_IT_number 36
_symmetry_cell_setting 'orthorhombic'
loop_
_space_group_symop_operation_xyz
x,y,z
-x,-y,1/2+z
x,-y,1/2+z
-x,y,z
1/2+x,1/2+y,z
1/2-x,1/2-y,1/2+z
1/2+x,1/2-y,1/2+z
1/2-x,1/2+y,z
loop_
_atom_site_type_symbol
_atom_site_label
_atom_site_fract_x
_atom_site_fract_y
_atom_site_fract_z
Si Si1 0.289005 0.320360 0.465020
Si Si2 0.777958 0.227802 0.759510
Si Si3 0.794440 0.074224 0.236098
Si Si4 0.797352 0.675190 0.196429
Si Si5 0.279383 0.425286 0.968447
Si Si6 0.278069 0.362776 0.146809
Si Si7 0.778660 0.976375 0.531286
Si Si8 0.789109 0.084371 0.847370
O O1 0.500000 0.309973 0.484444
O O2 0.222492 0.288320 0.373536
O O3 0.192417 0.317681 0.573383
O O4 0.281904 0.370873 0.419078
O O5 0.715272 0.278409 0.738582
O O6 0.722210 0.187858 0.680044
O O7 0.000000 0.228317 0.756284
O O8 0.799517 0.127835 0.214694
O O9 0.712373 0.069719 0.350664
O O10 0.714486 0.049568 0.134751
O O11 0.000000 0.056177 0.244034
O O12 0.000000 0.669901 0.239998
O O13 0.500000 0.422614 0.962498
O O14 0.221246 0.381917 0.035423
O O15 0.234608 0.470895 0.030560
O O16 0.500000 0.362735 0.150416
O O17 0.216938 0.398055 0.236951
O O18 0.713699 0.954319 0.422590
O O19 0.000000 0.971696 0.529387
O O20 0.000000 0.072487 0.827286
#
# Coordination Sequence:
#
# PCOD9351526 Si02
#       8
#     8   8   8   8   8   8   8   8
#     4   9  16  32  52  71  94 129 172 212 257 304
#     4   8  17  31  48  69  97 135 176 208 248 307
#     4  10  20  34  50  74 107 136 167 210 261 310
#     4  11  21  33  51  76 104 136 173 214 254 300
#     4   9  18  27  43  73 106 134 162 206 258 305
#     4   8  14  26  42  65  97 130 163 204 255 299
#     4   9  16  26  43  70  99 127 162 204 252 304
#     4   8  13  23  44  66  90 125 159 198 249 299
#
# _framework density 22.793254999999998
#
# number of rings (size 3 to 8) (size 9 to 14) (size 15 to 20)
#    0.000    3.000    1.250    1.875    1.750    1.000 
#    0.000    2.500    0.000    0.750    0.000    3.500 
#    0.000    0.000    0.000    0.000    0.000    0.000 
#
# Total GULP energy -178526.625023 kJ/mol
# GULP energy per Si atom -5578.957032 kJ/mol
# Density = 2.274138 g / cm^3
# Si number density = 22.793255 Si / 1000 Ang^3
#
#
#
# Elastic Constant Matrix: (Units=GPa)
#
#
# Indices 1 2 3 4 5 6 
#
# 1 73.4259 0.4867 -5.0060 0.0000 0.0000 0.0000
# 2 0.4867 94.9308 43.4045 0.0000 0.0000 0.0000
# 3 -5.0060 43.4045 76.4646 0.0000 0.0000 0.0000
# 4 0.0000 0.0000 0.0000 14.2032 0.0000 0.0000
# 5 0.0000 0.0000 0.0000 0.0000 -33.7524 0.0000
# 6 0.0000 0.0000 0.0000 0.0000 0.0000 3.2739
#
#
#
# Elastic Compliance Matrix: (Units=1/GPa)
#
#
# Indices 1 2 3 4 5 6 
#
# 1 0.013710 -0.000649 0.001266 0.000000 0.000000 0.000000
# 2 -0.000649 0.014257 -0.008135 0.000000 0.000000 0.000000
# 3 0.001266 -0.008135 0.017779 0.000000 0.000000 0.000000
# 4 0.000000 0.000000 0.000000 0.070406 0.000000 0.000000
# 5 0.000000 0.000000 0.000000 0.000000 -0.029627 0.000000
# 6 0.000000 0.000000 0.000000 0.000000 0.000000 0.305449
#
#
# Mechanical properties :
#
#
# Convention : Reuss Voigt Hill
#
# Bulk Modulus (GPa) = 32.56413 35.84353 34.20383
# Shear Modulus (GPa) = 11.98330 10.47400 11.22865
#
# Velocity S-wave (km/s) = 2.29539 2.14597 2.22194
# Velocity P-wave (km/s) = 4.61983 4.67973 4.64988
#
# Compressibility (1/GPa) = 0.03070863
#
# Stress axis : x y z
#
# Youngs Moduli (GPa) = 72.94055 70.14100 56.24678
#
# Poissons Ratio (x) = 0.04553 -0.07121
# Poissons Ratio (y) = 0.04735 0.45759
# Poissons Ratio (z) = -0.09235 0.57062
#
# Static dielectric constant tensor:
#      x y z
#    x 2.010940 0.000000 0.000000 
#    y 0.000000 1.815190 0.000000 
#    z 0.000000 0.000000 1.834650 
# 
# From -- ./inp_files/7175.got.cif
#   From: 2010.05.17/outbox.cif.g08.bks.cpg/sg36_4_cif.got.tgz:7175.got - 2010.06.03 17:41:39.
