data_PCOD9351281
_publ_section_title
;
Structure prediction by ZEFSAII (Michael W. Deem and Ramdas Pophale) SiO2 
 PCOD9351281
Probable space group: C M C 21
;
_chemical_formula_sum "Si O2"
_cell_formula_units_Z 64
_cell_length_a 8.499618
_cell_length_b 14.984267
_cell_length_c 23.460696
_cell_angle_alpha 90.000000
_cell_angle_beta 90.000000
_cell_angle_gamma 90.000000
_cell_volume 2987.967041
_symmetry_space_group_name_H-M "C M C 21"
_symmetry_group_IT_number 36
_symmetry_cell_setting 'orthorhombic'
loop_
_space_group_symop_operation_xyz
x,y,z
-x,-y,1/2+z
x,-y,1/2+z
-x,y,z
1/2+x,1/2+y,z
1/2-x,1/2-y,1/2+z
1/2+x,1/2-y,1/2+z
1/2-x,1/2+y,z
loop_
_atom_site_type_symbol
_atom_site_label
_atom_site_fract_x
_atom_site_fract_y
_atom_site_fract_z
Si Si1 0.687444 0.344956 0.728180
Si Si2 0.684955 0.096762 0.549763
Si Si3 0.813111 0.805625 0.158487
Si Si4 0.186208 0.482070 0.368607
Si Si5 0.814106 0.769725 0.965528
Si Si6 0.691636 0.923351 0.493078
Si Si7 0.815727 0.694093 0.348472
Si Si8 0.811164 0.952676 0.248069
O O1 0.500000 0.345913 0.733595
O O2 0.737331 0.289301 0.673077
O O3 0.757847 0.295771 0.783914
O O4 0.744155 0.447865 0.729752
O O5 0.500000 0.095509 0.562853
O O6 0.773499 0.151827 0.597897
O O7 0.714682 0.149022 0.490709
O O8 0.743590 0.995734 0.539453
O O9 0.000000 0.795864 0.164069
O O10 0.752812 0.877179 0.205230
O O11 0.247564 0.452780 0.430180
O O12 0.207342 0.588403 0.361197
O O13 0.263898 0.437801 0.313471
O O14 0.000000 0.463585 0.366737
O O15 0.768348 0.679976 0.999354
O O16 0.777963 0.756949 0.898639
O O17 0.000000 0.786267 0.972803
O O18 0.500000 0.928486 0.492229
O O19 0.000000 0.715597 0.352437
O O20 0.000000 0.952929 0.244662
#
# Coordination Sequence:
#
# PCOD9351281 Si02
#       8
#     8   8   8   8   8   8   8   8
#     4  10  21  39  61  89 121 158 199 243 296 355
#     4  11  23  44  64  83 117 160 203 245 294 355
#     4  11  24  42  62  88 120 156 199 248 298 352
#     4   9  17  34  59  85 119 157 194 236 289 354
#     4  11  22  37  60  91 121 155 199 249 299 352
#     4   9  20  38  59  86 118 155 197 242 293 356
#     4  10  19  35  59  88 124 161 196 243 297 352
#     4   9  21  39  58  86 122 154 193 246 296 346
#
# _framework density 21.419246000000001
#
# number of rings (size 3 to 8) (size 9 to 14) (size 15 to 20)
#    0.000    2.000    1.250    1.875    1.750    3.000 
#    0.000    5.625    0.000    0.000    0.000    0.000 
#    0.000    0.000    0.000    0.000    0.000    0.000 
#
# Total GULP energy -178800.474420 kJ/mol
# GULP energy per Si atom -5587.514826 kJ/mol
# Density = 2.137050 g / cm^3
# Si number density = 21.419246 Si / 1000 Ang^3
#
#
#
# Elastic Constant Matrix: (Units=GPa)
#
#
# Indices 1 2 3 4 5 6 
#
# 1 15.0440 7.9653 -10.0398 0.0000 0.0000 0.0000
# 2 7.9653 50.2188 -8.2973 0.0000 0.0000 0.0000
# 3 -10.0398 -8.2973 35.0501 0.0000 0.0000 0.0000
# 4 0.0000 0.0000 0.0000 28.7987 0.0000 0.0000
# 5 0.0000 0.0000 0.0000 0.0000 33.6399 0.0000
# 6 0.0000 0.0000 0.0000 0.0000 0.0000 18.8493
#
#
#
# Elastic Compliance Matrix: (Units=1/GPa)
#
#
# Indices 1 2 3 4 5 6 
#
# 1 0.086798 -0.010053 0.022483 0.000000 0.000000 0.000000
# 2 -0.010053 0.021888 0.002302 0.000000 0.000000 0.000000
# 3 0.022483 0.002302 0.035516 0.000000 0.000000 0.000000
# 4 0.000000 0.000000 0.000000 0.034724 0.000000 0.000000
# 5 0.000000 0.000000 0.000000 0.000000 0.029727 0.000000
# 6 0.000000 0.000000 0.000000 0.000000 0.000000 0.053052
#
#
# Mechanical properties :
#
#
# Convention : Reuss Voigt Hill
#
# Bulk Modulus (GPa) = 5.75818 8.84104 7.29961
# Shear Modulus (GPa) = 17.23373 23.63653 20.43513
#
# Velocity S-wave (km/s) = 2.83961 3.32553 3.09213
# Velocity P-wave (km/s) = 3.66679 4.34535 4.02041
#
# Compressibility (1/GPa) = 0.17366605
#
# Stress axis : x y z
#
# Youngs Moduli (GPa) = 11.52096 45.68781 28.15665
#
# Poissons Ratio (x) = 0.45928 -0.63304
# Poissons Ratio (y) = 0.11582 -0.06481
# Poissons Ratio (z) = -0.25903 -0.10517
#
# Static dielectric constant tensor:
#      x y z
#    x 1.722130 0.000000 0.000000 
#    y 0.000000 1.815380 0.000000 
#    z 0.000000 0.000000 1.770630 
# 
# From -- ./inp_files/16547.got.cif
#   From: 2010.05.17/outbox.cif.g08.bks.cpg/sg36_9_cif.got.tgz:16547.got - 2010.06.03 17:41:39.
