data_PCOD9351148
_publ_section_title
;
Structure prediction by ZEFSAII (Michael W. Deem and Ramdas Pophale) SiO2 
 PCOD9351148
Probable space group: C M C 21
;
_chemical_formula_sum "Si O2"
_cell_formula_units_Z 64
_cell_length_a 8.928340
_cell_length_b 14.538983
_cell_length_c 27.490834
_cell_angle_alpha 90.000000
_cell_angle_beta 90.000000
_cell_angle_gamma 90.000000
_cell_volume 3568.557217
_symmetry_space_group_name_H-M "C M C 21"
_symmetry_group_IT_number 36
_symmetry_cell_setting 'orthorhombic'
loop_
_space_group_symop_operation_xyz
x,y,z
-x,-y,1/2+z
x,-y,1/2+z
-x,y,z
1/2+x,1/2+y,z
1/2-x,1/2-y,1/2+z
1/2+x,1/2-y,1/2+z
1/2-x,1/2+y,z
loop_
_atom_site_type_symbol
_atom_site_label
_atom_site_fract_x
_atom_site_fract_y
_atom_site_fract_z
Si Si1 0.824857 0.133617 0.981480
Si Si2 0.323373 0.074297 0.073688
Si Si3 0.676985 0.621833 0.174882
Si Si4 0.179231 0.974456 0.260366
Si Si5 0.318600 0.874464 0.827089
Si Si6 0.680291 0.227348 0.753254
Si Si7 0.326002 0.563436 0.507320
Si Si8 0.320926 0.808827 0.932151
O O1 0.780825 0.201474 0.938532
O O2 0.000000 0.150177 0.993246
O O3 0.729957 0.143713 0.030892
O O4 0.812231 0.025240 0.971171
O O5 0.500000 0.064006 0.072581
O O6 0.267122 0.106497 0.125754
O O7 0.246047 0.978522 0.056241
O O8 0.500000 0.621226 0.163610
O O9 0.705673 0.538966 0.213015
O O10 0.711428 0.716552 0.203300
O O11 0.253149 0.874791 0.254216
O O12 0.000000 0.966313 0.266878
O O13 0.251031 0.032376 0.304597
O O14 0.500000 0.876629 0.824478
O O15 0.255940 0.790314 0.794701
O O16 0.268734 0.854895 0.882383
O O17 0.500000 0.226075 0.759661
O O18 0.500000 0.584071 0.514742
O O19 0.241075 0.643931 0.480565
O O20 0.500000 0.816715 0.931825
#
# Coordination Sequence:
#
# PCOD9351148 Si02
#       8
#     8   8   8   8   8   8   8   8
#     4   8  18  36  53  73 107 144 178 221 271 317
#     4  10  19  34  56  81 109 144 183 225 271 320
#     4   9  19  37  57  79 110 145 181 225 277 327
#     4  10  21  38  59  83 112 146 184 228 276 332
#     4  10  21  36  57  84 115 146 182 230 280 330
#     4  10  21  38  59  84 112 145 185 228 276 332
#     4   9  19  35  54  76 107 145 180 223 271 318
#     4  10  20  36  57  82 108 143 185 226 272 324
#
# _framework density 17.934418000000001
#
# number of rings (size 3 to 8) (size 9 to 14) (size 15 to 20)
#    0.750    1.750    0.000    3.000    0.000    5.500 
#    2.250    1.250    0.000    0.000    0.000    0.000 
#    0.000    0.000    0.000    0.000    0.000    0.000 
#
# Total GULP energy -178183.312309 kJ/mol
# GULP energy per Si atom -5568.228510 kJ/mol
# Density = 1.789360 g / cm^3
# Si number density = 17.934418 Si / 1000 Ang^3
#
#
#
# Elastic Constant Matrix: (Units=GPa)
#
#
# Indices 1 2 3 4 5 6 
#
# 1 33.6996 15.5084 10.9354 0.0000 0.0000 0.0000
# 2 15.5084 67.6459 -6.4799 0.0000 0.0000 0.0000
# 3 10.9354 -6.4799 35.1108 0.0000 0.0000 0.0000
# 4 0.0000 0.0000 0.0000 12.5674 0.0000 0.0000
# 5 0.0000 0.0000 0.0000 0.0000 25.9240 0.0000
# 6 0.0000 0.0000 0.0000 0.0000 0.0000 22.6875
#
#
#
# Elastic Compliance Matrix: (Units=1/GPa)
#
#
# Indices 1 2 3 4 5 6 
#
# 1 0.038955 -0.010275 -0.014029 0.000000 0.000000 0.000000
# 2 -0.010275 0.017759 0.006478 0.000000 0.000000 0.000000
# 3 -0.014029 0.006478 0.034046 0.000000 0.000000 0.000000
# 4 0.000000 0.000000 0.000000 0.079571 0.000000 0.000000
# 5 0.000000 0.000000 0.000000 0.000000 0.038574 0.000000
# 6 0.000000 0.000000 0.000000 0.000000 0.000000 0.044077
#
#
# Mechanical properties :
#
#
# Convention : Reuss Voigt Hill
#
# Bulk Modulus (GPa) = 18.14618 19.59823 18.87220
# Shear Modulus (GPa) = 16.28649 20.00194 18.14421
#
# Velocity S-wave (km/s) = 3.01676 3.34321 3.18417
# Velocity P-wave (km/s) = 4.71959 5.08470 4.90554
#
# Compressibility (1/GPa) = 0.05510802
#
# Stress axis : x y z
#
# Youngs Moduli (GPa) = 25.67094 56.30990 29.37198
#
# Poissons Ratio (x) = 0.57856 0.41205
# Poissons Ratio (y) = 0.26376 -0.19026
# Poissons Ratio (z) = 0.36013 -0.36475
#
# Static dielectric constant tensor:
#      x y z
#    x 1.598980 0.000000 0.000000 
#    y 0.000000 1.624750 0.000000 
#    z 0.000000 0.000000 1.600480 
# 
# From -- ./inp_files/17335.got.cif
#   From: 2010.05.17/outbox.cif.g08.bks.cpg/sg36_9_cif.got.tgz:17335.got - 2010.06.03 17:41:39.
