data_PCOD9351849
_publ_section_title
;
Structure prediction by ZEFSAII (Michael W. Deem and Ramdas Pophale) SiO2 
 PCOD9351849
Probable space group: C M C 21
;
_chemical_formula_sum "Si O2"
_cell_formula_units_Z 64
_cell_length_a 7.638333
_cell_length_b 21.435260
_cell_length_c 17.701108
_cell_angle_alpha 90.000000
_cell_angle_beta 90.000000
_cell_angle_gamma 90.000000
_cell_volume 2898.196285
_symmetry_space_group_name_H-M "C M C 21"
_symmetry_group_IT_number 36
_symmetry_cell_setting 'orthorhombic'
loop_
_space_group_symop_operation_xyz
x,y,z
-x,-y,1/2+z
x,-y,1/2+z
-x,y,z
1/2+x,1/2+y,z
1/2-x,1/2-y,1/2+z
1/2+x,1/2-y,1/2+z
1/2-x,1/2+y,z
loop_
_atom_site_type_symbol
_atom_site_label
_atom_site_fract_x
_atom_site_fract_y
_atom_site_fract_z
Si Si1 0.207098 0.156160 0.956300
Si Si2 0.212981 0.978612 0.742295
Si Si3 0.710658 0.797955 0.980592
Si Si4 0.201685 0.704842 0.170249
Si Si5 0.200904 0.922162 0.591193
Si Si6 0.291875 0.349279 0.817901
Si Si7 0.802824 0.338928 0.132933
Si Si8 0.702591 0.885832 0.289352
O O1 0.275986 0.225846 0.975619
O O2 0.226503 0.140225 0.868108
O O3 0.000000 0.158217 0.972859
O O4 0.279046 0.100728 0.010907
O O5 0.274304 0.969969 0.654543
O O6 0.265781 0.917569 0.789890
O O7 0.000000 0.980835 0.740748
O O8 0.281416 0.039874 0.783097
O O9 0.500000 0.794818 0.990118
O O10 0.748266 0.831822 0.902482
O O11 0.780431 0.840030 0.049982
O O12 0.290031 0.642898 0.137520
O O13 0.207490 0.699655 0.260413
O O14 0.305949 0.764683 0.144840
O O15 0.000000 0.707817 0.145399
O O16 0.000000 0.941763 0.578065
O O17 0.500000 0.345750 0.807477
O O18 0.715433 0.363700 0.209441
O O19 0.000000 0.365647 0.129432
O O20 0.500000 0.865779 0.287959
#
# Coordination Sequence:
#
# PCOD9351849 Si02
#       8
#     8   8   8   8   8   8   8   8
#     4  10  20  37  62  87 117 153 192 234 290 354
#     4   9  20  40  62  80 108 151 200 239 281 346
#     4  10  20  36  60  88 118 150 187 235 292 352
#     4  11  20  31  55  88 116 146 188 233 281 340
#     4   9  18  37  62  85 112 152 191 237 292 340
#     4  10  21  37  58  83 113 150 190 236 288 342
#     4  10  21  39  57  79 118 158 187 230 295 350
#     4  11  24  39  58  84 118 156 193 242 295 340
#
# _framework density 22.082701
#
# number of rings (size 3 to 8) (size 9 to 14) (size 15 to 20)
#    0.000    2.000    1.250    3.375    0.000    7.000 
#    2.250    0.000    0.000    0.000    0.000    0.000 
#    0.000    0.000    0.000    0.000    0.000    0.000 
#
# Total GULP energy -178476.403489 kJ/mol
# GULP energy per Si atom -5577.387609 kJ/mol
# Density = 2.203244 g / cm^3
# Si number density = 22.082701 Si / 1000 Ang^3
#
#
#
# Elastic Constant Matrix: (Units=GPa)
#
#
# Indices 1 2 3 4 5 6 
#
# 1 62.6479 -3.4241 5.6511 0.0000 0.0000 0.0000
# 2 -3.4241 29.1368 21.1100 0.0000 0.0000 0.0000
# 3 5.6511 21.1100 178.4216 0.0000 0.0000 0.0000
# 4 0.0000 0.0000 0.0000 32.4026 0.0000 0.0000
# 5 0.0000 0.0000 0.0000 0.0000 22.0744 0.0000
# 6 0.0000 0.0000 0.0000 0.0000 0.0000 6.7380
#
#
#
# Elastic Compliance Matrix: (Units=1/GPa)
#
#
# Indices 1 2 3 4 5 6 
#
# 1 0.016171 0.002484 -0.000806 0.000000 0.000000 0.000000
# 2 0.002484 0.037920 -0.004565 0.000000 0.000000 0.000000
# 3 -0.000806 -0.004565 0.006170 0.000000 0.000000 0.000000
# 4 0.000000 0.000000 0.000000 0.030862 0.000000 0.000000
# 5 0.000000 0.000000 0.000000 0.000000 0.045301 0.000000
# 6 0.000000 0.000000 0.000000 0.000000 0.000000 0.148412
#
#
# Mechanical properties :
#
#
# Convention : Reuss Voigt Hill
#
# Bulk Modulus (GPa) = 18.35279 35.20891 26.78085
# Shear Modulus (GPa) = 16.19313 28.70094 22.44703
#
# Velocity S-wave (km/s) = 2.71088 3.60905 3.19172
# Velocity P-wave (km/s) = 4.25764 5.77457 5.07312
#
# Compressibility (1/GPa) = 0.05448764
#
# Stress axis : x y z
#
# Youngs Moduli (GPa) = 61.84009 26.37098 162.06472
#
# Poissons Ratio (x) = -0.06552 0.13064
# Poissons Ratio (y) = -0.15364 0.73987
# Poissons Ratio (z) = 0.04985 0.12039
#
# Static dielectric constant tensor:
#      x y z
#    x 1.873560 0.000000 0.000000 
#    y 0.000000 1.786360 0.000000 
#    z 0.000000 0.000000 1.877380 
# 
# From -- ./inp_files/13987.got.cif
#   From: 2010.05.17/outbox.cif.g08.bks.cpg/sg36_7_cif.got.tgz:13987.got - 2010.06.03 17:41:39.
