data_PCOD9351309
_publ_section_title
;
Structure prediction by ZEFSAII (Michael W. Deem and Ramdas Pophale) SiO2 
 PCOD9351309
Probable space group: C M C 21
;
_chemical_formula_sum "Si O2"
_cell_formula_units_Z 64
_cell_length_a 15.845600
_cell_length_b 9.771671
_cell_length_c 22.292450
_cell_angle_alpha 90.000000
_cell_angle_beta 90.000000
_cell_angle_gamma 90.000000
_cell_volume 3451.718150
_symmetry_space_group_name_H-M "C M C 21"
_symmetry_group_IT_number 36
_symmetry_cell_setting 'orthorhombic'
loop_
_space_group_symop_operation_xyz
x,y,z
-x,-y,1/2+z
x,-y,1/2+z
-x,y,z
1/2+x,1/2+y,z
1/2-x,1/2-y,1/2+z
1/2+x,1/2-y,1/2+z
1/2-x,1/2+y,z
loop_
_atom_site_type_symbol
_atom_site_label
_atom_site_fract_x
_atom_site_fract_y
_atom_site_fract_z
Si Si1 0.664610 0.717985 0.613120
Si Si2 0.245159 0.094462 0.821503
Si Si3 0.749455 0.155108 0.403843
Si Si4 0.095443 0.542792 0.744202
Si Si5 0.404993 0.713865 0.743610
Si Si6 0.904497 0.457868 0.981321
Si Si7 0.665312 0.957756 0.112761
Si Si8 0.594523 0.287069 0.982981
O O1 0.612361 0.690384 0.673276
O O2 0.749660 0.630132 0.613266
O O3 0.612063 0.688715 0.553195
O O4 0.685655 0.880009 0.612627
O O5 0.244027 0.191644 0.879336
O O6 0.331803 0.110126 0.784228
O O7 0.166510 0.136420 0.780588
O O8 0.241064 0.941218 0.846101
O O9 0.666353 0.111973 0.440491
O O10 0.831430 0.143153 0.445571
O O11 0.101662 0.378086 0.753183
O O12 0.114040 0.569305 0.673917
O O13 0.000000 0.584691 0.759677
O O14 0.500000 0.672222 0.759740
O O15 0.899667 0.622555 0.973620
O O16 0.000000 0.415176 0.966174
O O17 0.885025 0.429301 0.051396
O O18 0.500000 0.330657 0.966564
#
# Coordination Sequence:
#
# PCOD9351309 Si02
#       8
#     8   8   8   8   8   8   8   8
#     4  10  19  35  65  90 116 150 191 239 305 356
#     4  12  24  39  61  86 118 161 204 240 287 344
#     4  12  24  39  61  86 118 161 204 240 287 344
#     4  10  21  39  64  90 117 155 198 242 293 356
#     4  10  21  39  63  90 118 153 197 245 296 354
#     4  10  21  39  64  90 117 155 198 242 293 356
#     4  10  19  35  65  92 116 148 191 243 299 358
#     4  10  21  39  63  90 118 153 197 245 296 354
#
# _framework density 18.54149
#
# number of rings (size 3 to 8) (size 9 to 14) (size 15 to 20)
#    0.000    1.500    5.000    0.750    0.000    5.000 
#    0.000    0.000    0.000    1.500    0.000    0.000 
#    0.000    0.000    0.000    0.000    0.000    0.000 
#
# Total GULP energy -178691.694107 kJ/mol
# GULP energy per Si atom -5584.115441 kJ/mol
# Density = 1.849929 g / cm^3
# Si number density = 18.541490 Si / 1000 Ang^3
#
#
#
# Elastic Constant Matrix: (Units=GPa)
#
#
# Indices 1 2 3 4 5 6 
#
# 1 190.2038 24.7674 59.0710 0.0000 0.0000 0.0000
# 2 24.7674 10.2790 2.6723 0.0000 0.0000 0.0000
# 3 59.0710 2.6723 76.3344 0.0000 0.0000 0.0000
# 4 0.0000 0.0000 0.0000 27.0031 0.0000 0.0000
# 5 0.0000 0.0000 0.0000 0.0000 -3.4719 0.0000
# 6 0.0000 0.0000 0.0000 0.0000 0.0000 28.4647
#
#
#
# Elastic Compliance Matrix: (Units=1/GPa)
#
#
# Indices 1 2 3 4 5 6 
#
# 1 0.010649 -0.023733 -0.007410 0.000000 0.000000 0.000000
# 2 -0.023733 0.151072 0.013077 0.000000 0.000000 0.000000
# 3 -0.007410 0.013077 0.018377 0.000000 0.000000 0.000000
# 4 0.000000 0.000000 0.000000 0.037033 0.000000 0.000000
# 5 0.000000 0.000000 0.000000 0.000000 -0.288025 0.000000
# 6 0.000000 0.000000 0.000000 0.000000 0.000000 0.035131
#
#
# Mechanical properties :
#
#
# Convention : Reuss Voigt Hill
#
# Bulk Modulus (GPa) = 6.94610 49.98209 28.46410
# Shear Modulus (GPa) = 103.39558 23.08629 63.24094
#
# Velocity S-wave (km/s) = 7.47566 3.53245 5.84652
# Velocity P-wave (km/s) = 8.84694 6.60704 7.80773
#
# Compressibility (1/GPa) = 0.14396564
#
# Stress axis : x y z
#
# Youngs Moduli (GPa) = 93.90344 6.61936 54.41693
#
# Poissons Ratio (x) = 0.15710 0.40323
# Poissons Ratio (y) = 2.22863 -0.71161
# Poissons Ratio (z) = 0.69582 -0.08656
#
# Static dielectric constant tensor:
#      x y z
#    x 1.617760 0.000000 0.000000 
#    y 0.000000 1.610910 0.000000 
#    z 0.000000 0.000000 1.645680 
# 
# From -- ./inp_files/16963.got.cif
#   From: 2010.05.17/outbox.cif.g08.bks.cpg/sg36_9_cif.got.tgz:16963.got - 2010.06.03 17:41:39.
