data_PCOD9351256
_publ_section_title
;
Structure prediction by ZEFSAII (Michael W. Deem and Ramdas Pophale) SiO2 
 PCOD9351256
Probable space group: C M C 21
;
_chemical_formula_sum "Si O2"
_cell_formula_units_Z 48
_cell_length_a 7.564488
_cell_length_b 31.306684
_cell_length_c 8.727242
_cell_angle_alpha 90.000000
_cell_angle_beta 90.000000
_cell_angle_gamma 90.000000
_cell_volume 2066.777032
_symmetry_space_group_name_H-M "C M C 21"
_symmetry_group_IT_number 36
_symmetry_cell_setting 'orthorhombic'
loop_
_space_group_symop_operation_xyz
x,y,z
-x,-y,1/2+z
x,-y,1/2+z
-x,y,z
1/2+x,1/2+y,z
1/2-x,1/2-y,1/2+z
1/2+x,1/2-y,1/2+z
1/2-x,1/2+y,z
loop_
_atom_site_type_symbol
_atom_site_label
_atom_site_fract_x
_atom_site_fract_y
_atom_site_fract_z
Si Si1 0.784488 0.975029 0.373990
Si Si2 0.710725 0.694192 0.853438
Si Si3 0.795291 0.108123 0.714363
Si Si4 0.213883 0.720329 0.200263
Si Si5 0.785823 0.941593 0.707761
Si Si6 0.204067 0.359748 0.885490
O O1 0.724215 0.938715 0.253837
O O2 0.733193 0.958278 0.540725
O O3 0.000000 0.978086 0.371964
O O4 0.725331 0.022221 0.327686
O O5 0.500000 0.692154 0.825812
O O6 0.784338 0.647862 0.808264
O O7 0.779059 0.732816 0.747631
O O8 0.737896 0.706651 0.029316
O O9 0.790136 0.120878 0.537057
O O10 0.000000 0.105155 0.762699
O O11 0.278311 0.684615 0.320877
O O12 0.000000 0.720282 0.208633
O O13 0.717199 0.895305 0.753378
O O14 0.000000 0.938798 0.710177
O O15 0.000000 0.352764 0.925656
#
# Coordination Sequence:
#
# PCOD9351256 Si02
#       6
#     8   8   8   8   8   8
#     4   9  18  33  57  85 108 135 176 227 276 317
#     4  10  21  37  59  85 109 140 185 226 263 319
#     4  10  20  36  58  83 108 138 182 228 268 316
#     4  10  22  38  55  80 114 146 177 220 273 322
#     4  10  19  35  58  81 107 140 179 223 270 319
#     4  11  23  37  53  78 112 147 181 218 268 325
#
# _framework density 23.224567
#
# number of rings (size 3 to 8) (size 9 to 14) (size 15 to 20)
#    0.000    2.000    0.000    3.500    0.000    6.667 
#    0.000    4.167    0.000    0.000    0.000    0.000 
#    0.000    0.000    0.000    0.000    0.000    0.000 
#
# Total GULP energy -134186.774605 kJ/mol
# GULP energy per Si atom -5591.115609 kJ/mol
# Density = 2.317171 g / cm^3
# Si number density = 23.224567 Si / 1000 Ang^3
#
#
#
# Elastic Constant Matrix: (Units=GPa)
#
#
# Indices 1 2 3 4 5 6 
#
# 1 49.6771 7.5622 -12.3929 0.0000 0.0000 0.0000
# 2 7.5622 67.4276 -26.7647 0.0000 0.0000 0.0000
# 3 -12.3929 -26.7647 42.3645 0.0000 0.0000 0.0000
# 4 0.0000 0.0000 0.0000 47.1643 0.0000 0.0000
# 5 0.0000 0.0000 0.0000 0.0000 13.2022 0.0000
# 6 0.0000 0.0000 0.0000 0.0000 0.0000 -8.7630
#
#
#
# Elastic Compliance Matrix: (Units=1/GPa)
#
#
# Indices 1 2 3 4 5 6 
#
# 1 0.021715 0.000115 0.006425 0.000000 0.000000 0.000000
# 2 0.000115 0.019795 0.012540 0.000000 0.000000 0.000000
# 3 0.006425 0.012540 0.033406 0.000000 0.000000 0.000000
# 4 0.000000 0.000000 0.000000 0.021202 0.000000 0.000000
# 5 0.000000 0.000000 0.000000 0.000000 0.075745 0.000000
# 6 0.000000 0.000000 0.000000 0.000000 0.000000 -0.114117
#
#
# Mechanical properties :
#
#
# Convention : Reuss Voigt Hill
#
# Bulk Modulus (GPa) = 8.84356 10.69758 9.77057
# Shear Modulus (GPa) = 87.28934 23.05835 55.17385
#
# Velocity S-wave (km/s) = 6.13730 3.15436 4.87937
# Velocity P-wave (km/s) = 7.35106 4.22881 5.99670
#
# Compressibility (1/GPa) = 0.11307664
#
# Stress axis : x y z
#
# Youngs Moduli (GPa) = 46.05036 50.51677 29.93434
#
# Poissons Ratio (x) = -0.00580 -0.19233
# Poissons Ratio (y) = -0.00529 -0.37537
# Poissons Ratio (z) = -0.29587 -0.63347
#
# Static dielectric constant tensor:
#      x y z
#    x 1.904720 0.000000 0.000000 
#    y 0.000000 1.863410 0.000000 
#    z 0.000000 0.000000 1.825920 
# 
# From -- ./inp_files/2643.got.cif
#   From: 2010.05.17/outbox.cif.g08.bks.cpg/sg36_2_cif.got.tgz:2643.got - 2010.06.03 17:41:39.
