data_PCOD9351657
_publ_section_title
;
Structure prediction by ZEFSAII (Michael W. Deem and Ramdas Pophale) SiO2 
 PCOD9351657
Probable space group: C M C 21
;
_chemical_formula_sum "Si O2"
_cell_formula_units_Z 48
_cell_length_a 7.690649
_cell_length_b 29.195246
_cell_length_c 8.202566
_cell_angle_alpha 90.000000
_cell_angle_beta 90.000000
_cell_angle_gamma 90.000000
_cell_volume 1841.725339
_symmetry_space_group_name_H-M "C M C 21"
_symmetry_group_IT_number 36
_symmetry_cell_setting 'orthorhombic'
loop_
_space_group_symop_operation_xyz
x,y,z
-x,-y,1/2+z
x,-y,1/2+z
-x,y,z
1/2+x,1/2+y,z
1/2-x,1/2-y,1/2+z
1/2+x,1/2-y,1/2+z
1/2-x,1/2+y,z
loop_
_atom_site_type_symbol
_atom_site_label
_atom_site_fract_x
_atom_site_fract_y
_atom_site_fract_z
Si Si1 0.711472 0.849566 0.431270
Si Si2 0.297869 0.820693 0.955204
Si Si3 0.288935 0.098066 0.257180
Si Si4 0.196373 0.432577 0.231126
Si Si5 0.306181 0.482171 0.546337
Si Si6 0.211089 0.738358 0.756596
O O1 0.500000 0.851019 0.428141
O O2 0.766878 0.872420 0.598700
O O3 0.770572 0.883645 0.286098
O O4 0.762005 0.797633 0.399152
O O5 0.500000 0.827280 0.998060
O O6 0.228191 0.870712 0.907833
O O7 0.287556 0.787616 0.797333
O O8 0.223391 0.788971 0.097746
O O9 0.500000 0.096015 0.262172
O O10 0.223179 0.047897 0.210602
O O11 0.190946 0.460946 0.402852
O O12 0.280945 0.465681 0.099173
O O13 0.000000 0.425606 0.173899
O O14 0.500000 0.474682 0.485989
O O15 0.000000 0.742718 0.750706
#
# Coordination Sequence:
#
# PCOD9351657 Si02
#       6
#     8   8   8   8   8   8
#     4   8  16  32  54  76 100 137 183 225 262 313
#     4  10  21  35  54  81 109 141 182 224 268 326
#     4   9  18  35  55  74 103 145 188 224 266 327
#     4  10  20  37  59  81 108 149 193 225 269 336
#     4  11  22  36  55  84 117 144 179 232 286 326
#     4  10  20  35  55  80 109 140 177 224 275 322
#
# _framework density 26.062519000000002
#
# number of rings (size 3 to 8) (size 9 to 14) (size 15 to 20)
#    0.000    2.333    0.000    4.000    0.000    4.000 
#    0.000    9.167    0.000    0.000    0.000    0.000 
#    0.000    0.000    0.000    0.000    0.000    0.000 
#
# Total GULP energy -134234.545029 kJ/mol
# GULP energy per Si atom -5593.106043 kJ/mol
# Density = 2.600320 g / cm^3
# Si number density = 26.062519 Si / 1000 Ang^3
#
#
#
# Elastic Constant Matrix: (Units=GPa)
#
#
# Indices 1 2 3 4 5 6 
#
# 1 66.8836 0.4126 -3.8729 0.0000 0.0000 0.0000
# 2 0.4126 153.7817 9.7815 0.0000 0.0000 0.0000
# 3 -3.8729 9.7815 81.4360 0.0000 0.0000 0.0000
# 4 0.0000 0.0000 0.0000 54.0572 0.0000 0.0000
# 5 0.0000 0.0000 0.0000 0.0000 7.4002 0.0000
# 6 0.0000 0.0000 0.0000 0.0000 0.0000 12.5114
#
#
#
# Elastic Compliance Matrix: (Units=1/GPa)
#
#
# Indices 1 2 3 4 5 6 
#
# 1 0.014994 -0.000086 0.000723 0.000000 0.000000 0.000000
# 2 -0.000086 0.006553 -0.000791 0.000000 0.000000 0.000000
# 3 0.000723 -0.000791 0.012409 0.000000 0.000000 0.000000
# 4 0.000000 0.000000 0.000000 0.018499 0.000000 0.000000
# 5 0.000000 0.000000 0.000000 0.000000 0.135131 0.000000
# 6 0.000000 0.000000 0.000000 0.000000 0.000000 0.079927
#
#
# Mechanical properties :
#
#
# Convention : Reuss Voigt Hill
#
# Bulk Modulus (GPa) = 29.71949 34.97153 32.34551
# Shear Modulus (GPa) = 17.91876 34.51244 26.21560
#
# Velocity S-wave (km/s) = 2.62492 3.64293 3.17499
# Velocity P-wave (km/s) = 4.54036 5.58050 5.08709
#
# Compressibility (1/GPa) = 0.03364796
#
# Stress axis : x y z
#
# Youngs Moduli (GPa) = 66.69441 152.59524 80.58654
#
# Poissons Ratio (x) = 0.01316 -0.05830
# Poissons Ratio (y) = 0.00575 0.06376
# Poissons Ratio (z) = -0.04825 0.12074
#
# Static dielectric constant tensor:
#      x y z
#    x 1.976360 0.000000 0.000000 
#    y 0.000000 2.002210 0.000000 
#    z 0.000000 0.000000 2.152190 
# 
# From -- ./inp_files/2667.got.cif
#   From: 2010.05.17/outbox.cif.g08.bks.cpg/sg36_2_cif.got.tgz:2667.got - 2010.06.03 17:41:39.
