data_PCOD9351538
_publ_section_title
;
Structure prediction by ZEFSAII (Michael W. Deem and Ramdas Pophale) SiO2 
 PCOD9351538
Probable space group: C M C 21
;
_chemical_formula_sum "Si O2"
_cell_formula_units_Z 64
_cell_length_a 8.406979
_cell_length_b 20.981137
_cell_length_c 20.330643
_cell_angle_alpha 90.000000
_cell_angle_beta 90.000000
_cell_angle_gamma 90.000000
_cell_volume 3586.081013
_symmetry_space_group_name_H-M "C M C 21"
_symmetry_group_IT_number 36
_symmetry_cell_setting 'orthorhombic'
loop_
_space_group_symop_operation_xyz
x,y,z
-x,-y,1/2+z
x,-y,1/2+z
-x,y,z
1/2+x,1/2+y,z
1/2-x,1/2-y,1/2+z
1/2+x,1/2-y,1/2+z
1/2-x,1/2+y,z
loop_
_atom_site_type_symbol
_atom_site_label
_atom_site_fract_x
_atom_site_fract_y
_atom_site_fract_z
Si Si1 0.307589 0.321953 0.592110
Si Si2 0.192249 0.430815 0.839488
Si Si3 0.690683 0.821188 0.739873
Si Si4 0.192222 0.929456 0.490736
Si Si5 0.690414 0.179741 0.741904
Si Si6 0.307721 0.069778 0.490671
Si Si7 0.193820 0.677567 0.591281
Si Si8 0.309630 0.428688 0.339535
O O1 0.500000 0.322554 0.592505
O O2 0.250730 0.334764 0.666154
O O3 0.251945 0.374703 0.540340
O O4 0.257208 0.249831 0.574217
O O5 0.246827 0.375224 0.790669
O O6 0.243999 0.419331 0.915058
O O7 0.250849 0.500969 0.819669
O O8 0.000000 0.431426 0.838866
O O9 0.500000 0.821334 0.739671
O O10 0.748030 0.750405 0.758674
O O11 0.244290 0.918153 0.415243
O O12 0.000000 0.929452 0.491166
O O13 0.250606 0.999542 0.510547
O O14 0.500000 0.181538 0.741914
O O15 0.743158 0.165318 0.666719
O O16 0.748095 0.126142 0.791809
O O17 0.500000 0.070185 0.491239
O O18 0.250386 0.124478 0.540123
O O19 0.000000 0.676445 0.590196
O O20 0.500000 0.428179 0.338888
#
# Coordination Sequence:
#
# PCOD9351538 Si02
#       8
#     8   8   8   8   8   8   8   8
#     4   9  18  34  53  72  98 133 169 205 252 304
#     4   9  19  34  52  74 101 133 167 207 253 300
#     4  10  20  34  52  76 104 133 171 214 253 298
#     4   9  19  34  51  73 101 130 162 205 253 299
#     4  10  20  35  53  74 104 137 169 208 256 306
#     4   9  17  32  53  73  95 127 166 204 245 297
#     4   8  16  31  51  72  93 124 164 202 240 289
#     4  10  20  34  53  76 102 133 170 211 252 299
#
# _framework density 17.846779999999999
#
# number of rings (size 3 to 8) (size 9 to 14) (size 15 to 20)
#    0.000    2.750    0.000    1.875    0.000    4.000 
#    0.000   10.625    0.000    0.000    0.000    0.000 
#    0.000    0.000    0.000    0.000    0.000    0.000 
#
# Total GULP energy -178451.753177 kJ/mol
# GULP energy per Si atom -5576.617287 kJ/mol
# Density = 1.780616 g / cm^3
# Si number density = 17.846780 Si / 1000 Ang^3
#
#
#
# Elastic Constant Matrix: (Units=GPa)
#
#
# Indices 1 2 3 4 5 6 
#
# 1 13.1448 24.0914 18.4369 0.0000 0.0000 0.0000
# 2 24.0914 196.8519 137.3075 0.0000 0.0000 0.0000
# 3 18.4369 137.3075 115.1425 0.0000 0.0000 0.0000
# 4 0.0000 0.0000 0.0000 45.3426 0.0000 0.0000
# 5 0.0000 0.0000 0.0000 0.0000 21.8822 0.0000
# 6 0.0000 0.0000 0.0000 0.0000 0.0000 30.2952
#
#
#
# Elastic Compliance Matrix: (Units=1/GPa)
#
#
# Indices 1 2 3 4 5 6 
#
# 1 0.099415 -0.006321 -0.008381 0.000000 0.000000 0.000000
# 2 -0.006321 0.030602 -0.035481 0.000000 0.000000 0.000000
# 3 -0.008381 -0.035481 0.052338 0.000000 0.000000 0.000000
# 4 0.000000 0.000000 0.000000 0.022054 0.000000 0.000000
# 5 0.000000 0.000000 0.000000 0.000000 0.045699 0.000000
# 6 0.000000 0.000000 0.000000 0.000000 0.000000 0.033009
#
#
# Mechanical properties :
#
#
# Convention : Reuss Voigt Hill
#
# Bulk Modulus (GPa) = 12.19661 76.09008 44.14334
# Shear Modulus (GPa) = 12.17102 29.19091 20.68096
#
# Velocity S-wave (km/s) = 2.61429 4.04869 3.40782
# Velocity P-wave (km/s) = 3.99520 8.03639 6.34607
#
# Compressibility (1/GPa) = 0.08198998
#
# Stress axis : x y z
#
# Youngs Moduli (GPa) = 10.05881 32.67766 19.10673
#
# Poissons Ratio (x) = 0.20656 0.16013
# Poissons Ratio (y) = 0.06358 0.67792
# Poissons Ratio (z) = 0.08430 1.15943
#
# Static dielectric constant tensor:
#      x y z
#    x 1.617820 0.000000 0.000000 
#    y 0.000000 1.586070 0.000000 
#    z 0.000000 0.000000 1.605530 
# 
# From -- ./inp_files/15605.got.cif
#   From: 2010.05.17/outbox.cif.g08.bks.cpg/sg36_8_cif.got.tgz:15605.got - 2010.06.03 17:41:39.
