data_PCOD9351045
_publ_section_title
;
Structure prediction by ZEFSAII (Michael W. Deem and Ramdas Pophale) SiO2 
 PCOD9351045
Probable space group: C M C 21
;
_chemical_formula_sum "Si O2"
_cell_formula_units_Z 64
_cell_length_a 7.824319
_cell_length_b 21.207720
_cell_length_c 19.928530
_cell_angle_alpha 90.000000
_cell_angle_beta 90.000000
_cell_angle_gamma 90.000000
_cell_volume 3306.859887
_symmetry_space_group_name_H-M "C M C 21"
_symmetry_group_IT_number 36
_symmetry_cell_setting 'orthorhombic'
loop_
_space_group_symop_operation_xyz
x,y,z
-x,-y,1/2+z
x,-y,1/2+z
-x,y,z
1/2+x,1/2+y,z
1/2-x,1/2-y,1/2+z
1/2+x,1/2-y,1/2+z
1/2-x,1/2+y,z
loop_
_atom_site_type_symbol
_atom_site_label
_atom_site_fract_x
_atom_site_fract_y
_atom_site_fract_z
Si Si1 0.703949 0.763302 0.416470
Si Si2 0.299691 0.559538 0.270664
Si Si3 0.699571 0.746026 0.065104
Si Si4 0.795469 0.189283 0.776358
Si Si5 0.290128 0.618054 0.407030
Si Si6 0.700781 0.186064 0.200712
Si Si7 0.200869 0.891038 0.055308
Si Si8 0.210800 0.934848 0.197038
O O1 0.500000 0.762307 0.421897
O O2 0.774820 0.779253 0.489770
O O3 0.755392 0.807249 0.354931
O O4 0.761170 0.691481 0.399613
O O5 0.500000 0.546264 0.281390
O O6 0.228357 0.577869 0.343843
O O7 0.284509 0.621712 0.225095
O O8 0.229048 0.498425 0.233050
O O9 0.500000 0.753828 0.078390
O O10 0.775295 0.702035 0.122667
O O11 0.781969 0.815770 0.067509
O O12 0.728929 0.253171 0.741215
O O13 0.734417 0.126690 0.738914
O O14 0.000000 0.190212 0.768035
O O15 0.500000 0.617565 0.406881
O O16 0.229611 0.596493 0.480673
O O17 0.500000 0.180216 0.215481
O O18 0.270811 0.926591 0.120299
O O19 0.000000 0.905726 0.052123
O O20 0.000000 0.935022 0.195512
#
# Coordination Sequence:
#
# PCOD9351045 Si02
#       8
#     8   8   8   8   8   8   8   8
#     4  10  19  33  53  79 109 142 177 224 279 329
#     4  10  19  34  53  79 109 144 188 230 270 323
#     4  11  21  33  53  82 109 138 181 232 275 324
#     4  10  19  33  53  79 108 142 182 223 268 321
#     4   8  15  27  49  75 101 131 176 223 264 319
#     4  11  21  35  55  78 110 145 178 223 274 325
#     4   9  16  32  52  75 104 143 183 223 276 327
#     4   9  18  33  54  77 110 147 185 228 272 324
#
# _framework density 19.353707
#
# number of rings (size 3 to 8) (size 9 to 14) (size 15 to 20)
#    0.000    2.250    2.500    2.625    0.000    0.500 
#    0.000    2.500    0.000    4.500    0.000    0.000 
#    0.000    0.000    0.000    0.000    0.000    0.000 
#
# Total GULP energy -178544.657919 kJ/mol
# GULP energy per Si atom -5579.520560 kJ/mol
# Density = 1.930966 g / cm^3
# Si number density = 19.353707 Si / 1000 Ang^3
#
#
#
# Elastic Constant Matrix: (Units=GPa)
#
#
# Indices 1 2 3 4 5 6 
#
# 1 20.6251 -4.1899 -9.2333 0.0000 0.0000 0.0000
# 2 -4.1899 89.9310 70.2955 0.0000 0.0000 0.0000
# 3 -9.2333 70.2955 165.7369 0.0000 0.0000 0.0000
# 4 0.0000 0.0000 0.0000 24.8004 0.0000 0.0000
# 5 0.0000 0.0000 0.0000 0.0000 16.7346 0.0000
# 6 0.0000 0.0000 0.0000 0.0000 0.0000 11.5418
#
#
#
# Elastic Compliance Matrix: (Units=1/GPa)
#
#
# Indices 1 2 3 4 5 6 
#
# 1 0.049728 0.000226 0.002674 0.000000 0.000000 0.000000
# 2 0.000226 0.016636 -0.007043 0.000000 0.000000 0.000000
# 3 0.002674 -0.007043 0.009170 0.000000 0.000000 0.000000
# 4 0.000000 0.000000 0.000000 0.040322 0.000000 0.000000
# 5 0.000000 0.000000 0.000000 0.000000 0.059756 0.000000
# 6 0.000000 0.000000 0.000000 0.000000 0.000000 0.086641
#
#
# Mechanical properties :
#
#
# Convention : Reuss Voigt Hill
#
# Bulk Modulus (GPa) = 14.87024 43.33751 29.10388
# Shear Modulus (GPa) = 17.06754 25.24343 21.15548
#
# Velocity S-wave (km/s) = 2.97286 3.61546 3.30979
# Velocity P-wave (km/s) = 4.41406 6.31424 5.44764
#
# Compressibility (1/GPa) = 0.06724839
#
# Stress axis : x y z
#
# Youngs Moduli (GPa) = 20.10950 60.11220 109.05205
#
# Poissons Ratio (x) = -0.01361 -0.29164
# Poissons Ratio (y) = -0.00455 0.76807
# Poissons Ratio (z) = -0.05378 0.42338
#
# Static dielectric constant tensor:
#      x y z
#    x 1.716760 0.000000 0.000000 
#    y 0.000000 1.646350 0.000000 
#    z 0.000000 0.000000 1.700360 
# 
# From -- ./inp_files/15687.got.cif
#   From: 2010.05.17/outbox.cif.g08.bks.cpg/sg36_8_cif.got.tgz:15687.got - 2010.06.03 17:41:39.
