data_PCOD9351567
_publ_section_title
;
Structure prediction by ZEFSAII (Michael W. Deem and Ramdas Pophale) SiO2 
 PCOD9351567
Probable space group: C M C 21
;
_chemical_formula_sum "Si O2"
_cell_formula_units_Z 64
_cell_length_a 7.775865
_cell_length_b 14.395392
_cell_length_c 25.446469
_cell_angle_alpha 90.000000
_cell_angle_beta 90.000000
_cell_angle_gamma 90.000000
_cell_volume 2848.391853
_symmetry_space_group_name_H-M "C M C 21"
_symmetry_group_IT_number 36
_symmetry_cell_setting 'orthorhombic'
loop_
_space_group_symop_operation_xyz
x,y,z
-x,-y,1/2+z
x,-y,1/2+z
-x,y,z
1/2+x,1/2+y,z
1/2-x,1/2-y,1/2+z
1/2+x,1/2-y,1/2+z
1/2-x,1/2+y,z
loop_
_atom_site_type_symbol
_atom_site_label
_atom_site_fract_x
_atom_site_fract_y
_atom_site_fract_z
Si Si1 0.298094 0.361770 0.531680
Si Si2 0.703693 0.859641 0.006099
Si Si3 0.199021 0.306198 0.641501
Si Si4 0.299157 0.899555 0.116827
Si Si5 0.206220 0.469299 0.707864
Si Si6 0.292603 0.811979 0.896231
Si Si7 0.201946 0.030379 0.326767
Si Si8 0.210936 0.899120 0.418926
O O1 0.500000 0.381457 0.538552
O O2 0.283766 0.251737 0.516978
O O3 0.210866 0.368513 0.588326
O O4 0.231354 0.413862 0.479503
O O5 0.500000 0.880845 0.004142
O O6 0.778966 0.908279 0.058046
O O7 0.776622 0.868317 0.947453
O O8 0.291387 0.209318 0.631446
O O9 0.268801 0.368081 0.689044
O O10 0.000000 0.283256 0.650454
O O11 0.500000 0.924047 0.111856
O O12 0.224506 0.957693 0.165049
O O13 0.240513 0.491106 0.768115
O O14 0.000000 0.466868 0.702304
O O15 0.500000 0.812626 0.899134
O O16 0.239508 0.864196 0.843763
O O17 0.239360 0.705268 0.901633
O O18 0.000000 0.014755 0.327796
O O19 0.276625 0.967717 0.373948
O O20 0.000000 0.901540 0.421174
#
# Coordination Sequence:
#
# PCOD9351567 Si02
#       8
#     8   8   8   8   8   8   8   8
#     4   8  14  30  55  79 105 138 172 203 251 320
#     4   7  12  26  52  80 101 129 168 203 242 305
#     4  10  20  34  54  82 111 135 167 216 266 307
#     4   9  18  36  59  79 104 140 177 211 255 314
#     4  10  23  40  54  72 103 143 183 217 255 312
#     4   9  17  34  58  79 104 140 174 203 251 319
#     4  11  23  37  53  77 106 135 177 228 267 300
#     4   8  17  35  57  78 104 140 174 209 259 315
#
# _framework density 22.468819
#
# number of rings (size 3 to 8) (size 9 to 14) (size 15 to 20)
#    0.000    3.000    0.000    3.000    0.000    3.500 
#    0.000   13.125    0.000    0.000    0.000    0.000 
#    0.000    0.000    0.000    0.000    0.000    0.000 
#
# Total GULP energy -178549.296769 kJ/mol
# GULP energy per Si atom -5579.665524 kJ/mol
# Density = 2.241768 g / cm^3
# Si number density = 22.468819 Si / 1000 Ang^3
#
#
#
# Elastic Constant Matrix: (Units=GPa)
#
#
# Indices 1 2 3 4 5 6 
#
# 1 31.4860 -4.9653 3.5783 0.0000 0.0000 0.0000
# 2 -4.9653 55.0468 44.2077 0.0000 0.0000 0.0000
# 3 3.5783 44.2077 124.2943 0.0000 0.0000 0.0000
# 4 0.0000 0.0000 0.0000 32.3236 0.0000 0.0000
# 5 0.0000 0.0000 0.0000 0.0000 10.7647 0.0000
# 6 0.0000 0.0000 0.0000 0.0000 0.0000 12.6118
#
#
#
# Elastic Compliance Matrix: (Units=1/GPa)
#
#
# Indices 1 2 3 4 5 6 
#
# 1 0.032902 0.005219 -0.002804 0.000000 0.000000 0.000000
# 2 0.005219 0.026258 -0.009489 0.000000 0.000000 0.000000
# 3 -0.002804 -0.009489 0.011501 0.000000 0.000000 0.000000
# 4 0.000000 0.000000 0.000000 0.030937 0.000000 0.000000
# 5 0.000000 0.000000 0.000000 0.000000 0.092897 0.000000
# 6 0.000000 0.000000 0.000000 0.000000 0.000000 0.079291
#
#
# Mechanical properties :
#
#
# Convention : Reuss Voigt Hill
#
# Bulk Modulus (GPa) = 17.69483 32.94097 25.31790
# Shear Modulus (GPa) = 16.29879 22.34043 19.31961
#
# Velocity S-wave (km/s) = 2.69624 3.15665 2.93549
# Velocity P-wave (km/s) = 4.19349 5.28947 4.77304
#
# Compressibility (1/GPa) = 0.05651367
#
# Stress axis : x y z
#
# Youngs Moduli (GPa) = 30.39346 38.08353 86.94704
#
# Poissons Ratio (x) = -0.19877 0.24376
# Poissons Ratio (y) = -0.15863 0.82508
# Poissons Ratio (z) = 0.08521 0.36139
#
# Static dielectric constant tensor:
#      x y z
#    x 1.822180 0.000000 0.000000 
#    y 0.000000 1.871820 0.000000 
#    z 0.000000 0.000000 1.875280 
# 
# From -- ./inp_files/16663.got.cif
#   From: 2010.05.17/outbox.cif.g08.bks.cpg/sg36_9_cif.got.tgz:16663.got - 2010.06.03 17:41:39.
