data_PCOD9351334
_publ_section_title
;
Structure prediction by ZEFSAII (Michael W. Deem and Ramdas Pophale) SiO2 
 PCOD9351334
Probable space group: C M C 21
;
_chemical_formula_sum "Si O2"
_cell_formula_units_Z 48
_cell_length_a 8.461836
_cell_length_b 30.287097
_cell_length_c 8.678691
_cell_angle_alpha 90.000000
_cell_angle_beta 90.000000
_cell_angle_gamma 90.000000
_cell_volume 2224.213530
_symmetry_space_group_name_H-M "C M C 21"
_symmetry_group_IT_number 36
_symmetry_cell_setting 'orthorhombic'
loop_
_space_group_symop_operation_xyz
x,y,z
-x,-y,1/2+z
x,-y,1/2+z
-x,y,z
1/2+x,1/2+y,z
1/2-x,1/2-y,1/2+z
1/2+x,1/2-y,1/2+z
1/2-x,1/2+y,z
loop_
_atom_site_type_symbol
_atom_site_label
_atom_site_fract_x
_atom_site_fract_y
_atom_site_fract_z
Si Si1 0.807167 0.975101 0.382730
Si Si2 0.813101 0.687910 0.877440
Si Si3 0.813389 0.108598 0.701752
Si Si4 0.191036 0.730125 0.206908
Si Si5 0.809034 0.938777 0.713909
Si Si6 0.187639 0.355090 0.880752
O O1 0.756689 0.939716 0.253670
O O2 0.756844 0.957190 0.548446
O O3 0.000000 0.975128 0.383483
O O4 0.758828 0.024495 0.339421
O O5 0.722976 0.642962 0.838527
O O6 0.771173 0.723719 0.746658
O O7 0.000000 0.678973 0.878498
O O8 0.769245 0.710051 0.040112
O O9 0.739545 0.128134 0.547419
O O10 0.000000 0.105667 0.675898
O O11 0.244441 0.693484 0.331828
O O12 0.000000 0.735685 0.213818
O O13 0.744937 0.891188 0.757718
O O14 0.000000 0.936615 0.714225
O O15 0.000000 0.353279 0.875491
#
# Coordination Sequence:
#
# PCOD9351334 Si02
#       6
#     8   8   8   8   8   8
#     4   9  19  35  59  87 114 148 192 238 281 339
#     4  11  23  39  60  86 115 147 187 237 287 336
#     4  11  22  38  60  86 116 152 193 235 283 339
#     4  10  23  41  59  82 115 153 191 232 282 343
#     4  10  19  36  60  85 113 148 191 236 285 339
#     4  11  23  39  58  84 117 152 192 238 286 336
#
# _framework density 21.580663000000001
#
# number of rings (size 3 to 8) (size 9 to 14) (size 15 to 20)
#    0.000    1.667    0.000    4.500    0.000    8.000 
#    0.000    5.000    0.000    0.000    0.000    0.000 
#    0.000    0.000    0.000    0.000    0.000    0.000 
#
# Total GULP energy -134239.220878 kJ/mol
# GULP energy per Si atom -5593.300870 kJ/mol
# Density = 2.153154 g / cm^3
# Si number density = 21.580663 Si / 1000 Ang^3
#
#
#
# Elastic Constant Matrix: (Units=GPa)
#
#
# Indices 1 2 3 4 5 6 
#
# 1 12.2650 -0.0144 -0.8885 0.0000 0.0000 0.0000
# 2 -0.0144 68.9596 -24.0771 0.0000 0.0000 0.0000
# 3 -0.8885 -24.0771 52.8425 0.0000 0.0000 0.0000
# 4 0.0000 0.0000 0.0000 37.5125 0.0000 0.0000
# 5 0.0000 0.0000 0.0000 0.0000 27.3301 0.0000
# 6 0.0000 0.0000 0.0000 0.0000 0.0000 19.5872
#
#
#
# Elastic Compliance Matrix: (Units=1/GPa)
#
#
# Indices 1 2 3 4 5 6 
#
# 1 0.081652 0.000590 0.001642 0.000000 0.000000 0.000000
# 2 0.000590 0.017249 0.007869 0.000000 0.000000 0.000000
# 3 0.001642 0.007869 0.022537 0.000000 0.000000 0.000000
# 4 0.000000 0.000000 0.000000 0.026658 0.000000 0.000000
# 5 0.000000 0.000000 0.000000 0.000000 0.036590 0.000000
# 6 0.000000 0.000000 0.000000 0.000000 0.000000 0.051054
#
#
# Mechanical properties :
#
#
# Convention : Reuss Voigt Hill
#
# Bulk Modulus (GPa) = 7.06010 9.34524 8.20267
# Shear Modulus (GPa) = 19.02946 27.48911 23.25928
#
# Velocity S-wave (km/s) = 2.97270 3.57288 3.28652
# Velocity P-wave (km/s) = 3.88088 4.62174 4.26741
#
# Compressibility (1/GPa) = 0.14164109
#
# Stress axis : x y z
#
# Youngs Moduli (GPa) = 12.24707 57.97483 44.37091
#
# Poissons Ratio (x) = -0.03422 -0.07285
# Poissons Ratio (y) = -0.00723 -0.34916
# Poissons Ratio (z) = -0.02011 -0.45621
#
# Static dielectric constant tensor:
#      x y z
#    x 1.736110 0.000000 0.000000 
#    y 0.000000 1.761670 0.000000 
#    z 0.000000 0.000000 1.806830 
# 
# From -- ./inp_files/2696.got.cif
#   From: 2010.05.17/outbox.cif.g08.bks.cpg/sg36_2_cif.got.tgz:2696.got - 2010.06.03 17:41:39.
