data_PCOD9351971
_publ_section_title
;
Structure prediction by ZEFSAII (Michael W. Deem and Ramdas Pophale) SiO2 
 PCOD9351971
Probable space group: C M C 21
;
_chemical_formula_sum "Si O2"
_cell_formula_units_Z 64
_cell_length_a 8.517783
_cell_length_b 15.699286
_cell_length_c 24.227912
_cell_angle_alpha 90.000000
_cell_angle_beta 90.000000
_cell_angle_gamma 90.000000
_cell_volume 3239.831775
_symmetry_space_group_name_H-M "C M C 21"
_symmetry_group_IT_number 36
_symmetry_cell_setting 'orthorhombic'
loop_
_space_group_symop_operation_xyz
x,y,z
-x,-y,1/2+z
x,-y,1/2+z
-x,y,z
1/2+x,1/2+y,z
1/2-x,1/2-y,1/2+z
1/2+x,1/2-y,1/2+z
1/2-x,1/2+y,z
loop_
_atom_site_type_symbol
_atom_site_label
_atom_site_fract_x
_atom_site_fract_y
_atom_site_fract_z
Si Si1 0.682885 0.900062 0.961620
Si Si2 0.686654 0.238432 0.900410
Si Si3 0.310792 0.418467 0.708178
Si Si4 0.191129 0.247677 0.274248
Si Si5 0.684220 0.653066 0.577768
Si Si6 0.187069 0.400667 0.194047
Si Si7 0.686358 0.581662 0.970649
Si Si8 0.688921 0.656525 0.088042
O O1 0.500000 0.886092 0.951621
O O2 0.777473 0.829928 0.927112
O O3 0.730139 0.996893 0.949234
O O4 0.722409 0.883451 0.025782
O O5 0.500000 0.223290 0.901906
O O6 0.741598 0.238326 0.836974
O O7 0.768728 0.164799 0.935778
O O8 0.500000 0.427774 0.711633
O O9 0.260331 0.342931 0.749019
O O10 0.230748 0.508359 0.719228
O O11 0.273298 0.388531 0.645728
O O12 0.240072 0.323701 0.233608
O O13 0.000000 0.247539 0.274176
O O14 0.500000 0.641991 0.567259
O O15 0.731330 0.608436 0.634764
O O16 0.727239 0.752555 0.583850
O O17 0.000000 0.393212 0.186355
O O18 0.500000 0.568070 0.968762
O O19 0.729861 0.600946 0.034435
O O20 0.500000 0.671378 0.087101
#
# Coordination Sequence:
#
# PCOD9351971 Si02
#       8
#     8   8   8   8   8   8   8   8
#     4  12  25  42  64  92 126 165 208 256 312 371
#     4  11  23  42  65  92 125 164 212 261 311 366
#     4  10  20  39  63  90 123 162 203 249 305 364
#     4   9  21  41  64  87 122 166 206 254 308 361
#     4  12  23  37  62  94 126 160 202 250 308 374
#     4  11  22  40  63  91 125 162 203 250 308 368
#     4  11  23  40  64  95 127 163 205 255 313 370
#     4  10  20  37  63  89 124 160 197 247 309 370
#
# _framework density 19.754111999999999
#
# number of rings (size 3 to 8) (size 9 to 14) (size 15 to 20)
#    0.000    1.250    2.500    4.125    0.000    3.000 
#    0.000    6.250    0.000    0.000    0.000    0.000 
#    0.000    0.000    0.000    0.000    0.000    0.000 
#
# Total GULP energy -178981.830951 kJ/mol
# GULP energy per Si atom -5593.182217 kJ/mol
# Density = 1.970915 g / cm^3
# Si number density = 19.754112 Si / 1000 Ang^3
#
#
#
# Elastic Constant Matrix: (Units=GPa)
#
#
# Indices 1 2 3 4 5 6 
#
# 1 20.6328 -8.0933 -10.3242 0.0000 0.0000 0.0000
# 2 -8.0933 72.7232 -11.8369 0.0000 0.0000 0.0000
# 3 -10.3242 -11.8369 65.5523 0.0000 0.0000 0.0000
# 4 0.0000 0.0000 0.0000 1.0365 0.0000 0.0000
# 5 0.0000 0.0000 0.0000 0.0000 20.9080 0.0000
# 6 0.0000 0.0000 0.0000 0.0000 0.0000 44.5139
#
#
#
# Elastic Compliance Matrix: (Units=1/GPa)
#
#
# Indices 1 2 3 4 5 6 
#
# 1 0.056812 0.008014 0.010395 0.000000 0.000000 0.000000
# 2 0.008014 0.015298 0.004025 0.000000 0.000000 0.000000
# 3 0.010395 0.004025 0.017619 0.000000 0.000000 0.000000
# 4 0.000000 0.000000 0.000000 0.964828 0.000000 0.000000
# 5 0.000000 0.000000 0.000000 0.000000 0.047829 0.000000
# 6 0.000000 0.000000 0.000000 0.000000 0.000000 0.022465
#
#
# Mechanical properties :
#
#
# Convention : Reuss Voigt Hill
#
# Bulk Modulus (GPa) = 7.42965 10.93327 9.18146
# Shear Modulus (GPa) = 4.44505 25.90252 15.17378
#
# Velocity S-wave (km/s) = 1.50169 3.62504 2.77453
# Velocity P-wave (km/s) = 2.60307 4.80291 3.86290
#
# Compressibility (1/GPa) = 0.13459579
#
# Stress axis : x y z
#
# Youngs Moduli (GPa) = 17.60205 65.36905 56.75737
#
# Poissons Ratio (x) = -0.52390 -0.58998
# Poissons Ratio (y) = -0.14107 -0.22843
# Poissons Ratio (z) = -0.18297 -0.26308
#
# Static dielectric constant tensor:
#      x y z
#    x 1.672200 0.000000 0.000000 
#    y 0.000000 1.676900 0.000000 
#    z 0.000000 0.000000 1.676020 
# 
# From -- ./inp_files/16691.got.cif
#   From: 2010.05.17/outbox.cif.g08.bks.cpg/sg36_9_cif.got.tgz:16691.got - 2010.06.03 17:41:39.
