data_PCOD9351352
_publ_section_title
;
Structure prediction by ZEFSAII (Michael W. Deem and Ramdas Pophale) SiO2 
 PCOD9351352
Probable space group: C M C 21
;
_chemical_formula_sum "Si O2"
_cell_formula_units_Z 64
_cell_length_a 7.799852
_cell_length_b 31.849721
_cell_length_c 12.377685
_cell_angle_alpha 90.000000
_cell_angle_beta 90.000000
_cell_angle_gamma 90.000000
_cell_volume 3074.903003
_symmetry_space_group_name_H-M "C M C 21"
_symmetry_group_IT_number 36
_symmetry_cell_setting 'orthorhombic'
loop_
_space_group_symop_operation_xyz
x,y,z
-x,-y,1/2+z
x,-y,1/2+z
-x,y,z
1/2+x,1/2+y,z
1/2-x,1/2-y,1/2+z
1/2+x,1/2-y,1/2+z
1/2-x,1/2+y,z
loop_
_atom_site_type_symbol
_atom_site_label
_atom_site_fract_x
_atom_site_fract_y
_atom_site_fract_z
Si Si1 0.793058 0.625686 0.137690
Si Si2 0.706356 0.551321 0.724471
Si Si3 0.792628 0.801574 0.226576
Si Si4 0.207009 0.958077 0.771810
Si Si5 0.201453 0.708276 0.265372
Si Si6 0.203240 0.624231 0.890462
Si Si7 0.709153 0.579461 0.490691
Si Si8 0.292733 0.326445 0.987095
O O1 0.751731 0.582043 0.198290
O O2 0.728380 0.667033 0.203058
O O3 0.000000 0.628463 0.135698
O O4 0.728393 0.625394 0.013515
O O5 0.500000 0.549399 0.717423
O O6 0.770549 0.503748 0.736324
O O7 0.743410 0.583248 0.821876
O O8 0.770679 0.569237 0.610413
O O9 0.725960 0.754128 0.238756
O O10 0.746011 0.834342 0.320429
O O11 0.736704 0.817478 0.108848
O O12 0.000000 0.800562 0.225956
O O13 0.000000 0.959712 0.772914
O O14 0.266228 0.950391 0.894578
O O15 0.221587 0.702458 0.393349
O O16 0.000000 0.709758 0.238104
O O17 0.000000 0.622464 0.899669
O O18 0.500000 0.578538 0.493760
O O19 0.759535 0.626320 0.459272
O O20 0.500000 0.323639 0.984322
#
# Coordination Sequence:
#
# PCOD9351352 Si02
#       8
#     8   8   8   8   8   8   8   8
#     4  10  23  41  57  80 120 159 188 232 291 344
#     4  10  21  38  61  86 117 152 189 238 289 337
#     4  10  22  40  61  84 114 154 194 236 288 343
#     4  10  21  36  61  90 113 148 195 237 280 337
#     4  10  22  39  59  84 114 151 193 235 288 344
#     4  11  24  40  59  84 118 156 194 236 288 346
#     4   9  17  34  56  84 113 142 186 235 283 330
#     4  10  19  36  62  84 111 148 189 239 289 335
#
# _framework density 20.813662999999998
#
# number of rings (size 3 to 8) (size 9 to 14) (size 15 to 20)
#    0.000    2.000    2.500    0.375    3.500    2.500 
#    0.000    0.625    0.000    0.000    0.000    0.000 
#    0.000    0.000    0.000    0.000    0.000    0.000 
#
# Total GULP energy -178609.163963 kJ/mol
# GULP energy per Si atom -5581.536374 kJ/mol
# Density = 2.076629 g / cm^3
# Si number density = 20.813663 Si / 1000 Ang^3
#
#
#
# Elastic Constant Matrix: (Units=GPa)
#
#
# Indices 1 2 3 4 5 6 
#
# 1 25.0409 3.8181 -1.9447 0.0000 0.0000 0.0000
# 2 3.8181 134.4452 43.9614 0.0000 0.0000 0.0000
# 3 -1.9447 43.9614 121.7428 0.0000 0.0000 0.0000
# 4 0.0000 0.0000 0.0000 32.5086 0.0000 0.0000
# 5 0.0000 0.0000 0.0000 0.0000 46.8043 0.0000
# 6 0.0000 0.0000 0.0000 0.0000 0.0000 20.0570
#
#
#
# Elastic Compliance Matrix: (Units=1/GPa)
#
#
# Indices 1 2 3 4 5 6 
#
# 1 0.040262 -0.001535 0.001197 0.000000 0.000000 0.000000
# 2 -0.001535 0.008492 -0.003091 0.000000 0.000000 0.000000
# 3 0.001197 -0.003091 0.009349 0.000000 0.000000 0.000000
# 4 0.000000 0.000000 0.000000 0.030761 0.000000 0.000000
# 5 0.000000 0.000000 0.000000 0.000000 0.021366 0.000000
# 6 0.000000 0.000000 0.000000 0.000000 0.000000 0.049858
#
#
# Mechanical properties :
#
#
# Convention : Reuss Voigt Hill
#
# Bulk Modulus (GPa) = 19.51368 41.43316 30.47342
# Shear Modulus (GPa) = 27.16990 35.56693 31.36841
#
# Velocity S-wave (km/s) = 3.61693 4.13828 3.88636
# Velocity P-wave (km/s) = 5.18061 6.54093 5.90010
#
# Compressibility (1/GPa) = 0.05124611
#
# Stress axis : x y z
#
# Youngs Moduli (GPa) = 24.83752 117.75366 106.95916
#
# Poissons Ratio (x) = 0.18074 -0.12807
# Poissons Ratio (y) = 0.03812 0.33062
# Poissons Ratio (z) = -0.02974 0.36399
#
# Static dielectric constant tensor:
#      x y z
#    x 1.774260 0.000000 0.000000 
#    y 0.000000 1.734480 0.000000 
#    z 0.000000 0.000000 1.722960 
# 
# From -- ./inp_files/7165.got.cif
#   From: 2010.05.17/outbox.cif.g08.bks.cpg/sg36_4_cif.got.tgz:7165.got - 2010.06.03 17:41:39.
