data_PCOD9351355
_publ_section_title
;
Structure prediction by ZEFSAII (Michael W. Deem and Ramdas Pophale) SiO2 
 PCOD9351355
Probable space group: C M C 21
;
_chemical_formula_sum "Si O2"
_cell_formula_units_Z 64
_cell_length_a 9.086029
_cell_length_b 29.686364
_cell_length_c 12.506319
_cell_angle_alpha 90.000000
_cell_angle_beta 90.000000
_cell_angle_gamma 90.000000
_cell_volume 3373.343984
_symmetry_space_group_name_H-M "C M C 21"
_symmetry_group_IT_number 36
_symmetry_cell_setting 'orthorhombic'
loop_
_space_group_symop_operation_xyz
x,y,z
-x,-y,1/2+z
x,-y,1/2+z
-x,y,z
1/2+x,1/2+y,z
1/2-x,1/2-y,1/2+z
1/2+x,1/2-y,1/2+z
1/2-x,1/2+y,z
loop_
_atom_site_type_symbol
_atom_site_label
_atom_site_fract_x
_atom_site_fract_y
_atom_site_fract_z
Si Si1 0.830536 0.834570 0.417630
Si Si2 0.176647 0.619871 0.721540
Si Si3 0.178385 0.227966 0.113231
Si Si4 0.823465 0.180337 0.556204
Si Si5 0.829831 0.935875 0.770995
Si Si6 0.327258 0.972937 0.332190
Si Si7 0.662185 0.432573 0.517481
Si Si8 0.821348 0.835044 0.812106
O O1 0.730224 0.846585 0.316524
O O2 0.784458 0.795746 0.499750
O O3 0.831052 0.879883 0.489126
O O4 0.000000 0.826614 0.382416
O O5 0.254169 0.636925 0.614231
O O6 0.222756 0.569302 0.757674
O O7 0.000000 0.621366 0.712719
O O8 0.255550 0.276085 0.113717
O O9 0.225280 0.196742 0.213553
O O10 0.000000 0.232401 0.117154
O O11 0.783885 0.182108 0.430421
O O12 0.000000 0.179456 0.565431
O O13 0.827043 0.938264 0.642852
O O14 0.768954 0.886659 0.801392
O O15 0.000000 0.937779 0.806800
O O16 0.747104 0.979517 0.811896
O O17 0.500000 0.977075 0.317515
O O18 0.286456 0.957421 0.451352
O O19 0.500000 0.448713 0.480850
O O20 0.000000 0.836704 0.804500
#
# Coordination Sequence:
#
# PCOD9351355 Si02
#       8
#     8   8   8   8   8   8   8   8
#     4   9  17  33  60  87 111 142 188 243 290 343
#     4  10  22  40  58  79 116 160 198 239 295 347
#     4  10  20  38  62  87 117 151 187 236 298 354
#     4  11  24  39  58  87 121 157 200 242 289 351
#     4  10  19  36  62  87 112 150 199 244 293 348
#     4  10  22  37  55  84 120 157 195 240 300 357
#     4   9  17  33  57  83 109 144 194 244 288 342
#     4   9  20  40  62  86 118 153 191 240 295 350
#
# _framework density 18.972270999999999
#
# number of rings (size 3 to 8) (size 9 to 14) (size 15 to 20)
#    0.000    2.250    1.250    1.125    1.750    3.500 
#    0.000    6.250    0.000    0.000    0.000    0.000 
#    0.000    0.000    0.000    0.000    0.000    0.000 
#
# Total GULP energy -178519.376547 kJ/mol
# GULP energy per Si atom -5578.730517 kJ/mol
# Density = 1.892909 g / cm^3
# Si number density = 18.972271 Si / 1000 Ang^3
#
#
#
# Elastic Constant Matrix: (Units=GPa)
#
#
# Indices 1 2 3 4 5 6 
#
# 1 32.6436 34.4157 16.4795 0.0000 0.0000 0.0000
# 2 34.4157 115.9340 39.8081 0.0000 0.0000 0.0000
# 3 16.4795 39.8081 53.3500 0.0000 0.0000 0.0000
# 4 0.0000 0.0000 0.0000 22.8892 0.0000 0.0000
# 5 0.0000 0.0000 0.0000 0.0000 17.1349 0.0000
# 6 0.0000 0.0000 0.0000 0.0000 0.0000 27.3902
#
#
#
# Elastic Compliance Matrix: (Units=1/GPa)
#
#
# Indices 1 2 3 4 5 6 
#
# 1 0.045705 -0.011724 -0.005370 0.000000 0.000000 0.000000
# 2 -0.011724 0.014604 -0.007276 0.000000 0.000000 0.000000
# 3 -0.005370 -0.007276 0.025832 0.000000 0.000000 0.000000
# 4 0.000000 0.000000 0.000000 0.043689 0.000000 0.000000
# 5 0.000000 0.000000 0.000000 0.000000 0.058360 0.000000
# 6 0.000000 0.000000 0.000000 0.000000 0.000000 0.036509
#
#
# Mechanical properties :
#
#
# Convention : Reuss Voigt Hill
#
# Bulk Modulus (GPa) = 26.73666 42.59269 34.66468
# Shear Modulus (GPa) = 17.48823 20.89780 19.19301
#
# Velocity S-wave (km/s) = 3.03937 3.32247 3.18407
# Velocity P-wave (km/s) = 5.14200 6.10059 5.64169
#
# Compressibility (1/GPa) = 0.03740183
#
# Stress axis : x y z
#
# Youngs Moduli (GPa) = 21.87935 68.47348 38.71187
#
# Poissons Ratio (x) = 0.80278 0.20788
# Poissons Ratio (y) = 0.25651 0.28166
# Poissons Ratio (z) = 0.11749 0.49820
#
# Static dielectric constant tensor:
#      x y z
#    x 1.650960 0.000000 0.000000 
#    y 0.000000 1.656730 0.000000 
#    z 0.000000 0.000000 1.658370 
# 
# From -- ./inp_files/7151.got.cif
#   From: 2010.05.17/outbox.cif.g08.bks.cpg/sg36_4_cif.got.tgz:7151.got - 2010.06.03 17:41:39.
