data_PCOD9351134
_publ_section_title
;
Structure prediction by ZEFSAII (Michael W. Deem and Ramdas Pophale) SiO2 
 PCOD9351134
Probable space group: C M C 21
;
_chemical_formula_sum "Si O2"
_cell_formula_units_Z 48
_cell_length_a 16.473968
_cell_length_b 13.603733
_cell_length_c 8.357397
_cell_angle_alpha 90.000000
_cell_angle_beta 90.000000
_cell_angle_gamma 90.000000
_cell_volume 1872.955032
_symmetry_space_group_name_H-M "C M C 21"
_symmetry_group_IT_number 36
_symmetry_cell_setting 'orthorhombic'
loop_
_space_group_symop_operation_xyz
x,y,z
-x,-y,1/2+z
x,-y,1/2+z
-x,y,z
1/2+x,1/2+y,z
1/2-x,1/2-y,1/2+z
1/2+x,1/2-y,1/2+z
1/2-x,1/2+y,z
loop_
_atom_site_type_symbol
_atom_site_label
_atom_site_fract_x
_atom_site_fract_y
_atom_site_fract_z
Si Si1 0.408355 0.108521 0.342090
Si Si2 0.094912 0.770478 0.620640
Si Si3 0.093560 0.030844 0.956128
Si Si4 0.094059 0.852334 0.128965
Si Si5 0.184863 0.538352 0.044705
Si Si6 0.739944 0.850615 0.240596
O O1 0.500000 0.105081 0.282676
O O2 0.401999 0.202958 0.458665
O O3 0.348610 0.098543 0.193432
O O4 0.389202 0.011844 0.447759
O O5 0.119722 0.880405 0.572640
O O6 0.161661 0.719700 0.731801
O O7 0.000000 0.767234 0.674771
O O8 0.000000 0.023327 0.002534
O O9 0.116864 0.917267 0.974300
O O10 0.094858 0.070233 0.776571
O O11 0.177677 0.798729 0.179450
O O12 0.000000 0.812701 0.120403
O O13 0.228103 0.443129 0.120867
O O14 0.236545 0.598690 0.915165
#
# Coordination Sequence:
#
# PCOD9351134 Si02
#       6
#     8   8   8   8   8   8
#     4   9  16  28  48  74 109 154 192 224 268 328
#     4   9  19  36  57  84 120 154 182 225 287 341
#     4   9  19  38  61  84 110 144 189 238 287 336
#     4  10  20  37  62  84 107 145 193 239 280 332
#     4   9  18  29  47  76 113 149 190 229 267 335
#     4  10  19  34  54  82 115 150 190 235 283 334
#
# _framework density 25.627953000000002
#
# number of rings (size 3 to 8) (size 9 to 14) (size 15 to 20)
#    0.000    2.667    0.000    1.500    0.000    4.667 
#    0.000   10.000    0.000    6.000    0.000    1.167 
#    0.000    0.000    0.000    0.000    0.000    0.000 
#
# Total GULP energy -133939.704344 kJ/mol
# GULP energy per Si atom -5580.821014 kJ/mol
# Density = 2.556962 g / cm^3
# Si number density = 25.627953 Si / 1000 Ang^3
#
#
#
# Elastic Constant Matrix: (Units=GPa)
#
#
# Indices 1 2 3 4 5 6 
#
# 1 131.5485 33.4934 -3.4452 0.0000 0.0000 0.0000
# 2 33.4934 94.8852 8.7497 0.0000 0.0000 0.0000
# 3 -3.4452 8.7497 57.7364 0.0000 0.0000 0.0000
# 4 0.0000 0.0000 0.0000 24.2881 0.0000 0.0000
# 5 0.0000 0.0000 0.0000 0.0000 30.5816 0.0000
# 6 0.0000 0.0000 0.0000 0.0000 0.0000 -7.4028
#
#
#
# Elastic Compliance Matrix: (Units=1/GPa)
#
#
# Indices 1 2 3 4 5 6 
#
# 1 0.008405 -0.003056 0.000965 0.000000 0.000000 0.000000
# 2 -0.003056 0.011799 -0.001970 0.000000 0.000000 0.000000
# 3 0.000965 -0.001970 0.017676 0.000000 0.000000 0.000000
# 4 0.000000 0.000000 0.000000 0.041172 0.000000 0.000000
# 5 0.000000 0.000000 0.000000 0.000000 0.032699 0.000000
# 6 0.000000 0.000000 0.000000 0.000000 0.000000 -0.135085
#
#
# Mechanical properties :
#
#
# Convention : Reuss Voigt Hill
#
# Bulk Modulus (GPa) = 33.60511 40.19620 36.90065
# Shear Modulus (GPa) = -945.23330 25.85153 -459.69089
#
# Velocity S-wave (km/s) = -19.22576 3.17949 -13.40747
# Velocity P-wave (km/s) = 21.90202 5.40346 15.00835
#
# Compressibility (1/GPa) = 0.02975738
#
# Stress axis : x y z
#
# Youngs Moduli (GPa) = 118.97586 84.74982 56.57296
#
# Poissons Ratio (x) = 0.25898 -0.05457
# Poissons Ratio (y) = 0.36357 0.11148
# Poissons Ratio (z) = -0.11477 0.16700
#
# Static dielectric constant tensor:
#      x y z
#    x 2.092720 0.000000 0.000000 
#    y 0.000000 2.111320 0.000000 
#    z 0.000000 0.000000 2.068680 
# 
# From -- ./inp_files/4002.got.cif
#   From: 2010.05.17/outbox.cif.g08.bks.cpg/sg36_3_cif.got.tgz:4002.got - 2010.06.03 17:41:39.
