data_PCOD9351368
_publ_section_title
;
Structure prediction by ZEFSAII (Michael W. Deem and Ramdas Pophale) SiO2 
 PCOD9351368
Probable space group: C M C 21
;
_chemical_formula_sum "Si O2"
_cell_formula_units_Z 52
_cell_length_a 7.555082
_cell_length_b 19.757132
_cell_length_c 15.608139
_cell_angle_alpha 90.000000
_cell_angle_beta 90.000000
_cell_angle_gamma 90.000000
_cell_volume 2329.776219
_symmetry_space_group_name_H-M "C M C 21"
_symmetry_group_IT_number 36
_symmetry_cell_setting 'orthorhombic'
loop_
_space_group_symop_operation_xyz
x,y,z
-x,-y,1/2+z
x,-y,1/2+z
-x,y,z
1/2+x,1/2+y,z
1/2-x,1/2-y,1/2+z
1/2+x,1/2-y,1/2+z
1/2-x,1/2+y,z
loop_
_atom_site_type_symbol
_atom_site_label
_atom_site_fract_x
_atom_site_fract_y
_atom_site_fract_z
Si Si1 0.286808 0.568060 0.337150
Si Si2 0.715592 0.463844 0.485480
Si Si3 0.783691 0.013528 0.671839
Si Si4 0.786149 0.179766 0.915621
Si Si5 0.000000 0.169440 0.592495
Si Si6 0.306434 0.166349 0.717397
Si Si7 0.796795 0.672905 0.466197
O O1 0.500000 0.571240 0.337927
O O2 0.229342 0.512473 0.407734
O O3 0.237238 0.541978 0.243441
O O4 0.215920 0.638588 0.373009
O O5 0.500000 0.463272 0.486164
O O6 0.773423 0.489962 0.578107
O O7 0.773619 0.387608 0.464231
O O8 0.000000 0.023643 0.671334
O O9 0.708778 0.085448 0.701421
O O10 0.724785 0.178048 0.817734
O O11 0.732221 0.249585 0.960231
O O12 0.000000 0.179920 0.914264
O O13 0.154943 0.196270 0.658012
O O14 0.156008 0.138682 0.528613
O O15 0.500000 0.191627 0.694116
O O16 0.000000 0.668599 0.494579
#
# Coordination Sequence:
#
# PCOD9351368 Si02
#       7
#     8   8   8   8   4   8   8
#     4  10  19  36  64  97 134 182 221 279 347 403
#     4   9  18  35  66  96 128 176 226 278 342 404
#     4  10  19  36  65  98 136 178 225 286 351 403
#     4  10  21  45  67  96 137 181 229 282 340 414
#     4  12  24  46  66  98 134 172 226 290 320 416
#     4  12  24  40  70 102 132 178 230 281 343 412
#     4  11  25  43  70  98 136 184 226 278 350 407
#
# _framework density 22.319739999999999
#
# number of rings (size 3 to 8) (size 9 to 14) (size 15 to 20)
#    0.000    1.538    3.846    1.385    3.231    0.615 
#    2.769    0.769    0.000    0.000    0.000    0.000 
#    0.000    0.000    0.000    0.000    0.000    0.000 
#
# Total GULP energy -144922.988449 kJ/mol
# GULP energy per Si atom -5573.961094 kJ/mol
# Density = 2.226894 g / cm^3
# Si number density = 22.319740 Si / 1000 Ang^3
#
#
#
# Elastic Constant Matrix: (Units=GPa)
#
#
# Indices 1 2 3 4 5 6 
#
# 1 110.6432 0.5274 17.1482 0.0000 0.0000 0.0000
# 2 0.5274 75.4446 6.9859 0.0000 0.0000 0.0000
# 3 17.1482 6.9859 113.7401 0.0000 0.0000 0.0000
# 4 0.0000 0.0000 0.0000 19.3181 0.0000 0.0000
# 5 0.0000 0.0000 0.0000 0.0000 3.4679 0.0000
# 6 0.0000 0.0000 0.0000 0.0000 0.0000 5.0853
#
#
#
# Elastic Compliance Matrix: (Units=1/GPa)
#
#
# Indices 1 2 3 4 5 6 
#
# 1 0.009255 0.000065 -0.001399 0.000000 0.000000 0.000000
# 2 0.000065 0.013331 -0.000829 0.000000 0.000000 0.000000
# 3 -0.001399 -0.000829 0.009054 0.000000 0.000000 0.000000
# 4 0.000000 0.000000 0.000000 0.051765 0.000000 0.000000
# 5 0.000000 0.000000 0.000000 0.000000 0.288358 0.000000
# 6 0.000000 0.000000 0.000000 0.000000 0.000000 0.196645
#
#
# Mechanical properties :
#
#
# Convention : Reuss Voigt Hill
#
# Bulk Modulus (GPa) = 36.61188 38.79454 37.70321
# Shear Modulus (GPa) = 8.59346 23.91870 16.25608
#
# Velocity S-wave (km/s) = 1.96431 3.27714 2.70168
# Velocity P-wave (km/s) = 4.64582 5.63370 5.16344
#
# Compressibility (1/GPa) = 0.02731354
#
# Stress axis : x y z
#
# Youngs Moduli (GPa) = 108.05414 75.01297 110.45057
#
# Poissons Ratio (x) = -0.00487 0.15455
# Poissons Ratio (y) = -0.00701 0.09152
# Poissons Ratio (z) = 0.15120 0.06215
#
# Static dielectric constant tensor:
#      x y z
#    x 1.837270 0.000000 0.000000 
#    y 0.000000 1.866580 0.000000 
#    z 0.000000 0.000000 1.836680 
# 
# From -- ./inp_files/10566.got.cif
#   From: 2010.05.17/outbox.cif.g08.bks.cpg/sg36_6_cif.got.tgz:10566.got - 2010.06.03 17:41:39.
