data_PCOD9351557
_publ_section_title
;
Structure prediction by ZEFSAII (Michael W. Deem and Ramdas Pophale) SiO2 
 PCOD9351557
Probable space group: C M C 21
;
_chemical_formula_sum "Si O2"
_cell_formula_units_Z 48
_cell_length_a 17.033586
_cell_length_b 16.153553
_cell_length_c 9.757562
_cell_angle_alpha 90.000000
_cell_angle_beta 90.000000
_cell_angle_gamma 90.000000
_cell_volume 2684.821815
_symmetry_space_group_name_H-M "C M C 21"
_symmetry_group_IT_number 36
_symmetry_cell_setting 'orthorhombic'
loop_
_space_group_symop_operation_xyz
x,y,z
-x,-y,1/2+z
x,-y,1/2+z
-x,y,z
1/2+x,1/2+y,z
1/2-x,1/2-y,1/2+z
1/2+x,1/2-y,1/2+z
1/2-x,1/2+y,z
loop_
_atom_site_type_symbol
_atom_site_label
_atom_site_fract_x
_atom_site_fract_y
_atom_site_fract_z
Si Si1 0.092907 0.532247 0.580000
Si Si2 0.172587 0.004627 0.241889
Si Si3 0.275374 0.849112 0.172819
Si Si4 0.092990 0.089981 0.987366
Si Si5 0.838738 0.415560 0.793647
Si Si6 0.301053 0.744962 0.909766
O O1 0.140788 0.605837 0.655894
O O2 0.121050 0.538544 0.422812
O O3 0.121491 0.448905 0.655563
O O4 0.000000 0.541372 0.589223
O O5 0.122580 0.054404 0.131769
O O6 0.247417 0.058430 0.289437
O O7 0.211865 0.923175 0.172707
O O8 0.122206 0.973014 0.369538
O O9 0.262142 0.799909 0.313089
O O10 0.265849 0.788849 0.043703
O O11 0.000000 0.099393 0.984336
O O12 0.136910 0.176199 0.957028
O O13 0.842037 0.318151 0.822695
#
# Coordination Sequence:
#
# PCOD9351557 Si02
#       6
#     8   8   8   8   8   8
#     4  10  20  34  54  79 107 138 173 216 262 309
#     4  10  20  38  58  76 102 142 184 212 250 314
#     4   9  20  35  55  77 103 139 177 216 257 310
#     4  11  22  35  55  81 108 137 172 220 268 307
#     4  10  20  36  56  78 104 140 180 214 254 312
#     4  10  20  34  54  79 106 136 174 218 263 308
#
# _framework density 17.878281999999999
#
# number of rings (size 3 to 8) (size 9 to 14) (size 15 to 20)
#    0.000    2.000    0.000    5.000    0.000    6.000 
#    0.000    0.000    0.000    5.000    0.000    0.000 
#    0.000    0.000    0.000    0.000    0.000    0.000 
#
# Total GULP energy -133970.731787 kJ/mol
# GULP energy per Si atom -5582.113824 kJ/mol
# Density = 1.783759 g / cm^3
# Si number density = 17.878282 Si / 1000 Ang^3
#
#
#
# Elastic Constant Matrix: (Units=GPa)
#
#
# Indices 1 2 3 4 5 6 
#
# 1 52.0871 -9.1222 11.3131 0.0000 0.0000 0.0000
# 2 -9.1222 68.1619 19.1135 0.0000 0.0000 0.0000
# 3 11.3131 19.1135 38.8429 0.0000 0.0000 0.0000
# 4 0.0000 0.0000 0.0000 40.7299 0.0000 0.0000
# 5 0.0000 0.0000 0.0000 0.0000 26.2181 0.0000
# 6 0.0000 0.0000 0.0000 0.0000 0.0000 4.6184
#
#
#
# Elastic Compliance Matrix: (Units=1/GPa)
#
#
# Indices 1 2 3 4 5 6 
#
# 1 0.022163 0.005541 -0.009182 0.000000 0.000000 0.000000
# 2 0.005541 0.018405 -0.010670 0.000000 0.000000 0.000000
# 3 -0.009182 -0.010670 0.033669 0.000000 0.000000 0.000000
# 4 0.000000 0.000000 0.000000 0.024552 0.000000 0.000000
# 5 0.000000 0.000000 0.000000 0.000000 0.038142 0.000000
# 6 0.000000 0.000000 0.000000 0.000000 0.000000 0.216525
#
#
# Mechanical properties :
#
#
# Convention : Reuss Voigt Hill
#
# Bulk Modulus (GPa) = 21.92249 22.41119 22.16684
# Shear Modulus (GPa) = 12.58549 23.49909 18.04229
#
# Velocity S-wave (km/s) = 2.65609 3.62939 3.18020
# Velocity P-wave (km/s) = 4.65780 5.48871 5.09024
#
# Compressibility (1/GPa) = 0.04561526
#
# Stress axis : x y z
#
# Youngs Moduli (GPa) = 45.11979 54.33441 29.70060
#
# Poissons Ratio (x) = -0.30106 0.27270
# Poissons Ratio (y) = -0.25000 0.31691
# Poissons Ratio (z) = 0.41427 0.57976
#
# Static dielectric constant tensor:
#      x y z
#    x 1.574730 0.000000 0.000000 
#    y 0.000000 1.625680 0.000000 
#    z 0.000000 0.000000 1.616880 
# 
# From -- ./inp_files/4012.got.cif
#   From: 2010.05.17/outbox.cif.g08.bks.cpg/sg36_3_cif.got.tgz:4012.got - 2010.06.03 17:41:39.
