data_PCOD9351146
_publ_section_title
;
Structure prediction by ZEFSAII (Michael W. Deem and Ramdas Pophale) SiO2 
 PCOD9351146
Probable space group: C M C 21
;
_chemical_formula_sum "Si O2"
_cell_formula_units_Z 64
_cell_length_a 7.470219
_cell_length_b 32.628913
_cell_length_c 11.490384
_cell_angle_alpha 90.000000
_cell_angle_beta 90.000000
_cell_angle_gamma 90.000000
_cell_volume 2800.725094
_symmetry_space_group_name_H-M "C M C 21"
_symmetry_group_IT_number 36
_symmetry_cell_setting 'orthorhombic'
loop_
_space_group_symop_operation_xyz
x,y,z
-x,-y,1/2+z
x,-y,1/2+z
-x,y,z
1/2+x,1/2+y,z
1/2-x,1/2-y,1/2+z
1/2+x,1/2-y,1/2+z
1/2-x,1/2+y,z
loop_
_atom_site_type_symbol
_atom_site_label
_atom_site_fract_x
_atom_site_fract_y
_atom_site_fract_z
Si Si1 0.298258 0.387124 0.970680
Si Si2 0.713013 0.673643 0.298929
Si Si3 0.709676 0.103112 0.862654
Si Si4 0.797627 0.987225 0.304990
Si Si5 0.280355 0.525653 0.549000
Si Si6 0.784795 0.669971 0.029117
Si Si7 0.219381 0.262964 0.344234
Si Si8 0.709002 0.172741 0.664615
O O1 0.500000 0.400192 0.941470
O O2 0.211236 0.367728 0.856232
O O3 0.221697 0.426733 0.035431
O O4 0.301757 0.348017 0.055903
O O5 0.500000 0.672870 0.321114
O O6 0.738832 0.675014 0.161996
O O7 0.782392 0.716490 0.350340
O O8 0.500000 0.092759 0.876762
O O9 0.802568 0.061699 0.824690
O O10 0.722574 0.138328 0.765193
O O11 0.779096 0.126613 0.976696
O O12 0.718045 0.992261 0.174291
O O13 0.000000 0.003846 0.299448
O O14 0.722003 0.005034 0.426724
O O15 0.500000 0.523221 0.555818
O O16 0.000000 0.669198 0.016307
O O17 0.721902 0.707972 0.949908
O O18 0.274835 0.285499 0.224014
O O19 0.000000 0.263044 0.343133
O O20 0.500000 0.177705 0.635325
#
# Coordination Sequence:
#
# PCOD9351146 Si02
#       8
#     8   8   8   8   8   8   8   8
#     4  10  20  34  52  78 109 138 173 220 268 313
#     4  10  21  34  51  77 109 139 175 224 268 308
#     4   9  18  34  55  78 102 133 173 218 265 310
#     4  10  19  34  56  79 105 141 182 223 270 329
#     4   9  19  34  53  79 109 139 177 223 273 328
#     4   9  19  36  54  73 105 142 175 214 267 326
#     4   8  17  34  52  73 103 140 174 215 267 312
#     4   9  17  32  55  75  98 134 175 213 256 314
#
# _framework density 22.851224999999999
#
# number of rings (size 3 to 8) (size 9 to 14) (size 15 to 20)
#    0.000    2.750    1.250    1.500    1.750    2.000 
#    0.000    6.250    0.000    0.000    0.000    0.000 
#    0.000    0.000    0.000    0.000    0.000    0.000 
#
# Total GULP energy -178456.065177 kJ/mol
# GULP energy per Si atom -5576.752037 kJ/mol
# Density = 2.279921 g / cm^3
# Si number density = 22.851225 Si / 1000 Ang^3
#
#
#
# Elastic Constant Matrix: (Units=GPa)
#
#
# Indices 1 2 3 4 5 6 
#
# 1 62.9109 5.2512 4.1924 0.0000 0.0000 0.0000
# 2 5.2512 55.7822 44.7984 0.0000 0.0000 0.0000
# 3 4.1924 44.7984 157.6075 0.0000 0.0000 0.0000
# 4 0.0000 0.0000 0.0000 30.4879 0.0000 0.0000
# 5 0.0000 0.0000 0.0000 0.0000 15.4999 0.0000
# 6 0.0000 0.0000 0.0000 0.0000 0.0000 8.3951
#
#
#
# Elastic Compliance Matrix: (Units=1/GPa)
#
#
# Indices 1 2 3 4 5 6 
#
# 1 0.016021 -0.001511 0.000003 0.000000 0.000000 0.000000
# 2 -0.001511 0.023372 -0.006603 0.000000 0.000000 0.000000
# 3 0.000003 -0.006603 0.008222 0.000000 0.000000 0.000000
# 4 0.000000 0.000000 0.000000 0.032800 0.000000 0.000000
# 5 0.000000 0.000000 0.000000 0.000000 0.064517 0.000000
# 6 0.000000 0.000000 0.000000 0.000000 0.000000 0.119118
#
#
# Mechanical properties :
#
#
# Convention : Reuss Voigt Hill
#
# Bulk Modulus (GPa) = 31.85350 42.75386 37.30368
# Shear Modulus (GPa) = 17.19778 25.68046 21.43912
#
# Velocity S-wave (km/s) = 2.74633 3.35597 3.06634
# Velocity P-wave (km/s) = 4.90165 5.81093 5.37555
#
# Compressibility (1/GPa) = 0.03139372
#
# Stress axis : x y z
#
# Youngs Moduli (GPa) = 62.41656 42.78629 121.63013
#
# Poissons Ratio (x) = 0.06464 -0.00040
# Poissons Ratio (y) = 0.09430 0.80313
# Poissons Ratio (z) = -0.00020 0.28252
#
# Static dielectric constant tensor:
#      x y z
#    x 1.866460 0.000000 0.000000 
#    y 0.000000 1.834530 0.000000 
#    z 0.000000 0.000000 1.891330 
# 
# From -- ./inp_files/3591.got.cif
#   From: 2010.05.17/outbox.cif.g08.bks.cpg/sg36_2_cif.got.tgz:3591.got - 2010.06.03 17:41:39.
