data_PCOD9351434
_publ_section_title
;
Structure prediction by ZEFSAII (Michael W. Deem and Ramdas Pophale) SiO2 
 PCOD9351434
Probable space group: C M C 21
;
_chemical_formula_sum "Si O2"
_cell_formula_units_Z 64
_cell_length_a 16.331494
_cell_length_b 25.603984
_cell_length_c 8.146615
_cell_angle_alpha 90.000000
_cell_angle_beta 90.000000
_cell_angle_gamma 90.000000
_cell_volume 3406.517743
_symmetry_space_group_name_H-M "C M C 21"
_symmetry_group_IT_number 36
_symmetry_cell_setting 'orthorhombic'
loop_
_space_group_symop_operation_xyz
x,y,z
-x,-y,1/2+z
x,-y,1/2+z
-x,y,z
1/2+x,1/2+y,z
1/2-x,1/2-y,1/2+z
1/2+x,1/2-y,1/2+z
1/2-x,1/2+y,z
loop_
_atom_site_type_symbol
_atom_site_label
_atom_site_fract_x
_atom_site_fract_y
_atom_site_fract_z
Si Si1 0.747289 0.644129 0.026070
Si Si2 0.249278 0.642292 0.383574
Si Si3 0.217095 0.599603 0.706567
Si Si4 0.908212 0.302679 0.201498
Si Si5 0.591669 0.080590 0.285830
Si Si6 0.168932 0.250399 0.895660
Si Si7 0.904071 0.712278 0.063081
Si Si8 0.405868 0.012193 0.597848
O O1 0.711723 0.630900 0.205788
O O2 0.841683 0.662939 0.060241
O O3 0.742708 0.600940 0.885449
O O4 0.705073 0.695209 0.947688
O O5 0.275543 0.613523 0.550731
O O6 0.156734 0.619862 0.359517
O O7 0.239089 0.704566 0.399162
O O8 0.155783 0.649847 0.706633
O O9 0.163443 0.548273 0.678443
O O10 0.900415 0.270496 0.371989
O O11 0.000000 0.324516 0.196448
O O12 0.891623 0.268730 0.040317
O O13 0.500000 0.102114 0.285198
O O14 0.594041 0.031672 0.411198
O O15 0.610092 0.049509 0.118794
O O16 0.129609 0.252883 0.713776
O O17 0.000000 0.700991 0.093466
O O18 0.500000 0.022250 0.654459
#
# Coordination Sequence:
#
# PCOD9351434 Si02
#       8
#     8   8   8   8   8   8   8   8
#     4  10  21  30  47  68  86 120 162 200 244 293
#     4   9  20  30  43  62  86 113 153 198 238 280
#     4   9  18  30  44  63  89 117 156 204 243 274
#     4   9  17  29  45  64  89 119 156 198 237 278
#     4   9  18  31  45  65  89 120 159 204 247 280
#     4  10  20  30  47  65  90 120 156 202 244 290
#     4   9  19  31  44  64  88 113 152 194 235 279
#     4   9  17  29  45  63  87 120 158 200 247 284
#
# _framework density 18.787514999999999
#
# number of rings (size 3 to 8) (size 9 to 14) (size 15 to 20)
#    0.000    2.750    0.000    0.750   12.250    5.500 
#    0.000    0.000    0.000    0.000    0.000    0.000 
#    0.000    0.000    0.000    0.000    0.000   12.500 
#
# Total GULP energy -178173.462568 kJ/mol
# GULP energy per Si atom -5567.920705 kJ/mol
# Density = 1.874475 g / cm^3
# Si number density = 18.787515 Si / 1000 Ang^3
#
#
#
# Elastic Constant Matrix: (Units=GPa)
#
#
# Indices 1 2 3 4 5 6 
#
# 1 20.2896 10.8455 4.2910 0.0000 0.0000 0.0000
# 2 10.8455 42.1791 13.8221 0.0000 0.0000 0.0000
# 3 4.2910 13.8221 140.7141 0.0000 0.0000 0.0000
# 4 0.0000 0.0000 0.0000 24.6138 0.0000 0.0000
# 5 0.0000 0.0000 0.0000 0.0000 17.5565 0.0000
# 6 0.0000 0.0000 0.0000 0.0000 0.0000 13.9773
#
#
#
# Elastic Compliance Matrix: (Units=1/GPa)
#
#
# Indices 1 2 3 4 5 6 
#
# 1 0.057153 -0.014594 -0.000309 0.000000 0.000000 0.000000
# 2 -0.014594 0.028224 -0.002327 0.000000 0.000000 0.000000
# 3 -0.000309 -0.002327 0.007345 0.000000 0.000000 0.000000
# 4 0.000000 0.000000 0.000000 0.040628 0.000000 0.000000
# 5 0.000000 0.000000 0.000000 0.000000 0.056959 0.000000
# 6 0.000000 0.000000 0.000000 0.000000 0.000000 0.071544
#
#
# Mechanical properties :
#
#
# Convention : Reuss Voigt Hill
#
# Bulk Modulus (GPa) = 17.16459 29.01110 23.08784
# Shear Modulus (GPa) = 15.83610 22.84449 19.34030
#
# Velocity S-wave (km/s) = 2.90643 3.49082 3.21194
# Velocity P-wave (km/s) = 4.51875 5.63231 5.10598
#
# Compressibility (1/GPa) = 0.05825947
#
# Stress axis : x y z
#
# Youngs Moduli (GPa) = 17.49686 35.43113 136.15364
#
# Poissons Ratio (x) = 0.51710 0.04211
# Poissons Ratio (y) = 0.25536 0.31687
# Poissons Ratio (z) = 0.00541 0.08246
#
# Static dielectric constant tensor:
#      x y z
#    x 1.650920 0.000000 0.000000 
#    y 0.000000 1.664960 0.000000 
#    z 0.000000 0.000000 1.833610 
# 
# From -- ./inp_files/4998.got.cif
#   From: 2010.05.17/outbox.cif.g08.bks.cpg/sg36_3_cif.got.tgz:4998.got - 2010.06.03 17:41:39.
