data_PCOD9351705
_publ_section_title
;
Structure prediction by ZEFSAII (Michael W. Deem and Ramdas Pophale) SiO2 
 PCOD9351705
Probable space group: C M C 21
;
_chemical_formula_sum "Si O2"
_cell_formula_units_Z 64
_cell_length_a 7.833797
_cell_length_b 15.927406
_cell_length_c 24.160003
_cell_angle_alpha 90.000000
_cell_angle_beta 90.000000
_cell_angle_gamma 90.000000
_cell_volume 3014.493473
_symmetry_space_group_name_H-M "C M C 21"
_symmetry_group_IT_number 36
_symmetry_cell_setting 'orthorhombic'
loop_
_space_group_symop_operation_xyz
x,y,z
-x,-y,1/2+z
x,-y,1/2+z
-x,y,z
1/2+x,1/2+y,z
1/2-x,1/2-y,1/2+z
1/2+x,1/2-y,1/2+z
1/2-x,1/2+y,z
loop_
_atom_site_type_symbol
_atom_site_label
_atom_site_fract_x
_atom_site_fract_y
_atom_site_fract_z
Si Si1 0.802448 0.156620 0.782710
Si Si2 0.302089 0.095740 0.899793
Si Si3 0.699228 0.666883 0.537355
Si Si4 0.699055 0.651044 0.015894
Si Si5 0.793357 0.007819 0.221896
Si Si6 0.292722 0.096983 0.418572
Si Si7 0.709182 0.501752 0.095684
Si Si8 0.205064 0.337531 0.800268
O O1 0.795726 0.132823 0.847562
O O2 0.727407 0.079085 0.748526
O O3 0.725006 0.249243 0.777861
O O4 0.000000 0.162655 0.764988
O O5 0.500000 0.090946 0.883127
O O6 0.285381 0.148698 0.955807
O O7 0.244169 0.001030 0.913794
O O8 0.500000 0.677030 0.550096
O O9 0.782024 0.757975 0.543376
O O10 0.720968 0.637595 0.473909
O O11 0.766390 0.589312 0.573851
O O12 0.500000 0.634834 0.005562
O O13 0.766040 0.576015 0.054656
O O14 0.000000 0.005176 0.222112
O O15 0.736975 0.017004 0.158602
O O16 0.742354 0.085129 0.260376
O O17 0.500000 0.101220 0.421901
O O18 0.234302 0.142308 0.362415
O O19 0.500000 0.501859 0.094393
O O20 0.000000 0.329484 0.804579
#
# Coordination Sequence:
#
# PCOD9351705 Si02
#       8
#     8   8   8   8   8   8   8   8
#     4  10  21  36  59  86 116 153 190 230 289 348
#     4  11  21  35  59  89 118 149 191 238 283 341
#     4  11  22  38  61  89 117 150 192 237 285 346
#     4  11  22  39  60  84 116 154 191 236 291 343
#     4  10  21  39  60  83 111 151 198 239 280 337
#     4  10  20  35  57  85 121 154 186 233 287 344
#     4   9  21  40  59  80 114 154 193 237 287 340
#     4  10  21  38  57  84 117 151 185 232 290 341
#
# _framework density 21.230765000000002
#
# number of rings (size 3 to 8) (size 9 to 14) (size 15 to 20)
#    0.000    1.750    2.500    1.875    0.000    3.500 
#    0.000    3.750    0.000    0.000    0.000    0.000 
#    0.000    0.000    0.000    0.000    0.000    0.000 
#
# Total GULP energy -178837.321124 kJ/mol
# GULP energy per Si atom -5588.666285 kJ/mol
# Density = 2.118244 g / cm^3
# Si number density = 21.230765 Si / 1000 Ang^3
#
#
#
# Elastic Constant Matrix: (Units=GPa)
#
#
# Indices 1 2 3 4 5 6 
#
# 1 25.6817 -7.2708 -14.6783 0.0000 0.0000 0.0000
# 2 -7.2708 99.7031 -1.6555 0.0000 0.0000 0.0000
# 3 -14.6783 -1.6555 70.3805 0.0000 0.0000 0.0000
# 4 0.0000 0.0000 0.0000 5.6741 0.0000 0.0000
# 5 0.0000 0.0000 0.0000 0.0000 -11.0012 0.0000
# 6 0.0000 0.0000 0.0000 0.0000 0.0000 17.7330
#
#
#
# Elastic Compliance Matrix: (Units=1/GPa)
#
#
# Indices 1 2 3 4 5 6 
#
# 1 0.045375 0.003467 0.009545 0.000000 0.000000 0.000000
# 2 0.003467 0.010299 0.000965 0.000000 0.000000 0.000000
# 3 0.009545 0.000965 0.016222 0.000000 0.000000 0.000000
# 4 0.000000 0.000000 0.000000 0.176240 0.000000 0.000000
# 5 0.000000 0.000000 0.000000 0.000000 -0.090899 0.000000
# 6 0.000000 0.000000 0.000000 0.000000 0.000000 0.056392
#
#
# Mechanical properties :
#
#
# Convention : Reuss Voigt Hill
#
# Bulk Modulus (GPa) = 10.01487 16.50622 13.26054
# Shear Modulus (GPa) = 22.83549 17.10583 19.97066
#
# Velocity S-wave (km/s) = 3.28317 2.84158 3.07032
# Velocity P-wave (km/s) = 4.37032 4.30786 4.33920
#
# Compressibility (1/GPa) = 0.09985151
#
# Stress axis : x y z
#
# Youngs Moduli (GPa) = 22.03838 97.09990 61.64527
#
# Poissons Ratio (x) = -0.33669 -0.58840
# Poissons Ratio (y) = -0.07642 -0.05951
# Poissons Ratio (z) = -0.21035 -0.09374
#
# Static dielectric constant tensor:
#      x y z
#    x 1.780860 0.000000 0.000000 
#    y 0.000000 1.775540 0.000000 
#    z 0.000000 0.000000 1.721810 
# 
# From -- ./inp_files/16535.got.cif
#   From: 2010.05.17/outbox.cif.g08.bks.cpg/sg36_9_cif.got.tgz:16535.got - 2010.06.03 17:41:39.
