data_PCOD9351822
_publ_section_title
;
Structure prediction by ZEFSAII (Michael W. Deem and Ramdas Pophale) SiO2 
 PCOD9351822
Probable space group: C M C 21
;
_chemical_formula_sum "Si O2"
_cell_formula_units_Z 64
_cell_length_a 7.882500
_cell_length_b 16.402105
_cell_length_c 19.544641
_cell_angle_alpha 90.000000
_cell_angle_beta 90.000000
_cell_angle_gamma 90.000000
_cell_volume 2526.918674
_symmetry_space_group_name_H-M "C M C 21"
_symmetry_group_IT_number 36
_symmetry_cell_setting 'orthorhombic'
loop_
_space_group_symop_operation_xyz
x,y,z
-x,-y,1/2+z
x,-y,1/2+z
-x,y,z
1/2+x,1/2+y,z
1/2-x,1/2-y,1/2+z
1/2+x,1/2-y,1/2+z
1/2-x,1/2+y,z
loop_
_atom_site_type_symbol
_atom_site_label
_atom_site_fract_x
_atom_site_fract_y
_atom_site_fract_z
Si Si1 0.207303 0.151839 0.876700
Si Si2 0.204598 0.590468 0.680831
Si Si3 0.802353 0.254416 0.754377
Si Si4 0.302815 0.848031 0.630149
Si Si5 0.194900 0.239010 0.008234
Si Si6 0.703899 0.002012 0.545436
Si Si7 0.189349 0.890617 0.928295
Si Si8 0.302951 0.014581 0.302985
O O1 0.266587 0.226331 0.827646
O O2 0.279519 0.069349 0.845646
O O3 0.000000 0.148195 0.874080
O O4 0.258677 0.172232 0.953458
O O5 0.290321 0.670134 0.711402
O O6 0.235628 0.572370 0.601892
O O7 0.258168 0.512962 0.727884
O O8 0.000000 0.599384 0.689523
O O9 0.727436 0.322040 0.703322
O O10 0.000000 0.274545 0.764878
O O11 0.500000 0.869363 0.642417
O O12 0.294000 0.771143 0.578557
O O13 0.231793 0.921705 0.584782
O O14 0.000000 0.223362 0.026168
O O15 0.198925 0.322806 0.965703
O O16 0.500000 0.995584 0.534681
O O17 0.788044 0.028392 0.474894
O O18 0.000000 0.859902 0.935045
O O19 0.224139 0.915651 0.850242
O O20 0.500000 0.034331 0.297410
#
# Coordination Sequence:
#
# PCOD9351822 Si02
#       8
#     8   8   8   8   8   8   8   8
#     4   9  19  36  58  83 111 144 182 223 269 324
#     4   9  19  35  57  84 112 145 183 223 269 324
#     4   9  18  34  56  81 110 144 180 220 268 322
#     4  10  21  36  56  82 111 144 180 222 272 325
#     4  11  23  38  57  80 108 143 183 229 278 327
#     4  10  21  38  59  83 113 147 184 227 275 327
#     4  12  25  39  56  80 111 146 187 232 277 327
#     4  10  20  36  59  85 114 147 183 224 272 326
#
# _framework density 25.327289
#
# number of rings (size 3 to 8) (size 9 to 14) (size 15 to 20)
#    0.000    2.000    0.000    3.375    0.000    8.000 
#    0.000    3.750    0.000    1.500    0.000    0.000 
#    0.000    0.000    0.000    0.000    0.000    0.000 
#
# Total GULP energy -178977.468685 kJ/mol
# GULP energy per Si atom -5593.045896 kJ/mol
# Density = 2.526964 g / cm^3
# Si number density = 25.327289 Si / 1000 Ang^3
#
#
#
# Elastic Constant Matrix: (Units=GPa)
#
#
# Indices 1 2 3 4 5 6 
#
# 1 48.6121 -2.0884 8.1645 0.0000 0.0000 0.0000
# 2 -2.0884 83.4521 -2.5295 0.0000 0.0000 0.0000
# 3 8.1645 -2.5295 125.7625 0.0000 0.0000 0.0000
# 4 0.0000 0.0000 0.0000 47.0345 0.0000 0.0000
# 5 0.0000 0.0000 0.0000 0.0000 15.7663 0.0000
# 6 0.0000 0.0000 0.0000 0.0000 0.0000 21.3221
#
#
#
# Elastic Compliance Matrix: (Units=1/GPa)
#
#
# Indices 1 2 3 4 5 6 
#
# 1 0.020817 0.000480 -0.001342 0.000000 0.000000 0.000000
# 2 0.000480 0.012001 0.000210 0.000000 0.000000 0.000000
# 3 -0.001342 0.000210 0.008043 0.000000 0.000000 0.000000
# 4 0.000000 0.000000 0.000000 0.021261 0.000000 0.000000
# 5 0.000000 0.000000 0.000000 0.000000 0.063427 0.000000
# 6 0.000000 0.000000 0.000000 0.000000 0.000000 0.046900
#
#
# Mechanical properties :
#
#
# Convention : Reuss Voigt Hill
#
# Bulk Modulus (GPa) = 25.27897 29.43554 27.35726
# Shear Modulus (GPa) = 26.74696 33.77658 30.26177
#
# Velocity S-wave (km/s) = 3.25322 3.65582 3.46038
# Velocity P-wave (km/s) = 4.91059 5.42838 5.17596
#
# Compressibility (1/GPa) = 0.03955857
#
# Stress axis : x y z
#
# Youngs Moduli (GPa) = 48.03764 83.32422 124.33430
#
# Poissons Ratio (x) = -0.04002 0.16683
# Poissons Ratio (y) = -0.02307 -0.02614
# Poissons Ratio (z) = 0.06446 -0.01751
#
# Static dielectric constant tensor:
#      x y z
#    x 1.909280 0.000000 0.000000 
#    y 0.000000 2.101040 0.000000 
#    z 0.000000 0.000000 1.968360 
# 
# From -- ./inp_files/15672.got.cif
#   From: 2010.05.17/outbox.cif.g08.bks.cpg/sg36_8_cif.got.tgz:15672.got - 2010.06.03 17:41:39.
