data_PCOD9351704
_publ_section_title
;
Structure prediction by ZEFSAII (Michael W. Deem and Ramdas Pophale) SiO2 
 PCOD9351704
Probable space group: C M C 21
;
_chemical_formula_sum "Si O2"
_cell_formula_units_Z 64
_cell_length_a 8.836732
_cell_length_b 20.455829
_cell_length_c 20.013317
_cell_angle_alpha 90.000000
_cell_angle_beta 90.000000
_cell_angle_gamma 90.000000
_cell_volume 3617.660791
_symmetry_space_group_name_H-M "C M C 21"
_symmetry_group_IT_number 36
_symmetry_cell_setting 'orthorhombic'
loop_
_space_group_symop_operation_xyz
x,y,z
-x,-y,1/2+z
x,-y,1/2+z
-x,y,z
1/2+x,1/2+y,z
1/2-x,1/2-y,1/2+z
1/2+x,1/2-y,1/2+z
1/2-x,1/2+y,z
loop_
_atom_site_type_symbol
_atom_site_label
_atom_site_fract_x
_atom_site_fract_y
_atom_site_fract_z
Si Si1 0.821627 0.812875 0.308090
Si Si2 0.819806 0.207769 0.125553
Si Si3 0.680436 0.531606 0.290966
Si Si4 0.318969 0.016958 0.650856
Si Si5 0.679466 0.655675 0.651124
Si Si6 0.179459 0.573007 0.889557
Si Si7 0.818987 0.404729 0.543101
Si Si8 0.318483 0.168947 0.268425
O O1 0.798862 0.835727 0.231311
O O2 0.724738 0.858182 0.356037
O O3 0.785499 0.735801 0.308372
O O4 0.000000 0.821243 0.323168
O O5 0.754866 0.280798 0.118335
O O6 0.767307 0.159812 0.066960
O O7 0.748458 0.179169 0.194165
O O8 0.000000 0.209319 0.131562
O O9 0.500000 0.533619 0.287579
O O10 0.744841 0.504343 0.220813
O O11 0.734249 0.483147 0.349034
O O12 0.747810 0.604083 0.299281
O O13 0.500000 0.020154 0.659280
O O14 0.255022 0.087667 0.631213
O O15 0.283961 0.962798 0.594994
O O16 0.500000 0.655234 0.638727
O O17 0.000000 0.562378 0.882601
O O18 0.218284 0.575144 0.967704
O O19 0.000000 0.392590 0.546702
O O20 0.500000 0.162668 0.262766
#
# Coordination Sequence:
#
# PCOD9351704 Si02
#       8
#     8   8   8   8   8   8   8   8
#     4   9  19  35  56  83 115 148 186 238 290 342
#     4  11  21  34  57  87 116 149 192 237 288 349
#     4  12  23  36  57  88 120 151 195 245 294 351
#     4  11  21  36  60  86 116 153 196 244 293 348
#     4  10  20  35  57  85 119 149 186 239 291 340
#     4  11  23  39  60  84 116 159 199 240 295 357
#     4  10  23  41  59  83 118 158 198 241 296 356
#     4  10  20  36  58  84 116 149 188 240 293 341
#
# _framework density 17.690988999999998
#
# number of rings (size 3 to 8) (size 9 to 14) (size 15 to 20)
#    0.000    1.500    2.500    4.500    0.000    4.000 
#    0.000    1.250    0.000    1.500    0.000    0.000 
#    0.000    0.000    0.000    0.000    0.000    0.000 
#
# Total GULP energy -178803.458411 kJ/mol
# GULP energy per Si atom -5587.608075 kJ/mol
# Density = 1.765072 g / cm^3
# Si number density = 17.690989 Si / 1000 Ang^3
#
#
#
# Elastic Constant Matrix: (Units=GPa)
#
#
# Indices 1 2 3 4 5 6 
#
# 1 89.6807 57.4810 36.8951 0.0000 0.0000 0.0000
# 2 57.4810 125.6395 26.2343 0.0000 0.0000 0.0000
# 3 36.8951 26.2343 43.4168 0.0000 0.0000 0.0000
# 4 0.0000 0.0000 0.0000 19.6586 0.0000 0.0000
# 5 0.0000 0.0000 0.0000 0.0000 18.7757 0.0000
# 6 0.0000 0.0000 0.0000 0.0000 0.0000 36.7782
#
#
#
# Elastic Compliance Matrix: (Units=1/GPa)
#
#
# Indices 1 2 3 4 5 6 
#
# 1 0.021254 -0.006812 -0.013945 0.000000 0.000000 0.000000
# 2 -0.006812 0.011292 -0.001034 0.000000 0.000000 0.000000
# 3 -0.013945 -0.001034 0.035508 0.000000 0.000000 0.000000
# 4 0.000000 0.000000 0.000000 0.050868 0.000000 0.000000
# 5 0.000000 0.000000 0.000000 0.000000 0.053260 0.000000
# 6 0.000000 0.000000 0.000000 0.000000 0.000000 0.027190
#
#
# Mechanical properties :
#
#
# Convention : Reuss Voigt Hill
#
# Bulk Modulus (GPa) = 40.86504 55.55084 48.20794
# Shear Modulus (GPa) = 19.91142 24.25097 22.08119
#
# Velocity S-wave (km/s) = 3.35850 3.70646 3.53676
# Velocity P-wave (km/s) = 6.17972 7.05592 6.63230
#
# Compressibility (1/GPa) = 0.02447079
#
# Stress axis : x y z
#
# Youngs Moduli (GPa) = 47.04999 88.56009 28.16262
#
# Poissons Ratio (x) = 0.60327 0.39274
# Poissons Ratio (y) = 0.32050 0.02913
# Poissons Ratio (z) = 0.65613 0.09159
#
# Static dielectric constant tensor:
#      x y z
#    x 1.589170 0.000000 0.000000 
#    y 0.000000 1.605520 0.000000 
#    z 0.000000 0.000000 1.576720 
# 
# From -- ./inp_files/13758.got.cif
#   From: 2010.05.17/outbox.cif.g08.bks.cpg/sg36_7_cif.got.tgz:13758.got - 2010.06.03 17:41:39.
