data_PCOD9351108
_publ_section_title
;
Structure prediction by ZEFSAII (Michael W. Deem and Ramdas Pophale) SiO2 
 PCOD9351108
Probable space group: C M C 21
;
_chemical_formula_sum "Si O2"
_cell_formula_units_Z 56
_cell_length_a 22.576738
_cell_length_b 7.902873
_cell_length_c 15.984277
_cell_angle_alpha 90.000000
_cell_angle_beta 90.000000
_cell_angle_gamma 90.000000
_cell_volume 2851.932176
_symmetry_space_group_name_H-M "C M C 21"
_symmetry_group_IT_number 36
_symmetry_cell_setting 'orthorhombic'
loop_
_space_group_symop_operation_xyz
x,y,z
-x,-y,1/2+z
x,-y,1/2+z
-x,y,z
1/2+x,1/2+y,z
1/2-x,1/2-y,1/2+z
1/2+x,1/2-y,1/2+z
1/2-x,1/2+y,z
loop_
_atom_site_type_symbol
_atom_site_label
_atom_site_fract_x
_atom_site_fract_y
_atom_site_fract_z
Si Si1 0.242929 0.382510 0.538880
Si Si2 0.188910 0.516205 0.272183
Si Si3 0.933726 0.986165 0.673437
Si Si4 0.624152 0.182410 0.117680
Si Si5 0.179230 0.326425 0.949565
Si Si6 0.066877 0.664391 0.549977
Si Si7 0.812869 0.132299 0.213710
O O1 0.182890 0.279929 0.562160
O O2 0.213109 0.564059 0.521353
O O3 0.277526 0.333806 0.454113
O O4 0.288747 0.379443 0.617074
O O5 0.152411 0.633294 0.207500
O O6 0.173705 0.567032 0.365986
O O7 0.178869 0.324799 0.242743
O O8 0.258459 0.551740 0.262455
O O9 0.932666 0.815115 0.617864
O O10 0.874686 0.962453 0.728349
O O11 0.000000 0.999553 0.710207
O O12 0.918743 0.156978 0.622568
O O13 0.589766 0.015242 0.086140
O O14 0.114032 0.284042 0.980321
O O15 0.000000 0.645506 0.519309
#
# Coordination Sequence:
#
# PCOD9351108 Si02
#       7
#     8   8   8   8   8   8   8
#     4  10  19  33  58  82 114 153 199 250 292 360
#     4  11  22  35  60  87 125 156 190 261 318 355
#     4  11  21  35  62  87 112 153 203 249 288 348
#     4  10  20  38  60  89 113 154 205 253 298 346
#     4  11  21  36  56  90 117 157 195 245 321 354
#     4  10  21  39  60  84 118 156 206 250 286 360
#     4  11  19  38  56  89 118 155 202 246 301 359
#
# _framework density 19.635811
#
# number of rings (size 3 to 8) (size 9 to 14) (size 15 to 20)
#    0.000    1.429    2.857    5.571    0.000    0.000 
#    0.000    2.143    0.000    0.000    0.000    0.000 
#    0.000    0.000    0.000    0.000    0.000    0.000 
#
# Total GULP energy -156114.591830 kJ/mol
# GULP energy per Si atom -5575.521137 kJ/mol
# Density = 1.959112 g / cm^3
# Si number density = 19.635811 Si / 1000 Ang^3
#
#
#
# Elastic Constant Matrix: (Units=GPa)
#
#
# Indices 1 2 3 4 5 6 
#
# 1 133.8706 23.6577 2.9922 0.0000 0.0000 0.0000
# 2 23.6577 73.7393 -12.0512 0.0000 0.0000 0.0000
# 3 2.9922 -12.0512 25.2389 0.0000 0.0000 0.0000
# 4 0.0000 0.0000 0.0000 16.1659 0.0000 0.0000
# 5 0.0000 0.0000 0.0000 0.0000 15.2475 0.0000
# 6 0.0000 0.0000 0.0000 0.0000 0.0000 6.4074
#
#
#
# Elastic Compliance Matrix: (Units=1/GPa)
#
#
# Indices 1 2 3 4 5 6 
#
# 1 0.008048 -0.002970 -0.002372 0.000000 0.000000 0.000000
# 2 -0.002970 0.015805 0.007899 0.000000 0.000000 0.000000
# 3 -0.002372 0.007899 0.043674 0.000000 0.000000 0.000000
# 4 0.000000 0.000000 0.000000 0.061858 0.000000 0.000000
# 5 0.000000 0.000000 0.000000 0.000000 0.065584 0.000000
# 6 0.000000 0.000000 0.000000 0.000000 0.000000 0.156071
#
#
# Mechanical properties :
#
#
# Convention : Reuss Voigt Hill
#
# Bulk Modulus (GPa) = 13.76640 29.11624 21.44132
# Shear Modulus (GPa) = 13.50842 22.11418 17.81130
#
# Velocity S-wave (km/s) = 2.62572 3.35956 3.01505
# Velocity P-wave (km/s) = 4.02724 5.46893 4.80249
#
# Compressibility (1/GPa) = 0.07264062
#
# Stress axis : x y z
#
# Youngs Moduli (GPa) = 124.25902 63.27159 22.89692
#
# Poissons Ratio (x) = 0.18789 0.05431
# Poissons Ratio (y) = 0.36900 -0.18085
# Poissons Ratio (z) = 0.29474 -0.49976
#
# Static dielectric constant tensor:
#      x y z
#    x 1.715450 0.000000 0.000000 
#    y 0.000000 1.778060 0.000000 
#    z 0.000000 0.000000 1.700900 
# 
# From -- ./inp_files/14987.got.cif
#   From: 2010.05.17/outbox.cif.g08.bks.cpg/sg36_8_cif.got.tgz:14987.got - 2010.06.03 17:41:39.
