data_PCOD9351563
_publ_section_title
;
Structure prediction by ZEFSAII (Michael W. Deem and Ramdas Pophale) SiO2 
 PCOD9351563
Probable space group: C M C 21
;
_chemical_formula_sum "Si O2"
_cell_formula_units_Z 64
_cell_length_a 7.668286
_cell_length_b 19.144702
_cell_length_c 21.029832
_cell_angle_alpha 90.000000
_cell_angle_beta 90.000000
_cell_angle_gamma 90.000000
_cell_volume 3087.327605
_symmetry_space_group_name_H-M "C M C 21"
_symmetry_group_IT_number 36
_symmetry_cell_setting 'orthorhombic'
loop_
_space_group_symop_operation_xyz
x,y,z
-x,-y,1/2+z
x,-y,1/2+z
-x,y,z
1/2+x,1/2+y,z
1/2-x,1/2-y,1/2+z
1/2+x,1/2-y,1/2+z
1/2-x,1/2+y,z
loop_
_atom_site_type_symbol
_atom_site_label
_atom_site_fract_x
_atom_site_fract_y
_atom_site_fract_z
Si Si1 0.713488 0.952172 0.024750
Si Si2 0.203934 0.702171 0.150449
Si Si3 0.714414 0.955736 0.645110
Si Si4 0.207928 0.706174 0.909243
Si Si5 0.297058 0.793663 0.030908
Si Si6 0.786236 0.453700 0.407848
Si Si7 0.791595 0.200592 0.763301
Si Si8 0.794950 0.539650 0.766382
O O1 0.500000 0.950728 0.023593
O O2 0.774222 0.872416 0.029453
O O3 0.768013 0.998188 0.084918
O O4 0.769627 0.991962 0.961036
O O5 0.275373 0.624188 0.142019
O O6 0.215537 0.745516 0.085368
O O7 0.277378 0.746952 0.209365
O O8 0.000000 0.692521 0.165616
O O9 0.500000 0.956273 0.644101
O O10 0.776090 0.993243 0.709439
O O11 0.267840 0.626239 0.921497
O O12 0.250097 0.722592 0.835717
O O13 0.000000 0.707120 0.916174
O O14 0.281001 0.758085 0.961969
O O15 0.500000 0.798355 0.047930
O O16 0.723526 0.472352 0.337099
O O17 0.000000 0.452863 0.407053
O O18 0.722131 0.122195 0.753047
O O19 0.000000 0.196127 0.757570
O O20 0.000000 0.523366 0.769728
#
# Coordination Sequence:
#
# PCOD9351563 Si02
#       8
#     8   8   8   8   8   8   8   8
#     4   9  17  29  48  74 100 127 166 217 261 299
#     4  10  21  36  55  78 106 142 181 220 260 309
#     4   9  17  31  52  75  98 132 181 222 249 294
#     4  10  20  36  58  79 104 141 179 215 259 315
#     4  11  22  34  53  81 109 136 170 218 272 319
#     4   8  15  29  51  75  96 126 170 213 250 295
#     4  10  20  34  54  81 111 140 173 217 267 316
#     4   9  17  31  53  77 100 132 174 216 258 307
#
# _framework density 20.729903
#
# number of rings (size 3 to 8) (size 9 to 14) (size 15 to 20)
#    0.000    2.500    0.000    3.375    0.000    5.000 
#    0.000    4.375    0.000   16.500    0.000    0.000 
#    0.000    0.000    0.000    0.000    0.000    0.000 
#
# Total GULP energy -178663.420421 kJ/mol
# GULP energy per Si atom -5583.231888 kJ/mol
# Density = 2.068272 g / cm^3
# Si number density = 20.729903 Si / 1000 Ang^3
#
#
#
# Elastic Constant Matrix: (Units=GPa)
#
#
# Indices 1 2 3 4 5 6 
#
# 1 30.5284 -11.2960 -7.8915 0.0000 0.0000 0.0000
# 2 -11.2960 177.3096 135.6497 0.0000 0.0000 0.0000
# 3 -7.8915 135.6497 157.2579 0.0000 0.0000 0.0000
# 4 0.0000 0.0000 0.0000 43.6957 0.0000 0.0000
# 5 0.0000 0.0000 0.0000 0.0000 16.6822 0.0000
# 6 0.0000 0.0000 0.0000 0.0000 0.0000 12.6089
#
#
#
# Elastic Compliance Matrix: (Units=1/GPa)
#
#
# Indices 1 2 3 4 5 6 
#
# 1 0.033559 0.002498 -0.000471 0.000000 0.000000 0.000000
# 2 0.002498 0.016770 -0.014340 0.000000 0.000000 0.000000
# 3 -0.000471 -0.014340 0.018705 0.000000 0.000000 0.000000
# 4 0.000000 0.000000 0.000000 0.022886 0.000000 0.000000
# 5 0.000000 0.000000 0.000000 0.000000 0.059944 0.000000
# 6 0.000000 0.000000 0.000000 0.000000 0.000000 0.079309
#
#
# Mechanical properties :
#
#
# Convention : Reuss Voigt Hill
#
# Bulk Modulus (GPa) = 22.51830 66.44669 44.48250
# Shear Modulus (GPa) = 18.47734 31.17295 24.82514
#
# Velocity S-wave (km/s) = 2.98877 3.88205 3.46432
# Velocity P-wave (km/s) = 4.77458 7.22613 6.12427
#
# Compressibility (1/GPa) = 0.04440833
#
# Stress axis : x y z
#
# Youngs Moduli (GPa) = 29.79819 59.63029 53.46100
#
# Poissons Ratio (x) = -0.14897 0.02518
# Poissons Ratio (y) = -0.07444 0.76665
# Poissons Ratio (z) = 0.01403 0.85512
#
# Static dielectric constant tensor:
#      x y z
#    x 1.790240 0.000000 0.000000 
#    y 0.000000 1.717430 0.000000 
#    z 0.000000 0.000000 1.723480 
# 
# From -- ./inp_files/15585.got.cif
#   From: 2010.05.17/outbox.cif.g08.bks.cpg/sg36_8_cif.got.tgz:15585.got - 2010.06.03 17:41:39.
