data_PCOD9351797
_publ_section_title
;
Structure prediction by ZEFSAII (Michael W. Deem and Ramdas Pophale) SiO2 
 PCOD9351797
Probable space group: C M C 21
;
_chemical_formula_sum "Si O2"
_cell_formula_units_Z 48
_cell_length_a 8.532296
_cell_length_b 15.840735
_cell_length_c 19.234688
_cell_angle_alpha 90.000000
_cell_angle_beta 90.000000
_cell_angle_gamma 90.000000
_cell_volume 2599.718881
_symmetry_space_group_name_H-M "C M C 21"
_symmetry_group_IT_number 36
_symmetry_cell_setting 'orthorhombic'
loop_
_space_group_symop_operation_xyz
x,y,z
-x,-y,1/2+z
x,-y,1/2+z
-x,y,z
1/2+x,1/2+y,z
1/2-x,1/2-y,1/2+z
1/2+x,1/2-y,1/2+z
1/2-x,1/2+y,z
loop_
_atom_site_type_symbol
_atom_site_label
_atom_site_fract_x
_atom_site_fract_y
_atom_site_fract_z
Si Si1 0.811959 0.092534 0.141740
Si Si2 0.688014 0.250000 0.054570
Si Si3 0.811027 0.908133 0.802661
Si Si4 0.688041 0.907466 0.141740
Si Si5 0.311027 0.091867 0.802661
Si Si6 0.191541 0.750000 0.894402
O O1 0.748001 0.166981 0.094031
O O2 0.763078 0.107003 0.222364
O O3 0.000000 0.092578 0.139288
O O4 0.750000 1.000000 0.121275
O O5 0.500000 0.250000 0.055455
O O6 0.748001 0.333019 0.094030
O O7 0.741449 0.250000 0.974352
O O8 0.757049 0.833218 0.852708
O O9 0.000000 0.909563 0.803743
O O10 0.750000 0.000000 0.823804
O O11 0.500000 0.907423 0.139288
O O12 0.736922 0.892997 0.222364
O O13 0.500000 0.090436 0.803743
O O14 0.257049 0.166782 0.852708
O O15 0.000000 0.750000 0.893635
#
# Coordination Sequence:
#
# PCOD9351797 Si02
#       6
#     8   8   8   8   8   8
#     4  10  20  36  58  81 106 138 178 222 265 312
#     4  11  22  35  53  79 112 145 176 214 262 317
#     4   9  18  35  57  78 101 133 174 218 262 308
#     4  10  20  36  58  81 106 138 178 222 265 312
#     4   9  18  35  57  78 101 133 174 218 262 308
#     4   9  19  35  53  75 106 141 172 208 260 315
#
# _framework density 18.463535
#
# number of rings (size 3 to 8) (size 9 to 14) (size 15 to 20)
#    0.000    2.333    0.000    2.500    0.000    5.333 
#    0.000    7.500    0.000    0.000    0.000    0.000 
#    0.000    0.000    0.000    0.000    0.000    0.000 
#
# Total GULP energy -133993.198751 kJ/mol
# GULP energy per Si atom -5583.049948 kJ/mol
# Density = 1.842151 g / cm^3
# Si number density = 18.463535 Si / 1000 Ang^3
#
#
#
# Elastic Constant Matrix: (Units=GPa)
#
#
# Indices 1 2 3 4 5 6 
#
# 1 28.3568 37.5640 30.1675 0.0000 0.0000 0.0000
# 2 37.5640 218.2957 142.9213 0.0000 0.0000 0.0000
# 3 30.1675 142.9213 134.2798 0.0000 0.0000 0.0000
# 4 0.0000 0.0000 0.0000 -11.1378 0.0000 0.0000
# 5 0.0000 0.0000 0.0000 0.0000 19.2243 0.0000
# 6 0.0000 0.0000 0.0000 0.0000 0.0000 37.1583
#
#
#
# Elastic Compliance Matrix: (Units=1/GPa)
#
#
# Indices 1 2 3 4 5 6 
#
# 1 0.047327 -0.003901 -0.006480 0.000000 0.000000 0.000000
# 2 -0.003901 0.015433 -0.015549 0.000000 0.000000 0.000000
# 3 -0.006480 -0.015549 0.025453 0.000000 0.000000 0.000000
# 4 0.000000 0.000000 0.000000 -0.089784 0.000000 0.000000
# 5 0.000000 0.000000 0.000000 0.000000 0.052017 0.000000
# 6 0.000000 0.000000 0.000000 0.000000 0.000000 0.026912
#
#
# Mechanical properties :
#
#
# Convention : Reuss Voigt Hill
#
# Bulk Modulus (GPa) = 27.50963 89.13756 58.32359
# Shear Modulus (GPa) = 35.37667 20.40094 27.88880
#
# Velocity S-wave (km/s) = 4.38200 3.32766 3.89071
# Velocity P-wave (km/s) = 6.36665 7.94650 7.20004
#
# Compressibility (1/GPa) = 0.03635091
#
# Stress axis : x y z
#
# Youngs Moduli (GPa) = 21.12966 64.79777 39.28816
#
# Poissons Ratio (x) = 0.25279 0.25459
# Poissons Ratio (y) = 0.08243 0.61090
# Poissons Ratio (z) = 0.13692 1.00756
#
# Static dielectric constant tensor:
#      x y z
#    x 1.631800 0.000000 0.000000 
#    y 0.000000 1.601180 0.000000 
#    z 0.000000 0.000000 1.627520 
# 
# From -- ./inp_files/13486.got.cif
#   From: 2010.05.17/outbox.cif.g08.bks.cpg/sg36_7_cif.got.tgz:13486.got - 2010.06.03 17:41:39.
