data_PCOD9351893
_publ_section_title
;
Structure prediction by ZEFSAII (Michael W. Deem and Ramdas Pophale) SiO2 
 PCOD9351893
Probable space group: C M C 21
;
_chemical_formula_sum "Si O2"
_cell_formula_units_Z 48
_cell_length_a 11.288305
_cell_length_b 14.003286
_cell_length_c 13.503436
_cell_angle_alpha 90.000000
_cell_angle_beta 90.000000
_cell_angle_gamma 90.000000
_cell_volume 2134.533546
_symmetry_space_group_name_H-M "C M C 21"
_symmetry_group_IT_number 36
_symmetry_cell_setting 'orthorhombic'
loop_
_space_group_symop_operation_xyz
x,y,z
-x,-y,1/2+z
x,-y,1/2+z
-x,y,z
1/2+x,1/2+y,z
1/2-x,1/2-y,1/2+z
1/2+x,1/2-y,1/2+z
1/2-x,1/2+y,z
loop_
_atom_site_type_symbol
_atom_site_label
_atom_site_fract_x
_atom_site_fract_y
_atom_site_fract_z
Si Si1 0.873114 0.898945 0.661790
Si Si2 0.751585 0.062675 0.965489
Si Si3 0.139174 0.635235 0.419944
Si Si4 0.372584 0.031326 0.156828
Si Si5 0.863907 0.184042 0.795243
Si Si6 0.689779 0.186292 0.631145
O O1 0.859007 0.927952 0.545022
O O2 0.866196 0.784117 0.671154
O O3 0.000000 0.932543 0.700016
O O4 0.752852 0.942465 0.706020
O O5 0.815148 0.303169 0.013644
O O6 0.645344 0.078060 0.046779
O O7 0.779221 0.127642 0.871573
O O8 0.144188 0.705892 0.328072
O O9 0.219113 0.541613 0.424962
O O10 0.000000 0.610929 0.436039
O O11 0.500000 0.059579 0.198965
O O12 0.370997 0.916188 0.149251
O O13 0.816085 0.176100 0.684079
O O14 0.000000 0.153677 0.806244
#
# Coordination Sequence:
#
# PCOD9351893 Si02
#       6
#     8   8   8   8   8   8
#     4  10  20  36  65  92 122 166 213 261 325 379
#     4   9  19  36  66  89 122 163 218 257 324 379
#     4  10  20  43  68  88 125 175 222 264 326 393
#     4   9  20  38  64  91 123 163 215 261 314 387
#     4  11  24  41  63  95 134 176 218 272 329 391
#     4  11  21  38  64  95 123 171 221 263 319 391
#
# _framework density 22.487348000000001
#
# number of rings (size 3 to 8) (size 9 to 14) (size 15 to 20)
#    1.000    1.000    1.667    3.500    0.000    2.667 
#    0.000    6.667    0.000   11.000    0.000    0.000 
#    0.000    0.000    0.000    0.000    0.000    0.000 
#
# Total GULP energy -133648.945613 kJ/mol
# GULP energy per Si atom -5568.706067 kJ/mol
# Density = 2.243617 g / cm^3
# Si number density = 22.487348 Si / 1000 Ang^3
#
#
#
# Elastic Constant Matrix: (Units=GPa)
#
#
# Indices 1 2 3 4 5 6 
#
# 1 149.5204 59.3295 26.1191 0.0000 0.0000 0.0000
# 2 59.3295 96.8416 5.8506 0.0000 0.0000 0.0000
# 3 26.1191 5.8506 66.4323 0.0000 0.0000 0.0000
# 4 0.0000 0.0000 0.0000 32.7943 0.0000 0.0000
# 5 0.0000 0.0000 0.0000 0.0000 16.7657 0.0000
# 6 0.0000 0.0000 0.0000 0.0000 0.0000 14.4759
#
#
#
# Elastic Compliance Matrix: (Units=1/GPa)
#
#
# Indices 1 2 3 4 5 6 
#
# 1 0.009480 -0.005612 -0.003233 0.000000 0.000000 0.000000
# 2 -0.005612 0.013704 0.001000 0.000000 0.000000 0.000000
# 3 -0.003233 0.001000 0.016236 0.000000 0.000000 0.000000
# 4 0.000000 0.000000 0.000000 0.030493 0.000000 0.000000
# 5 0.000000 0.000000 0.000000 0.000000 0.059645 0.000000
# 6 0.000000 0.000000 0.000000 0.000000 0.000000 0.069080
#
#
# Mechanical properties :
#
#
# Convention : Reuss Voigt Hill
#
# Bulk Modulus (GPa) = 42.14301 55.04362 48.59332
# Shear Modulus (GPa) = 22.49827 27.57355 25.03591
#
# Velocity S-wave (km/s) = 3.16648 3.50548 3.34028
# Velocity P-wave (km/s) = 5.67012 6.39651 6.04423
#
# Compressibility (1/GPa) = 0.02372873
#
# Stress axis : x y z
#
# Youngs Moduli (GPa) = 105.48760 72.97050 61.59176
#
# Poissons Ratio (x) = 0.40954 0.19912
# Poissons Ratio (y) = 0.59204 -0.06157
# Poissons Ratio (z) = 0.34103 -0.07295
#
# Static dielectric constant tensor:
#      x y z
#    x 1.810150 0.000000 0.000000 
#    y 0.000000 1.853040 0.000000 
#    z 0.000000 0.000000 1.885820 
# 
# From -- ./inp_files/14272.got.cif
#   From: 2010.05.17/outbox.cif.g08.bks.cpg/sg36_8_cif.got.tgz:14272.got - 2010.06.03 17:41:39.
