data_PCOD9351889
_publ_section_title
;
Structure prediction by ZEFSAII (Michael W. Deem and Ramdas Pophale) SiO2 
 PCOD9351889
Probable space group: C M C 21
;
_chemical_formula_sum "Si O2"
_cell_formula_units_Z 64
_cell_length_a 17.747699
_cell_length_b 9.083387
_cell_length_c 19.785896
_cell_angle_alpha 90.000000
_cell_angle_beta 90.000000
_cell_angle_gamma 90.000000
_cell_volume 3189.668829
_symmetry_space_group_name_H-M "C M C 21"
_symmetry_group_IT_number 36
_symmetry_cell_setting 'orthorhombic'
loop_
_space_group_symop_operation_xyz
x,y,z
-x,-y,1/2+z
x,-y,1/2+z
-x,y,z
1/2+x,1/2+y,z
1/2-x,1/2-y,1/2+z
1/2+x,1/2-y,1/2+z
1/2-x,1/2+y,z
loop_
_atom_site_type_symbol
_atom_site_label
_atom_site_fract_x
_atom_site_fract_y
_atom_site_fract_z
Si Si1 0.857876 0.796864 0.614130
Si Si2 0.298669 0.338050 0.977432
Si Si3 0.200214 0.866231 0.275036
Si Si4 0.644583 0.665500 0.966606
Si Si5 0.083568 0.124869 0.260133
Si Si6 0.915943 0.675473 0.344682
Si Si7 0.736812 0.415485 0.121373
Si Si8 0.855319 0.642345 0.860129
O O1 0.892696 0.828696 0.540820
O O2 0.903650 0.829230 0.681876
O O3 0.823282 0.633129 0.612199
O O4 0.787736 0.914180 0.617401
O O5 0.317591 0.505382 0.956582
O O6 0.212855 0.284459 0.965985
O O7 0.345993 0.229083 0.930446
O O8 0.307596 0.339701 0.058824
O O9 0.148463 0.728105 0.293563
O O10 0.219843 0.860293 0.196317
O O11 0.273667 0.870522 0.322575
O O12 0.148228 0.010622 0.281790
O O13 0.590430 0.709820 0.906405
O O14 0.094463 0.263972 0.308275
O O15 0.000000 0.061061 0.267619
O O16 0.892682 0.515006 0.370040
O O17 0.000000 0.674859 0.316343
#
# Coordination Sequence:
#
# PCOD9351889 Si02
#       8
#     8   8   8   8   8   8   8   8
#     4   9  19  35  59  88 117 152 195 242 298 358
#     4  10  20  36  63  94 118 152 203 257 297 348
#     4  11  22  39  64  88 116 159 206 249 295 360
#     4  10  20  37  60  90 121 156 198 247 303 356
#     4  11  23  39  60  88 123 159 197 249 305 356
#     4  12  26  40  58  89 128 162 199 252 305 354
#     4   9  19  35  59  93 117 146 196 257 296 343
#     4  12  23  39  63  90 118 160 208 247 293 359
#
# _framework density 20.064779999999999
#
# number of rings (size 3 to 8) (size 9 to 14) (size 15 to 20)
#    0.000    1.500    2.500    3.000    1.750    1.500 
#    0.000    0.625    0.000    9.000    0.000    0.000 
#    0.000    0.000    0.000    0.000    0.000    0.000 
#
# Total GULP energy -178555.530020 kJ/mol
# GULP energy per Si atom -5579.860313 kJ/mol
# Density = 2.001911 g / cm^3
# Si number density = 20.064780 Si / 1000 Ang^3
#
#
#
# Elastic Constant Matrix: (Units=GPa)
#
#
# Indices 1 2 3 4 5 6 
#
# 1 56.2744 7.7531 -7.3041 0.0000 0.0000 0.0000
# 2 7.7531 70.4087 16.1794 0.0000 0.0000 0.0000
# 3 -7.3041 16.1794 86.9664 0.0000 0.0000 0.0000
# 4 0.0000 0.0000 0.0000 26.2044 0.0000 0.0000
# 5 0.0000 0.0000 0.0000 0.0000 5.3216 0.0000
# 6 0.0000 0.0000 0.0000 0.0000 0.0000 10.3258
#
#
#
# Elastic Compliance Matrix: (Units=1/GPa)
#
#
# Indices 1 2 3 4 5 6 
#
# 1 0.018373 -0.002484 0.002005 0.000000 0.000000 0.000000
# 2 -0.002484 0.015173 -0.003031 0.000000 0.000000 0.000000
# 3 0.002005 -0.003031 0.012231 0.000000 0.000000 0.000000
# 4 0.000000 0.000000 0.000000 0.038162 0.000000 0.000000
# 5 0.000000 0.000000 0.000000 0.000000 0.187913 0.000000
# 6 0.000000 0.000000 0.000000 0.000000 0.000000 0.096845
#
#
# Mechanical properties :
#
#
# Convention : Reuss Voigt Hill
#
# Bulk Modulus (GPa) = 25.80228 27.43403 26.61815
# Shear Modulus (GPa) = 12.86554 21.50509 17.18532
#
# Velocity S-wave (km/s) = 2.53494 3.27736 2.92976
# Velocity P-wave (km/s) = 4.63199 5.29376 4.97389
#
# Compressibility (1/GPa) = 0.03875627
#
# Stress axis : x y z
#
# Youngs Moduli (GPa) = 54.42910 65.90697 81.75898
#
# Poissons Ratio (x) = 0.16370 -0.16394
# Poissons Ratio (y) = 0.13519 0.24784
# Poissons Ratio (z) = -0.10914 0.19979
#
# Static dielectric constant tensor:
#      x y z
#    x 1.716860 0.000000 0.000000 
#    y 0.000000 1.733290 0.000000 
#    z 0.000000 0.000000 1.734000 
# 
# From -- ./inp_files/16236.got.cif
#   From: 2010.05.17/outbox.cif.g08.bks.cpg/sg36_9_cif.got.tgz:16236.got - 2010.06.03 17:41:39.
