data_PCOD9351742
_publ_section_title
;
Structure prediction by ZEFSAII (Michael W. Deem and Ramdas Pophale) SiO2 
 PCOD9351742
Probable space group: C M C 21
;
_chemical_formula_sum "Si O2"
_cell_formula_units_Z 56
_cell_length_a 13.528213
_cell_length_b 12.889094
_cell_length_c 17.165197
_cell_angle_alpha 90.000000
_cell_angle_beta 90.000000
_cell_angle_gamma 90.000000
_cell_volume 2993.033761
_symmetry_space_group_name_H-M "C M C 21"
_symmetry_group_IT_number 36
_symmetry_cell_setting 'orthorhombic'
loop_
_space_group_symop_operation_xyz
x,y,z
-x,-y,1/2+z
x,-y,1/2+z
-x,y,z
1/2+x,1/2+y,z
1/2-x,1/2-y,1/2+z
1/2+x,1/2-y,1/2+z
1/2-x,1/2+y,z
loop_
_atom_site_type_symbol
_atom_site_label
_atom_site_fract_x
_atom_site_fract_y
_atom_site_fract_z
Si Si1 0.886274 0.891361 0.662090
Si Si2 0.110921 0.950488 0.839110
Si Si3 0.385372 0.311950 0.344229
Si Si4 0.738763 0.701402 0.687447
Si Si5 0.384071 0.807607 0.556043
Si Si6 0.774286 0.482848 0.083733
Si Si7 0.248261 0.320453 0.945059
O O1 0.883067 0.950712 0.745177
O O2 0.823918 0.787102 0.676544
O O3 0.000000 0.871679 0.642314
O O4 0.829919 0.957991 0.596927
O O5 0.191977 0.877203 0.876651
O O6 0.000000 0.913502 0.859172
O O7 0.122136 0.067772 0.868632
O O8 0.500000 0.292847 0.322745
O O9 0.310803 0.299232 0.271692
O O10 0.347819 0.235653 0.411279
O O11 0.652273 0.735646 0.627569
O O12 0.782375 0.591684 0.659027
O O13 0.500000 0.797566 0.542451
O O14 0.319114 0.765766 0.484107
O O15 0.353725 0.925695 0.575899
O O16 0.775029 0.406670 0.010184
#
# Coordination Sequence:
#
# PCOD9351742 Si02
#       7
#     8   8   8   8   8   8   8
#     4  10  20  36  60  90 118 150 197 250 300 353
#     4  10  20  35  59  87 116 153 197 247 298 355
#     4  11  22  37  60  89 122 160 202 248 303 362
#     4  10  20  38  60  88 118 153 198 251 298 358
#     4  10  22  39  59  85 117 157 199 242 300 363
#     4  10  22  38  60  84 118 157 197 245 299 357
#     4  11  22  39  58  87 123 158 198 249 302 358
#
# _framework density 18.710113
#
# number of rings (size 3 to 8) (size 9 to 14) (size 15 to 20)
#    0.000    1.714    2.857    1.714    0.000    4.000 
#    0.000    8.571    0.000    0.857    0.000    0.000 
#    0.000    0.000    0.000    0.000    0.000    0.000 
#
# Total GULP energy -156273.857369 kJ/mol
# GULP energy per Si atom -5581.209192 kJ/mol
# Density = 1.866753 g / cm^3
# Si number density = 18.710113 Si / 1000 Ang^3
#
#
#
# Elastic Constant Matrix: (Units=GPa)
#
#
# Indices 1 2 3 4 5 6 
#
# 1 43.8619 13.2476 2.7561 0.0000 0.0000 0.0000
# 2 13.2476 76.8136 5.4445 0.0000 0.0000 0.0000
# 3 2.7561 5.4445 44.3299 0.0000 0.0000 0.0000
# 4 0.0000 0.0000 0.0000 34.5317 0.0000 0.0000
# 5 0.0000 0.0000 0.0000 0.0000 20.7020 0.0000
# 6 0.0000 0.0000 0.0000 0.0000 0.0000 18.3395
#
#
#
# Elastic Compliance Matrix: (Units=1/GPa)
#
#
# Indices 1 2 3 4 5 6 
#
# 1 0.024095 -0.004085 -0.000996 0.000000 0.000000 0.000000
# 2 -0.004085 0.013825 -0.001444 0.000000 0.000000 0.000000
# 3 -0.000996 -0.001444 0.022797 0.000000 0.000000 0.000000
# 4 0.000000 0.000000 0.000000 0.028959 0.000000 0.000000
# 5 0.000000 0.000000 0.000000 0.000000 0.048305 0.000000
# 6 0.000000 0.000000 0.000000 0.000000 0.000000 0.054527
#
#
# Mechanical properties :
#
#
# Convention : Reuss Voigt Hill
#
# Bulk Modulus (GPa) = 20.97872 23.10022 22.03947
# Shear Modulus (GPa) = 22.57863 24.28511 23.43187
#
# Velocity S-wave (km/s) = 3.47761 3.60664 3.54271
# Velocity P-wave (km/s) = 5.23086 5.45133 5.34223
#
# Compressibility (1/GPa) = 0.04766734
#
# Stress axis : x y z
#
# Youngs Moduli (GPa) = 41.50205 72.33069 43.86458
#
# Poissons Ratio (x) = 0.29547 0.04370
# Poissons Ratio (y) = 0.16953 0.06334
# Poissons Ratio (z) = 0.04135 0.10445
#
# Static dielectric constant tensor:
#      x y z
#    x 1.615720 0.000000 0.000000 
#    y 0.000000 1.649120 0.000000 
#    z 0.000000 0.000000 1.667420 
# 
# From -- ./inp_files/12168.got.cif
#   From: 2010.05.17/outbox.cif.g08.bks.cpg/sg36_7_cif.got.tgz:12168.got - 2010.06.03 17:41:39.
