data_PCOD9351162
_publ_section_title
;
Structure prediction by ZEFSAII (Michael W. Deem and Ramdas Pophale) SiO2 
 PCOD9351162
Probable space group: C M C 21
;
_chemical_formula_sum "Si O2"
_cell_formula_units_Z 64
_cell_length_a 9.003053
_cell_length_b 22.849144
_cell_length_c 16.172847
_cell_angle_alpha 90.000000
_cell_angle_beta 90.000000
_cell_angle_gamma 90.000000
_cell_volume 3326.949582
_symmetry_space_group_name_H-M "C M C 21"
_symmetry_group_IT_number 36
_symmetry_cell_setting 'orthorhombic'
loop_
_space_group_symop_operation_xyz
x,y,z
-x,-y,1/2+z
x,-y,1/2+z
-x,y,z
1/2+x,1/2+y,z
1/2-x,1/2-y,1/2+z
1/2+x,1/2-y,1/2+z
1/2-x,1/2+y,z
loop_
_atom_site_type_symbol
_atom_site_label
_atom_site_fract_x
_atom_site_fract_y
_atom_site_fract_z
Si Si1 0.822378 0.963314 0.302720
Si Si2 0.336385 0.761777 0.496370
Si Si3 0.178122 0.454215 0.941111
Si Si4 0.178573 0.059542 0.613721
Si Si5 0.327451 0.813785 0.124221
Si Si6 0.667237 0.342255 0.865096
Si Si7 0.663913 0.344001 0.397149
Si Si8 0.166745 0.743449 0.262870
O O1 0.782118 0.965980 0.205055
O O2 0.797877 0.897489 0.336999
O O3 0.000000 0.975009 0.308313
O O4 0.735143 0.004054 0.367064
O O5 0.500000 0.764724 0.535211
O O6 0.213217 0.732542 0.553550
O O7 0.349267 0.714676 0.422699
O O8 0.284303 0.824987 0.464313
O O9 0.243902 0.391108 0.915225
O O10 0.000000 0.453386 0.945441
O O11 0.245879 0.468282 0.032081
O O12 0.231156 0.127347 0.615084
O O13 0.000000 0.057332 0.605194
O O14 0.500000 0.829416 0.123808
O O15 0.277386 0.779290 0.205265
O O16 0.500000 0.362668 0.843977
O O17 0.762039 0.318260 0.788316
O O18 0.500000 0.356429 0.433217
O O19 0.651168 0.285952 0.341673
O O20 0.000000 0.736870 0.228803
#
# Coordination Sequence:
#
# PCOD9351162 Si02
#       8
#     8   8   8   8   8   8   8   8
#     4  10  22  42  66  90 120 163 209 257 310 369
#     4  10  20  33  54  83 117 154 191 239 297 355
#     4  12  25  40  62  93 126 164 207 259 314 368
#     4  11  22  41  65  90 119 158 210 260 309 367
#     4  12  22  33  55  88 123 157 199 249 303 365
#     4  10  20  36  57  83 116 155 197 242 296 359
#     4   9  18  35  57  83 114 149 192 240 298 360
#     4  10  19  34  56  84 119 152 189 242 299 359
#
# _framework density 19.236840999999998
#
# number of rings (size 3 to 8) (size 9 to 14) (size 15 to 20)
#    0.000    1.500    2.500    3.750    0.000    3.000 
#    0.000    1.250    0.000    4.500    0.000    0.000 
#    0.000    0.000    0.000    0.000    0.000    0.000 
#
# Total GULP energy -178361.657455 kJ/mol
# GULP energy per Si atom -5573.801795 kJ/mol
# Density = 1.919306 g / cm^3
# Si number density = 19.236841 Si / 1000 Ang^3
#
#
#
# Elastic Constant Matrix: (Units=GPa)
#
#
# Indices 1 2 3 4 5 6 
#
# 1 111.9224 36.5683 47.6415 0.0000 0.0000 0.0000
# 2 36.5683 45.1396 35.2026 0.0000 0.0000 0.0000
# 3 47.6415 35.2026 82.4674 0.0000 0.0000 0.0000
# 4 0.0000 0.0000 0.0000 22.7990 0.0000 0.0000
# 5 0.0000 0.0000 0.0000 0.0000 29.3799 0.0000
# 6 0.0000 0.0000 0.0000 0.0000 0.0000 22.3340
#
#
#
# Elastic Compliance Matrix: (Units=1/GPa)
#
#
# Indices 1 2 3 4 5 6 
#
# 1 0.013219 -0.007125 -0.004595 0.000000 0.000000 0.000000
# 2 -0.007125 0.037049 -0.011699 0.000000 0.000000 0.000000
# 3 -0.004595 -0.011699 0.019774 0.000000 0.000000 0.000000
# 4 0.000000 0.000000 0.000000 0.043862 0.000000 0.000000
# 5 0.000000 0.000000 0.000000 0.000000 0.034037 0.000000
# 6 0.000000 0.000000 0.000000 0.000000 0.000000 0.044775
#
#
# Mechanical properties :
#
#
# Convention : Reuss Voigt Hill
#
# Bulk Modulus (GPa) = 43.09554 53.15047 48.12300
# Shear Modulus (GPa) = 20.21932 22.91038 21.56485
#
# Velocity S-wave (km/s) = 3.24554 3.45478 3.35179
# Velocity P-wave (km/s) = 6.04119 6.60329 6.32849
#
# Compressibility (1/GPa) = 0.02320426
#
# Stress axis : x y z
#
# Youngs Moduli (GPa) = 75.65048 26.99109 50.57058
#
# Poissons Ratio (x) = 0.19232 0.23237
# Poissons Ratio (y) = 0.53903 0.59162
# Poissons Ratio (z) = 0.34761 0.31576
#
# Static dielectric constant tensor:
#      x y z
#    x 1.687660 0.000000 0.000000 
#    y 0.000000 1.646760 0.000000 
#    z 0.000000 0.000000 1.802810 
# 
# From -- ./inp_files/13892.got.cif
#   From: 2010.05.17/outbox.cif.g08.bks.cpg/sg36_7_cif.got.tgz:13892.got - 2010.06.03 17:41:39.
