data_PCOD9351090
_publ_section_title
;
Structure prediction by ZEFSAII (Michael W. Deem and Ramdas Pophale) SiO2 
 PCOD9351090
Probable space group: C M C 21
;
_chemical_formula_sum "Si O2"
_cell_formula_units_Z 64
_cell_length_a 8.509978
_cell_length_b 19.064652
_cell_length_c 21.033401
_cell_angle_alpha 90.000000
_cell_angle_beta 90.000000
_cell_angle_gamma 90.000000
_cell_volume 3412.454122
_symmetry_space_group_name_H-M "C M C 21"
_symmetry_group_IT_number 36
_symmetry_cell_setting 'orthorhombic'
loop_
_space_group_symop_operation_xyz
x,y,z
-x,-y,1/2+z
x,-y,1/2+z
-x,y,z
1/2+x,1/2+y,z
1/2-x,1/2-y,1/2+z
1/2+x,1/2-y,1/2+z
1/2-x,1/2+y,z
loop_
_atom_site_type_symbol
_atom_site_label
_atom_site_fract_x
_atom_site_fract_y
_atom_site_fract_z
Si Si1 0.187822 0.203353 0.412600
Si Si2 0.311964 0.456237 0.294314
Si Si3 0.810005 0.202323 0.652153
Si Si4 0.810554 0.794210 0.297026
Si Si5 0.691799 0.795117 0.533328
Si Si6 0.311691 0.954164 0.154048
Si Si7 0.311885 0.045638 0.411070
Si Si8 0.808073 0.543992 0.033046
O O1 0.237578 0.243031 0.348537
O O2 0.243112 0.249540 0.472801
O O3 0.254795 0.125262 0.415085
O O4 0.000000 0.199269 0.415434
O O5 0.500000 0.458108 0.294523
O O6 0.263443 0.375444 0.308473
O O7 0.253352 0.473348 0.223449
O O8 0.246939 0.508030 0.347311
O O9 0.765139 0.222728 0.724168
O O10 0.759417 0.256786 0.598313
O O11 0.744250 0.124825 0.639258
O O12 0.000000 0.197631 0.650955
O O13 0.000000 0.790178 0.301398
O O14 0.500000 0.795963 0.532948
O O15 0.744686 0.875510 0.529462
O O16 0.500000 0.955184 0.156602
O O17 0.258869 0.006104 0.098124
O O18 0.500000 0.045037 0.411085
O O19 0.256364 0.000927 0.472142
O O20 0.000000 0.544322 0.032645
#
# Coordination Sequence:
#
# PCOD9351090 Si02
#       8
#     8   8   8   8   8   8   8   8
#     4  11  22  35  55  81 109 142 182 228 273 323
#     4  10  21  38  58  82 112 144 184 229 273 326
#     4   9  18  34  56  79 107 143 179 219 267 322
#     4   9  19  35  55  79 108 143 179 219 269 322
#     4   9  18  34  55  78 105 139 180 223 270 322
#     4  10  19  33  56  83 111 144 180 220 270 327
#     4  11  22  37  57  80 111 148 185 227 275 327
#     4   9  19  34  54  82 111 141 181 227 273 327
#
# _framework density 18.754829999999998
#
# number of rings (size 3 to 8) (size 9 to 14) (size 15 to 20)
#    0.000    2.250    0.000    3.750    0.000    4.500 
#    0.000    5.000    0.000    6.000    0.000    0.000 
#    0.000    0.000    0.000    0.000    0.000    0.000 
#
# Total GULP energy -178694.956531 kJ/mol
# GULP energy per Si atom -5584.217392 kJ/mol
# Density = 1.871214 g / cm^3
# Si number density = 18.754830 Si / 1000 Ang^3
#
#
#
# Elastic Constant Matrix: (Units=GPa)
#
#
# Indices 1 2 3 4 5 6 
#
# 1 28.3242 37.6602 34.7425 0.0000 0.0000 0.0000
# 2 37.6602 189.0678 146.8233 0.0000 0.0000 0.0000
# 3 34.7425 146.8233 171.9088 0.0000 0.0000 0.0000
# 4 0.0000 0.0000 0.0000 41.6961 0.0000 0.0000
# 5 0.0000 0.0000 0.0000 0.0000 15.8627 0.0000
# 6 0.0000 0.0000 0.0000 0.0000 0.0000 22.5210
#
#
#
# Elastic Compliance Matrix: (Units=1/GPa)
#
#
# Indices 1 2 3 4 5 6 
#
# 1 0.049259 -0.006180 -0.004677 0.000000 0.000000 0.000000
# 2 -0.006180 0.016481 -0.012827 0.000000 0.000000 0.000000
# 3 -0.004677 -0.012827 0.017718 0.000000 0.000000 0.000000
# 4 0.000000 0.000000 0.000000 0.023983 0.000000 0.000000
# 5 0.000000 0.000000 0.000000 0.000000 0.063041 0.000000
# 6 0.000000 0.000000 0.000000 0.000000 0.000000 0.044403
#
#
# Mechanical properties :
#
#
# Convention : Reuss Voigt Hill
#
# Bulk Modulus (GPa) = 27.70877 91.97252 59.84065
# Shear Modulus (GPa) = 18.22928 27.35430 22.79179
#
# Velocity S-wave (km/s) = 3.12104 3.82320 3.48982
# Velocity P-wave (km/s) = 5.27201 8.28462 6.94367
#
# Compressibility (1/GPa) = 0.03608966
#
# Stress axis : x y z
#
# Youngs Moduli (GPa) = 20.30080 60.67449 56.43990
#
# Poissons Ratio (x) = 0.37495 0.26399
# Poissons Ratio (y) = 0.12545 0.72398
# Poissons Ratio (z) = 0.09495 0.77830
#
# Static dielectric constant tensor:
#      x y z
#    x 1.639520 0.000000 0.000000 
#    y 0.000000 1.619380 0.000000 
#    z 0.000000 0.000000 1.634760 
# 
# From -- ./inp_files/15673.got.cif
#   From: 2010.05.17/outbox.cif.g08.bks.cpg/sg36_8_cif.got.tgz:15673.got - 2010.06.03 17:41:39.
