data_PCOD9351665
_publ_section_title
;
Structure prediction by ZEFSAII (Michael W. Deem and Ramdas Pophale) SiO2 
 PCOD9351665
Probable space group: C M C 21
;
_chemical_formula_sum "Si O2"
_cell_formula_units_Z 64
_cell_length_a 7.649802
_cell_length_b 25.756315
_cell_length_c 14.333162
_cell_angle_alpha 90.000000
_cell_angle_beta 90.000000
_cell_angle_gamma 90.000000
_cell_volume 2824.073085
_symmetry_space_group_name_H-M "C M C 21"
_symmetry_group_IT_number 36
_symmetry_cell_setting 'orthorhombic'
loop_
_space_group_symop_operation_xyz
x,y,z
-x,-y,1/2+z
x,-y,1/2+z
-x,y,z
1/2+x,1/2+y,z
1/2-x,1/2-y,1/2+z
1/2+x,1/2-y,1/2+z
1/2-x,1/2+y,z
loop_
_atom_site_type_symbol
_atom_site_label
_atom_site_fract_x
_atom_site_fract_y
_atom_site_fract_z
Si Si1 0.788829 0.707181 0.555170
Si Si2 0.296876 0.459663 0.876370
Si Si3 0.710375 0.876425 0.206394
Si Si4 0.699244 0.697208 0.167193
Si Si5 0.199856 0.411267 0.595559
Si Si6 0.293962 0.572152 0.885651
Si Si7 0.712924 0.024107 0.592359
Si Si8 0.208870 0.843266 0.855942
O O1 0.732021 0.670190 0.640600
O O2 0.727053 0.764056 0.588703
O O3 0.732071 0.683429 0.456405
O O4 0.000000 0.706301 0.548827
O O5 0.500000 0.458585 0.848458
O O6 0.223678 0.516342 0.846851
O O7 0.220812 0.402856 0.852047
O O8 0.282021 0.464436 0.988861
O O9 0.500000 0.875640 0.206890
O O10 0.770078 0.881940 0.312094
O O11 0.770330 0.929264 0.156998
O O12 0.500000 0.715776 0.181133
O O13 0.699480 0.638830 0.129027
O O14 0.779732 0.691538 0.270482
O O15 0.205369 0.415333 0.483513
O O16 0.269204 0.467382 0.627326
O O17 0.000000 0.405489 0.626802
O O18 0.500000 0.565374 0.904147
O O19 0.500000 0.023263 0.586795
O O20 0.000000 0.847652 0.841923
#
# Coordination Sequence:
#
# PCOD9351665 Si02
#       8
#     8   8   8   8   8   8   8   8
#     4  10  22  41  62  85 117 156 198 243 292 343
#     4   9  18  33  53  81 115 151 193 237 288 343
#     4  10  20  35  55  83 118 156 195 240 291 346
#     4  10  23  41  61  86 117 154 195 242 295 346
#     4  10  21  38  58  84 117 154 194 238 293 351
#     4  10  21  35  55  86 122 159 196 240 291 349
#     4   9  18  33  54  81 114 150 187 233 289 343
#     4  10  21  38  60  86 116 152 194 243 293 345
#
# _framework density 22.662303999999999
#
# number of rings (size 3 to 8) (size 9 to 14) (size 15 to 20)
#    0.000    2.250    1.250    0.750    1.750    4.000 
#    0.000    1.250    0.000    0.000    0.000    0.000 
#    0.000    0.000    0.000    0.000    0.000    0.000 
#
# Total GULP energy -178613.613679 kJ/mol
# GULP energy per Si atom -5581.675427 kJ/mol
# Density = 2.261072 g / cm^3
# Si number density = 22.662304 Si / 1000 Ang^3
#
#
#
# Elastic Constant Matrix: (Units=GPa)
#
#
# Indices 1 2 3 4 5 6 
#
# 1 50.0994 8.1874 1.3798 0.0000 0.0000 0.0000
# 2 8.1874 88.5005 24.5337 0.0000 0.0000 0.0000
# 3 1.3798 24.5337 62.4349 0.0000 0.0000 0.0000
# 4 0.0000 0.0000 0.0000 28.6423 0.0000 0.0000
# 5 0.0000 0.0000 0.0000 0.0000 22.8542 0.0000
# 6 0.0000 0.0000 0.0000 0.0000 0.0000 10.9304
#
#
#
# Elastic Compliance Matrix: (Units=1/GPa)
#
#
# Indices 1 2 3 4 5 6 
#
# 1 0.020273 -0.001965 0.000324 0.000000 0.000000 0.000000
# 2 -0.001965 0.012871 -0.005014 0.000000 0.000000 0.000000
# 3 0.000324 -0.005014 0.017980 0.000000 0.000000 0.000000
# 4 0.000000 0.000000 0.000000 0.034913 0.000000 0.000000
# 5 0.000000 0.000000 0.000000 0.000000 0.043756 0.000000
# 6 0.000000 0.000000 0.000000 0.000000 0.000000 0.091488
#
#
# Mechanical properties :
#
#
# Convention : Reuss Voigt Hill
#
# Bulk Modulus (GPa) = 26.44601 29.91519 28.18060
# Shear Modulus (GPa) = 20.22689 23.61431 21.92060
#
# Velocity S-wave (km/s) = 2.99077 3.23152 3.11347
# Velocity P-wave (km/s) = 4.86017 5.21082 5.03855
#
# Compressibility (1/GPa) = 0.03781288
#
# Stress axis : x y z
#
# Youngs Moduli (GPa) = 49.32777 77.69266 55.61774
#
# Poissons Ratio (x) = 0.15269 -0.01803
# Poissons Ratio (y) = 0.09695 0.27888
# Poissons Ratio (z) = -0.01600 0.38957
#
# Static dielectric constant tensor:
#      x y z
#    x 1.859120 0.000000 0.000000 
#    y 0.000000 1.859450 0.000000 
#    z 0.000000 0.000000 1.836540 
# 
# From -- ./inp_files/11057.got.cif
#   From: 2010.05.17/outbox.cif.g08.bks.cpg/sg36_6_cif.got.tgz:11057.got - 2010.06.03 17:41:39.
