data_PCOD9351572
_publ_section_title
;
Structure prediction by ZEFSAII (Michael W. Deem and Ramdas Pophale) SiO2 
 PCOD9351572
Probable space group: C M C 21
;
_chemical_formula_sum "Si O2"
_cell_formula_units_Z 64
_cell_length_a 13.813669
_cell_length_b 24.703308
_cell_length_c 9.564879
_cell_angle_alpha 90.000000
_cell_angle_beta 90.000000
_cell_angle_gamma 90.000000
_cell_volume 3263.951065
_symmetry_space_group_name_H-M "C M C 21"
_symmetry_group_IT_number 36
_symmetry_cell_setting 'orthorhombic'
loop_
_space_group_symop_operation_xyz
x,y,z
-x,-y,1/2+z
x,-y,1/2+z
-x,y,z
1/2+x,1/2+y,z
1/2-x,1/2-y,1/2+z
1/2+x,1/2-y,1/2+z
1/2-x,1/2+y,z
loop_
_atom_site_type_symbol
_atom_site_label
_atom_site_fract_x
_atom_site_fract_y
_atom_site_fract_z
Si Si1 0.713430 0.666639 0.572470
Si Si2 0.114608 0.947208 0.084495
Si Si3 0.764888 0.644732 0.884199
Si Si4 0.888649 0.725462 0.070698
Si Si5 0.386550 0.827581 0.864515
Si Si6 0.117071 0.444566 0.738406
Si Si7 0.386509 0.443717 0.417723
Si Si8 0.616050 0.955032 0.418345
O O1 0.675345 0.605932 0.542288
O O2 0.731138 0.669756 0.738660
O O3 0.635183 0.712565 0.536762
O O4 0.811546 0.680301 0.489305
O O5 0.126549 0.954271 0.251683
O O6 0.000000 0.936821 0.058977
O O7 0.139563 0.002469 0.004040
O O8 0.677561 0.609244 0.949470
O O9 0.844301 0.598841 0.847605
O O10 0.814813 0.687085 0.987246
O O11 0.877394 0.714272 0.236469
O O12 0.000000 0.711002 0.036015
O O13 0.500000 0.828758 0.907981
O O14 0.360445 0.885626 0.796155
O O15 0.147811 0.453333 0.579431
O O16 0.152098 0.492180 0.838300
O O17 0.000000 0.447519 0.736969
O O18 0.500000 0.432770 0.442732
O O19 0.500000 0.955067 0.415859
#
# Coordination Sequence:
#
# PCOD9351572 Si02
#       8
#     8   8   8   8   8   8   8   8
#     4  11  24  39  61  92 119 157 207 253 297 355
#     4   9  19  38  60  87 120 161 203 244 296 353
#     4  11  23  37  62  90 120 156 200 246 311 356
#     4  11  23  45  67  84 116 160 204 251 300 359
#     4  10  22  40  60  86 123 160 198 248 300 357
#     4   9  19  34  53  81 119 161 194 231 290 350
#     4   9  20  37  58  86 124 158 195 245 299 359
#     4  10  20  34  54  84 121 157 196 238 288 355
#
# _framework density 19.608135999999998
#
# number of rings (size 3 to 8) (size 9 to 14) (size 15 to 20)
#    0.000    2.000    1.250    1.500    3.500    3.500 
#    0.000    0.625    0.000    0.750    0.000    0.000 
#    0.000    0.000    0.000    0.000    0.000    0.000 
#
# Total GULP energy -178675.003193 kJ/mol
# GULP energy per Si atom -5583.593850 kJ/mol
# Density = 1.956351 g / cm^3
# Si number density = 19.608136 Si / 1000 Ang^3
#
#
#
# Elastic Constant Matrix: (Units=GPa)
#
#
# Indices 1 2 3 4 5 6 
#
# 1 108.9367 41.4013 37.3789 0.0000 0.0000 0.0000
# 2 41.4013 97.2020 32.7383 0.0000 0.0000 0.0000
# 3 37.3789 32.7383 24.1702 0.0000 0.0000 0.0000
# 4 0.0000 0.0000 0.0000 19.4843 0.0000 0.0000
# 5 0.0000 0.0000 0.0000 0.0000 26.7561 0.0000
# 6 0.0000 0.0000 0.0000 0.0000 0.0000 37.4568
#
#
#
# Elastic Compliance Matrix: (Units=1/GPa)
#
#
# Indices 1 2 3 4 5 6 
#
# 1 0.020194 0.003526 -0.036005 0.000000 0.000000 0.000000
# 2 0.003526 0.019534 -0.031911 0.000000 0.000000 0.000000
# 3 -0.036005 -0.031911 0.140278 0.000000 0.000000 0.000000
# 4 0.000000 0.000000 0.000000 0.051323 0.000000 0.000000
# 5 0.000000 0.000000 0.000000 0.000000 0.037375 0.000000
# 6 0.000000 0.000000 0.000000 0.000000 0.000000 0.026697
#
#
# Mechanical properties :
#
#
# Convention : Reuss Voigt Hill
#
# Bulk Modulus (GPa) = 19.52177 50.37179 34.94678
# Shear Modulus (GPa) = 11.33126 24.65879 17.99502
#
# Velocity S-wave (km/s) = 2.40653 3.55008 3.03270
# Velocity P-wave (km/s) = 4.20707 6.52297 5.48856
#
# Compressibility (1/GPa) = 0.05122486
#
# Stress axis : x y z
#
# Youngs Moduli (GPa) = 49.51951 51.19271 7.12872
#
# Poissons Ratio (x) = -0.18048 0.25667
# Poissons Ratio (y) = -0.17458 0.22748
# Poissons Ratio (z) = 1.78296 1.63360
#
# Static dielectric constant tensor:
#      x y z
#    x 1.706000 0.000000 0.000000 
#    y 0.000000 1.674530 0.000000 
#    z 0.000000 0.000000 1.674250 
# 
# From -- ./inp_files/4335.got.cif
#   From: 2010.05.17/outbox.cif.g08.bks.cpg/sg36_3_cif.got.tgz:4335.got - 2010.06.03 17:41:39.
