data_PCOD9351010
_publ_section_title
;
Structure prediction by ZEFSAII (Michael W. Deem and Ramdas Pophale) SiO2 
 PCOD9351010
Probable space group: C M C 21
;
_chemical_formula_sum "Si O2"
_cell_formula_units_Z 64
_cell_length_a 8.102788
_cell_length_b 21.966730
_cell_length_c 14.361230
_cell_angle_alpha 90.000000
_cell_angle_beta 90.000000
_cell_angle_gamma 90.000000
_cell_volume 2556.180550
_symmetry_space_group_name_H-M "C M C 21"
_symmetry_group_IT_number 36
_symmetry_cell_setting 'orthorhombic'
loop_
_space_group_symop_operation_xyz
x,y,z
-x,-y,1/2+z
x,-y,1/2+z
-x,y,z
1/2+x,1/2+y,z
1/2-x,1/2-y,1/2+z
1/2+x,1/2-y,1/2+z
1/2-x,1/2+y,z
loop_
_atom_site_type_symbol
_atom_site_label
_atom_site_fract_x
_atom_site_fract_y
_atom_site_fract_z
Si Si1 0.805345 0.278149 0.794120
Si Si2 0.801773 0.537548 0.252685
Si Si3 0.810625 0.848777 0.969139
Si Si4 0.690729 0.026945 0.924698
Si Si5 0.201416 0.605429 0.084051
Si Si6 0.693082 0.088024 0.643033
Si Si7 0.310450 0.735744 0.083790
Si Si8 0.189652 0.142803 0.822428
O O1 0.767063 0.330186 0.869916
O O2 0.716862 0.272591 0.694550
O O3 0.769563 0.212698 0.842064
O O4 0.000000 0.281204 0.772908
O O5 0.731636 0.521479 0.353821
O O6 0.777449 0.478312 0.187105
O O7 0.000000 0.543742 0.264234
O O8 0.744299 0.593186 0.190001
O O9 0.000000 0.862598 0.953675
O O10 0.733916 0.901195 0.034993
O O11 0.792094 0.788507 0.034320
O O12 0.500000 0.010056 0.942067
O O13 0.764056 0.049744 0.020969
O O14 0.696456 0.090987 0.867108
O O15 0.000000 0.605851 0.082041
O O16 0.265933 0.668876 0.046751
O O17 0.500000 0.101755 0.654748
O O18 0.793678 0.132636 0.711018
O O19 0.500000 0.750793 0.064457
O O20 0.000000 0.130752 0.849520
#
# Coordination Sequence:
#
# PCOD9351010 Si02
#       8
#     8   8   8   8   8   8   8   8
#     4  11  23  39  59  87 121 160 202 244 302 365
#     4   8  17  35  58  86 115 149 198 251 298 357
#     4  12  24  39  60  89 124 161 202 246 301 364
#     4   9  18  33  57  85 113 152 201 247 299 354
#     4  10  20  38  61  85 118 157 203 251 301 362
#     4  10  19  35  59  85 115 149 195 245 296 352
#     4  12  25  41  61  88 125 163 203 252 306 363
#     4  10  19  32  55  83 113 147 192 244 295 349
#
# _framework density 25.037354000000001
#
# number of rings (size 3 to 8) (size 9 to 14) (size 15 to 20)
#    0.000    1.750    1.250    4.875    0.000    4.000 
#    2.250    3.125    0.000    0.000    0.000    0.000 
#    0.000    0.000    0.000    0.000    0.000    0.000 
#
# Total GULP energy -178960.330381 kJ/mol
# GULP energy per Si atom -5592.510324 kJ/mol
# Density = 2.498037 g / cm^3
# Si number density = 25.037354 Si / 1000 Ang^3
#
#
#
# Elastic Constant Matrix: (Units=GPa)
#
#
# Indices 1 2 3 4 5 6 
#
# 1 51.7992 7.8524 0.0239 0.0000 0.0000 0.0000
# 2 7.8524 52.7275 7.5141 0.0000 0.0000 0.0000
# 3 0.0239 7.5141 129.8497 0.0000 0.0000 0.0000
# 4 0.0000 0.0000 0.0000 53.3849 0.0000 0.0000
# 5 0.0000 0.0000 0.0000 0.0000 25.6456 0.0000
# 6 0.0000 0.0000 0.0000 0.0000 0.0000 14.1891
#
#
#
# Elastic Compliance Matrix: (Units=1/GPa)
#
#
# Indices 1 2 3 4 5 6 
#
# 1 0.019755 -0.002966 0.000168 0.000000 0.000000 0.000000
# 2 -0.002966 0.019568 -0.001132 0.000000 0.000000 0.000000
# 3 0.000168 -0.001132 0.007767 0.000000 0.000000 0.000000
# 4 0.000000 0.000000 0.000000 0.018732 0.000000 0.000000
# 5 0.000000 0.000000 0.000000 0.000000 0.038993 0.000000
# 6 0.000000 0.000000 0.000000 0.000000 0.000000 0.070477
#
#
# Mechanical properties :
#
#
# Convention : Reuss Voigt Hill
#
# Bulk Modulus (GPa) = 25.49039 29.46189 27.47614
# Shear Modulus (GPa) = 25.48059 33.24297 29.36178
#
# Velocity S-wave (km/s) = 3.19361 3.64776 3.42821
# Velocity P-wave (km/s) = 4.87872 5.43455 5.16411
#
# Compressibility (1/GPa) = 0.03923048
#
# Stress axis : x y z
#
# Youngs Moduli (GPa) = 50.62044 51.10272 128.75519
#
# Poissons Ratio (x) = 0.15157 -0.02163
# Poissons Ratio (y) = 0.15014 0.14573
# Poissons Ratio (z) = -0.00850 0.05784
#
# Static dielectric constant tensor:
#      x y z
#    x 1.859400 0.000000 0.000000 
#    y 0.000000 2.017850 0.000000 
#    z 0.000000 0.000000 2.056810 
# 
# From -- ./inp_files/10962.got.cif
#   From: 2010.05.17/outbox.cif.g08.bks.cpg/sg36_6_cif.got.tgz:10962.got - 2010.06.03 17:41:39.
