data_PCOD9351189
_publ_section_title
;
Structure prediction by ZEFSAII (Michael W. Deem and Ramdas Pophale) SiO2 
 PCOD9351189
Probable space group: C M C 21
;
_chemical_formula_sum "Si O2"
_cell_formula_units_Z 64
_cell_length_a 8.768622
_cell_length_b 23.370616
_cell_length_c 16.320302
_cell_angle_alpha 90.000000
_cell_angle_beta 90.000000
_cell_angle_gamma 90.000000
_cell_volume 3344.488441
_symmetry_space_group_name_H-M "C M C 21"
_symmetry_group_IT_number 36
_symmetry_cell_setting 'orthorhombic'
loop_
_space_group_symop_operation_xyz
x,y,z
-x,-y,1/2+z
x,-y,1/2+z
-x,y,z
1/2+x,1/2+y,z
1/2-x,1/2-y,1/2+z
1/2+x,1/2-y,1/2+z
1/2-x,1/2+y,z
loop_
_atom_site_type_symbol
_atom_site_label
_atom_site_fract_x
_atom_site_fract_y
_atom_site_fract_z
Si Si1 0.317029 0.593603 0.290110
Si Si2 0.824136 0.872083 0.195788
Si Si3 0.673324 0.203526 0.824980
Si Si4 0.320355 0.784914 0.076906
Si Si5 0.177683 0.311221 0.885841
Si Si6 0.683312 0.343680 0.621012
Si Si7 0.182812 0.531950 0.803940
Si Si8 0.677188 0.891200 0.458928
O O1 0.500000 0.596697 0.296910
O O2 0.235590 0.625817 0.365239
O O3 0.269674 0.626634 0.206241
O O4 0.262594 0.528385 0.290518
O O5 0.795662 0.824802 0.265979
O O6 0.762856 0.838977 0.116950
O O7 0.729488 0.925682 0.230054
O O8 0.000000 0.887679 0.187919
O O9 0.500000 0.195118 0.794337
O O10 0.713177 0.269052 0.835535
O O11 0.683810 0.169000 0.909895
O O12 0.500000 0.788113 0.097641
O O13 0.263503 0.722412 0.107792
O O14 0.307079 0.791881 0.979612
O O15 0.000000 0.304875 0.863071
O O16 0.500000 0.341417 0.620360
O O17 0.735557 0.381776 0.543469
O O18 0.229688 0.562571 0.890390
O O19 0.000000 0.526411 0.805976
O O20 0.500000 0.903500 0.476909
#
# Coordination Sequence:
#
# PCOD9351189 Si02
#       8
#     8   8   8   8   8   8   8   8
#     4  11  24  41  61  88 122 164 205 251 307 361
#     4  11  22  36  60  90 117 153 200 247 299 359
#     4  10  19  34  57  86 121 156 192 241 300 357
#     4  10  21  38  59  89 126 159 194 244 305 365
#     4  11  22  37  60  88 120 160 201 246 303 361
#     4  10  21  38  61  89 122 156 195 245 303 359
#     4  10  22  43  64  85 117 158 204 253 303 359
#     4   9  19  35  60  89 115 150 195 243 298 353
#
# _framework density 19.135960000000001
#
# number of rings (size 3 to 8) (size 9 to 14) (size 15 to 20)
#    0.000    1.750    1.250    4.125    0.000    6.000 
#    2.250    0.000    0.000    0.000    0.000    0.000 
#    0.000    0.000    0.000    0.000    0.000    0.000 
#
# Total GULP energy -178576.785165 kJ/mol
# GULP energy per Si atom -5580.524536 kJ/mol
# Density = 1.909241 g / cm^3
# Si number density = 19.135960 Si / 1000 Ang^3
#
#
#
# Elastic Constant Matrix: (Units=GPa)
#
#
# Indices 1 2 3 4 5 6 
#
# 1 46.7111 20.8739 25.0401 0.0000 0.0000 0.0000
# 2 20.8739 110.9109 34.0437 0.0000 0.0000 0.0000
# 3 25.0401 34.0437 58.7650 0.0000 0.0000 0.0000
# 4 0.0000 0.0000 0.0000 23.9552 0.0000 0.0000
# 5 0.0000 0.0000 0.0000 0.0000 27.7140 0.0000
# 6 0.0000 0.0000 0.0000 0.0000 0.0000 33.8189
#
#
#
# Elastic Compliance Matrix: (Units=1/GPa)
#
#
# Indices 1 2 3 4 5 6 
#
# 1 0.028093 -0.001962 -0.010834 0.000000 0.000000 0.000000
# 2 -0.001962 0.011103 -0.005596 0.000000 0.000000 0.000000
# 3 -0.010834 -0.005596 0.024875 0.000000 0.000000 0.000000
# 4 0.000000 0.000000 0.000000 0.041745 0.000000 0.000000
# 5 0.000000 0.000000 0.000000 0.000000 0.036083 0.000000
# 6 0.000000 0.000000 0.000000 0.000000 0.000000 0.029569
#
#
# Mechanical properties :
#
#
# Convention : Reuss Voigt Hill
#
# Bulk Modulus (GPa) = 36.64737 41.81137 39.22937
# Shear Modulus (GPa) = 23.00461 26.19292 24.59876
#
# Velocity S-wave (km/s) = 3.47099 3.70372 3.58924
# Velocity P-wave (km/s) = 5.93770 6.33933 6.14180
#
# Compressibility (1/GPa) = 0.02728709
#
# Stress axis : x y z
#
# Youngs Moduli (GPa) = 35.59666 90.06376 40.20024
#
# Poissons Ratio (x) = 0.17668 0.43553
# Poissons Ratio (y) = 0.06983 0.22498
# Poissons Ratio (z) = 0.38565 0.50404
#
# Static dielectric constant tensor:
#      x y z
#    x 1.645390 0.000000 0.000000 
#    y 0.000000 1.652250 0.000000 
#    z 0.000000 0.000000 1.702210 
# 
# From -- ./inp_files/14059.got.cif
#   From: 2010.05.17/outbox.cif.g08.bks.cpg/sg36_8_cif.got.tgz:14059.got - 2010.06.03 17:41:39.
