data_PCOD9351714
_publ_section_title
;
Structure prediction by ZEFSAII (Michael W. Deem and Ramdas Pophale) SiO2 
 PCOD9351714
Probable space group: C M C 21
;
_chemical_formula_sum "Si O2"
_cell_formula_units_Z 64
_cell_length_a 8.201244
_cell_length_b 15.008519
_cell_length_c 23.982782
_cell_angle_alpha 90.000000
_cell_angle_beta 90.000000
_cell_angle_gamma 90.000000
_cell_volume 2952.005295
_symmetry_space_group_name_H-M "C M C 21"
_symmetry_group_IT_number 36
_symmetry_cell_setting 'orthorhombic'
loop_
_space_group_symop_operation_xyz
x,y,z
-x,-y,1/2+z
x,-y,1/2+z
-x,y,z
1/2+x,1/2+y,z
1/2-x,1/2-y,1/2+z
1/2+x,1/2-y,1/2+z
1/2-x,1/2+y,z
loop_
_atom_site_type_symbol
_atom_site_label
_atom_site_fract_x
_atom_site_fract_y
_atom_site_fract_z
Si Si1 0.308745 0.243667 0.036510
Si Si2 0.692471 0.108812 0.613559
Si Si3 0.301877 0.307711 0.922158
Si Si4 0.302764 0.653095 0.300872
Si Si5 0.306122 0.047479 0.824205
Si Si6 0.695637 0.512944 0.944208
Si Si7 0.800537 0.686684 0.731365
Si Si8 0.807938 0.065397 0.066902
O O1 0.500000 0.223684 0.035106
O O2 0.282080 0.340241 0.063490
O O3 0.223230 0.169735 0.074384
O O4 0.241627 0.247284 0.973083
O O5 0.500000 0.125263 0.608034
O O6 0.751984 0.150509 0.671569
O O7 0.724579 0.003808 0.608280
O O8 0.500000 0.302159 0.923677
O O9 0.252503 0.295942 0.858147
O O10 0.255970 0.409656 0.936377
O O11 0.500000 0.648604 0.301378
O O12 0.241618 0.552290 0.304976
O O13 0.250555 0.713743 0.249045
O O14 0.500000 0.053804 0.824736
O O15 0.249870 0.061583 0.887819
O O16 0.244286 0.118951 0.779607
O O17 0.500000 0.516040 0.945674
O O18 0.756276 0.546598 0.003900
O O19 0.000000 0.685457 0.731124
O O20 0.000000 0.047714 0.068819
#
# Coordination Sequence:
#
# PCOD9351714 Si02
#       8
#     8   8   8   8   8   8   8   8
#     4  11  22  38  60  90 120 156 198 244 298 355
#     4  11  23  42  62  86 119 159 203 249 295 348
#     4   8  15  31  57  82 112 149 186 228 286 348
#     4   9  18  37  59  81 113 156 190 228 287 352
#     4  10  20  35  57  88 118 147 189 243 292 341
#     4   9  18  36  58  82 118 156 190 236 292 353
#     4   9  21  39  61  84 114 154 197 238 285 349
#     4  11  23  40  60  87 120 159 201 246 297 354
#
# _framework density 21.680177
#
# number of rings (size 3 to 8) (size 9 to 14) (size 15 to 20)
#    0.000    2.250    1.250    2.250    1.750    2.000 
#    0.000    8.125    0.000    0.000    0.000    0.000 
#    0.000    0.000    0.000    0.000    0.000    0.000 
#
# Total GULP energy -178680.862498 kJ/mol
# GULP energy per Si atom -5583.776953 kJ/mol
# Density = 2.163083 g / cm^3
# Si number density = 21.680177 Si / 1000 Ang^3
#
#
#
# Elastic Constant Matrix: (Units=GPa)
#
#
# Indices 1 2 3 4 5 6 
#
# 1 23.7534 -5.3199 2.2200 0.0000 0.0000 0.0000
# 2 -5.3199 42.0090 -11.6573 0.0000 0.0000 0.0000
# 3 2.2200 -11.6573 37.9618 0.0000 0.0000 0.0000
# 4 0.0000 0.0000 0.0000 28.2101 0.0000 0.0000
# 5 0.0000 0.0000 0.0000 0.0000 20.3221 0.0000
# 6 0.0000 0.0000 0.0000 0.0000 0.0000 20.3854
#
#
#
# Elastic Compliance Matrix: (Units=1/GPa)
#
#
# Indices 1 2 3 4 5 6 
#
# 1 0.043358 0.005233 -0.000929 0.000000 0.000000 0.000000
# 2 0.005233 0.026653 0.007879 0.000000 0.000000 0.000000
# 3 -0.000929 0.007879 0.028816 0.000000 0.000000 0.000000
# 4 0.000000 0.000000 0.000000 0.035448 0.000000 0.000000
# 5 0.000000 0.000000 0.000000 0.000000 0.049208 0.000000
# 6 0.000000 0.000000 0.000000 0.000000 0.000000 0.049055
#
#
# Mechanical properties :
#
#
# Convention : Reuss Voigt Hill
#
# Bulk Modulus (GPa) = 8.11729 8.24553 8.18141
# Shear Modulus (GPa) = 20.06129 21.68228 20.87179
#
# Velocity S-wave (km/s) = 3.04522 3.16586 3.10613
# Velocity P-wave (km/s) = 4.01457 4.14428 4.07994
#
# Compressibility (1/GPa) = 0.12319378
#
# Stress axis : x y z
#
# Youngs Moduli (GPa) = 23.06379 37.51861 34.70300
#
# Poissons Ratio (x) = -0.19634 0.03222
# Poissons Ratio (y) = -0.12069 -0.27341
# Poissons Ratio (z) = 0.02142 -0.29560
#
# Static dielectric constant tensor:
#      x y z
#    x 1.751470 0.000000 0.000000 
#    y 0.000000 1.797840 0.000000 
#    z 0.000000 0.000000 1.803300 
# 
# From -- ./inp_files/16661.got.cif
#   From: 2010.05.17/outbox.cif.g08.bks.cpg/sg36_9_cif.got.tgz:16661.got - 2010.06.03 17:41:39.
