data_PCOD9351008
_publ_section_title
;
Structure prediction by ZEFSAII (Michael W. Deem and Ramdas Pophale) SiO2 
 PCOD9351008
Probable space group: C M C 21
;
_chemical_formula_sum "Si O2"
_cell_formula_units_Z 64
_cell_length_a 9.068791
_cell_length_b 20.506361
_cell_length_c 20.077795
_cell_angle_alpha 90.000000
_cell_angle_beta 90.000000
_cell_angle_gamma 90.000000
_cell_volume 3733.825415
_symmetry_space_group_name_H-M "C M C 21"
_symmetry_group_IT_number 36
_symmetry_cell_setting 'orthorhombic'
loop_
_space_group_symop_operation_xyz
x,y,z
-x,-y,1/2+z
x,-y,1/2+z
-x,y,z
1/2+x,1/2+y,z
1/2-x,1/2-y,1/2+z
1/2+x,1/2-y,1/2+z
1/2-x,1/2+y,z
loop_
_atom_site_type_symbol
_atom_site_label
_atom_site_fract_x
_atom_site_fract_y
_atom_site_fract_z
Si Si1 0.176854 0.660566 0.710910
Si Si2 0.822942 0.674911 0.556304
Si Si3 0.325141 0.048277 0.473258
Si Si4 0.176858 0.775504 0.812962
Si Si5 0.823396 0.720785 0.959972
Si Si6 0.675360 0.416695 0.442068
Si Si7 0.174684 0.587286 0.319619
Si Si8 0.324484 0.454820 0.288499
O O1 0.211449 0.676032 0.634407
O O2 0.216953 0.720531 0.759195
O O3 0.257105 0.596080 0.736845
O O4 0.000000 0.650900 0.716395
O O5 0.783811 0.604467 0.525183
O O6 0.741652 0.730795 0.515008
O O7 0.000000 0.682788 0.547890
O O8 0.500000 0.034811 0.479329
O O9 0.299776 0.076791 0.398975
O O10 0.236500 0.981146 0.478236
O O11 0.214914 0.749428 0.886780
O O12 0.256240 0.843773 0.800259
O O13 0.000000 0.784924 0.810687
O O14 0.754454 0.649015 0.965052
O O15 0.000000 0.717348 0.964536
O O16 0.500000 0.411338 0.450104
O O17 0.707502 0.427847 0.363262
O O18 0.250981 0.525832 0.284414
O O19 0.000000 0.586397 0.308150
O O20 0.500000 0.459898 0.281586
#
# Coordination Sequence:
#
# PCOD9351008 Si02
#       8
#     8   8   8   8   8   8   8   8
#     4  10  21  38  58  80 112 151 187 226 279 338
#     4  10  21  38  58  81 112 149 187 228 278 337
#     4   9  18  33  53  79 108 138 176 223 273 324
#     4  10  20  34  54  82 112 144 182 227 277 326
#     4  11  21  34  56  83 113 146 183 231 278 328
#     4  10  20  33  54  82 110 140 179 227 275 323
#     4  10  19  32  55  82 109 140 179 227 274 322
#     4  10  20  34  54  81 112 142 179 229 276 328
#
# _framework density 17.140597
#
# number of rings (size 3 to 8) (size 9 to 14) (size 15 to 20)
#    0.000    2.000    2.500    1.500    0.000    3.500 
#    0.000    1.250    0.000    0.000    0.000    0.000 
#    0.000    0.000    0.000    0.000    0.000    0.000 
#
# Total GULP energy -178656.553166 kJ/mol
# GULP energy per Si atom -5583.017286 kJ/mol
# Density = 1.710158 g / cm^3
# Si number density = 17.140597 Si / 1000 Ang^3
#
#
#
# Elastic Constant Matrix: (Units=GPa)
#
#
# Indices 1 2 3 4 5 6 
#
# 1 36.7580 55.4270 38.1392 0.0000 0.0000 0.0000
# 2 55.4270 149.5608 55.8689 0.0000 0.0000 0.0000
# 3 38.1392 55.8689 81.8888 0.0000 0.0000 0.0000
# 4 0.0000 0.0000 0.0000 24.8474 0.0000 0.0000
# 5 0.0000 0.0000 0.0000 0.0000 20.0395 0.0000
# 6 0.0000 0.0000 0.0000 0.0000 0.0000 35.7736
#
#
#
# Elastic Compliance Matrix: (Units=1/GPa)
#
#
# Indices 1 2 3 4 5 6 
#
# 1 0.089004 -0.023485 -0.025430 0.000000 0.000000 0.000000
# 2 -0.023485 0.015170 0.000588 0.000000 0.000000 0.000000
# 3 -0.025430 0.000588 0.023654 0.000000 0.000000 0.000000
# 4 0.000000 0.000000 0.000000 0.040246 0.000000 0.000000
# 5 0.000000 0.000000 0.000000 0.000000 0.049901 0.000000
# 6 0.000000 0.000000 0.000000 0.000000 0.000000 0.027954
#
#
# Mechanical properties :
#
#
# Convention : Reuss Voigt Hill
#
# Bulk Modulus (GPa) = 32.07798 63.00865 47.54332
# Shear Modulus (GPa) = 14.16533 24.05026 19.10780
#
# Velocity S-wave (km/s) = 2.87787 3.74988 3.34244
# Velocity P-wave (km/s) = 5.45876 7.45577 6.53401
#
# Compressibility (1/GPa) = 0.03117403
#
# Stress axis : x y z
#
# Youngs Moduli (GPa) = 11.23547 65.91922 42.27563
#
# Poissons Ratio (x) = 1.54813 1.07508
# Poissons Ratio (y) = 0.26387 -0.02487
# Poissons Ratio (z) = 0.28572 -0.03878
#
# Static dielectric constant tensor:
#      x y z
#    x 1.567350 0.000000 0.000000 
#    y 0.000000 1.553110 0.000000 
#    z 0.000000 0.000000 1.566180 
# 
# From -- ./inp_files/13890.got.cif
#   From: 2010.05.17/outbox.cif.g08.bks.cpg/sg36_7_cif.got.tgz:13890.got - 2010.06.03 17:41:39.
