data_PCOD9351569
_publ_section_title
;
Structure prediction by ZEFSAII (Michael W. Deem and Ramdas Pophale) SiO2 
 PCOD9351569
Probable space group: C M C 21
;
_chemical_formula_sum "Si O2"
_cell_formula_units_Z 48
_cell_length_a 17.958962
_cell_length_b 9.313235
_cell_length_c 14.016346
_cell_angle_alpha 90.000000
_cell_angle_beta 90.000000
_cell_angle_gamma 90.000000
_cell_volume 2344.318436
_symmetry_space_group_name_H-M "C M C 21"
_symmetry_group_IT_number 36
_symmetry_cell_setting 'orthorhombic'
loop_
_space_group_symop_operation_xyz
x,y,z
-x,-y,1/2+z
x,-y,1/2+z
-x,y,z
1/2+x,1/2+y,z
1/2-x,1/2-y,1/2+z
1/2+x,1/2-y,1/2+z
1/2-x,1/2+y,z
loop_
_atom_site_type_symbol
_atom_site_label
_atom_site_fract_x
_atom_site_fract_y
_atom_site_fract_z
Si Si1 0.417879 0.084775 0.021620
Si Si2 0.641122 0.663396 0.157296
Si Si3 0.919142 0.446537 0.231248
Si Si4 0.147089 0.136133 0.605260
Si Si5 0.796343 0.642293 0.487994
Si Si6 0.292387 0.164106 0.272288
O O1 0.500000 0.072431 0.978213
O O2 0.396886 0.249117 0.041569
O O3 0.422371 0.011644 0.125274
O O4 0.350557 0.995077 0.976505
O O5 0.594573 0.777504 0.218467
O O6 0.606257 0.511214 0.130478
O O7 0.715399 0.630409 0.218726
O O8 0.664570 0.744157 0.059340
O O9 0.847423 0.527218 0.271956
O O10 0.000000 0.477373 0.274865
O O11 0.221711 0.099637 0.545032
O O12 0.170086 0.215983 0.703929
O O13 0.780972 0.704521 0.382779
#
# Coordination Sequence:
#
# PCOD9351569 Si02
#       6
#     8   8   8   8   8   8
#     4   9  19  36  56  78 107 144 183 223 271 331
#     4  10  20  34  54  83 114 143 184 233 282 334
#     4   9  19  36  56  78 107 144 183 223 271 331
#     4  10  20  34  54  83 114 143 184 233 282 334
#     4  10  20  35  55  79 111 151 190 229 275 332
#     4  10  20  35  55  79 111 151 190 229 275 332
#
# _framework density 20.475035999999999
#
# number of rings (size 3 to 8) (size 9 to 14) (size 15 to 20)
#    0.000    2.333    0.000    5.000    0.000    6.667 
#    0.000    0.000    0.000    0.000    0.000    4.667 
#    0.000    0.000    0.000    0.000    0.000    0.000 
#
# Total GULP energy -133819.007123 kJ/mol
# GULP energy per Si atom -5575.791963 kJ/mol
# Density = 2.042843 g / cm^3
# Si number density = 20.475036 Si / 1000 Ang^3
#
#
#
# Elastic Constant Matrix: (Units=GPa)
#
#
# Indices 1 2 3 4 5 6 
#
# 1 78.2750 31.2305 0.6937 0.0000 0.0000 0.0000
# 2 31.2305 107.6531 -16.6611 0.0000 0.0000 0.0000
# 3 0.6937 -16.6611 63.9008 0.0000 0.0000 0.0000
# 4 0.0000 0.0000 0.0000 10.0543 0.0000 0.0000
# 5 0.0000 0.0000 0.0000 0.0000-5875.6738 0.0000
# 6 0.0000 0.0000 0.0000 0.0000 0.0000 -0.6334
#
#
#
# Elastic Compliance Matrix: (Units=1/GPa)
#
#
# Indices 1 2 3 4 5 6 
#
# 1 0.014552 -0.004425 -0.001312 0.000000 0.000000 0.000000
# 2 -0.004425 0.011025 0.002923 0.000000 0.000000 0.000000
# 3 -0.001312 0.002923 0.016426 0.000000 0.000000 0.000000
# 4 0.000000 0.000000 0.000000 0.099460 0.000000 0.000000
# 5 0.000000 0.000000 0.000000 0.000000 -0.000170 0.000000
# 6 0.000000 0.000000 0.000000 0.000000 0.000000 -1.578671
#
#
# Mechanical properties :
#
#
# Convention : Reuss Voigt Hill
#
# Bulk Modulus (GPa) = 27.49098 31.15058 29.32078
# Shear Modulus (GPa) = -3.52206 -1157.61288 -580.56747
#
# Velocity S-wave (km/s) = -1.31298 -23.80347 -16.85718
# Velocity P-wave (km/s) = 3.34024 27.20710 19.09279
#
# Compressibility (1/GPa) = 0.03637557
#
# Stress axis : x y z
#
# Youngs Moduli (GPa) = 68.71672 90.70253 60.88085
#
# Poissons Ratio (x) = 0.40133 0.07985
# Poissons Ratio (y) = 0.30405 -0.17793
# Poissons Ratio (z) = 0.09013 -0.26509
#
# Static dielectric constant tensor:
#      x y z
#    x 1.741400 0.000000 0.000000 
#    y 0.000000 1.748620 0.000000 
#    z 0.000000 0.000000 1.743720 
# 
# From -- ./inp_files/12764.got.cif
#   From: 2010.05.17/outbox.cif.g08.bks.cpg/sg36_7_cif.got.tgz:12764.got - 2010.06.03 17:41:39.
