data_PCOD9351936
_publ_section_title
;
Structure prediction by ZEFSAII (Michael W. Deem and Ramdas Pophale) SiO2 
 PCOD9351936
Probable space group: C M C 21
;
_chemical_formula_sum "Si O2"
_cell_formula_units_Z 64
_cell_length_a 9.399336
_cell_length_b 24.519230
_cell_length_c 14.231500
_cell_angle_alpha 90.000000
_cell_angle_beta 90.000000
_cell_angle_gamma 90.000000
_cell_volume 3279.855265
_symmetry_space_group_name_H-M "C M C 21"
_symmetry_group_IT_number 36
_symmetry_cell_setting 'orthorhombic'
loop_
_space_group_symop_operation_xyz
x,y,z
-x,-y,1/2+z
x,-y,1/2+z
-x,y,z
1/2+x,1/2+y,z
1/2-x,1/2-y,1/2+z
1/2+x,1/2-y,1/2+z
1/2-x,1/2+y,z
loop_
_atom_site_type_symbol
_atom_site_label
_atom_site_fract_x
_atom_site_fract_y
_atom_site_fract_z
Si Si1 0.335493 0.638088 0.365290
Si Si2 0.328292 0.426160 0.690290
Si Si3 0.334912 0.547594 0.692616
Si Si4 0.335799 0.074996 0.996090
Si Si5 0.157446 0.976788 0.969819
Si Si6 0.671397 0.160527 0.707404
Si Si7 0.829541 0.285249 0.006892
Si Si8 0.833991 0.307312 0.409463
O O1 0.500000 0.657924 0.365995
O O2 0.290725 0.623154 0.259764
O O3 0.334570 0.578952 0.413953
O O4 0.234641 0.676268 0.425478
O O5 0.500000 0.427036 0.681482
O O6 0.289707 0.487182 0.727701
O O7 0.255254 0.418420 0.590573
O O8 0.500000 0.556692 0.719511
O O9 0.329458 0.539369 0.579466
O O10 0.243686 0.601017 0.714751
O O11 0.500000 0.066275 0.020561
O O12 0.323795 0.129094 0.935011
O O13 0.273364 0.021745 0.946092
O O14 0.000000 0.000971 0.955628
O O15 0.500000 0.153595 0.708252
O O16 0.710632 0.189946 0.609090
O O17 0.708205 0.196306 0.799595
O O18 0.760548 0.227371 0.980868
O O19 0.000000 0.282984 0.003081
O O20 0.000000 0.291185 0.418992
#
# Coordination Sequence:
#
# PCOD9351936 Si02
#       8
#     8   8   8   8   8   8   8   8
#     4  10  20  37  60  85 118 161 197 234 289 350
#     4   9  20  36  56  86 123 162 200 236 287 354
#     4   9  17  32  55  85 117 150 194 238 280 338
#     4  10  21  37  57  84 119 155 195 245 296 343
#     4   9  18  33  56  84 117 155 193 233 285 349
#     4  10  22  40  60  84 114 149 190 240 294 349
#     4  11  24  41  62  89 117 148 197 252 296 344
#     4  10  24  44  62  83 115 158 200 238 295 359
#
# _framework density 19.513055999999999
#
# number of rings (size 3 to 8) (size 9 to 14) (size 15 to 20)
#    0.000    2.250    1.250    1.500    1.750    6.000 
#    0.000    3.750    0.000    0.000    0.000    0.000 
#    0.000    0.000    0.000    0.000    0.000    0.000 
#
# Total GULP energy -178560.232421 kJ/mol
# GULP energy per Si atom -5580.007263 kJ/mol
# Density = 1.946864 g / cm^3
# Si number density = 19.513056 Si / 1000 Ang^3
#
#
#
# Elastic Constant Matrix: (Units=GPa)
#
#
# Indices 1 2 3 4 5 6 
#
# 1 45.2671 25.1660 21.9929 0.0000 0.0000 0.0000
# 2 25.1660 52.9573 5.2183 0.0000 0.0000 0.0000
# 3 21.9929 5.2183 55.3293 0.0000 0.0000 0.0000
# 4 0.0000 0.0000 0.0000 20.5392 0.0000 0.0000
# 5 0.0000 0.0000 0.0000 0.0000 18.3437 0.0000
# 6 0.0000 0.0000 0.0000 0.0000 0.0000 37.3171
#
#
#
# Elastic Compliance Matrix: (Units=1/GPa)
#
#
# Indices 1 2 3 4 5 6 
#
# 1 0.037934 -0.016696 -0.013504 0.000000 0.000000 0.000000
# 2 -0.016696 0.026409 0.004146 0.000000 0.000000 0.000000
# 3 -0.013504 0.004146 0.023050 0.000000 0.000000 0.000000
# 4 0.000000 0.000000 0.000000 0.048687 0.000000 0.000000
# 5 0.000000 0.000000 0.000000 0.000000 0.054515 0.000000
# 6 0.000000 0.000000 0.000000 0.000000 0.000000 0.026797
#
#
# Mechanical properties :
#
#
# Convention : Reuss Voigt Hill
#
# Bulk Modulus (GPa) = 28.34062 28.70088 28.52075
# Shear Modulus (GPa) = 17.77699 21.98509 19.88104
#
# Velocity S-wave (km/s) = 3.02160 3.36026 3.19542
# Velocity P-wave (km/s) = 5.17000 5.45853 5.31622
#
# Compressibility (1/GPa) = 0.03528504
#
# Stress axis : x y z
#
# Youngs Moduli (GPa) = 26.36154 37.86608 43.38348
#
# Poissons Ratio (x) = 0.63222 0.58584
# Poissons Ratio (y) = 0.44014 -0.17986
# Poissons Ratio (z) = 0.35598 -0.15699
#
# Static dielectric constant tensor:
#      x y z
#    x 1.655020 0.000000 0.000000 
#    y 0.000000 1.686830 0.000000 
#    z 0.000000 0.000000 1.722090 
# 
# From -- ./inp_files/10933.got.cif
#   From: 2010.05.17/outbox.cif.g08.bks.cpg/sg36_6_cif.got.tgz:10933.got - 2010.06.03 17:41:39.
