data_PCOD9351655
_publ_section_title
;
Structure prediction by ZEFSAII (Michael W. Deem and Ramdas Pophale) SiO2 
 PCOD9351655
Probable space group: C M C 21
;
_chemical_formula_sum "Si O2"
_cell_formula_units_Z 64
_cell_length_a 7.761174
_cell_length_b 16.645555
_cell_length_c 19.768585
_cell_angle_alpha 90.000000
_cell_angle_beta 90.000000
_cell_angle_gamma 90.000000
_cell_volume 2553.884690
_symmetry_space_group_name_H-M "C M C 21"
_symmetry_group_IT_number 36
_symmetry_cell_setting 'orthorhombic'
loop_
_space_group_symop_operation_xyz
x,y,z
-x,-y,1/2+z
x,-y,1/2+z
-x,y,z
1/2+x,1/2+y,z
1/2-x,1/2-y,1/2+z
1/2+x,1/2-y,1/2+z
1/2-x,1/2+y,z
loop_
_atom_site_type_symbol
_atom_site_label
_atom_site_fract_x
_atom_site_fract_y
_atom_site_fract_z
Si Si1 0.794565 0.160766 0.413750
Si Si2 0.801846 0.401405 0.362290
Si Si3 0.790979 0.159766 0.662456
Si Si4 0.195588 0.744384 0.284208
Si Si5 0.292333 0.754200 0.537422
Si Si6 0.207114 0.003468 0.241067
Si Si7 0.206063 0.001773 0.486245
Si Si8 0.704243 0.584595 0.114746
O O1 0.765737 0.177932 0.335158
O O2 0.732119 0.233554 0.462017
O O3 0.724061 0.079640 0.447278
O O4 0.000000 0.157292 0.421298
O O5 0.703207 0.328477 0.326488
O O6 0.785740 0.478792 0.312694
O O7 0.737172 0.427833 0.435340
O O8 0.000000 0.375831 0.366933
O O9 0.720958 0.228622 0.713407
O O10 0.744238 0.179370 0.586009
O O11 0.749868 0.073924 0.693777
O O12 0.000000 0.163659 0.664905
O O13 0.000000 0.722614 0.270853
O O14 0.500000 0.761544 0.535745
O O15 0.227938 0.831530 0.577103
O O16 0.000000 0.008270 0.252758
O O17 0.267953 0.075413 0.191963
O O18 0.000000 0.012150 0.493744
O O19 0.275829 0.979434 0.560087
O O20 0.500000 0.568934 0.120667
#
# Coordination Sequence:
#
# PCOD9351655 Si02
#       8
#     8   8   8   8   8   8   8   8
#     4  10  21  36  56  81 108 141 181 226 273 322
#     4  11  22  36  56  83 113 145 184 227 272 324
#     4   8  16  33  56  77  99 135 178 214 256 314
#     4  10  20  36  58  81 109 145 181 221 271 326
#     4  10  20  35  55  79 108 140 176 222 273 323
#     4   9  18  36  59  80 105 141 184 225 269 324
#     4  10  21  38  58  80 110 147 185 227 276 327
#     4  10  21  36  56  81 108 142 183 224 270 328
#
# _framework density 25.059861000000001
#
# number of rings (size 3 to 8) (size 9 to 14) (size 15 to 20)
#    0.000    2.250    0.000    3.750    0.000    8.000 
#    0.000    5.625    0.000    4.500    0.000    0.000 
#    0.000    0.000    0.000    0.000    0.000    0.000 
#
# Total GULP energy -178822.476585 kJ/mol
# GULP energy per Si atom -5588.202393 kJ/mol
# Density = 2.500282 g / cm^3
# Si number density = 25.059861 Si / 1000 Ang^3
#
#
#
# Elastic Constant Matrix: (Units=GPa)
#
#
# Indices 1 2 3 4 5 6 
#
# 1 40.4571 -5.1272 -3.4319 0.0000 0.0000 0.0000
# 2 -5.1272 58.3031 -5.1411 0.0000 0.0000 0.0000
# 3 -3.4319 -5.1411 115.9847 0.0000 0.0000 0.0000
# 4 0.0000 0.0000 0.0000 35.9568 0.0000 0.0000
# 5 0.0000 0.0000 0.0000 0.0000 14.1692 0.0000
# 6 0.0000 0.0000 0.0000 0.0000 0.0000 7.0098
#
#
#
# Elastic Compliance Matrix: (Units=1/GPa)
#
#
# Indices 1 2 3 4 5 6 
#
# 1 0.025078 0.002280 0.000843 0.000000 0.000000 0.000000
# 2 0.002280 0.017426 0.000840 0.000000 0.000000 0.000000
# 3 0.000843 0.000840 0.008684 0.000000 0.000000 0.000000
# 4 0.000000 0.000000 0.000000 0.027811 0.000000 0.000000
# 5 0.000000 0.000000 0.000000 0.000000 0.070576 0.000000
# 6 0.000000 0.000000 0.000000 0.000000 0.000000 0.142658
#
#
# Mechanical properties :
#
#
# Convention : Reuss Voigt Hill
#
# Bulk Modulus (GPa) = 16.91656 20.81605 18.86631
# Shear Modulus (GPa) = 16.44671 26.65683 21.55177
#
# Velocity S-wave (km/s) = 2.56461 3.26502 2.93578
# Velocity P-wave (km/s) = 3.94141 4.74746 4.36309
#
# Compressibility (1/GPa) = 0.05911366
#
# Stress axis : x y z
#
# Youngs Moduli (GPa) = 39.87562 57.38456 115.15426
#
# Poissons Ratio (x) = -0.13082 -0.09708
# Poissons Ratio (y) = -0.09091 -0.09672
# Poissons Ratio (z) = -0.03362 -0.04820
#
# Static dielectric constant tensor:
#      x y z
#    x 1.916660 0.000000 0.000000 
#    y 0.000000 2.067950 0.000000 
#    z 0.000000 0.000000 2.001890 
# 
# From -- ./inp_files/15669.got.cif
#   From: 2010.05.17/outbox.cif.g08.bks.cpg/sg36_8_cif.got.tgz:15669.got - 2010.06.03 17:41:39.
