data_PCOD9351422
_publ_section_title
;
Structure prediction by ZEFSAII (Michael W. Deem and Ramdas Pophale) SiO2 
 PCOD9351422
Probable space group: C M C 21
;
_chemical_formula_sum "Si O2"
_cell_formula_units_Z 56
_cell_length_a 16.389368
_cell_length_b 19.511345
_cell_length_c 7.285272
_cell_angle_alpha 90.000000
_cell_angle_beta 90.000000
_cell_angle_gamma 90.000000
_cell_volume 2329.674178
_symmetry_space_group_name_H-M "C M C 21"
_symmetry_group_IT_number 36
_symmetry_cell_setting 'orthorhombic'
loop_
_space_group_symop_operation_xyz
x,y,z
-x,-y,1/2+z
x,-y,1/2+z
-x,y,z
1/2+x,1/2+y,z
1/2-x,1/2-y,1/2+z
1/2+x,1/2-y,1/2+z
1/2-x,1/2+y,z
loop_
_atom_site_type_symbol
_atom_site_label
_atom_site_fract_x
_atom_site_fract_y
_atom_site_fract_z
Si Si1 0.853553 0.356736 0.076750
Si Si2 0.667745 0.417317 0.616711
Si Si3 0.179814 0.184674 0.682327
Si Si4 0.500000 0.946212 0.012941
Si Si5 0.000000 0.398459 0.590144
Si Si6 0.593940 0.445355 0.229859
Si Si7 0.093870 0.790693 0.571328
Si Si8 0.670965 0.159470 0.135814
O O1 0.766770 0.353163 0.175594
O O2 0.916739 0.418458 0.105131
O O3 0.897853 0.286768 0.135175
O O4 0.834489 0.351677 0.857491
O O5 0.609624 0.425720 0.440233
O O6 0.654262 0.489969 0.709256
O O7 0.631575 0.347696 0.705645
O O8 0.760261 0.395361 0.577349
O O9 0.118739 0.123575 0.620710
O O10 0.189021 0.260233 0.592976
O O11 0.146482 0.204577 0.884109
O O12 0.500000 0.027313 0.999611
O O13 0.500000 0.913336 0.809933
O O14 0.917050 0.358089 0.553419
O O15 0.500000 0.463956 0.195219
O O16 0.000000 0.804246 0.531148
#
# Coordination Sequence:
#
# PCOD9351422 Si02
#       8
#     8   8   8   4   4   8   8   8
#     4  10  20  38  62  96 121 163 213 257 312 369
#     4  11  23  41  63  94 126 164 215 255 316 372
#     4  10  21  37  63  92 122 157 218 252 306 376
#     4  10  22  42  62  90 127 168 210 253 312 379
#     4  10  24  42  66  88 129 170 210 255 312 379
#     4  11  25  42  66  93 126 170 207 261 317 380
#     4  10  19  39  66  89 123 169 208 253 315 379
#     4  10  23  39  64  93 123 170 207 261 314 368
#
# _framework density 24.037696
#
# number of rings (size 3 to 8) (size 9 to 14) (size 15 to 20)
#    0.000    1.714    2.143    2.571    8.000    1.143 
#    2.571    0.000    0.000    0.000   11.143    0.000 
#    0.000    0.000    0.000    0.000    0.000    0.000 
#
# Total GULP energy -156311.419896 kJ/mol
# GULP energy per Si atom -5582.550711 kJ/mol
# Density = 2.398299 g / cm^3
# Si number density = 24.037696 Si / 1000 Ang^3
#
#
#
# Elastic Constant Matrix: (Units=GPa)
#
#
# Indices 1 2 3 4 5 6 
#
# 1 170.3666 42.4383 6.4531 0.0000 0.0000 0.0000
# 2 42.4383 129.8196 2.2968 0.0000 0.0000 0.0000
# 3 6.4531 2.2968 44.1988 0.0000 0.0000 0.0000
# 4 0.0000 0.0000 0.0000 17.0065 0.0000 0.0000
# 5 0.0000 0.0000 0.0000 0.0000 18.2931 0.0000
# 6 0.0000 0.0000 0.0000 0.0000 0.0000 -424.0347
#
#
#
# Elastic Compliance Matrix: (Units=1/GPa)
#
#
# Indices 1 2 3 4 5 6 
#
# 1 0.006420 -0.002084 -0.000829 0.000000 0.000000 0.000000
# 2 -0.002084 0.008387 -0.000132 0.000000 0.000000 0.000000
# 3 -0.000829 -0.000132 0.022753 0.000000 0.000000 0.000000
# 4 0.000000 0.000000 0.000000 0.058801 0.000000 0.000000
# 5 0.000000 0.000000 0.000000 0.000000 0.054666 0.000000
# 6 0.000000 0.000000 0.000000 0.000000 0.000000 -0.002358
#
#
# Mechanical properties :
#
#
# Convention : Reuss Voigt Hill
#
# Bulk Modulus (GPa) = 31.77592 49.64014 40.70803
# Shear Modulus (GPa) = 30.25760 -58.20057 -13.97149
#
# Velocity S-wave (km/s) = 3.55174 -4.92593 -2.41349
# Velocity P-wave (km/s) = 5.48341 3.41427 3.03402
#
# Compressibility (1/GPa) = 0.03147037
#
# Stress axis : x y z
#
# Youngs Moduli (GPa) = 155.75704 119.23735 43.95043
#
# Poissons Ratio (x) = 0.24851 0.03644
# Poissons Ratio (y) = 0.32462 0.00578
# Poissons Ratio (z) = 0.12913 0.01568
#
# Static dielectric constant tensor:
#      x y z
#    x 1.895620 0.000000 0.000000 
#    y 0.000000 2.016080 0.000000 
#    z 0.000000 0.000000 2.031600 
# 
# From -- ./inp_files/4246.got.cif
#   From: 2010.05.17/outbox.cif.g08.bks.cpg/sg36_3_cif.got.tgz:4246.got - 2010.06.03 17:41:39.
