data_PCOD9351499
_publ_section_title
;
Structure prediction by ZEFSAII (Michael W. Deem and Ramdas Pophale) SiO2 
 PCOD9351499
Probable space group: C M C 21
;
_chemical_formula_sum "Si O2"
_cell_formula_units_Z 64
_cell_length_a 8.552563
_cell_length_b 23.322298
_cell_length_c 16.968619
_cell_angle_alpha 90.000000
_cell_angle_beta 90.000000
_cell_angle_gamma 90.000000
_cell_volume 3384.652766
_symmetry_space_group_name_H-M "C M C 21"
_symmetry_group_IT_number 36
_symmetry_cell_setting 'orthorhombic'
loop_
_space_group_symop_operation_xyz
x,y,z
-x,-y,1/2+z
x,-y,1/2+z
-x,y,z
1/2+x,1/2+y,z
1/2-x,1/2-y,1/2+z
1/2+x,1/2-y,1/2+z
1/2-x,1/2+y,z
loop_
_atom_site_type_symbol
_atom_site_label
_atom_site_fract_x
_atom_site_fract_y
_atom_site_fract_z
Si Si1 0.690574 0.721079 0.311780
Si Si2 0.815858 0.465617 0.046619
Si Si3 0.810839 0.908524 0.518931
Si Si4 0.322506 0.715489 0.587311
Si Si5 0.189345 0.847453 0.356766
Si Si6 0.811966 0.107258 0.690669
Si Si7 0.678926 0.368245 0.939834
Si Si8 0.318099 0.679235 0.142411
O O1 0.500000 0.724101 0.313778
O O2 0.751040 0.782634 0.341798
O O3 0.739228 0.666965 0.365358
O O4 0.746253 0.704294 0.224072
O O5 0.738258 0.525869 0.025258
O O6 0.757274 0.439264 0.130324
O O7 0.000000 0.472522 0.051184
O O8 0.772671 0.420246 0.977998
O O9 0.758439 0.875966 0.439101
O O10 0.751146 0.875231 0.596908
O O11 0.000000 0.905339 0.518917
O O12 0.500000 0.735783 0.603412
O O13 0.274277 0.669514 0.653357
O O14 0.326521 0.679757 0.507693
O O15 0.205432 0.767912 0.583074
O O16 0.236313 0.887487 0.281853
O O17 0.000000 0.845159 0.356501
O O18 0.000000 0.100935 0.686886
O O19 0.500000 0.387599 0.924735
O O20 0.500000 0.667623 0.157406
#
# Coordination Sequence:
#
# PCOD9351499 Si02
#       8
#     8   8   8   8   8   8   8   8
#     4  10  20  34  55  86 120 149 181 227 281 334
#     4  11  23  39  59  82 108 144 192 240 289 334
#     4  10  22  40  58  79 113 154 194 234 279 339
#     4   9  16  29  52  78 106 141 178 221 272 325
#     4  10  20  36  60  87 114 151 192 231 281 340
#     4   9  18  35  58  83 111 147 188 228 276 338
#     4   9  19  36  56  78 109 149 187 223 273 336
#     4  10  20  33  52  81 115 147 180 224 275 332
#
# _framework density 18.908882999999999
#
# number of rings (size 3 to 8) (size 9 to 14) (size 15 to 20)
#    0.000    2.250    1.250    2.625    0.000    4.000 
#    2.250    0.000    0.000    0.000    0.000    0.000 
#    0.000    0.000    0.000    0.000    0.000    0.000 
#
# Total GULP energy -178342.280614 kJ/mol
# GULP energy per Si atom -5573.196269 kJ/mol
# Density = 1.886585 g / cm^3
# Si number density = 18.908883 Si / 1000 Ang^3
#
#
#
# Elastic Constant Matrix: (Units=GPa)
#
#
# Indices 1 2 3 4 5 6 
#
# 1 7.7281 11.8795 18.7667 0.0000 0.0000 0.0000
# 2 11.8795 107.2925 73.7460 0.0000 0.0000 0.0000
# 3 18.7667 73.7460 95.0380 0.0000 0.0000 0.0000
# 4 0.0000 0.0000 0.0000 24.0207 0.0000 0.0000
# 5 0.0000 0.0000 0.0000 0.0000 12.6354 0.0000
# 6 0.0000 0.0000 0.0000 0.0000 0.0000 25.5257
#
#
#
# Elastic Compliance Matrix: (Units=1/GPa)
#
#
# Indices 1 2 3 4 5 6 
#
# 1 0.257828 0.013815 -0.061632 0.000000 0.000000 0.000000
# 2 0.013815 0.020713 -0.018800 0.000000 0.000000 0.000000
# 3 -0.061632 -0.018800 0.037281 0.000000 0.000000 0.000000
# 4 0.000000 0.000000 0.000000 0.041631 0.000000 0.000000
# 5 0.000000 0.000000 0.000000 0.000000 0.079142 0.000000
# 6 0.000000 0.000000 0.000000 0.000000 0.000000 0.039176
#
#
# Mechanical properties :
#
#
# Convention : Reuss Voigt Hill
#
# Bulk Modulus (GPa) = 5.47684 46.53810 26.00747
# Shear Modulus (GPa) = 7.46416 19.48080 13.47248
#
# Velocity S-wave (km/s) = 1.98897 3.21323 2.67216
# Velocity P-wave (km/s) = 2.85962 6.19933 4.82748
#
# Compressibility (1/GPa) = 0.18258688
#
# Stress axis : x y z
#
# Youngs Moduli (GPa) = 3.87856 48.27898 26.82350
#
# Poissons Ratio (x) = -0.66698 1.65319
# Poissons Ratio (y) = -0.05358 0.50429
# Poissons Ratio (z) = 0.23904 0.90767
#
# Static dielectric constant tensor:
#      x y z
#    x 1.664630 0.000000 0.000000 
#    y 0.000000 1.633570 0.000000 
#    z 0.000000 0.000000 1.726960 
# 
# From -- ./inp_files/13866.got.cif
#   From: 2010.05.17/outbox.cif.g08.bks.cpg/sg36_7_cif.got.tgz:13866.got - 2010.06.03 17:41:39.
