data_PCOD9351642
_publ_section_title
;
Structure prediction by ZEFSAII (Michael W. Deem and Ramdas Pophale) SiO2 
 PCOD9351642
Probable space group: C M C 21
;
_chemical_formula_sum "Si O2"
_cell_formula_units_Z 48
_cell_length_a 7.618937
_cell_length_b 29.448093
_cell_length_c 8.211551
_cell_angle_alpha 90.000000
_cell_angle_beta 90.000000
_cell_angle_gamma 90.000000
_cell_volume 1842.369575
_symmetry_space_group_name_H-M "C M C 21"
_symmetry_group_IT_number 36
_symmetry_cell_setting 'orthorhombic'
loop_
_space_group_symop_operation_xyz
x,y,z
-x,-y,1/2+z
x,-y,1/2+z
-x,y,z
1/2+x,1/2+y,z
1/2-x,1/2-y,1/2+z
1/2+x,1/2-y,1/2+z
1/2-x,1/2+y,z
loop_
_atom_site_type_symbol
_atom_site_label
_atom_site_fract_x
_atom_site_fract_y
_atom_site_fract_z
Si Si1 0.198513 0.567640 0.424990
Si Si2 0.788521 0.267798 0.953257
Si Si3 0.799053 0.904833 0.469718
Si Si4 0.714225 0.147199 0.642557
Si Si5 0.790806 0.181208 0.120217
Si Si6 0.794001 0.017730 0.749046
O O1 0.273973 0.614869 0.491930
O O2 0.203853 0.536755 0.588882
O O3 0.280166 0.535308 0.288863
O O4 0.000000 0.575553 0.376361
O O5 0.734911 0.301723 0.099319
O O6 0.719923 0.217343 0.987483
O O7 0.736538 0.293244 0.789432
O O8 0.000000 0.265717 0.955175
O O9 0.718878 0.869923 0.600651
O O10 0.723793 0.951935 0.400832
O O11 0.000000 0.914967 0.515081
O O12 0.792179 0.873411 0.306376
O O13 0.500000 0.143910 0.651984
O O14 0.000000 0.176540 0.096491
O O15 0.000000 0.028221 0.728799
#
# Coordination Sequence:
#
# PCOD9351642 Si02
#       6
#     8   8   8   8   8   8
#     4  10  20  35  54  77 106 139 176 217 262 310
#     4  10  21  36  54  78 106 135 170 210 253 304
#     4   9  19  35  54  77 104 135 172 213 256 305
#     4   9  19  35  54  77 104 135 172 213 256 305
#     4  10  21  36  54  78 106 135 170 210 253 304
#     4  10  20  35  54  77 106 139 176 217 262 310
#
# _framework density 26.053404
#
# number of rings (size 3 to 8) (size 9 to 14) (size 15 to 20)
#    0.000    2.333    0.000    2.000    0.000    4.667 
#    0.000    3.333    0.000    0.000    0.000    0.000 
#    0.000    0.000    0.000    0.000    0.000    0.000 
#
# Total GULP energy -134205.662621 kJ/mol
# GULP energy per Si atom -5591.902609 kJ/mol
# Density = 2.599411 g / cm^3
# Si number density = 26.053404 Si / 1000 Ang^3
#
#
#
# Elastic Constant Matrix: (Units=GPa)
#
#
# Indices 1 2 3 4 5 6 
#
# 1 71.1993 14.8312 1.1236 0.0000 0.0000 0.0000
# 2 14.8312 136.0935 10.2007 0.0000 0.0000 0.0000
# 3 1.1236 10.2007 78.9047 0.0000 0.0000 0.0000
# 4 0.0000 0.0000 0.0000 53.1671 0.0000 0.0000
# 5 0.0000 0.0000 0.0000 0.0000 28.6760 0.0000
# 6 0.0000 0.0000 0.0000 0.0000 0.0000 18.7235
#
#
#
# Elastic Compliance Matrix: (Units=1/GPa)
#
#
# Indices 1 2 3 4 5 6 
#
# 1 0.014371 -0.001566 -0.000002 0.000000 0.000000 0.000000
# 2 -0.001566 0.007590 -0.000959 0.000000 0.000000 0.000000
# 3 -0.000002 -0.000959 0.012798 0.000000 0.000000 0.000000
# 4 0.000000 0.000000 0.000000 0.018809 0.000000 0.000000
# 5 0.000000 0.000000 0.000000 0.000000 0.034872 0.000000
# 6 0.000000 0.000000 0.000000 0.000000 0.000000 0.053409
#
#
# Mechanical properties :
#
#
# Convention : Reuss Voigt Hill
#
# Bulk Modulus (GPa) = 33.66444 37.61205 35.63825
# Shear Modulus (GPa) = 31.88672 37.44945 34.66808
#
# Velocity S-wave (km/s) = 3.50222 3.79543 3.65177
# Velocity P-wave (km/s) = 5.41327 5.80301 5.61152
#
# Compressibility (1/GPa) = 0.02970493
#
# Stress axis : x y z
#
# Youngs Moduli (GPa) = 69.58299 131.74484 78.14007
#
# Poissons Ratio (x) = 0.20631 0.00017
# Poissons Ratio (y) = 0.10897 0.07494
# Poissons Ratio (z) = 0.00015 0.12634
#
# Static dielectric constant tensor:
#      x y z
#    x 1.950230 0.000000 0.000000 
#    y 0.000000 2.067730 0.000000 
#    z 0.000000 0.000000 2.111090 
# 
# From -- ./inp_files/2654.got.cif
#   From: 2010.05.17/outbox.cif.g08.bks.cpg/sg36_2_cif.got.tgz:2654.got - 2010.06.03 17:41:39.
