data_PCOD9351679
_publ_section_title
;
Structure prediction by ZEFSAII (Michael W. Deem and Ramdas Pophale) SiO2 
 PCOD9351679
Probable space group: C M C 21
;
_chemical_formula_sum "Si O2"
_cell_formula_units_Z 52
_cell_length_a 7.390302
_cell_length_b 33.645542
_cell_length_c 7.818602
_cell_angle_alpha 90.000000
_cell_angle_beta 90.000000
_cell_angle_gamma 90.000000
_cell_volume 1944.100988
_symmetry_space_group_name_H-M "C M C 21"
_symmetry_group_IT_number 36
_symmetry_cell_setting 'orthorhombic'
loop_
_space_group_symop_operation_xyz
x,y,z
-x,-y,1/2+z
x,-y,1/2+z
-x,y,z
1/2+x,1/2+y,z
1/2-x,1/2-y,1/2+z
1/2+x,1/2-y,1/2+z
1/2-x,1/2+y,z
loop_
_atom_site_type_symbol
_atom_site_label
_atom_site_fract_x
_atom_site_fract_y
_atom_site_fract_z
Si Si1 0.706127 0.302951 0.599440
Si Si2 0.280427 0.714862 0.712701
Si Si3 0.721734 0.562437 0.362813
Si Si4 0.500000 0.135306 0.145245
Si Si5 0.711524 0.511816 0.690259
Si Si6 0.699580 0.911369 0.352193
Si Si7 0.207231 0.861021 0.028183
O O1 0.500000 0.317454 0.598871
O O2 0.771587 0.299032 0.402574
O O3 0.711110 0.258597 0.674555
O O4 0.842452 0.331630 0.693253
O O5 0.500000 0.715892 0.706659
O O6 0.215784 0.681726 0.577754
O O7 0.500000 0.565837 0.355544
O O8 0.772553 0.536785 0.529244
O O9 0.789940 0.531711 0.221511
O O10 0.796958 0.606321 0.401051
O O11 0.340314 0.109046 0.033961
O O12 0.500000 0.505218 0.664807
O O13 0.727386 0.543763 0.845088
O O14 0.500000 0.913948 0.273950
O O15 0.801758 0.883919 0.213835
O O16 0.000000 0.854770 0.971479
#
# Coordination Sequence:
#
# PCOD9351679 Si02
#       7
#     8   8   8   4   8   8   8
#     4  11  23  36  59  85 112 150 185 233 283 335
#     4  10  20  35  56  83 113 144 189 232 279 333
#     4   8  15  27  49  74 100 131 171 215 258 314
#     4  10  20  36  54  80 116 140 190 228 278 322
#     4   9  16  29  49  75 101 133 172 216 265 317
#     4   9  17  28  49  72 100 132 171 221 257 308
#     4   9  16  30  53  77 101 137 180 221 264 326
#
# _framework density 26.747585000000001
#
# number of rings (size 3 to 8) (size 9 to 14) (size 15 to 20)
#    0.462    2.154    2.308    1.385    1.077    1.231 
#    0.000    3.077    3.385    0.000    0.000    0.000 
#    0.000    0.000    0.000    0.000    0.000    0.000 
#
# Total GULP energy -144819.893109 kJ/mol
# GULP energy per Si atom -5569.995889 kJ/mol
# Density = 2.668671 g / cm^3
# Si number density = 26.747585 Si / 1000 Ang^3
#
#
#
# Elastic Constant Matrix: (Units=GPa)
#
#
# Indices 1 2 3 4 5 6 
#
# 1 115.2969 9.7670 -17.3279 0.0000 0.0000 0.0000
# 2 9.7670 205.3415 41.2560 0.0000 0.0000 0.0000
# 3 -17.3279 41.2560 91.1097 0.0000 0.0000 0.0000
# 4 0.0000 0.0000 0.0000 58.2249 0.0000 0.0000
# 5 0.0000 0.0000 0.0000 0.0000 28.5102 0.0000
# 6 0.0000 0.0000 0.0000 0.0000 0.0000 11.8718
#
#
#
# Elastic Compliance Matrix: (Units=1/GPa)
#
#
# Indices 1 2 3 4 5 6 
#
# 1 0.009063 -0.000855 0.002111 0.000000 0.000000 0.000000
# 2 -0.000855 0.005438 -0.002625 0.000000 0.000000 0.000000
# 3 0.002111 -0.002625 0.012566 0.000000 0.000000 0.000000
# 4 0.000000 0.000000 0.000000 0.017175 0.000000 0.000000
# 5 0.000000 0.000000 0.000000 0.000000 0.035075 0.000000
# 6 0.000000 0.000000 0.000000 0.000000 0.000000 0.084233
#
#
# Mechanical properties :
#
#
# Convention : Reuss Voigt Hill
#
# Bulk Modulus (GPa) = 41.10460 53.23760 47.17110
# Shear Modulus (GPa) = 28.67003 44.92491 36.79747
#
# Velocity S-wave (km/s) = 3.27750 4.10272 3.71311
# Velocity P-wave (km/s) = 5.45194 6.51076 6.00473
#
# Compressibility (1/GPa) = 0.02432818
#
# Stress axis : x y z
#
# Youngs Moduli (GPa) = 110.33929 183.89021 79.58032
#
# Poissons Ratio (x) = 0.15726 -0.16799
# Poissons Ratio (y) = 0.09436 0.20890
# Poissons Ratio (z) = -0.23292 0.48273
#
# Static dielectric constant tensor:
#      x y z
#    x 2.015020 0.000000 0.000000 
#    y 0.000000 2.137280 0.000000 
#    z 0.000000 0.000000 2.240970 
# 
# From -- ./inp_files/6977.got.cif
#   From: 2010.05.17/outbox.cif.g08.bks.cpg/sg36_4_cif.got.tgz:6977.got - 2010.06.03 17:41:39.
