data_PCOD9351722
_publ_section_title
;
Structure prediction by ZEFSAII (Michael W. Deem and Ramdas Pophale) SiO2 
 PCOD9351722
Probable space group: C M C 21
;
_chemical_formula_sum "Si O2"
_cell_formula_units_Z 56
_cell_length_a 14.142088
_cell_length_b 22.918034
_cell_length_c 8.654874
_cell_angle_alpha 90.000000
_cell_angle_beta 90.000000
_cell_angle_gamma 90.000000
_cell_volume 2805.121290
_symmetry_space_group_name_H-M "C M C 21"
_symmetry_group_IT_number 36
_symmetry_cell_setting 'orthorhombic'
loop_
_space_group_symop_operation_xyz
x,y,z
-x,-y,1/2+z
x,-y,1/2+z
-x,y,z
1/2+x,1/2+y,z
1/2-x,1/2-y,1/2+z
1/2+x,1/2-y,1/2+z
1/2-x,1/2+y,z
loop_
_atom_site_type_symbol
_atom_site_label
_atom_site_fract_x
_atom_site_fract_y
_atom_site_fract_z
Si Si1 0.723566 0.009313 0.119880
Si Si2 0.194056 0.316535 0.761064
Si Si3 0.218131 0.915778 0.348639
Si Si4 0.608904 0.839635 0.421071
Si Si5 0.389221 0.693829 0.730950
Si Si6 0.612231 0.072675 0.384889
Si Si7 0.107079 0.795553 0.862423
O O1 0.651688 0.045579 0.225666
O O2 0.786919 0.967800 0.225865
O O3 0.783107 0.053550 0.014939
O O4 0.662078 0.966851 0.012530
O O5 0.148278 0.330589 0.594873
O O6 0.167794 0.249493 0.793989
O O7 0.148605 0.360844 0.883418
O O8 0.307161 0.322303 0.765887
O O9 0.321775 0.885011 0.339060
O O10 0.145126 0.864874 0.312109
O O11 0.500000 0.859459 0.425782
O O12 0.610749 0.774942 0.347927
O O13 0.500000 0.704677 0.754717
O O14 0.374998 0.690784 0.544668
O O15 0.500000 0.070446 0.394808
O O16 0.000000 0.814336 0.824291
#
# Coordination Sequence:
#
# PCOD9351722 Si02
#       7
#     8   8   8   8   8   8   8
#     4  10  24  37  58  82 119 165 211 247 306 362
#     4  11  19  34  62  91 121 158 198 253 310 378
#     4  11  21  42  60  86 121 163 203 261 308 368
#     4  10  20  35  58  84 120 165 200 241 308 373
#     4  10  21  38  63  90 119 159 207 257 320 375
#     4  11  21  36  56  86 122 159 201 251 302 366
#     4   9  19  36  58  87 122 161 199 244 311 380
#
# _framework density 19.963484999999999
#
# number of rings (size 3 to 8) (size 9 to 14) (size 15 to 20)
#    0.000    1.714    2.857    3.429    0.000    2.857 
#    0.000    1.429    0.000    3.429    0.000    0.000 
#    0.000    0.000    0.000    0.000    0.000    0.000 
#
# Total GULP energy -156416.602865 kJ/mol
# GULP energy per Si atom -5586.307245 kJ/mol
# Density = 1.991805 g / cm^3
# Si number density = 19.963485 Si / 1000 Ang^3
#
#
#
# Elastic Constant Matrix: (Units=GPa)
#
#
# Indices 1 2 3 4 5 6 
#
# 1 69.4023 0.3056 9.7761 0.0000 0.0000 0.0000
# 2 0.3056 59.6201 6.7236 0.0000 0.0000 0.0000
# 3 9.7761 6.7236 28.8815 0.0000 0.0000 0.0000
# 4 0.0000 0.0000 0.0000 17.5670 0.0000 0.0000
# 5 0.0000 0.0000 0.0000 0.0000 21.1294 0.0000
# 6 0.0000 0.0000 0.0000 0.0000 0.0000 19.7824
#
#
#
# Elastic Compliance Matrix: (Units=1/GPa)
#
#
# Indices 1 2 3 4 5 6 
#
# 1 0.015145 0.000514 -0.005246 0.000000 0.000000 0.000000
# 2 0.000514 0.017243 -0.004188 0.000000 0.000000 0.000000
# 3 -0.005246 -0.004188 0.037375 0.000000 0.000000 0.000000
# 4 0.000000 0.000000 0.000000 0.056925 0.000000 0.000000
# 5 0.000000 0.000000 0.000000 0.000000 0.047327 0.000000
# 6 0.000000 0.000000 0.000000 0.000000 0.000000 0.050550
#
#
# Mechanical properties :
#
#
# Convention : Reuss Voigt Hill
#
# Bulk Modulus (GPa) = 19.25949 21.27939 20.26944
# Shear Modulus (GPa) = 19.25198 21.10232 20.17715
#
# Velocity S-wave (km/s) = 3.10878 3.25475 3.18260
# Velocity P-wave (km/s) = 4.74914 4.98065 4.86627
#
# Compressibility (1/GPa) = 0.05192246
#
# Stress axis : x y z
#
# Youngs Moduli (GPa) = 66.02631 57.99604 26.75581
#
# Poissons Ratio (x) = -0.02981 0.14037
# Poissons Ratio (y) = -0.03394 0.11206
# Poissons Ratio (z) = 0.34639 0.24289
#
# Static dielectric constant tensor:
#      x y z
#    x 1.663110 0.000000 0.000000 
#    y 0.000000 1.721250 0.000000 
#    z 0.000000 0.000000 1.734190 
# 
# From -- ./inp_files/4174.got.cif
#   From: 2010.05.17/outbox.cif.g08.bks.cpg/sg36_3_cif.got.tgz:4174.got - 2010.06.03 17:41:39.
