data_PCOD9351496
_publ_section_title
;
Structure prediction by ZEFSAII (Michael W. Deem and Ramdas Pophale) SiO2 
 PCOD9351496
Probable space group: C M C 21
;
_chemical_formula_sum "Si O2"
_cell_formula_units_Z 64
_cell_length_a 7.488173
_cell_length_b 23.169990
_cell_length_c 16.891857
_cell_angle_alpha 90.000000
_cell_angle_beta 90.000000
_cell_angle_gamma 90.000000
_cell_volume 2930.752283
_symmetry_space_group_name_H-M "C M C 21"
_symmetry_group_IT_number 36
_symmetry_cell_setting 'orthorhombic'
loop_
_space_group_symop_operation_xyz
x,y,z
-x,-y,1/2+z
x,-y,1/2+z
-x,y,z
1/2+x,1/2+y,z
1/2-x,1/2-y,1/2+z
1/2+x,1/2-y,1/2+z
1/2-x,1/2+y,z
loop_
_atom_site_type_symbol
_atom_site_label
_atom_site_fract_x
_atom_site_fract_y
_atom_site_fract_z
Si Si1 0.204447 0.004298 0.758850
Si Si2 0.798511 0.836463 0.589439
Si Si3 0.206678 0.965291 0.927551
Si Si4 0.281242 0.783323 0.129516
Si Si5 0.283366 0.863522 0.273560
Si Si6 0.788140 0.288001 0.421548
Si Si7 0.712198 0.834556 0.961507
Si Si8 0.219269 0.967304 0.585027
O O1 0.286450 0.979922 0.840883
O O2 0.278952 0.990779 0.671127
O O3 0.000000 0.982309 0.756103
O O4 0.208120 0.072852 0.768531
O O5 0.716858 0.782795 0.637513
O O6 0.802751 0.808969 0.501911
O O7 0.721691 0.900374 0.582584
O O8 0.000000 0.845041 0.619824
O O9 0.212292 0.896558 0.939596
O O10 0.000000 0.984519 0.922858
O O11 0.279948 0.997302 0.006676
O O12 0.500000 0.780691 0.127860
O O13 0.228107 0.824625 0.199897
O O14 0.222912 0.812547 0.047400
O O15 0.500000 0.867948 0.272975
O O16 0.229490 0.829544 0.351809
O O17 0.752378 0.220435 0.406159
O O18 0.000000 0.294749 0.432616
O O19 0.500000 0.841795 0.965606
O O20 0.000000 0.970246 0.583129
#
# Coordination Sequence:
#
# PCOD9351496 Si02
#       8
#     8   8   8   8   8   8   8   8
#     4  10  21  35  53  78 105 137 177 216 256 306
#     4   9  17  33  55  75 101 137 174 209 250 306
#     4  10  20  34  53  77 106 138 172 214 260 303
#     4   8  16  31  52  76  98 127 168 210 252 301
#     4  10  20  34  52  75 103 134 169 210 258 307
#     4  10  20  33  52  78 105 132 166 213 262 307
#     4  10  20  35  55  76 100 134 173 210 256 312
#     4   9  18  33  54  79 106 139 177 214 254 304
#
# _framework density 21.837396999999999
#
# number of rings (size 3 to 8) (size 9 to 14) (size 15 to 20)
#    0.000    2.500    0.000    3.000    0.000    3.500 
#    0.000    7.500    0.000    3.000    0.000    0.000 
#    0.000    0.000    0.000    0.000    0.000    0.000 
#
# Total GULP energy -178510.663647 kJ/mol
# GULP energy per Si atom -5578.458239 kJ/mol
# Density = 2.178769 g / cm^3
# Si number density = 21.837397 Si / 1000 Ang^3
#
#
#
# Elastic Constant Matrix: (Units=GPa)
#
#
# Indices 1 2 3 4 5 6 
#
# 1 63.8408 -11.6526 2.9223 0.0000 0.0000 0.0000
# 2 -11.6526 164.6552 59.2992 0.0000 0.0000 0.0000
# 3 2.9223 59.2992 107.3811 0.0000 0.0000 0.0000
# 4 0.0000 0.0000 0.0000 38.2508 0.0000 0.0000
# 5 0.0000 0.0000 0.0000 0.0000 42.8484 0.0000
# 6 0.0000 0.0000 0.0000 0.0000 0.0000 -16.4788
#
#
#
# Elastic Compliance Matrix: (Units=1/GPa)
#
#
# Indices 1 2 3 4 5 6 
#
# 1 0.016019 0.001611 -0.001326 0.000000 0.000000 0.000000
# 2 0.001611 0.007743 -0.004320 0.000000 0.000000 0.000000
# 3 -0.001326 -0.004320 0.011734 0.000000 0.000000 0.000000
# 4 0.000000 0.000000 0.000000 0.026143 0.000000 0.000000
# 5 0.000000 0.000000 0.000000 0.000000 0.023338 0.000000
# 6 0.000000 0.000000 0.000000 0.000000 0.000000 -0.060684
#
#
# Mechanical properties :
#
#
# Convention : Reuss Voigt Hill
#
# Bulk Modulus (GPa) = 36.46007 48.55721 42.50864
# Shear Modulus (GPa) = 120.46874 31.94462 76.20668
#
# Velocity S-wave (km/s) = 7.43546 3.82886 5.91380
# Velocity P-wave (km/s) = 9.51037 6.46769 8.13259
#
# Compressibility (1/GPa) = 0.02742727
#
# Stress axis : x y z
#
# Youngs Moduli (GPa) = 62.42699 129.14816 85.22083
#
# Poissons Ratio (x) = -0.20806 0.11297
# Poissons Ratio (y) = -0.10057 0.36814
# Poissons Ratio (z) = 0.08275 0.55789
#
# Static dielectric constant tensor:
#      x y z
#    x 1.824070 0.000000 0.000000 
#    y 0.000000 1.762050 0.000000 
#    z 0.000000 0.000000 1.798480 
# 
# From -- ./inp_files/11117.got.cif
#   From: 2010.05.17/outbox.cif.g08.bks.cpg/sg36_6_cif.got.tgz:11117.got - 2010.06.03 17:41:39.
