data_PCOD9351670
_publ_section_title
;
Structure prediction by ZEFSAII (Michael W. Deem and Ramdas Pophale) SiO2 
 PCOD9351670
Probable space group: C M C 21
;
_chemical_formula_sum "Si O2"
_cell_formula_units_Z 64
_cell_length_a 7.726524
_cell_length_b 16.659118
_cell_length_c 19.553994
_cell_angle_alpha 90.000000
_cell_angle_beta 90.000000
_cell_angle_gamma 90.000000
_cell_volume 2516.932913
_symmetry_space_group_name_H-M "C M C 21"
_symmetry_group_IT_number 36
_symmetry_cell_setting 'orthorhombic'
loop_
_space_group_symop_operation_xyz
x,y,z
-x,-y,1/2+z
x,-y,1/2+z
-x,y,z
1/2+x,1/2+y,z
1/2-x,1/2-y,1/2+z
1/2+x,1/2-y,1/2+z
1/2-x,1/2+y,z
loop_
_atom_site_type_symbol
_atom_site_label
_atom_site_fract_x
_atom_site_fract_y
_atom_site_fract_z
Si Si1 0.711986 0.911275 0.029490
Si Si2 0.298437 0.662460 0.236071
Si Si3 0.708152 0.998452 0.658989
Si Si4 0.196385 0.663159 0.988600
Si Si5 0.301054 0.759379 0.110842
Si Si6 0.790261 0.496698 0.405939
Si Si7 0.807306 0.257582 0.864327
Si Si8 0.790305 0.600806 0.781470
O O1 0.500000 0.906345 0.026987
O O2 0.777778 0.832346 0.067776
O O3 0.756454 0.983887 0.081155
O O4 0.771980 0.930101 0.952758
O O5 0.500000 0.681244 0.245431
O O6 0.280636 0.578741 0.196951
O O7 0.223373 0.726794 0.181305
O O8 0.222429 0.669254 0.312111
O O9 0.500000 0.990801 0.661665
O O10 0.754384 0.076305 0.704845
O O11 0.255011 0.583656 0.949018
O O12 0.198898 0.733071 0.930724
O O13 0.000000 0.649127 0.011326
O O14 0.299836 0.688051 0.055287
O O15 0.500000 0.781901 0.126513
O O16 0.734319 0.473890 0.329906
O O17 0.000000 0.501801 0.403433
O O18 0.786234 0.180971 0.813650
O O19 0.000000 0.264056 0.892016
O O20 0.000000 0.608842 0.786120
#
# Coordination Sequence:
#
# PCOD9351670 Si02
#       8
#     8   8   8   8   8   8   8   8
#     4   9  17  31  52  77 105 139 182 227 270 324
#     4  11  23  38  55  80 117 153 188 237 289 330
#     4  10  20  35  56  80 107 145 190 230 276 338
#     4  10  20  36  58  83 113 146 181 229 287 339
#     4  10  21  36  56  82 112 148 188 232 281 335
#     4   8  15  29  51  76 101 133 172 215 265 322
#     4  11  22  37  59  84 111 148 194 235 277 338
#     4   9  18  34  55  80 110 142 179 227 283 336
#
# _framework density 25.427772999999998
#
# number of rings (size 3 to 8) (size 9 to 14) (size 15 to 20)
#    0.000    2.250    0.000    4.125    0.000    5.500 
#    0.000    3.125    0.000    3.750    0.000    0.000 
#    0.000    0.000    0.000    0.000    0.000    0.000 
#
# Total GULP energy -178880.009524 kJ/mol
# GULP energy per Si atom -5590.000298 kJ/mol
# Density = 2.536990 g / cm^3
# Si number density = 25.427773 Si / 1000 Ang^3
#
#
#
# Elastic Constant Matrix: (Units=GPa)
#
#
# Indices 1 2 3 4 5 6 
#
# 1 42.5608 -6.1788 -0.2437 0.0000 0.0000 0.0000
# 2 -6.1788 59.1418 2.3616 0.0000 0.0000 0.0000
# 3 -0.2437 2.3616 129.5939 0.0000 0.0000 0.0000
# 4 0.0000 0.0000 0.0000 46.9112 0.0000 0.0000
# 5 0.0000 0.0000 0.0000 0.0000 12.5480 0.0000
# 6 0.0000 0.0000 0.0000 0.0000 0.0000 -0.5580
#
#
#
# Elastic Compliance Matrix: (Units=1/GPa)
#
#
# Indices 1 2 3 4 5 6 
#
# 1 0.023858 0.002493 -0.000001 0.000000 0.000000 0.000000
# 2 0.002493 0.017181 -0.000308 0.000000 0.000000 0.000000
# 3 -0.000001 -0.000308 0.007722 0.000000 0.000000 0.000000
# 4 0.000000 0.000000 0.000000 0.021317 0.000000 0.000000
# 5 0.000000 0.000000 0.000000 0.000000 0.079694 0.000000
# 6 0.000000 0.000000 0.000000 0.000000 0.000000 -1.792246
#
#
# Mechanical properties :
#
#
# Convention : Reuss Voigt Hill
#
# Bulk Modulus (GPa) = 18.82246 24.79721 21.80984
# Shear Modulus (GPa) = -3.06912 27.47073 12.20081
#
# Velocity S-wave (km/s) = -1.09983 3.29042 2.19286
# Velocity P-wave (km/s) = 2.40948 4.92027 3.87393
#
# Compressibility (1/GPa) = 0.05312802
#
# Stress axis : x y z
#
# Youngs Moduli (GPa) = 41.91526 58.20302 129.49964
#
# Poissons Ratio (x) = -0.14507 0.00007
# Poissons Ratio (y) = -0.10447 0.03994
# Poissons Ratio (z) = 0.00002 0.01795
#
# Static dielectric constant tensor:
#      x y z
#    x 1.946360 0.000000 0.000000 
#    y 0.000000 2.089060 0.000000 
#    z 0.000000 0.000000 1.956190 
# 
# From -- ./inp_files/15587.got.cif
#   From: 2010.05.17/outbox.cif.g08.bks.cpg/sg36_8_cif.got.tgz:15587.got - 2010.06.03 17:41:39.
