data_PCOD9351033
_publ_section_title
;
Structure prediction by ZEFSAII (Michael W. Deem and Ramdas Pophale) SiO2 
 PCOD9351033
Probable space group: C M C 21
;
_chemical_formula_sum "Si O2"
_cell_formula_units_Z 32
_cell_length_a 7.497473
_cell_length_b 16.147509
_cell_length_c 12.804472
_cell_angle_alpha 90.000000
_cell_angle_beta 90.000000
_cell_angle_gamma 90.000000
_cell_volume 1550.179968
_symmetry_space_group_name_H-M "C M C 21"
_symmetry_group_IT_number 36
_symmetry_cell_setting 'orthorhombic'
loop_
_space_group_symop_operation_xyz
x,y,z
-x,-y,1/2+z
x,-y,1/2+z
-x,y,z
1/2+x,1/2+y,z
1/2-x,1/2-y,1/2+z
1/2+x,1/2-y,1/2+z
1/2-x,1/2+y,z
loop_
_atom_site_type_symbol
_atom_site_label
_atom_site_fract_x
_atom_site_fract_y
_atom_site_fract_z
Si Si1 0.000000 0.793970 0.764200
Si Si2 0.500000 0.974712 0.178783
Si Si3 0.196690 0.863489 0.931101
Si Si4 0.786787 0.957977 0.528322
Si Si5 0.000000 0.379448 0.389672
Si Si6 0.000000 0.702683 0.559112
O O1 0.831469 0.844604 0.809078
O O2 0.000000 0.707170 0.827960
O O3 0.000000 0.774241 0.643758
O O4 0.500000 0.951407 0.300399
O O5 0.500000 0.884355 0.122489
O O6 0.324770 0.021458 0.133772
O O7 0.236643 0.957707 0.959520
O O8 0.000000 0.848004 0.977254
O O9 0.331697 0.802192 0.984675
O O10 0.000000 0.944630 0.540602
O O11 0.674209 0.890952 0.462646
#
# Coordination Sequence:
#
# PCOD9351033 Si02
#       6
#     4   4   8   8   4   4
#     4   9  19  35  50  79 105 123 173 216 246 296
#     4   8  17  31  52  75  98 136 171 199 245 311
#     4   8  17  34  53  73  99 132 173 202 239 309
#     4   9  17  33  55  71  97 136 171 202 244 302
#     4  10  19  33  52  77 105 126 165 217 256 285
#     4   9  15  33  54  71 100 141 165 200 253 302
#
# _framework density 20.642765000000001
#
# number of rings (size 3 to 8) (size 9 to 14) (size 15 to 20)
#    0.750    2.500    0.000    0.750    0.000    1.000 
#    4.500    7.500    0.000    0.000    0.000    0.000 
#    0.000    0.000    0.000    0.000    0.000    0.000 
#
# Total GULP energy -89074.816888 kJ/mol
# GULP energy per Si atom -5567.176055 kJ/mol
# Density = 2.059578 g / cm^3
# Si number density = 20.642765 Si / 1000 Ang^3
#
#
#
# Elastic Constant Matrix: (Units=GPa)
#
#
# Indices 1 2 3 4 5 6 
#
# 1 105.7163 25.8469 23.7288 0.0000 0.0000 0.0000
# 2 25.8469 72.4606 26.6515 0.0000 0.0000 0.0000
# 3 23.7288 26.6515 46.1490 0.0000 0.0000 0.0000
# 4 0.0000 0.0000 0.0000 38.3534 0.0000 0.0000
# 5 0.0000 0.0000 0.0000 0.0000 36.9931 0.0000
# 6 0.0000 0.0000 0.0000 0.0000 0.0000 8.4986
#
#
#
# Elastic Compliance Matrix: (Units=1/GPa)
#
#
# Indices 1 2 3 4 5 6 
#
# 1 0.010997 -0.002340 -0.004303 0.000000 0.000000 0.000000
# 2 -0.002340 0.018021 -0.009204 0.000000 0.000000 0.000000
# 3 -0.004303 -0.009204 0.029197 0.000000 0.000000 0.000000
# 4 0.000000 0.000000 0.000000 0.026073 0.000000 0.000000
# 5 0.000000 0.000000 0.000000 0.000000 0.027032 0.000000
# 6 0.000000 0.000000 0.000000 0.000000 0.000000 0.117666
#
#
# Mechanical properties :
#
#
# Convention : Reuss Voigt Hill
#
# Bulk Modulus (GPa) = 37.70657 41.86447 39.78552
# Shear Modulus (GPa) = 18.55147 26.64229 22.59688
#
# Velocity S-wave (km/s) = 3.00107 3.59644 3.31216
# Velocity P-wave (km/s) = 5.50586 6.12946 5.82601
#
# Compressibility (1/GPa) = 0.02652058
#
# Stress axis : x y z
#
# Youngs Moduli (GPa) = 90.93160 55.49222 34.25029
#
# Poissons Ratio (x) = 0.12985 0.14738
# Poissons Ratio (y) = 0.21278 0.31523
# Poissons Ratio (z) = 0.39129 0.51074
#
# Static dielectric constant tensor:
#      x y z
#    x 1.725210 0.000000 0.000000 
#    y 0.000000 1.783980 0.000000 
#    z 0.000000 0.000000 1.725200 
# 
# From -- ./inp_files/10170.got.cif
#   From: 2010.05.17/outbox.cif.g08.bks.cpg/sg36_6_cif.got.tgz:10170.got - 2010.06.03 17:41:39.
