data_PCOD9351236
_publ_section_title
;
Structure prediction by ZEFSAII (Michael W. Deem and Ramdas Pophale) SiO2 
 PCOD9351236
Probable space group: C M C 21
;
_chemical_formula_sum "Si O2"
_cell_formula_units_Z 56
_cell_length_a 13.670426
_cell_length_b 12.906207
_cell_length_c 15.746446
_cell_angle_alpha 90.000000
_cell_angle_beta 90.000000
_cell_angle_gamma 90.000000
_cell_volume 2778.198183
_symmetry_space_group_name_H-M "C M C 21"
_symmetry_group_IT_number 36
_symmetry_cell_setting 'orthorhombic'
loop_
_space_group_symop_operation_xyz
x,y,z
-x,-y,1/2+z
x,-y,1/2+z
-x,y,z
1/2+x,1/2+y,z
1/2-x,1/2-y,1/2+z
1/2+x,1/2-y,1/2+z
1/2-x,1/2+y,z
loop_
_atom_site_type_symbol
_atom_site_label
_atom_site_fract_x
_atom_site_fract_y
_atom_site_fract_z
Si Si1 0.385431 0.273815 0.584950
Si Si2 0.763915 0.020176 0.061618
Si Si3 0.113648 0.679579 0.999013
Si Si4 0.612354 0.946065 0.810634
Si Si5 0.705220 0.872839 0.216949
Si Si6 0.108908 0.746059 0.192777
Si Si7 0.250167 0.158675 0.447551
O O1 0.500000 0.278142 0.568821
O O2 0.337033 0.387324 0.584564
O O3 0.362654 0.212994 0.672067
O O4 0.328855 0.209538 0.512143
O O5 0.670296 0.072874 0.015898
O O6 0.733097 0.956917 0.144486
O O7 0.803345 0.936107 0.995188
O O8 0.123505 0.737928 0.091196
O O9 0.000000 0.666152 0.980677
O O10 0.171722 0.750804 0.932377
O O11 0.500000 0.949469 0.842233
O O12 0.611094 0.870970 0.728040
O O13 0.688172 0.888609 0.871622
O O14 0.651356 0.059973 0.787924
O O15 0.806760 0.813908 0.235859
O O16 0.000000 0.787667 0.209691
#
# Coordination Sequence:
#
# PCOD9351236 Si02
#       7
#     8   8   8   8   8   8   8
#     4  10  20  34  55  82 114 146 187 238 285 337
#     4  10  19  35  55  83 113 143 188 236 284 341
#     4  10  19  36  61  85 109 149 197 239 285 345
#     4  11  23  38  59  86 120 158 193 241 301 355
#     4  11  19  36  57  87 114 149 195 236 286 345
#     4  10  20  37  60  85 114 151 194 240 291 349
#     4  10  22  38  55  84 118 150 192 238 292 348
#
# _framework density 20.156949999999998
#
# number of rings (size 3 to 8) (size 9 to 14) (size 15 to 20)
#    0.000    1.714    5.714    0.857    0.000    6.286 
#    0.000    0.714    0.000    0.857    0.000    0.000 
#    0.000    0.000    0.000    0.000    0.000    0.000 
#
# Total GULP energy -156318.134339 kJ/mol
# GULP energy per Si atom -5582.790512 kJ/mol
# Density = 2.011107 g / cm^3
# Si number density = 20.156950 Si / 1000 Ang^3
#
#
#
# Elastic Constant Matrix: (Units=GPa)
#
#
# Indices 1 2 3 4 5 6 
#
# 1 109.0864 43.4633 1.5392 0.0000 0.0000 0.0000
# 2 43.4633 113.0023 14.3088 0.0000 0.0000 0.0000
# 3 1.5392 14.3088 26.0049 0.0000 0.0000 0.0000
# 4 0.0000 0.0000 0.0000 29.4526 0.0000 0.0000
# 5 0.0000 0.0000 0.0000 0.0000 17.9130 0.0000
# 6 0.0000 0.0000 0.0000 0.0000 0.0000 19.1529
#
#
#
# Elastic Compliance Matrix: (Units=1/GPa)
#
#
# Indices 1 2 3 4 5 6 
#
# 1 0.010903 -0.004420 0.001787 0.000000 0.000000 0.000000
# 2 -0.004420 0.011304 -0.005958 0.000000 0.000000 0.000000
# 3 0.001787 -0.005958 0.041627 0.000000 0.000000 0.000000
# 4 0.000000 0.000000 0.000000 0.033953 0.000000 0.000000
# 5 0.000000 0.000000 0.000000 0.000000 0.055826 0.000000
# 6 0.000000 0.000000 0.000000 0.000000 0.000000 0.052211
#
#
# Mechanical properties :
#
#
# Convention : Reuss Voigt Hill
#
# Bulk Modulus (GPa) = 21.43578 40.74623 31.09101
# Shear Modulus (GPa) = 20.95945 25.88919 23.42432
#
# Velocity S-wave (km/s) = 3.22811 3.58771 3.41265
# Velocity P-wave (km/s) = 4.95498 6.11724 5.56652
#
# Compressibility (1/GPa) = 0.04665097
#
# Stress axis : x y z
#
# Youngs Moduli (GPa) = 91.71979 88.46645 24.02290
#
# Poissons Ratio (x) = 0.39099 -0.04292
# Poissons Ratio (y) = 0.40537 0.14313
# Poissons Ratio (z) = -0.16386 0.52709
#
# Static dielectric constant tensor:
#      x y z
#    x 1.699660 0.000000 0.000000 
#    y 0.000000 1.707520 0.000000 
#    z 0.000000 0.000000 1.761530 
# 
# From -- ./inp_files/12164.got.cif
#   From: 2010.05.17/outbox.cif.g08.bks.cpg/sg36_7_cif.got.tgz:12164.got - 2010.06.03 17:41:39.
