data_PCOD9351747
_publ_section_title
;
Structure prediction by ZEFSAII (Michael W. Deem and Ramdas Pophale) SiO2 
 PCOD9351747
Probable space group: C M C 21
;
_chemical_formula_sum "Si O2"
_cell_formula_units_Z 64
_cell_length_a 8.619124
_cell_length_b 14.871785
_cell_length_c 22.382031
_cell_angle_alpha 90.000000
_cell_angle_beta 90.000000
_cell_angle_gamma 90.000000
_cell_volume 2868.968104
_symmetry_space_group_name_H-M "C M C 21"
_symmetry_group_IT_number 36
_symmetry_cell_setting 'orthorhombic'
loop_
_space_group_symop_operation_xyz
x,y,z
-x,-y,1/2+z
x,-y,1/2+z
-x,y,z
1/2+x,1/2+y,z
1/2-x,1/2-y,1/2+z
1/2+x,1/2-y,1/2+z
1/2-x,1/2+y,z
loop_
_atom_site_type_symbol
_atom_site_label
_atom_site_fract_x
_atom_site_fract_y
_atom_site_fract_z
Si Si1 0.184073 0.827348 0.689460
Si Si2 0.183640 0.465278 0.599732
Si Si3 0.181328 0.663115 0.448067
Si Si4 0.181407 0.134605 0.655335
Si Si5 0.185687 0.337105 0.494231
Si Si6 0.813129 0.519486 0.900289
Si Si7 0.319456 0.720459 0.323907
Si Si8 0.819192 0.092294 0.790836
O O1 0.280183 0.904898 0.657614
O O2 0.231093 0.729647 0.662523
O O3 0.215281 0.825693 0.760426
O O4 0.000000 0.841821 0.680990
O O5 0.257464 0.563445 0.607277
O O6 0.245076 0.400812 0.546935
O O7 0.000000 0.477473 0.591747
O O8 0.259739 0.734979 0.491252
O O9 0.233427 0.559848 0.445654
O O10 0.215400 0.692754 0.379657
O O11 0.000000 0.665178 0.460691
O O12 0.197649 0.084171 0.719789
O O13 0.000000 0.154092 0.645948
O O14 0.228561 0.387591 0.432862
O O15 0.000000 0.336614 0.498069
O O16 0.730804 0.514182 0.836226
O O17 0.000000 0.514937 0.892873
O O18 0.500000 0.706217 0.339722
O O19 0.289592 0.824812 0.309184
O O20 0.000000 0.113945 0.801634
#
# Coordination Sequence:
#
# PCOD9351747 Si02
#       8
#     8   8   8   8   8   8   8   8
#     4  10  22  40  62  90 123 164 207 253 310 365
#     4  11  24  41  64  91 122 165 212 256 305 366
#     4  11  23  37  59  92 121 157 202 249 303 361
#     4  10  22  40  61  91 127 161 203 256 307 365
#     4  10  23  44  63  84 120 164 206 254 304 358
#     4  10  22  39  59  86 121 159 197 244 305 364
#     4  10  20  36  59  86 123 162 196 245 307 363
#     4  10  20  35  59  90 123 156 199 249 301 360
#
# _framework density 22.307673000000001
#
# number of rings (size 3 to 8) (size 9 to 14) (size 15 to 20)
#    0.000    1.750    1.250    2.250    1.750    6.000 
#    0.000    1.250    0.000    0.000    0.000    0.000 
#    0.000    0.000    0.000    0.000    0.000    0.000 
#
# Total GULP energy -178838.254986 kJ/mol
# GULP energy per Si atom -5588.695468 kJ/mol
# Density = 2.225690 g / cm^3
# Si number density = 22.307673 Si / 1000 Ang^3
#
#
#
# Elastic Constant Matrix: (Units=GPa)
#
#
# Indices 1 2 3 4 5 6 
#
# 1 17.3265 2.0516 -1.5235 0.0000 0.0000 0.0000
# 2 2.0516 67.7875 -8.9224 0.0000 0.0000 0.0000
# 3 -1.5235 -8.9224 14.3498 0.0000 0.0000 0.0000
# 4 0.0000 0.0000 0.0000 26.6937 0.0000 0.0000
# 5 0.0000 0.0000 0.0000 0.0000 23.1063 0.0000
# 6 0.0000 0.0000 0.0000 0.0000 0.0000 24.7996
#
#
#
# Elastic Compliance Matrix: (Units=1/GPa)
#
#
# Indices 1 2 3 4 5 6 
#
# 1 0.058326 -0.001035 0.005549 0.000000 0.000000 0.000000
# 2 -0.001035 0.016085 0.009892 0.000000 0.000000 0.000000
# 3 0.005549 0.009892 0.076427 0.000000 0.000000 0.000000
# 4 0.000000 0.000000 0.000000 0.037462 0.000000 0.000000
# 5 0.000000 0.000000 0.000000 0.000000 0.043278 0.000000
# 6 0.000000 0.000000 0.000000 0.000000 0.000000 0.040323
#
#
# Mechanical properties :
#
#
# Convention : Reuss Voigt Hill
#
# Bulk Modulus (GPa) = 5.56641 9.18613 7.37627
# Shear Modulus (GPa) = 16.50310 22.11045 19.30678
#
# Velocity S-wave (km/s) = 2.72287 3.15168 2.94509
# Velocity P-wave (km/s) = 3.51938 4.16785 3.85727
#
# Compressibility (1/GPa) = 0.17964898
#
# Stress axis : x y z
#
# Youngs Moduli (GPa) = 17.14513 62.16869 13.08438
#
# Poissons Ratio (x) = 0.06434 -0.07260
# Poissons Ratio (y) = 0.01774 -0.12943
# Poissons Ratio (z) = -0.09514 -0.61495
#
# Static dielectric constant tensor:
#      x y z
#    x 1.747260 0.000000 0.000000 
#    y 0.000000 1.846280 0.000000 
#    z 0.000000 0.000000 1.873070 
# 
# From -- ./inp_files/16557.got.cif
#   From: 2010.05.17/outbox.cif.g08.bks.cpg/sg36_9_cif.got.tgz:16557.got - 2010.06.03 17:41:39.
