data_PCOD9351787
_publ_section_title
;
Structure prediction by ZEFSAII (Michael W. Deem and Ramdas Pophale) SiO2 
 PCOD9351787
Probable space group: C M C 21
;
_chemical_formula_sum "Si O2"
_cell_formula_units_Z 48
_cell_length_a 7.759553
_cell_length_b 29.582190
_cell_length_c 8.511492
_cell_angle_alpha 90.000000
_cell_angle_beta 90.000000
_cell_angle_gamma 90.000000
_cell_volume 1953.766781
_symmetry_space_group_name_H-M "C M C 21"
_symmetry_group_IT_number 36
_symmetry_cell_setting 'orthorhombic'
loop_
_space_group_symop_operation_xyz
x,y,z
-x,-y,1/2+z
x,-y,1/2+z
-x,y,z
1/2+x,1/2+y,z
1/2-x,1/2-y,1/2+z
1/2+x,1/2-y,1/2+z
1/2-x,1/2+y,z
loop_
_atom_site_type_symbol
_atom_site_label
_atom_site_fract_x
_atom_site_fract_y
_atom_site_fract_z
Si Si1 0.700746 0.815775 0.338800
Si Si2 0.790897 0.267360 0.026715
Si Si3 0.289694 0.144016 0.360939
Si Si4 0.692741 0.512447 0.870810
Si Si5 0.709578 0.898011 0.531885
Si Si6 0.194110 0.436094 0.064368
O O1 0.500000 0.823283 0.301639
O O2 0.715702 0.781029 0.483578
O O3 0.773147 0.789343 0.189161
O O4 0.770442 0.863851 0.394651
O O5 0.000000 0.263182 0.030286
O O6 0.741302 0.304519 0.895135
O O7 0.500000 0.142417 0.362547
O O8 0.232072 0.111036 0.502266
O O9 0.232518 0.123153 0.196549
O O10 0.500000 0.495110 0.883505
O O11 0.725861 0.552106 0.996678
O O12 0.718213 0.536564 0.704136
O O13 0.808964 0.469806 0.914604
O O14 0.500000 0.898863 0.531460
O O15 0.000000 0.427591 0.120783
#
# Coordination Sequence:
#
# PCOD9351787 Si02
#       6
#     8   8   8   8   8   8
#     4  10  21  36  57  85 115 151 196 242 288 348
#     4  10  20  36  57  83 115 149 189 240 296 347
#     4   9  19  36  61  87 109 143 194 244 284 340
#     4  12  25  40  59  89 124 153 190 245 302 346
#     4  10  20  38  62  85 112 151 198 240 286 351
#     4  11  22  40  64  87 115 157 203 239 286 356
#
# _framework density 24.567927000000001
#
# number of rings (size 3 to 8) (size 9 to 14) (size 15 to 20)
#    0.000    1.667    0.000    5.000    0.000    6.667 
#    0.000    5.000    0.000    0.000    0.000    0.000 
#    0.000    0.000    0.000    0.000    0.000    0.000 
#
# Total GULP energy -134327.467946 kJ/mol
# GULP energy per Si atom -5596.977831 kJ/mol
# Density = 2.451201 g / cm^3
# Si number density = 24.567927 Si / 1000 Ang^3
#
#
#
# Elastic Constant Matrix: (Units=GPa)
#
#
# Indices 1 2 3 4 5 6 
#
# 1 51.2976 -7.8774 -1.7978 0.0000 0.0000 0.0000
# 2 -7.8774 103.0325 -12.6785 0.0000 0.0000 0.0000
# 3 -1.7978 -12.6785 69.4961 0.0000 0.0000 0.0000
# 4 0.0000 0.0000 0.0000 46.1095 0.0000 0.0000
# 5 0.0000 0.0000 0.0000 0.0000 12.0349 0.0000
# 6 0.0000 0.0000 0.0000 0.0000 0.0000 10.1948
#
#
#
# Elastic Compliance Matrix: (Units=1/GPa)
#
#
# Indices 1 2 3 4 5 6 
#
# 1 0.019770 0.001611 0.000805 0.000000 0.000000 0.000000
# 2 0.001611 0.010060 0.001877 0.000000 0.000000 0.000000
# 3 0.000805 0.001877 0.014753 0.000000 0.000000 0.000000
# 4 0.000000 0.000000 0.000000 0.021688 0.000000 0.000000
# 5 0.000000 0.000000 0.000000 0.000000 0.083091 0.000000
# 6 0.000000 0.000000 0.000000 0.000000 0.000000 0.098089
#
#
# Mechanical properties :
#
#
# Convention : Reuss Voigt Hill
#
# Bulk Modulus (GPa) = 18.80851 19.90210 19.35531
# Shear Modulus (GPa) = 19.48659 30.07984 24.78322
#
# Velocity S-wave (km/s) = 2.81939 3.50287 3.17955
# Velocity P-wave (km/s) = 4.27445 4.94758 4.62328
#
# Compressibility (1/GPa) = 0.05316742
#
# Stress axis : x y z
#
# Youngs Moduli (GPa) = 50.58264 99.40581 67.78492
#
# Poissons Ratio (x) = -0.16010 -0.05458
# Poissons Ratio (y) = -0.08147 -0.12723
# Poissons Ratio (z) = -0.04073 -0.18658
#
# Static dielectric constant tensor:
#      x y z
#    x 1.893840 0.000000 0.000000 
#    y 0.000000 1.865680 0.000000 
#    z 0.000000 0.000000 2.001590 
# 
# From -- ./inp_files/2676.got.cif
#   From: 2010.05.17/outbox.cif.g08.bks.cpg/sg36_2_cif.got.tgz:2676.got - 2010.06.03 17:41:39.
