data_PCOD9351834
_publ_section_title
;
Structure prediction by ZEFSAII (Michael W. Deem and Ramdas Pophale) SiO2 
 PCOD9351834
Probable space group: C M C 21
;
_chemical_formula_sum "Si O2"
_cell_formula_units_Z 48
_cell_length_a 11.049443
_cell_length_b 23.244344
_cell_length_c 8.689280
_cell_angle_alpha 90.000000
_cell_angle_beta 90.000000
_cell_angle_gamma 90.000000
_cell_volume 2231.729077
_symmetry_space_group_name_H-M "C M C 21"
_symmetry_group_IT_number 36
_symmetry_cell_setting 'orthorhombic'
loop_
_space_group_symop_operation_xyz
x,y,z
-x,-y,1/2+z
x,-y,1/2+z
-x,y,z
1/2+x,1/2+y,z
1/2-x,1/2-y,1/2+z
1/2+x,1/2-y,1/2+z
1/2-x,1/2+y,z
loop_
_atom_site_type_symbol
_atom_site_label
_atom_site_fract_x
_atom_site_fract_y
_atom_site_fract_z
Si Si1 0.138960 0.875301 0.577000
Si Si2 0.283546 0.603633 0.400542
Si Si3 0.634418 0.477440 0.342597
Si Si4 0.293386 0.192138 0.839257
Si Si5 0.865880 0.576196 0.677606
Si Si6 0.129577 0.784467 0.072536
O O1 0.224834 0.874671 0.725574
O O2 0.142407 0.937628 0.494507
O O3 0.186197 0.832317 0.447029
O O4 0.000000 0.863636 0.623228
O O5 0.355154 0.543960 0.385517
O O6 0.163743 0.590071 0.499368
O O7 0.350335 0.652977 0.497396
O O8 0.500000 0.465940 0.274045
O O9 0.750801 0.460111 0.239859
O O10 0.360248 0.135948 0.773163
O O11 0.235487 0.224094 0.694244
O O12 0.365760 0.236633 0.941530
O O13 0.000000 0.550464 0.695388
O O14 0.000000 0.783161 0.152088
#
# Coordination Sequence:
#
# PCOD9351834 Si02
#       6
#     8   8   8   8   8   8
#     4  10  20  36  59  88 120 153 197 254 308 361
#     4  11  22  36  59  90 123 158 200 245 303 362
#     4  10  21  38  63  92 121 157 203 253 303 360
#     4  10  22  40  60  88 118 157 206 253 308 370
#     4  10  23  42  62  88 126 166 205 252 306 366
#     4  11  22  38  61  86 119 159 202 255 309 363
#
# _framework density 21.507985999999999
#
# number of rings (size 3 to 8) (size 9 to 14) (size 15 to 20)
#    0.000    1.667    0.000    4.500    0.000    7.333 
#    0.000   15.000    0.000    0.000    0.000    0.000 
#    0.000    0.000    0.000    0.000    0.000    0.000 
#
# Total GULP energy -134046.898096 kJ/mol
# GULP energy per Si atom -5585.287421 kJ/mol
# Density = 2.145903 g / cm^3
# Si number density = 21.507986 Si / 1000 Ang^3
#
#
#
# Elastic Constant Matrix: (Units=GPa)
#
#
# Indices 1 2 3 4 5 6 
#
# 1 126.5056 26.5404 42.1153 0.0000 0.0000 0.0000
# 2 26.5404 82.7370 10.1100 0.0000 0.0000 0.0000
# 3 42.1153 10.1100 102.2773 0.0000 0.0000 0.0000
# 4 0.0000 0.0000 0.0000 27.2087 0.0000 0.0000
# 5 0.0000 0.0000 0.0000 0.0000 18.0192 0.0000
# 6 0.0000 0.0000 0.0000 0.0000 0.0000 9.7132
#
#
#
# Elastic Compliance Matrix: (Units=1/GPa)
#
#
# Indices 1 2 3 4 5 6 
#
# 1 0.009705 -0.002657 -0.003734 0.000000 0.000000 0.000000
# 2 -0.002657 0.012962 -0.000187 0.000000 0.000000 0.000000
# 3 -0.003734 -0.000187 0.011333 0.000000 0.000000 0.000000
# 4 0.000000 0.000000 0.000000 0.036753 0.000000 0.000000
# 5 0.000000 0.000000 0.000000 0.000000 0.055496 0.000000
# 6 0.000000 0.000000 0.000000 0.000000 0.000000 0.102953
#
#
# Mechanical properties :
#
#
# Convention : Reuss Voigt Hill
#
# Bulk Modulus (GPa) = 47.97449 52.11682 50.04565
# Shear Modulus (GPa) = 20.05567 26.50517 23.28042
#
# Velocity S-wave (km/s) = 3.05696 3.51428 3.29357
# Velocity P-wave (km/s) = 5.90033 6.38364 6.14674
#
# Compressibility (1/GPa) = 0.02084441
#
# Stress axis : x y z
#
# Youngs Moduli (GPa) = 103.03721 77.15052 88.23552
#
# Poissons Ratio (x) = 0.20499 0.32945
# Poissons Ratio (y) = 0.27377 0.01651
# Poissons Ratio (z) = 0.38471 0.01444
#
# Static dielectric constant tensor:
#      x y z
#    x 1.771000 0.000000 0.000000 
#    y 0.000000 1.770600 0.000000 
#    z 0.000000 0.000000 1.788580 
# 
# From -- ./inp_files/3296.got.cif
#   From: 2010.05.17/outbox.cif.g08.bks.cpg/sg36_2_cif.got.tgz:3296.got - 2010.06.03 17:41:39.
