data_PCOD9351985
_publ_section_title
;
Structure prediction by ZEFSAII (Michael W. Deem and Ramdas Pophale) SiO2 
 PCOD9351985
Probable space group: C M C 21
;
_chemical_formula_sum "Si O2"
_cell_formula_units_Z 52
_cell_length_a 7.929799
_cell_length_b 19.485671
_cell_length_c 14.028386
_cell_angle_alpha 90.000000
_cell_angle_beta 90.000000
_cell_angle_gamma 90.000000
_cell_volume 2167.630494
_symmetry_space_group_name_H-M "C M C 21"
_symmetry_group_IT_number 36
_symmetry_cell_setting 'orthorhombic'
loop_
_space_group_symop_operation_xyz
x,y,z
-x,-y,1/2+z
x,-y,1/2+z
-x,y,z
1/2+x,1/2+y,z
1/2-x,1/2-y,1/2+z
1/2+x,1/2-y,1/2+z
1/2-x,1/2+y,z
loop_
_atom_site_type_symbol
_atom_site_label
_atom_site_fract_x
_atom_site_fract_y
_atom_site_fract_z
Si Si1 0.198428 0.624542 0.705070
Si Si2 0.194612 0.566096 0.989367
Si Si3 0.189064 0.348247 0.675295
Si Si4 0.500000 0.471334 0.203393
Si Si5 0.500000 0.466590 0.975959
Si Si6 0.308416 0.224886 0.553932
Si Si7 0.500000 0.619959 0.298791
Si Si8 0.804269 0.710465 0.876733
O O1 0.328229 0.566668 0.733407
O O2 0.223767 0.650118 0.596828
O O3 0.241924 0.690944 0.769748
O O4 0.000000 0.607991 0.720081
O O5 0.331846 0.511554 0.956033
O O6 0.213377 0.636377 0.929395
O O7 0.000000 0.542976 0.980287
O O8 0.222411 0.589325 0.099807
O O9 0.196387 0.281719 0.606528
O O10 0.332022 0.345407 0.755715
O O11 0.000000 0.355959 0.713547
O O12 0.500000 0.545729 0.247613
O O13 0.500000 0.462709 0.089742
O O14 0.500000 0.398846 0.910491
O O15 0.500000 0.242089 0.582026
O O16 0.291832 0.235647 0.441699
O O17 0.000000 0.730008 0.879031
#
# Coordination Sequence:
#
# PCOD9351985 Si02
#       8
#     8   8   8   4   4   8   4   8
#     4  10  24  43  60  92 130 169 211 253 318 378
#     4   9  18  35  61  88 117 157 212 264 300 360
#     4  10  20  38  64  89 120 158 208 267 311 357
#     4  12  26  42  66  90 132 178 199 264 317 386
#     4  12  24  38  62  92 126 170 202 253 325 377
#     4  10  20  37  64  93 124 159 209 270 309 365
#     4  12  24  42  62  98 124 166 215 255 318 379
#     4   9  19  36  62  93 119 161 215 265 304 362
#
# _framework density 23.989328
#
# number of rings (size 3 to 8) (size 9 to 14) (size 15 to 20)
#    0.000    1.846    2.308    2.308    6.462    1.846 
#    2.769    0.000    0.000    0.000    0.000    0.000 
#    0.000    0.000    0.000    0.000    0.000    0.000 
#
# Total GULP energy -145404.432000 kJ/mol
# GULP energy per Si atom -5592.478154 kJ/mol
# Density = 2.393473 g / cm^3
# Si number density = 23.989328 Si / 1000 Ang^3
#
#
#
# Elastic Constant Matrix: (Units=GPa)
#
#
# Indices 1 2 3 4 5 6 
#
# 1 94.8281 27.9908 16.5664 0.0000 0.0000 0.0000
# 2 27.9908 45.9099 0.3462 0.0000 0.0000 0.0000
# 3 16.5664 0.3462 88.9121 0.0000 0.0000 0.0000
# 4 0.0000 0.0000 0.0000 38.8252 0.0000 0.0000
# 5 0.0000 0.0000 0.0000 0.0000 25.7665 0.0000
# 6 0.0000 0.0000 0.0000 0.0000 0.0000 29.3160
#
#
#
# Elastic Compliance Matrix: (Units=1/GPa)
#
#
# Indices 1 2 3 4 5 6 
#
# 1 0.013377 -0.008137 -0.002461 0.000000 0.000000 0.000000
# 2 -0.008137 0.026732 0.001412 0.000000 0.000000 0.000000
# 3 -0.002461 0.001412 0.011700 0.000000 0.000000 0.000000
# 4 0.000000 0.000000 0.000000 0.025756 0.000000 0.000000
# 5 0.000000 0.000000 0.000000 0.000000 0.038810 0.000000
# 6 0.000000 0.000000 0.000000 0.000000 0.000000 0.034111
#
#
# Mechanical properties :
#
#
# Convention : Reuss Voigt Hill
#
# Bulk Modulus (GPa) = 29.90652 35.49521 32.70087
# Shear Modulus (GPa) = 27.77694 31.09800 29.43747
#
# Velocity S-wave (km/s) = 3.40647 3.60436 3.50681
# Velocity P-wave (km/s) = 5.28826 5.67012 5.48251
#
# Compressibility (1/GPa) = 0.03343752
#
# Stress axis : x y z
#
# Youngs Moduli (GPa) = 74.75373 37.40771 85.46958
#
# Poissons Ratio (x) = 0.30440 0.21032
# Poissons Ratio (y) = 0.60830 -0.12069
# Poissons Ratio (z) = 0.18395 -0.05282
#
# Static dielectric constant tensor:
#      x y z
#    x 1.949780 0.000000 0.000000 
#    y 0.000000 1.930280 0.000000 
#    z 0.000000 0.000000 1.966760 
# 
# From -- ./inp_files/10618.got.cif
#   From: 2010.05.17/outbox.cif.g08.bks.cpg/sg36_6_cif.got.tgz:10618.got - 2010.06.03 17:41:39.
