data_PCOD9351615
_publ_section_title
;
Structure prediction by ZEFSAII (Michael W. Deem and Ramdas Pophale) SiO2 
 PCOD9351615
Probable space group: C M C 21
;
_chemical_formula_sum "Si O2"
_cell_formula_units_Z 44
_cell_length_a 9.969328
_cell_length_b 22.195086
_cell_length_c 7.447775
_cell_angle_alpha 90.000000
_cell_angle_beta 90.000000
_cell_angle_gamma 90.000000
_cell_volume 1647.969862
_symmetry_space_group_name_H-M "C M C 21"
_symmetry_group_IT_number 36
_symmetry_cell_setting 'orthorhombic'
loop_
_space_group_symop_operation_xyz
x,y,z
-x,-y,1/2+z
x,-y,1/2+z
-x,y,z
1/2+x,1/2+y,z
1/2-x,1/2-y,1/2+z
1/2+x,1/2-y,1/2+z
1/2-x,1/2+y,z
loop_
_atom_site_type_symbol
_atom_site_label
_atom_site_fract_x
_atom_site_fract_y
_atom_site_fract_z
Si Si1 0.000000 0.811955 0.634310
Si Si2 0.857081 0.418028 0.913934
Si Si3 0.000000 0.894409 0.146004
Si Si4 0.774482 0.469738 0.575262
Si Si5 0.500000 0.225186 0.945992
Si Si6 0.259297 0.355370 0.392836
Si Si7 0.500000 0.197365 0.376344
Si Si8 0.500000 0.492724 0.906110
O O1 0.135602 0.842974 0.557024
O O2 0.000000 0.789558 0.841686
O O3 0.000000 0.751512 0.511760
O O4 0.756675 0.442433 0.769905
O O5 0.000000 0.566911 0.320249
O O6 0.874198 0.346858 0.926490
O O7 0.845692 0.465244 0.074143
O O8 0.862832 0.862992 0.222493
O O9 0.000000 0.959469 0.242242
O O10 0.000000 0.919624 0.941345
O O11 0.822728 0.415719 0.447933
O O12 0.630499 0.482332 0.501359
O O13 0.359379 0.193907 0.882822
O O14 0.500000 0.218125 0.166548
#
# Coordination Sequence:
#
# PCOD9351615 Si02
#       8
#     4   8   4   8   4   8   4   4
#     4  11  28  48  75 105 142 200 255 295 380 447
#     4  10  22  37  62 101 134 180 218 296 361 431
#     4   9  20  40  64  90 145 179 239 296 358 437
#     4  11  20  39  65  92 145 176 231 283 367 442
#     4  12  25  46  78 100 142 197 240 323 377 414
#     4  10  23  44  70 101 140 192 241 310 362 445
#     4  10  25  46  69 107 147 176 249 307 354 448
#     4  10  20  34  58  92 126 198 217 281 345 440
#
# _framework density 26.699515999999999
#
# number of rings (size 3 to 8) (size 9 to 14) (size 15 to 20)
#    0.545    1.091    1.818    3.273    3.818    2.909 
#    0.000    0.000   28.000    0.000    0.000    0.000 
#    0.000    0.000    0.000    0.000    0.000    0.000 
#
# Total GULP energy -122529.781820 kJ/mol
# GULP energy per Si atom -5569.535537 kJ/mol
# Density = 2.663875 g / cm^3
# Si number density = 26.699516 Si / 1000 Ang^3
#
#
#
# Elastic Constant Matrix: (Units=GPa)
#
#
# Indices 1 2 3 4 5 6 
#
# 1 80.0775 19.1736 27.4353 0.0000 0.0000 0.0000
# 2 19.1736 142.0156 43.9053 0.0000 0.0000 0.0000
# 3 27.4353 43.9053 44.7496 0.0000 0.0000 0.0000
# 4 0.0000 0.0000 0.0000 53.9764 0.0000 0.0000
# 5 0.0000 0.0000 0.0000 0.0000 29.7879 0.0000
# 6 0.0000 0.0000 0.0000 0.0000 0.0000 29.3478
#
#
#
# Elastic Compliance Matrix: (Units=1/GPa)
#
#
# Indices 1 2 3 4 5 6 
#
# 1 0.015961 0.001249 -0.011011 0.000000 0.000000 0.000000
# 2 0.001249 0.010205 -0.010778 0.000000 0.000000 0.000000
# 3 -0.011011 -0.010778 0.039673 0.000000 0.000000 0.000000
# 4 0.000000 0.000000 0.000000 0.018527 0.000000 0.000000
# 5 0.000000 0.000000 0.000000 0.000000 0.033571 0.000000
# 6 0.000000 0.000000 0.000000 0.000000 0.000000 0.034074
#
#
# Mechanical properties :
#
#
# Convention : Reuss Voigt Hill
#
# Bulk Modulus (GPa) = 40.39111 49.76346 45.07728
# Shear Modulus (GPa) = 24.83310 34.37764 29.60537
#
# Velocity S-wave (km/s) = 3.05306 3.59217 3.33353
# Velocity P-wave (km/s) = 5.25253 5.99030 5.63351
#
# Compressibility (1/GPa) = 0.02475792
#
# Stress axis : x y z
#
# Youngs Moduli (GPa) = 62.65126 97.99065 25.20633
#
# Poissons Ratio (x) = -0.12242 0.27756
# Poissons Ratio (y) = -0.07827 0.27169
# Poissons Ratio (z) = 0.68988 1.05619
#
# Static dielectric constant tensor:
#      x y z
#    x 2.195500 0.000000 0.000000 
#    y 0.000000 2.189040 0.000000 
#    z 0.000000 0.000000 2.548340 
# 
# From -- ./inp_files/3291.got.cif
#   From: 2010.05.17/outbox.cif.g08.bks.cpg/sg36_2_cif.got.tgz:3291.got - 2010.06.03 17:41:39.
