data_PCOD9351460
_publ_section_title
;
Structure prediction by ZEFSAII (Michael W. Deem and Ramdas Pophale) SiO2 
 PCOD9351460
Probable space group: C M C 21
;
_chemical_formula_sum "Si O2"
_cell_formula_units_Z 64
_cell_length_a 7.330368
_cell_length_b 23.571378
_cell_length_c 16.733211
_cell_angle_alpha 90.000000
_cell_angle_beta 90.000000
_cell_angle_gamma 90.000000
_cell_volume 2891.279238
_symmetry_space_group_name_H-M "C M C 21"
_symmetry_group_IT_number 36
_symmetry_cell_setting 'orthorhombic'
loop_
_space_group_symop_operation_xyz
x,y,z
-x,-y,1/2+z
x,-y,1/2+z
-x,y,z
1/2+x,1/2+y,z
1/2-x,1/2-y,1/2+z
1/2+x,1/2-y,1/2+z
1/2-x,1/2+y,z
loop_
_atom_site_type_symbol
_atom_site_label
_atom_site_fract_x
_atom_site_fract_y
_atom_site_fract_z
Si Si1 0.720569 0.364003 0.934770
Si Si2 0.792032 0.666055 0.114266
Si Si3 0.222037 0.213823 0.581011
Si Si4 0.207471 0.505009 0.434770
Si Si5 0.723608 0.962724 0.261983
Si Si6 0.723608 0.037276 0.107558
Si Si7 0.707969 0.833945 0.255274
Si Si8 0.722037 0.286178 0.788529
O O1 0.500000 0.367558 0.934770
O O2 0.792275 0.427236 0.934770
O O3 0.776786 0.328322 0.857967
O O4 0.776786 0.328321 0.011573
O O5 0.714157 0.721217 0.069185
O O6 0.714899 0.602842 0.112782
O O7 0.789207 0.688194 0.205297
O O8 0.000000 0.659813 0.085675
O O9 0.289206 0.188194 0.664243
O O10 0.000000 0.215432 0.584762
O O11 0.284295 0.485912 0.348750
O O12 0.284295 0.485912 0.520791
O O13 0.000000 0.482870 0.434770
O O14 0.500000 0.964274 0.259899
O O15 0.785101 0.897158 0.256758
O O16 0.781533 1.000000 0.184770
O O17 0.500000 0.035726 0.109641
O O18 0.500000 0.840187 0.283865
O O19 0.785843 0.778783 0.300355
O O20 0.500000 0.284568 0.784777
#
# Coordination Sequence:
#
# PCOD9351460 Si02
#       8
#     8   8   8   8   8   8   8   8
#     4  10  20  33  47  67  97 126 155 194 238 282
#     4   9  17  31  50  70  94 123 156 195 238 281
#     4   9  18  31  48  70  95 125 159 194 234 284
#     4  10  20  33  51  73  95 124 163 200 236 286
#     4   9  17  29  47  72  98 122 153 196 239 278
#     4   9  17  29  47  72  98 122 153 196 239 278
#     4   9  17  31  50  70  94 123 156 195 238 281
#     4   9  18  31  48  70  95 125 159 194 234 284
#
# _framework density 22.135531
#
# number of rings (size 3 to 8) (size 9 to 14) (size 15 to 20)
#    0.000    2.750    0.000    1.500    0.000    4.000 
#    0.000    6.250    0.000    4.500    0.000    3.500 
#    0.000    0.000    0.000    0.000    0.000    0.000 
#
# Total GULP energy -178507.227324 kJ/mol
# GULP energy per Si atom -5578.350854 kJ/mol
# Density = 2.208515 g / cm^3
# Si number density = 22.135531 Si / 1000 Ang^3
#
#
#
# Elastic Constant Matrix: (Units=GPa)
#
#
# Indices 1 2 3 4 5 6 
#
# 1 86.6524 -0.7072 -2.8506 0.0000 0.0000 0.0000
# 2 -0.7072 235.5041 90.1902 0.0000 0.0000 0.0000
# 3 -2.8506 90.1902 119.1612 0.0000 0.0000 0.0000
# 4 0.0000 0.0000 0.0000 38.8535 0.0000 0.0000
# 5 0.0000 0.0000 0.0000 0.0000 -1.4217 0.0000
# 6 0.0000 0.0000 0.0000 0.0000 0.0000 -369.0214
#
#
#
# Elastic Compliance Matrix: (Units=1/GPa)
#
#
# Indices 1 2 3 4 5 6 
#
# 1 0.011551 -0.000100 0.000352 0.000000 0.000000 0.000000
# 2 -0.000100 0.005980 -0.004529 0.000000 0.000000 0.000000
# 3 0.000352 -0.004529 0.011828 0.000000 0.000000 0.000000
# 4 0.000000 0.000000 0.000000 0.025738 0.000000 0.000000
# 5 0.000000 0.000000 0.000000 0.000000 -0.703370 0.000000
# 6 0.000000 0.000000 0.000000 0.000000 0.000000 -0.002710
#
#
# Mechanical properties :
#
#
# Convention : Reuss Voigt Hill
#
# Bulk Modulus (GPa) = 48.06305 68.28693 58.17499
# Shear Modulus (GPa) = -7.86790 -42.67224 -25.27007
#
# Velocity S-wave (km/s) = -1.88736 -4.39540 -3.38243
# Velocity P-wave (km/s) = 4.12440 2.27091 3.32924
#
# Compressibility (1/GPa) = 0.02080601
#
# Stress axis : x y z
#
# Youngs Moduli (GPa) = 86.57166 167.21712 84.54463
#
# Poissons Ratio (x) = 0.01675 -0.02977
# Poissons Ratio (y) = 0.00867 0.38288
# Poissons Ratio (z) = -0.03049 0.75728
#
# Static dielectric constant tensor:
#      x y z
#    x 1.815120 0.000000 0.000000 
#    y 0.000000 1.788060 0.000000 
#    z 0.000000 0.000000 1.770360 
# 
# From -- ./inp_files/10979.got.cif
#   From: 2010.05.17/outbox.cif.g08.bks.cpg/sg36_6_cif.got.tgz:10979.got - 2010.06.03 17:41:39.
