data_PCOD9351477
_publ_section_title
;
Structure prediction by ZEFSAII (Michael W. Deem and Ramdas Pophale) SiO2 
 PCOD9351477
Probable space group: C M C 21
;
_chemical_formula_sum "Si O2"
_cell_formula_units_Z 64
_cell_length_a 7.510184
_cell_length_b 21.783460
_cell_length_c 14.684024
_cell_angle_alpha 90.000000
_cell_angle_beta 90.000000
_cell_angle_gamma 90.000000
_cell_volume 2402.273915
_symmetry_space_group_name_H-M "C M C 21"
_symmetry_group_IT_number 36
_symmetry_cell_setting 'orthorhombic'
loop_
_space_group_symop_operation_xyz
x,y,z
-x,-y,1/2+z
x,-y,1/2+z
-x,y,z
1/2+x,1/2+y,z
1/2-x,1/2-y,1/2+z
1/2+x,1/2-y,1/2+z
1/2-x,1/2+y,z
loop_
_atom_site_type_symbol
_atom_site_label
_atom_site_fract_x
_atom_site_fract_y
_atom_site_fract_z
Si Si1 0.214693 0.214977 0.305600
Si Si2 0.789878 0.645068 0.137388
Si Si3 0.286196 0.218337 0.976309
Si Si4 0.706486 0.512511 0.149122
Si Si5 0.212910 0.593425 0.861952
Si Si6 0.213347 0.332052 0.191700
Si Si7 0.795537 0.039036 0.346347
Si Si8 0.287164 0.595629 0.523471
O O1 0.258237 0.156765 0.244139
O O2 0.280623 0.229040 0.407549
O O3 0.280676 0.271161 0.241784
O O4 0.000000 0.217634 0.310556
O O5 0.713420 0.580253 0.106672
O O6 0.000000 0.641994 0.122285
O O7 0.716052 0.701171 0.076136
O O8 0.500000 0.228090 0.983872
O O9 0.255201 0.154156 0.921892
O O10 0.500000 0.495408 0.161978
O O11 0.790453 0.524027 0.248675
O O12 0.786000 0.460263 0.085416
O O13 0.271332 0.612812 0.759455
O O14 0.296641 0.529230 0.891108
O O15 0.000000 0.584793 0.862972
O O16 0.262404 0.345265 0.087593
O O17 0.000000 0.330181 0.196237
O O18 0.717642 0.085353 0.421318
O O19 0.000000 0.058057 0.327906
O O20 0.500000 0.588965 0.513025
#
# Coordination Sequence:
#
# PCOD9351477 Si02
#       8
#     8   8   8   8   8   8   8   8
#     4   9  19  39  61  79 107 146 180 220 280 338
#     4  11  22  37  58  85 111 140 187 236 270 316
#     4   8  17  35  58  82 107 141 182 224 277 330
#     4  10  21  37  54  77 114 152 179 216 276 332
#     4   9  16  30  54  79 103 136 179 222 264 316
#     4   9  18  33  55  79 103 135 177 221 270 323
#     4  10  20  33  50  77 110 145 180 213 265 330
#     4  10  20  34  54  80 109 143 182 220 266 325
#
# _framework density 26.641425000000002
#
# number of rings (size 3 to 8) (size 9 to 14) (size 15 to 20)
#    0.000    2.500    1.250    2.625    0.000    2.000 
#    2.250    3.750    0.000    0.000    0.000    0.000 
#    0.000    0.000    0.000    0.000    0.000    0.000 
#
# Total GULP energy -178877.612488 kJ/mol
# GULP energy per Si atom -5589.925390 kJ/mol
# Density = 2.658079 g / cm^3
# Si number density = 26.641425 Si / 1000 Ang^3
#
#
#
# Elastic Constant Matrix: (Units=GPa)
#
#
# Indices 1 2 3 4 5 6 
#
# 1 82.6726 -4.0927 2.7724 0.0000 0.0000 0.0000
# 2 -4.0927 87.5605 7.3136 0.0000 0.0000 0.0000
# 3 2.7724 7.3136 154.0524 0.0000 0.0000 0.0000
# 4 0.0000 0.0000 0.0000 47.5966 0.0000 0.0000
# 5 0.0000 0.0000 0.0000 0.0000 9.1474 0.0000
# 6 0.0000 0.0000 0.0000 0.0000 0.0000 -40.4816
#
#
#
# Elastic Compliance Matrix: (Units=1/GPa)
#
#
# Indices 1 2 3 4 5 6 
#
# 1 0.012133 0.000588 -0.000246 0.000000 0.000000 0.000000
# 2 0.000588 0.011495 -0.000556 0.000000 0.000000 0.000000
# 3 -0.000246 -0.000556 0.006522 0.000000 0.000000 0.000000
# 4 0.000000 0.000000 0.000000 0.021010 0.000000 0.000000
# 5 0.000000 0.000000 0.000000 0.000000 0.109320 0.000000
# 6 0.000000 0.000000 0.000000 0.000000 0.000000 -0.024703
#
#
# Mechanical properties :
#
#
# Convention : Reuss Voigt Hill
#
# Bulk Modulus (GPa) = 33.64704 37.36359 35.50531
# Shear Modulus (GPa) = 34.21985 24.47197 29.34591
#
# Velocity S-wave (km/s) = 3.58782 3.03408 3.32251
# Velocity P-wave (km/s) = 5.46080 5.13120 5.29856
#
# Compressibility (1/GPa) = 0.02972030
#
# Stress axis : x y z
#
# Youngs Moduli (GPa) = 82.41811 86.99736 153.32390
#
# Poissons Ratio (x) = -0.05113 0.03776
# Poissons Ratio (y) = -0.04844 0.08529
# Poissons Ratio (z) = 0.02030 0.04840
#
# Static dielectric constant tensor:
#      x y z
#    x 2.004410 0.000000 0.000000 
#    y 0.000000 2.126030 0.000000 
#    z 0.000000 0.000000 2.147630 
# 
# From -- ./inp_files/10983.got.cif
#   From: 2010.05.17/outbox.cif.g08.bks.cpg/sg36_6_cif.got.tgz:10983.got - 2010.06.03 17:41:39.
