data_PCOD9351087
_publ_section_title
;
Structure prediction by ZEFSAII (Michael W. Deem and Ramdas Pophale) SiO2 
 PCOD9351087
Probable space group: C M C 21
;
_chemical_formula_sum "Si O2"
_cell_formula_units_Z 64
_cell_length_a 7.600371
_cell_length_b 31.896157
_cell_length_c 11.568445
_cell_angle_alpha 90.000000
_cell_angle_beta 90.000000
_cell_angle_gamma 90.000000
_cell_volume 2804.452823
_symmetry_space_group_name_H-M "C M C 21"
_symmetry_group_IT_number 36
_symmetry_cell_setting 'orthorhombic'
loop_
_space_group_symop_operation_xyz
x,y,z
-x,-y,1/2+z
x,-y,1/2+z
-x,y,z
1/2+x,1/2+y,z
1/2-x,1/2-y,1/2+z
1/2+x,1/2-y,1/2+z
1/2-x,1/2+y,z
loop_
_atom_site_type_symbol
_atom_site_label
_atom_site_fract_x
_atom_site_fract_y
_atom_site_fract_z
Si Si1 0.783471 0.830271 0.431370
Si Si2 0.705585 0.988296 0.935479
Si Si3 0.798520 0.323622 0.795375
Si Si4 0.703415 0.978006 0.679567
Si Si5 0.289225 0.239214 0.480535
Si Si6 0.700053 0.388701 0.616166
Si Si7 0.789574 0.829923 0.170776
Si Si8 0.786738 0.107388 0.482853
O O1 0.726874 0.786673 0.490275
O O2 0.723482 0.872337 0.495641
O O3 0.722403 0.827598 0.299945
O O4 0.000000 0.831718 0.434662
O O5 0.500000 0.000709 0.929368
O O6 0.778818 0.993778 0.803648
O O7 0.720583 0.938851 0.960371
O O8 0.780535 0.008977 0.053715
O O9 0.723016 0.283471 0.862872
O O10 0.701166 0.346104 0.691187
O O11 0.000000 0.315454 0.760868
O O12 0.792082 0.359796 0.892547
O O13 0.500000 0.991967 0.677799
O O14 0.706679 0.927279 0.677897
O O15 0.500000 0.240233 0.467208
O O16 0.252530 0.209597 0.589326
O O17 0.500000 0.402793 0.602203
O O18 0.737243 0.872613 0.105882
O O19 0.000000 0.830685 0.178268
O O20 0.000000 0.107850 0.470426
#
# Coordination Sequence:
#
# PCOD9351087 Si02
#       8
#     8   8   8   8   8   8   8   8
#     4   9  20  37  54  77 114 152 184 229 290 341
#     4  10  21  38  60  84 113 151 189 235 290 347
#     4  10  19  33  56  81 108 143 185 230 275 329
#     4  10  22  40  60  84 115 151 193 237 291 352
#     4   9  19  35  55  79 107 145 189 233 279 330
#     4  11  22  36  57  83 113 150 188 232 284 339
#     4   9  19  36  55  77 110 147 184 229 282 339
#     4  10  19  33  57  85 108 139 184 229 277 335
#
# _framework density 22.820851999999999
#
# number of rings (size 3 to 8) (size 9 to 14) (size 15 to 20)
#    0.000    2.250    1.250    1.125    1.750    2.500 
#    0.000    2.500    0.000    0.000    0.000    0.000 
#    0.000    0.000    0.000    0.000    0.000    0.000 
#
# Total GULP energy -178504.869607 kJ/mol
# GULP energy per Si atom -5578.277175 kJ/mol
# Density = 2.276891 g / cm^3
# Si number density = 22.820852 Si / 1000 Ang^3
#
#
#
# Elastic Constant Matrix: (Units=GPa)
#
#
# Indices 1 2 3 4 5 6 
#
# 1 52.0389 -1.9732 6.3107 0.0000 0.0000 0.0000
# 2 -1.9732 49.4908 37.5960 0.0000 0.0000 0.0000
# 3 6.3107 37.5960 159.0430 0.0000 0.0000 0.0000
# 4 0.0000 0.0000 0.0000 29.1092 0.0000 0.0000
# 5 0.0000 0.0000 0.0000 0.0000 1.9828 0.0000
# 6 0.0000 0.0000 0.0000 0.0000 0.0000 18.8368
#
#
#
# Elastic Compliance Matrix: (Units=1/GPa)
#
#
# Indices 1 2 3 4 5 6 
#
# 1 0.019420 0.001657 -0.001162 0.000000 0.000000 0.000000
# 2 0.001657 0.024770 -0.005921 0.000000 0.000000 0.000000
# 3 -0.001162 -0.005921 0.007733 0.000000 0.000000 0.000000
# 4 0.000000 0.000000 0.000000 0.034353 0.000000 0.000000
# 5 0.000000 0.000000 0.000000 0.000000 0.504341 0.000000
# 6 0.000000 0.000000 0.000000 0.000000 0.000000 0.053087
#
#
# Mechanical properties :
#
#
# Convention : Reuss Voigt Hill
#
# Bulk Modulus (GPa) = 24.34800 38.27108 31.30954
# Shear Modulus (GPa) = 7.48225 24.56170 16.02198
#
# Velocity S-wave (km/s) = 1.81268 3.28423 2.65255
# Velocity P-wave (km/s) = 3.88245 5.58464 4.80945
#
# Compressibility (1/GPa) = 0.04107114
#
# Stress axis : x y z
#
# Youngs Moduli (GPa) = 51.49279 40.37168 129.30922
#
# Poissons Ratio (x) = -0.06691 0.15030
# Poissons Ratio (y) = -0.08534 0.76565
# Poissons Ratio (z) = 0.05985 0.23904
#
# Static dielectric constant tensor:
#      x y z
#    x 1.872560 0.000000 0.000000 
#    y 0.000000 1.811840 0.000000 
#    z 0.000000 0.000000 1.930060 
# 
# From -- ./inp_files/7210.got.cif
#   From: 2010.05.17/outbox.cif.g08.bks.cpg/sg36_4_cif.got.tgz:7210.got - 2010.06.03 17:41:39.
