data_PCOD9351701
_publ_section_title
;
Structure prediction by ZEFSAII (Michael W. Deem and Ramdas Pophale) SiO2 
 PCOD9351701
Probable space group: C M C 21
;
_chemical_formula_sum "Si O2"
_cell_formula_units_Z 64
_cell_length_a 9.030897
_cell_length_b 23.156811
_cell_length_c 16.371619
_cell_angle_alpha 90.000000
_cell_angle_beta 90.000000
_cell_angle_gamma 90.000000
_cell_volume 3423.743883
_symmetry_space_group_name_H-M "C M C 21"
_symmetry_group_IT_number 36
_symmetry_cell_setting 'orthorhombic'
loop_
_space_group_symop_operation_xyz
x,y,z
-x,-y,1/2+z
x,-y,1/2+z
-x,y,z
1/2+x,1/2+y,z
1/2-x,1/2-y,1/2+z
1/2+x,1/2-y,1/2+z
1/2-x,1/2+y,z
loop_
_atom_site_type_symbol
_atom_site_label
_atom_site_fract_x
_atom_site_fract_y
_atom_site_fract_z
Si Si1 0.673076 0.645735 0.964930
Si Si2 0.679648 0.034592 0.643644
Si Si3 0.829491 0.333053 0.147076
Si Si4 0.824593 0.833444 0.766408
Si Si5 0.678606 0.956008 0.799470
Si Si6 0.824158 0.280446 0.605225
Si Si7 0.166334 0.712121 0.833002
Si Si8 0.821959 0.478501 0.469121
O O1 0.500000 0.644628 0.982988
O O2 0.709782 0.677999 0.880993
O O3 0.739300 0.581946 0.962180
O O4 0.760017 0.682603 0.031716
O O5 0.500000 0.035794 0.647491
O O6 0.727682 0.101431 0.646166
O O7 0.725810 0.996864 0.722773
O O8 0.719854 0.007485 0.555870
O O9 0.734224 0.285236 0.100669
O O10 0.833980 0.310897 0.240396
O O11 0.000000 0.332441 0.116569
O O12 0.756660 0.894172 0.792489
O O13 0.741217 0.810458 0.686263
O O14 0.808611 0.780872 0.830719
O O15 0.000000 0.838812 0.749429
O O16 0.500000 0.948858 0.793680
O O17 0.710604 0.984496 0.887621
O O18 0.000000 0.281621 0.607393
O O19 0.000000 0.700671 0.866451
O O20 0.000000 0.469342 0.470585
#
# Coordination Sequence:
#
# PCOD9351701 Si02
#       8
#     8   8   8   8   8   8   8   8
#     4  12  24  37  56  82 111 145 190 240 288 335
#     4   9  18  34  57  82 111 149 188 231 281 334
#     4   9  18  36  59  83 112 144 184 231 280 336
#     4  10  21  38  59  84 114 147 186 232 284 337
#     4  10  20  35  57  84 115 154 195 233 280 340
#     4  11  22  37  58  83 113 148 186 230 284 344
#     4   9  19  36  57  80 110 147 182 227 287 344
#     4  10  21  37  57  82 112 150 195 236 282 346
#
# _framework density 18.692988
#
# number of rings (size 3 to 8) (size 9 to 14) (size 15 to 20)
#    0.000    2.000    0.000    4.875    0.000    7.000 
#    0.000    2.500    0.000    0.000    0.000    0.000 
#    0.000    0.000    0.000    0.000    0.000    0.000 
#
# Total GULP energy -178609.106084 kJ/mol
# GULP energy per Si atom -5581.534565 kJ/mol
# Density = 1.865044 g / cm^3
# Si number density = 18.692988 Si / 1000 Ang^3
#
#
#
# Elastic Constant Matrix: (Units=GPa)
#
#
# Indices 1 2 3 4 5 6 
#
# 1 74.7890 66.8457 34.8951 0.0000 0.0000 0.0000
# 2 66.8457 175.8998 53.2354 0.0000 0.0000 0.0000
# 3 34.8951 53.2354 75.0118 0.0000 0.0000 0.0000
# 4 0.0000 0.0000 0.0000 22.8173 0.0000 0.0000
# 5 0.0000 0.0000 0.0000 0.0000 17.0639 0.0000
# 6 0.0000 0.0000 0.0000 0.0000 0.0000 31.7688
#
#
#
# Elastic Compliance Matrix: (Units=1/GPa)
#
#
# Indices 1 2 3 4 5 6 
#
# 1 0.021865 -0.006662 -0.005444 0.000000 0.000000 0.000000
# 2 -0.006662 0.009270 -0.003480 0.000000 0.000000 0.000000
# 3 -0.005444 -0.003480 0.018333 0.000000 0.000000 0.000000
# 4 0.000000 0.000000 0.000000 0.043826 0.000000 0.000000
# 5 0.000000 0.000000 0.000000 0.000000 0.058603 0.000000
# 6 0.000000 0.000000 0.000000 0.000000 0.000000 0.031477
#
#
# Mechanical properties :
#
#
# Convention : Reuss Voigt Hill
#
# Bulk Modulus (GPa) = 54.65172 70.62810 62.63991
# Shear Modulus (GPa) = 22.66091 25.71164 24.18627
#
# Velocity S-wave (km/s) = 3.48554 3.71276 3.60094
# Velocity P-wave (km/s) = 6.74527 7.49964 7.13243
#
# Compressibility (1/GPa) = 0.01829769
#
# Stress axis : x y z
#
# Youngs Moduli (GPa) = 45.73515 107.87799 54.54590
#
# Poissons Ratio (x) = 0.71864 0.29694
# Poissons Ratio (y) = 0.30467 0.18980
# Poissons Ratio (z) = 0.24897 0.37538
#
# Static dielectric constant tensor:
#      x y z
#    x 1.637770 0.000000 0.000000 
#    y 0.000000 1.631520 0.000000 
#    z 0.000000 0.000000 1.663560 
# 
# From -- ./inp_files/11122.got.cif
#   From: 2010.05.17/outbox.cif.g08.bks.cpg/sg36_6_cif.got.tgz:11122.got - 2010.06.03 17:41:39.
