data_PCOD9351621
_publ_section_title
;
Structure prediction by ZEFSAII (Michael W. Deem and Ramdas Pophale) SiO2 
 PCOD9351621
Probable space group: C M C 21
;
_chemical_formula_sum "Si O2"
_cell_formula_units_Z 56
_cell_length_a 16.910054
_cell_length_b 17.529756
_cell_length_c 7.746995
_cell_angle_alpha 90.000000
_cell_angle_beta 90.000000
_cell_angle_gamma 90.000000
_cell_volume 2296.434915
_symmetry_space_group_name_H-M "C M C 21"
_symmetry_group_IT_number 36
_symmetry_cell_setting 'orthorhombic'
loop_
_space_group_symop_operation_xyz
x,y,z
-x,-y,1/2+z
x,-y,1/2+z
-x,y,z
1/2+x,1/2+y,z
1/2-x,1/2-y,1/2+z
1/2+x,1/2-y,1/2+z
1/2-x,1/2+y,z
loop_
_atom_site_type_symbol
_atom_site_label
_atom_site_fract_x
_atom_site_fract_y
_atom_site_fract_z
Si Si1 0.862306 0.548860 0.409370
Si Si2 0.165407 0.131016 0.925775
Si Si3 0.662504 0.201908 0.319749
Si Si4 0.912681 0.914330 0.068479
Si Si5 0.297260 0.590333 0.299497
Si Si6 0.089090 0.741339 0.972389
Si Si7 0.344683 0.104702 0.797018
O O1 0.896065 0.629017 0.340022
O O2 0.783215 0.541510 0.290932
O O3 0.843538 0.576866 0.601028
O O4 0.891890 0.462545 0.400685
O O5 0.148568 0.222192 0.927810
O O6 0.113377 0.099621 0.765255
O O7 0.256714 0.118247 0.870534
O O8 0.157606 0.099856 0.120259
O O9 0.751645 0.169781 0.347715
O O10 0.651788 0.224832 0.122304
O O11 0.845805 0.950798 0.950376
O O12 0.913575 0.832925 0.964788
O O13 0.000000 0.948214 0.062029
O O14 0.111936 0.686100 0.816592
O O15 0.000000 0.720760 0.028077
#
# Coordination Sequence:
#
# PCOD9351621 Si02
#       7
#     8   8   8   8   8   8   8
#     4  10  23  34  59  88 118 151 207 256 300 351
#     4  11  20  34  63  87 119 155 203 246 301 357
#     4   9  20  35  55  91 115 154 202 249 298 358
#     4  10  22  38  57  92 126 157 194 250 311 361
#     4  10  20  34  60  91 111 158 196 252 297 355
#     4  10  21  37  58  84 125 160 197 253 305 353
#     4  12  20  38  58  87 120 157 209 250 300 369
#
# _framework density 24.385624
#
# number of rings (size 3 to 8) (size 9 to 14) (size 15 to 20)
#    0.857    0.857    2.857    2.571    6.000    0.571 
#    0.000    3.571    0.000    0.857    0.000    0.000 
#    0.000    0.000    0.000    0.000    0.000    0.000 
#
# Total GULP energy -155994.765959 kJ/mol
# GULP energy per Si atom -5571.241641 kJ/mol
# Density = 2.433012 g / cm^3
# Si number density = 24.385624 Si / 1000 Ang^3
#
#
#
# Elastic Constant Matrix: (Units=GPa)
#
#
# Indices 1 2 3 4 5 6 
#
# 1 51.9290 -21.3955 4.3292 0.0000 0.0000 0.0000
# 2 -21.3955 101.1472 12.5423 0.0000 0.0000 0.0000
# 3 4.3292 12.5423 102.4382 0.0000 0.0000 0.0000
# 4 0.0000 0.0000 0.0000 32.1665 0.0000 0.0000
# 5 0.0000 0.0000 0.0000 0.0000 13.0201 0.0000
# 6 0.0000 0.0000 0.0000 0.0000 0.0000 3.0535
#
#
#
# Elastic Compliance Matrix: (Units=1/GPa)
#
#
# Indices 1 2 3 4 5 6 
#
# 1 0.021313 0.004691 -0.001475 0.000000 0.000000 0.000000
# 2 0.004691 0.011072 -0.001554 0.000000 0.000000 0.000000
# 3 -0.001475 -0.001554 0.010015 0.000000 0.000000 0.000000
# 4 0.000000 0.000000 0.000000 0.031088 0.000000 0.000000
# 5 0.000000 0.000000 0.000000 0.000000 0.076804 0.000000
# 6 0.000000 0.000000 0.000000 0.000000 0.000000 0.327494
#
#
# Mechanical properties :
#
#
# Convention : Reuss Voigt Hill
#
# Bulk Modulus (GPa) = 21.87057 27.38516 24.62786
# Shear Modulus (GPa) = 10.21029 26.98392 18.59711
#
# Velocity S-wave (km/s) = 2.04844 3.33009 2.76456
# Velocity P-wave (km/s) = 3.81876 5.10299 4.50685
#
# Compressibility (1/GPa) = 0.04572355
#
# Stress axis : x y z
#
# Youngs Moduli (GPa) = 46.91996 90.32133 99.85450
#
# Poissons Ratio (x) = -0.42372 0.14730
# Poissons Ratio (y) = -0.22011 0.15516
# Poissons Ratio (z) = 0.06921 0.14034
#
# Static dielectric constant tensor:
#      x y z
#    x 2.013720 0.000000 0.000000 
#    y 0.000000 2.200530 0.000000 
#    z 0.000000 0.000000 1.936680 
# 
# From -- ./inp_files/5287.got.cif
#   From: 2010.05.17/outbox.cif.g08.bks.cpg/sg36_3_cif.got.tgz:5287.got - 2010.06.03 17:41:39.
