data_PCOD9351963
_publ_section_title
;
Structure prediction by ZEFSAII (Michael W. Deem and Ramdas Pophale) SiO2 
 PCOD9351963
Probable space group: C M C 21
;
_chemical_formula_sum "Si O2"
_cell_formula_units_Z 40
_cell_length_a 13.401703
_cell_length_b 17.834407
_cell_length_c 7.684396
_cell_angle_alpha 90.000000
_cell_angle_beta 90.000000
_cell_angle_gamma 90.000000
_cell_volume 1836.658444
_symmetry_space_group_name_H-M "C M C 21"
_symmetry_group_IT_number 36
_symmetry_cell_setting 'orthorhombic'
loop_
_space_group_symop_operation_xyz
x,y,z
-x,-y,1/2+z
x,-y,1/2+z
-x,y,z
1/2+x,1/2+y,z
1/2-x,1/2-y,1/2+z
1/2+x,1/2-y,1/2+z
1/2-x,1/2+y,z
loop_
_atom_site_type_symbol
_atom_site_label
_atom_site_fract_x
_atom_site_fract_y
_atom_site_fract_z
Si Si1 0.613164 0.115836 0.060890
Si Si2 0.699151 0.988877 0.862545
Si Si3 0.740080 0.654243 0.539553
Si Si4 0.804645 0.804111 0.644468
Si Si5 0.115271 0.092938 0.845487
O O1 0.500000 0.138948 0.077776
O O2 0.650125 0.060154 0.212630
O O3 0.691455 0.182583 0.073858
O O4 0.633456 0.062290 0.897798
O O5 0.708694 0.926773 0.014678
O O6 0.811824 0.020826 0.844928
O O7 0.819213 0.717019 0.601445
O O8 0.696672 0.675503 0.348141
O O9 0.656685 0.644183 0.687937
O O10 0.868069 0.860697 0.525096
O O11 0.000000 0.073700 0.823543
#
# Coordination Sequence:
#
# PCOD9351963 Si02
#       5
#     8   8   8   8   8
#     4  10  20  37  62  90 121 163 211 262 329 390
#     4  10  21  40  61  91 129 165 214 274 325 383
#     4  11  21  43  67  90 133 173 213 275 334 387
#     4  10  23  41  67  92 134 170 215 277 334 395
#     4  11  24  43  66  95 133 179 226 272 329 399
#
# _framework density 21.778683999999998
#
# number of rings (size 3 to 8) (size 9 to 14) (size 15 to 20)
#    0.000    1.600    4.000    0.600    0.000    2.400 
#    0.000    1.000    0.000    0.000    0.000    0.000 
#    0.000    0.000    0.000    0.000    0.000    0.000 
#
# Total GULP energy -111612.814757 kJ/mol
# GULP energy per Si atom -5580.640738 kJ/mol
# Density = 2.172911 g / cm^3
# Si number density = 21.778684 Si / 1000 Ang^3
#
#
#
# Elastic Constant Matrix: (Units=GPa)
#
#
# Indices 1 2 3 4 5 6 
#
# 1 86.4654 -2.0079 -19.6536 0.0000 0.0000 0.0000
# 2 -2.0079 59.8943 -2.2659 0.0000 0.0000 0.0000
# 3 -19.6536 -2.2659 99.7531 0.0000 0.0000 0.0000
# 4 0.0000 0.0000 0.0000 39.5781 0.0000 0.0000
# 5 0.0000 0.0000 0.0000 0.0000 4.2893 0.0000
# 6 0.0000 0.0000 0.0000 0.0000 0.0000 3.9075
#
#
#
# Elastic Compliance Matrix: (Units=1/GPa)
#
#
# Indices 1 2 3 4 5 6 
#
# 1 0.012122 0.000497 0.002400 0.000000 0.000000 0.000000
# 2 0.000497 0.016731 0.000478 0.000000 0.000000 0.000000
# 3 0.002400 0.000478 0.010508 0.000000 0.000000 0.000000
# 4 0.000000 0.000000 0.000000 0.025266 0.000000 0.000000
# 5 0.000000 0.000000 0.000000 0.000000 0.233139 0.000000
# 6 0.000000 0.000000 0.000000 0.000000 0.000000 0.255915
#
#
# Mechanical properties :
#
#
# Convention : Reuss Voigt Hill
#
# Bulk Modulus (GPa) = 21.68673 22.02869 21.85771
# Shear Modulus (GPa) = 8.89200 27.55767 18.22483
#
# Velocity S-wave (km/s) = 2.02281 3.56104 2.89592
# Velocity P-wave (km/s) = 3.92875 5.20045 4.60868
#
# Compressibility (1/GPa) = 0.04611115
#
# Stress axis : x y z
#
# Youngs Moduli (GPa) = 82.49255 59.76995 95.16205
#
# Poissons Ratio (x) = -0.02972 -0.22836
# Poissons Ratio (y) = -0.04101 -0.04549
# Poissons Ratio (z) = -0.19795 -0.02857
#
# Static dielectric constant tensor:
#      x y z
#    x 1.737420 0.000000 0.000000 
#    y 0.000000 1.821360 0.000000 
#    z 0.000000 0.000000 1.917580 
# 
# From -- ./inp_files/3053.got.cif
#   From: 2010.05.17/outbox.cif.g08.bks.cpg/sg36_2_cif.got.tgz:3053.got - 2010.06.03 17:41:39.
