data_PCOD9351319
_publ_section_title
;
Structure prediction by ZEFSAII (Michael W. Deem and Ramdas Pophale) SiO2 
 PCOD9351319
Probable space group: C M C 21
;
_chemical_formula_sum "Si O2"
_cell_formula_units_Z 64
_cell_length_a 13.776028
_cell_length_b 25.439109
_cell_length_c 9.998351
_cell_angle_alpha 90.000000
_cell_angle_beta 90.000000
_cell_angle_gamma 90.000000
_cell_volume 3503.920887
_symmetry_space_group_name_H-M "C M C 21"
_symmetry_group_IT_number 36
_symmetry_cell_setting 'orthorhombic'
loop_
_space_group_symop_operation_xyz
x,y,z
-x,-y,1/2+z
x,-y,1/2+z
-x,y,z
1/2+x,1/2+y,z
1/2-x,1/2-y,1/2+z
1/2+x,1/2-y,1/2+z
1/2-x,1/2+y,z
loop_
_atom_site_type_symbol
_atom_site_label
_atom_site_fract_x
_atom_site_fract_y
_atom_site_fract_z
Si Si1 0.394032 0.206967 0.023520
Si Si2 0.114729 0.038484 0.182054
Si Si3 0.888186 0.688473 0.338008
Si Si4 0.890529 0.212049 0.291172
Si Si5 0.714452 0.610425 0.374764
Si Si6 0.885776 0.086414 0.645644
Si Si7 0.816090 0.215714 0.016564
Si Si8 0.390066 0.609359 0.938111
O O1 0.500000 0.183234 0.986096
O O2 0.393434 0.208088 0.184085
O O3 0.286776 0.186215 0.990929
O O4 0.387843 0.260454 0.936369
O O5 0.185194 0.056379 0.301913
O O6 0.000000 0.051272 0.210910
O O7 0.117732 0.976766 0.153542
O O8 0.149711 0.071276 0.052458
O O9 0.819921 0.636760 0.351131
O O10 0.838728 0.734620 0.424471
O O11 0.000000 0.679640 0.381110
O O12 0.858579 0.152509 0.308450
O O13 0.824101 0.233828 0.171189
O O14 0.000000 0.217679 0.243635
O O15 0.683150 0.606180 0.528059
O O16 0.849692 0.107347 0.788808
O O17 0.000000 0.101688 0.621694
O O18 0.890150 0.168796 0.989339
O O19 0.500000 0.589478 0.919411
#
# Coordination Sequence:
#
# PCOD9351319 Si02
#       8
#     8   8   8   8   8   8   8   8
#     4  10  21  36  53  75 106 144 187 228 269 320
#     4  10  19  36  57  82 115 145 181 230 287 344
#     4  11  24  39  56  80 113 152 191 236 280 329
#     4  11  21  33  53  79 107 146 189 223 264 324
#     4  12  21  36  58  81 112 149 186 231 279 342
#     4  10  22  35  54  85 115 145 181 230 290 348
#     4  12  20  37  52  80 113 151 187 228 279 330
#     4  10  20  32  51  78 111 150 186 226 278 341
#
# _framework density 18.265253000000001
#
# number of rings (size 3 to 8) (size 9 to 14) (size 15 to 20)
#    0.000    1.250    3.750    3.000    1.750    3.000 
#    0.000    0.000    0.000    0.750    0.000    1.750 
#    0.000    0.000    0.000    0.000    0.000    0.000 
#
# Total GULP energy -178171.954565 kJ/mol
# GULP energy per Si atom -5567.873580 kJ/mol
# Density = 1.822368 g / cm^3
# Si number density = 18.265253 Si / 1000 Ang^3
#
#
#
# Elastic Constant Matrix: (Units=GPa)
#
#
# Indices 1 2 3 4 5 6 
#
# 1 107.1241 16.1496 30.2917 0.0000 0.0000 0.0000
# 2 16.1496 37.0908 20.1621 0.0000 0.0000 0.0000
# 3 30.2917 20.1621 100.5125 0.0000 0.0000 0.0000
# 4 0.0000 0.0000 0.0000 26.7657 0.0000 0.0000
# 5 0.0000 0.0000 0.0000 0.0000 19.1811 0.0000
# 6 0.0000 0.0000 0.0000 0.0000 0.0000 13.9418
#
#
#
# Elastic Compliance Matrix: (Units=1/GPa)
#
#
# Indices 1 2 3 4 5 6 
#
# 1 0.010535 -0.003211 -0.002531 0.000000 0.000000 0.000000
# 2 -0.003211 0.031239 -0.005299 0.000000 0.000000 0.000000
# 3 -0.002531 -0.005299 0.011775 0.000000 0.000000 0.000000
# 4 0.000000 0.000000 0.000000 0.037361 0.000000 0.000000
# 5 0.000000 0.000000 0.000000 0.000000 0.052135 0.000000
# 6 0.000000 0.000000 0.000000 0.000000 0.000000 0.071727
#
#
# Mechanical properties :
#
#
# Convention : Reuss Voigt Hill
#
# Bulk Modulus (GPa) = 31.77882 41.99267 36.88574
# Shear Modulus (GPa) = 20.21497 23.85266 22.03381
#
# Velocity S-wave (km/s) = 3.33039 3.61765 3.47699
# Velocity P-wave (km/s) = 5.67670 6.36319 6.02972
#
# Compressibility (1/GPa) = 0.03146750
#
# Stress axis : x y z
#
# Youngs Moduli (GPa) = 94.92449 32.01093 84.92883
#
# Poissons Ratio (x) = 0.10279 0.21493
# Poissons Ratio (y) = 0.30482 0.45001
# Poissons Ratio (z) = 0.24023 0.16961
#
# Static dielectric constant tensor:
#      x y z
#    x 1.679050 0.000000 0.000000 
#    y 0.000000 1.600520 0.000000 
#    z 0.000000 0.000000 1.700070 
# 
# From -- ./inp_files/4342.got.cif
#   From: 2010.05.17/outbox.cif.g08.bks.cpg/sg36_3_cif.got.tgz:4342.got - 2010.06.03 17:41:39.
