data_PCOD9351468
_publ_section_title
;
Structure prediction by ZEFSAII (Michael W. Deem and Ramdas Pophale) SiO2 
 PCOD9351468
Probable space group: C M C 21
;
_chemical_formula_sum "Si O2"
_cell_formula_units_Z 64
_cell_length_a 7.283162
_cell_length_b 16.593662
_cell_length_c 19.677293
_cell_angle_alpha 90.000000
_cell_angle_beta 90.000000
_cell_angle_gamma 90.000000
_cell_volume 2378.086033
_symmetry_space_group_name_H-M "C M C 21"
_symmetry_group_IT_number 36
_symmetry_cell_setting 'orthorhombic'
loop_
_space_group_symop_operation_xyz
x,y,z
-x,-y,1/2+z
x,-y,1/2+z
-x,y,z
1/2+x,1/2+y,z
1/2-x,1/2-y,1/2+z
1/2+x,1/2-y,1/2+z
1/2-x,1/2+y,z
loop_
_atom_site_type_symbol
_atom_site_label
_atom_site_fract_x
_atom_site_fract_y
_atom_site_fract_z
Si Si1 0.779041 0.256959 0.378470
Si Si2 0.213530 0.846876 0.248699
Si Si3 0.790983 0.985550 0.083661
Si Si4 0.709281 0.256298 0.123530
Si Si5 0.776979 0.351673 0.504010
Si Si6 0.224784 0.095630 0.455711
Si Si7 0.277414 0.406457 0.702081
Si Si8 0.277295 0.500081 0.330573
O O1 0.720548 0.272955 0.301850
O O2 0.721323 0.330647 0.427626
O O3 0.719299 0.176588 0.417270
O O4 0.000000 0.254289 0.377117
O O5 0.290803 0.822150 0.175192
O O6 0.291813 0.920648 0.292338
O O7 0.000000 0.865769 0.236686
O O8 0.713642 0.019141 0.154132
O O9 0.000000 0.962866 0.098523
O O10 0.792236 0.066051 0.036488
O O11 0.711629 0.918777 0.032839
O O12 0.500000 0.280095 0.108168
O O13 0.705493 0.175281 0.169866
O O14 0.785633 0.221863 0.053138
O O15 0.000000 0.354114 0.507051
O O16 0.000000 0.095757 0.458385
O O17 0.284432 0.023201 0.405687
O O18 0.500000 0.402257 0.697164
O O19 0.232177 0.426871 0.779184
O O20 0.500000 0.494975 0.333489
#
# Coordination Sequence:
#
# PCOD9351468 Si02
#       8
#     8   8   8   8   8   8   8   8
#     4  10  20  33  50  71  96 127 161 198 239 283
#     4  10  20  33  50  71  96 127 161 198 239 283
#     4   9  17  30  50  73  94 120 156 195 233 277
#     4   9  18  32  49  70  97 127 156 189 235 288
#     4   9  18  32  49  70  97 127 156 189 235 288
#     4   9  17  29  46  68  93 120 151 190 233 273
#     4   9  17  30  50  73  94 120 156 195 233 277
#     4   9  17  29  46  68  93 120 151 190 233 273
#
# _framework density 26.912398
#
# number of rings (size 3 to 8) (size 9 to 14) (size 15 to 20)
#    0.000    2.750    0.000    1.500    0.000    4.000 
#    0.000    6.250    0.000    4.500    0.000    7.000 
#    0.000    0.000    0.000    0.000    0.000    0.000 
#
# Total GULP energy -179005.913976 kJ/mol
# GULP energy per Si atom -5593.934812 kJ/mol
# Density = 2.685114 g / cm^3
# Si number density = 26.912398 Si / 1000 Ang^3
#
#
#
# Elastic Constant Matrix: (Units=GPa)
#
#
# Indices 1 2 3 4 5 6 
#
# 1 123.2524 -1.7914 0.4411 0.0000 0.0000 0.0000
# 2 -1.7914 92.7115 9.5807 0.0000 0.0000 0.0000
# 3 0.4411 9.5807 157.3845 0.0000 0.0000 0.0000
# 4 0.0000 0.0000 0.0000 57.0848 0.0000 0.0000
# 5 0.0000 0.0000 0.0000 0.0000 -1.5420 0.0000
# 6 0.0000 0.0000 0.0000 0.0000 0.0000 2.4923
#
#
#
# Elastic Compliance Matrix: (Units=1/GPa)
#
#
# Indices 1 2 3 4 5 6 
#
# 1 0.008116 0.000160 -0.000032 0.000000 0.000000 0.000000
# 2 0.000160 0.010858 -0.000661 0.000000 0.000000 0.000000
# 3 -0.000032 -0.000661 0.006394 0.000000 0.000000 0.000000
# 4 0.000000 0.000000 0.000000 0.017518 0.000000 0.000000
# 5 0.000000 0.000000 0.000000 0.000000 -0.648497 0.000000
# 6 0.000000 0.000000 0.000000 0.000000 0.000000 0.401240
#
#
# Mechanical properties :
#
#
# Convention : Reuss Voigt Hill
#
# Bulk Modulus (GPa) = 41.15184 43.31213 42.23199
# Shear Modulus (GPa) = -25.61430 35.94820 5.16695
#
# Velocity S-wave (km/s) = -3.08842 3.65875 1.38711
# Velocity P-wave (km/s) = 1.61446 5.82901 4.27690
#
# Compressibility (1/GPa) = 0.02430025
#
# Stress axis : x y z
#
# Youngs Moduli (GPa) = 123.21529 92.10145 156.39122
#
# Poissons Ratio (x) = -0.01475 0.00508
# Poissons Ratio (y) = -0.01974 0.10344
# Poissons Ratio (z) = 0.00400 0.06092
#
# Static dielectric constant tensor:
#      x y z
#    x 2.084020 0.000000 0.000000 
#    y 0.000000 2.154210 0.000000 
#    z 0.000000 0.000000 2.019920 
# 
# From -- ./inp_files/14467.got.cif
#   From: 2010.05.17/outbox.cif.g08.bks.cpg/sg36_8_cif.got.tgz:14467.got - 2010.06.03 17:41:39.
