data_PCOD9351139
_publ_section_title
;
Structure prediction by ZEFSAII (Michael W. Deem and Ramdas Pophale) SiO2 
 PCOD9351139
Probable space group: C M C 21
;
_chemical_formula_sum "Si O2"
_cell_formula_units_Z 64
_cell_length_a 17.433654
_cell_length_b 15.843049
_cell_length_c 11.095502
_cell_angle_alpha 90.000000
_cell_angle_beta 90.000000
_cell_angle_gamma 90.000000
_cell_volume 3064.602446
_symmetry_space_group_name_H-M "C M C 21"
_symmetry_group_IT_number 36
_symmetry_cell_setting 'orthorhombic'
loop_
_space_group_symop_operation_xyz
x,y,z
-x,-y,1/2+z
x,-y,1/2+z
-x,y,z
1/2+x,1/2+y,z
1/2-x,1/2-y,1/2+z
1/2+x,1/2-y,1/2+z
1/2-x,1/2+y,z
loop_
_atom_site_type_symbol
_atom_site_label
_atom_site_fract_x
_atom_site_fract_y
_atom_site_fract_z
Si Si1 0.091555 0.321711 0.741340
Si Si2 0.588025 0.319361 0.638922
Si Si3 0.418464 0.137030 0.766017
Si Si4 0.259178 0.541782 0.477106
Si Si5 0.314161 0.988624 0.715638
Si Si6 0.798866 0.266654 0.958099
Si Si7 0.085927 0.090188 0.379888
Si Si8 0.872891 0.728912 0.977153
O O1 0.120664 0.417195 0.722154
O O2 0.142791 0.283523 0.848706
O O3 0.116678 0.276298 0.618697
O O4 0.000000 0.316261 0.761792
O O5 0.500000 0.333538 0.593146
O O6 0.584672 0.230005 0.710063
O O7 0.654777 0.297154 0.544983
O O8 0.605820 0.391152 0.738830
O O9 0.500000 0.098328 0.734130
O O10 0.352969 0.079307 0.716832
O O11 0.411859 0.151180 0.908725
O O12 0.228650 0.518636 0.343820
O O13 0.232945 0.485581 0.590469
O O14 0.228078 0.638349 0.499030
O O15 0.350472 0.541128 0.455399
O O16 0.715367 0.227593 0.932857
O O17 0.088942 0.184004 0.435856
O O18 0.000000 0.055780 0.386522
#
# Coordination Sequence:
#
# PCOD9351139 Si02
#       8
#     8   8   8   8   8   8   8   8
#     4  11  23  37  54  84 122 156 193 241 297 356
#     4   9  17  32  57  83 107 140 189 235 288 348
#     4  10  19  34  55  79 108 149 193 227 278 345
#     4  10  22  37  57  83 117 149 201 238 295 349
#     4  11  22  38  55  84 117 162 192 242 284 358
#     4  10  21  34  56  82 116 150 189 245 300 347
#     4   9  19  37  61  83 107 145 192 247 298 347
#     4  10  21  33  57  84 112 147 191 243 294 360
#
# _framework density 20.883621999999999
#
# number of rings (size 3 to 8) (size 9 to 14) (size 15 to 20)
#    0.000    2.000    1.250    3.375    7.000    0.000 
#    0.000    1.875    0.000    0.000    0.000    0.000 
#    0.000    0.000    0.000    0.000    0.000    0.000 
#
# Total GULP energy -178359.603598 kJ/mol
# GULP energy per Si atom -5573.737612 kJ/mol
# Density = 2.083609 g / cm^3
# Si number density = 20.883622 Si / 1000 Ang^3
#
#
#
# Elastic Constant Matrix: (Units=GPa)
#
#
# Indices 1 2 3 4 5 6 
#
# 1 148.1598 17.4035 49.3003 0.0000 0.0000 0.0000
# 2 17.4035 10.2923 7.2781 0.0000 0.0000 0.0000
# 3 49.3003 7.2781 77.9817 0.0000 0.0000 0.0000
# 4 0.0000 0.0000 0.0000 9.5937 0.0000 0.0000
# 5 0.0000 0.0000 0.0000 0.0000 29.2371 0.0000
# 6 0.0000 0.0000 0.0000 0.0000 0.0000 18.5242
#
#
#
# Elastic Compliance Matrix: (Units=1/GPa)
#
#
# Indices 1 2 3 4 5 6 
#
# 1 0.010006 -0.013325 -0.005082 0.000000 0.000000 0.000000
# 2 -0.013325 0.121772 -0.002941 0.000000 0.000000 0.000000
# 3 -0.005082 -0.002941 0.016311 0.000000 0.000000 0.000000
# 4 0.000000 0.000000 0.000000 0.104235 0.000000 0.000000
# 5 0.000000 0.000000 0.000000 0.000000 0.034203 0.000000
# 6 0.000000 0.000000 0.000000 0.000000 0.000000 0.053983
#
#
# Mechanical properties :
#
#
# Convention : Reuss Voigt Hill
#
# Bulk Modulus (GPa) = 9.48838 42.71087 26.09962
# Shear Modulus (GPa) = 11.95208 22.30112 17.12660
#
# Velocity S-wave (km/s) = 2.39491 3.27138 2.86684
# Velocity P-wave (km/s) = 3.49296 5.89623 4.84594
#
# Compressibility (1/GPa) = 0.10539205
#
# Stress axis : x y z
#
# Youngs Moduli (GPa) = 99.94244 8.21209 61.30889
#
# Poissons Ratio (x) = 0.10943 0.31157
# Poissons Ratio (y) = 1.33176 0.18030
# Poissons Ratio (z) = 0.50791 0.02415
#
# Static dielectric constant tensor:
#      x y z
#    x 1.756850 0.000000 0.000000 
#    y 0.000000 1.750200 0.000000 
#    z 0.000000 0.000000 1.807500 
# 
# From -- ./inp_files/8620.got.cif
#   From: 2010.05.17/outbox.cif.g08.bks.cpg/sg36_5_cif.got.tgz:8620.got - 2010.06.03 17:41:39.
