data_PCOD9351794
_publ_section_title
;
Structure prediction by ZEFSAII (Michael W. Deem and Ramdas Pophale) SiO2 
 PCOD9351794
Probable space group: C M C 21
;
_chemical_formula_sum "Si O2"
_cell_formula_units_Z 56
_cell_length_a 17.640954
_cell_length_b 14.970051
_cell_length_c 8.283655
_cell_angle_alpha 90.000000
_cell_angle_beta 90.000000
_cell_angle_gamma 90.000000
_cell_volume 2187.597158
_symmetry_space_group_name_H-M "C M C 21"
_symmetry_group_IT_number 36
_symmetry_cell_setting 'orthorhombic'
loop_
_space_group_symop_operation_xyz
x,y,z
-x,-y,1/2+z
x,-y,1/2+z
-x,y,z
1/2+x,1/2+y,z
1/2-x,1/2-y,1/2+z
1/2+x,1/2-y,1/2+z
1/2-x,1/2+y,z
loop_
_atom_site_type_symbol
_atom_site_label
_atom_site_fract_x
_atom_site_fract_y
_atom_site_fract_z
Si Si1 0.414695 0.050191 0.620910
Si Si2 0.695928 0.184001 0.434827
Si Si3 0.862080 0.141310 0.541108
Si Si4 0.085328 0.192582 0.057352
Si Si5 0.378585 0.809190 0.369724
Si Si6 0.289759 0.905220 0.609100
Si Si7 0.867407 0.023400 0.214079
O O1 0.500000 0.036616 0.564081
O O2 0.364429 0.110970 0.500646
O O3 0.417996 0.104659 0.790357
O O4 0.366633 0.960476 0.637075
O O5 0.773025 0.168537 0.535097
O O6 0.648958 0.275265 0.435700
O O7 0.717976 0.164264 0.252667
O O8 0.903284 0.236804 0.506512
O O9 0.871630 0.071333 0.388615
O O10 0.887718 0.080008 0.690603
O O11 0.118106 0.242868 0.217358
O O12 0.085072 0.089283 0.099946
O O13 0.000000 0.224333 0.025349
O O14 0.302470 0.854576 0.440625
O O15 0.217771 0.967825 0.638999
#
# Coordination Sequence:
#
# PCOD9351794 Si02
#       7
#     8   8   8   8   8   8   8
#     4  11  23  39  59  85 127 168 197 246 318 384
#     4  10  20  36  57  88 119 158 203 257 308 364
#     4  10  21  38  62  92 122 163 207 265 307 359
#     4  10  22  42  62  85 125 172 208 253 319 378
#     4  10  22  38  60  89 123 164 202 252 308 369
#     4  11  22  36  60  93 125 156 208 265 306 369
#     4  10  22  39  62  92 123 161 213 266 310 363
#
# _framework density 25.598860999999999
#
# number of rings (size 3 to 8) (size 9 to 14) (size 15 to 20)
#    0.000    1.714    1.429    3.429    2.000    5.714 
#    0.000    3.571    0.000    0.000    0.000    0.000 
#    0.000    0.000    0.000    0.000    0.000    0.000 
#
# Total GULP energy -156243.947164 kJ/mol
# GULP energy per Si atom -5580.140970 kJ/mol
# Density = 2.554060 g / cm^3
# Si number density = 25.598861 Si / 1000 Ang^3
#
#
#
# Elastic Constant Matrix: (Units=GPa)
#
#
# Indices 1 2 3 4 5 6 
#
# 1 116.3266 17.2995 8.2651 0.0000 0.0000 0.0000
# 2 17.2995 114.9870 19.0466 0.0000 0.0000 0.0000
# 3 8.2651 19.0466 33.1705 0.0000 0.0000 0.0000
# 4 0.0000 0.0000 0.0000 49.5856 0.0000 0.0000
# 5 0.0000 0.0000 0.0000 0.0000 10.2468 0.0000
# 6 0.0000 0.0000 0.0000 0.0000 0.0000 15.6158
#
#
#
# Elastic Compliance Matrix: (Units=1/GPa)
#
#
# Indices 1 2 3 4 5 6 
#
# 1 0.008869 -0.001070 -0.001595 0.000000 0.000000 0.000000
# 2 -0.001070 0.009740 -0.005326 0.000000 0.000000 0.000000
# 3 -0.001595 -0.005326 0.033603 0.000000 0.000000 0.000000
# 4 0.000000 0.000000 0.000000 0.020167 0.000000 0.000000
# 5 0.000000 0.000000 0.000000 0.000000 0.097591 0.000000
# 6 0.000000 0.000000 0.000000 0.000000 0.000000 0.064038
#
#
# Mechanical properties :
#
#
# Convention : Reuss Voigt Hill
#
# Bulk Modulus (GPa) = 27.60234 39.30072 33.45153
# Shear Modulus (GPa) = 19.07909 29.74785 24.41347
#
# Velocity S-wave (km/s) = 2.73300 3.41262 3.09154
# Velocity P-wave (km/s) = 4.55687 5.56002 5.08325
#
# Compressibility (1/GPa) = 0.03622881
#
# Stress axis : x y z
#
# Youngs Moduli (GPa) = 112.75261 102.67129 29.75919
#
# Poissons Ratio (x) = 0.10986 0.04748
# Poissons Ratio (y) = 0.12065 0.15850
# Poissons Ratio (z) = 0.17989 0.54683
#
# Static dielectric constant tensor:
#      x y z
#    x 2.000250 0.000000 0.000000 
#    y 0.000000 2.094380 0.000000 
#    z 0.000000 0.000000 2.133180 
# 
# From -- ./inp_files/5213.got.cif
#   From: 2010.05.17/outbox.cif.g08.bks.cpg/sg36_3_cif.got.tgz:5213.got - 2010.06.03 17:41:39.
