data_PCOD9351762
_publ_section_title
;
Structure prediction by ZEFSAII (Michael W. Deem and Ramdas Pophale) SiO2 
 PCOD9351762
Probable space group: C M C 21
;
_chemical_formula_sum "Si O2"
_cell_formula_units_Z 64
_cell_length_a 16.598959
_cell_length_b 9.383602
_cell_length_c 21.190898
_cell_angle_alpha 90.000000
_cell_angle_beta 90.000000
_cell_angle_gamma 90.000000
_cell_volume 3300.652418
_symmetry_space_group_name_H-M "C M C 21"
_symmetry_group_IT_number 36
_symmetry_cell_setting 'orthorhombic'
loop_
_space_group_symop_operation_xyz
x,y,z
-x,-y,1/2+z
x,-y,1/2+z
-x,y,z
1/2+x,1/2+y,z
1/2-x,1/2-y,1/2+z
1/2+x,1/2-y,1/2+z
1/2-x,1/2+y,z
loop_
_atom_site_type_symbol
_atom_site_label
_atom_site_fract_x
_atom_site_fract_y
_atom_site_fract_z
Si Si1 0.590028 0.742241 0.491190
Si Si2 0.811013 0.737517 0.201197
Si Si3 0.744547 0.576817 0.321556
Si Si4 0.696804 0.469993 0.527215
Si Si5 0.272004 0.825899 0.405267
Si Si6 0.368359 0.031658 0.092654
Si Si7 0.138926 0.764155 0.637035
Si Si8 0.907313 0.981310 0.743954
O O1 0.500000 0.694210 0.476656
O O2 0.643799 0.611154 0.517279
O O3 0.639062 0.804359 0.432330
O O4 0.588123 0.869595 0.541855
O O5 0.791358 0.645584 0.263326
O O6 0.854234 0.633966 0.152058
O O7 0.725428 0.776820 0.168874
O O8 0.863146 0.876834 0.217073
O O9 0.758549 0.672718 0.383071
O O10 0.771022 0.420666 0.342424
O O11 0.650889 0.569249 0.300793
O O12 0.718000 0.394048 0.460730
O O13 0.782212 0.505518 0.559912
O O14 0.654798 0.361112 0.575540
O O15 0.402612 0.881781 0.115879
O O16 0.096557 0.861781 0.689373
O O17 0.000000 0.008202 0.761388
#
# Coordination Sequence:
#
# PCOD9351762 Si02
#       8
#     8   8   8   8   8   8   8   8
#     4  11  24  40  61  91 126 160 196 254 317 361
#     4  10  20  37  61  90 118 162 207 247 293 361
#     4  11  22  40  66  89 116 159 209 252 292 358
#     4  10  20  37  61  91 116 163 208 244 293 367
#     4  11  22  40  66  88 116 160 208 250 295 359
#     4  10  20  35  62  90 123 158 206 250 295 354
#     4  10  20  35  62  90 123 158 206 249 295 358
#     4  11  24  40  61  91 126 160 198 252 314 366
#
# _framework density 19.390104000000001
#
# number of rings (size 3 to 8) (size 9 to 14) (size 15 to 20)
#    0.000    1.500    2.500    5.250    3.500    3.000 
#    0.000    0.625    0.000    0.000    0.000    0.000 
#    0.000    0.000    0.000    0.000    0.000    0.000 
#
# Total GULP energy -178693.914705 kJ/mol
# GULP energy per Si atom -5584.184835 kJ/mol
# Density = 1.934597 g / cm^3
# Si number density = 19.390104 Si / 1000 Ang^3
#
#
#
# Elastic Constant Matrix: (Units=GPa)
#
#
# Indices 1 2 3 4 5 6 
#
# 1 73.4208 22.2744 8.0401 0.0000 0.0000 0.0000
# 2 22.2744 71.7343 3.4756 0.0000 0.0000 0.0000
# 3 8.0401 3.4756 66.1395 0.0000 0.0000 0.0000
# 4 0.0000 0.0000 0.0000 39.6943 0.0000 0.0000
# 5 0.0000 0.0000 0.0000 0.0000 -5.8693 0.0000
# 6 0.0000 0.0000 0.0000 0.0000 0.0000 0.4344
#
#
#
# Elastic Compliance Matrix: (Units=1/GPa)
#
#
# Indices 1 2 3 4 5 6 
#
# 1 0.015205 -0.004643 -0.001604 0.000000 0.000000 0.000000
# 2 -0.004643 0.015394 -0.000244 0.000000 0.000000 0.000000
# 3 -0.001604 -0.000244 0.015327 0.000000 0.000000 0.000000
# 4 0.000000 0.000000 0.000000 0.025193 0.000000 0.000000
# 5 0.000000 0.000000 0.000000 0.000000 -0.170377 0.000000
# 6 0.000000 0.000000 0.000000 0.000000 0.000000 2.302080
#
#
# Mechanical properties :
#
#
# Convention : Reuss Voigt Hill
#
# Bulk Modulus (GPa) = 30.35684 30.98609 30.67147
# Shear Modulus (GPa) = 2.24539 18.68551 10.46545
#
# Velocity S-wave (km/s) = 1.07728 3.10766 2.32573
# Velocity P-wave (km/s) = 4.15177 5.37511 4.80255
#
# Compressibility (1/GPa) = 0.03294151
#
# Stress axis : x y z
#
# Youngs Moduli (GPa) = 65.76981 64.96023 65.24256
#
# Poissons Ratio (x) = 0.30164 0.10467
# Poissons Ratio (y) = 0.30540 0.01595
# Poissons Ratio (z) = 0.10551 0.01588
#
# Static dielectric constant tensor:
#      x y z
#    x 1.650480 0.000000 0.000000 
#    y 0.000000 1.685800 0.000000 
#    z 0.000000 0.000000 1.678960 
# 
# From -- ./inp_files/16244.got.cif
#   From: 2010.05.17/outbox.cif.g08.bks.cpg/sg36_9_cif.got.tgz:16244.got - 2010.06.03 17:41:39.
