data_PCOD9351774
_publ_section_title
;
Structure prediction by ZEFSAII (Michael W. Deem and Ramdas Pophale) SiO2 
 PCOD9351774
Probable space group: C M C 21
;
_chemical_formula_sum "Si O2"
_cell_formula_units_Z 64
_cell_length_a 8.916974
_cell_length_b 13.763147
_cell_length_c 23.770605
_cell_angle_alpha 90.000000
_cell_angle_beta 90.000000
_cell_angle_gamma 90.000000
_cell_volume 2917.262330
_symmetry_space_group_name_H-M "C M C 21"
_symmetry_group_IT_number 36
_symmetry_cell_setting 'orthorhombic'
loop_
_space_group_symop_operation_xyz
x,y,z
-x,-y,1/2+z
x,-y,1/2+z
-x,y,z
1/2+x,1/2+y,z
1/2-x,1/2-y,1/2+z
1/2+x,1/2-y,1/2+z
1/2-x,1/2+y,z
loop_
_atom_site_type_symbol
_atom_site_label
_atom_site_fract_x
_atom_site_fract_y
_atom_site_fract_z
Si Si1 0.831086 0.491304 0.452900
Si Si2 0.328930 0.008371 0.580242
Si Si3 0.829336 0.833012 0.843565
Si Si4 0.329894 0.197447 0.733210
Si Si5 0.670859 0.141766 0.169425
Si Si6 0.324690 0.340626 0.009468
Si Si7 0.324765 0.697793 0.931232
Si Si8 0.172709 0.494813 0.779584
O O1 0.840252 0.459800 0.518718
O O2 0.714039 0.579058 0.460597
O O3 0.770554 0.399166 0.420304
O O4 0.000000 0.522743 0.437002
O O5 0.260883 0.931159 0.623238
O O6 0.000000 0.532479 0.598269
O O7 0.236801 0.105840 0.565431
O O8 0.835101 0.770416 0.786027
O O9 0.716501 0.773706 0.882704
O O10 0.766872 0.938872 0.826923
O O11 0.000000 0.834795 0.865733
O O12 0.500000 0.174799 0.715494
O O13 0.249068 0.257208 0.684267
O O14 0.263489 0.096429 0.756300
O O15 0.500000 0.161528 0.151443
O O16 0.667222 0.078076 0.226470
O O17 0.500000 0.320675 0.012449
O O18 0.230098 0.248683 0.989013
O O19 0.500000 0.676550 0.933551
O O20 0.000000 0.511126 0.798493
#
# Coordination Sequence:
#
# PCOD9351774 Si02
#       8
#     8   8   8   8   8   8   8   8
#     4   9  19  37  56  77 111 145 182 228 272 318
#     4   8  17  35  55  77 112 149 179 225 275 315
#     4  10  21  36  54  77 108 141 177 226 279 327
#     4   9  19  35  54  79 109 139 176 224 272 321
#     4   9  17  33  56  79 109 144 179 218 265 320
#     4  10  20  36  56  79 108 144 183 226 275 326
#     4  12  23  37  57  81 108 145 189 229 277 330
#     4   9  18  35  56  79 107 141 179 220 269 329
#
# _framework density 21.938378
#
# number of rings (size 3 to 8) (size 9 to 14) (size 15 to 20)
#    0.750    1.750    0.000    2.625    0.000    2.500 
#    2.250    3.750    0.000    0.000    0.000    0.000 
#    0.000    0.000    0.000    0.000    0.000    0.000 
#
# Total GULP energy -178446.134406 kJ/mol
# GULP energy per Si atom -5576.441700 kJ/mol
# Density = 2.188844 g / cm^3
# Si number density = 21.938378 Si / 1000 Ang^3
#
#
#
# Elastic Constant Matrix: (Units=GPa)
#
#
# Indices 1 2 3 4 5 6 
#
# 1 77.1958 8.8670 -1.2692 0.0000 0.0000 0.0000
# 2 8.8670 76.3820 0.4073 0.0000 0.0000 0.0000
# 3 -1.2692 0.4073 35.3355 0.0000 0.0000 0.0000
# 4 0.0000 0.0000 0.0000 33.7144 0.0000 0.0000
# 5 0.0000 0.0000 0.0000 0.0000 19.6573 0.0000
# 6 0.0000 0.0000 0.0000 0.0000 0.0000 25.0420
#
#
#
# Elastic Compliance Matrix: (Units=1/GPa)
#
#
# Indices 1 2 3 4 5 6 
#
# 1 0.013138 -0.001528 0.000489 0.000000 0.000000 0.000000
# 2 -0.001528 0.013271 -0.000208 0.000000 0.000000 0.000000
# 3 0.000489 -0.000208 0.028320 0.000000 0.000000 0.000000
# 4 0.000000 0.000000 0.000000 0.029661 0.000000 0.000000
# 5 0.000000 0.000000 0.000000 0.000000 0.050872 0.000000
# 6 0.000000 0.000000 0.000000 0.000000 0.000000 0.039933
#
#
# Mechanical properties :
#
#
# Convention : Reuss Voigt Hill
#
# Bulk Modulus (GPa) = 19.14384 22.76928 20.95656
# Shear Modulus (GPa) = 25.62817 27.74330 26.68574
#
# Velocity S-wave (km/s) = 3.42159 3.55998 3.49147
# Velocity P-wave (km/s) = 4.93506 5.22487 5.08203
#
# Compressibility (1/GPa) = 0.05223614
#
# Stress axis : x y z
#
# Youngs Moduli (GPa) = 76.11736 75.35484 35.31061
#
# Poissons Ratio (x) = 0.11512 -0.01728
# Poissons Ratio (y) = 0.11629 0.00734
# Poissons Ratio (z) = -0.03726 0.01566
#
# Static dielectric constant tensor:
#      x y z
#    x 1.770430 0.000000 0.000000 
#    y 0.000000 1.816260 0.000000 
#    z 0.000000 0.000000 1.869760 
# 
# From -- ./inp_files/17345.got.cif
#   From: 2010.05.17/outbox.cif.g08.bks.cpg/sg36_9_cif.got.tgz:17345.got - 2010.06.03 17:41:39.
