data_PCOD9351064
_publ_section_title
;
Structure prediction by ZEFSAII (Michael W. Deem and Ramdas Pophale) SiO2 
 PCOD9351064
Probable space group: C M C 21
;
_chemical_formula_sum "Si O2"
_cell_formula_units_Z 44
_cell_length_a 12.737079
_cell_length_b 30.349116
_cell_length_c 5.122104
_cell_angle_alpha 90.000000
_cell_angle_beta 90.000000
_cell_angle_gamma 90.000000
_cell_volume 1979.995851
_symmetry_space_group_name_H-M "C M C 21"
_symmetry_group_IT_number 36
_symmetry_cell_setting 'orthorhombic'
loop_
_space_group_symop_operation_xyz
x,y,z
-x,-y,1/2+z
x,-y,1/2+z
-x,y,z
1/2+x,1/2+y,z
1/2-x,1/2-y,1/2+z
1/2+x,1/2-y,1/2+z
1/2-x,1/2+y,z
loop_
_atom_site_type_symbol
_atom_site_label
_atom_site_fract_x
_atom_site_fract_y
_atom_site_fract_z
Si Si1 0.172463 0.892843 0.564510
Si Si2 0.119981 0.481843 0.244280
Si Si3 0.680070 0.797263 0.179373
Si Si4 0.823792 0.798358 0.679196
Si Si5 0.500000 0.531915 0.126368
Si Si6 0.686270 0.890020 0.063490
O O1 0.120881 0.844731 0.623112
O O2 0.098189 0.934374 0.610114
O O3 0.216917 0.891781 0.270339
O O4 0.268438 0.893261 0.772417
O O5 0.172418 0.488061 0.524090
O O6 0.121705 0.432935 0.136964
O O7 0.000000 0.496258 0.294965
O O8 0.727347 0.798795 0.470653
O O9 0.625587 0.749922 0.141581
O O10 0.627655 0.843935 0.116143
O O11 0.776574 0.798362 0.970991
O O12 0.500000 0.502547 0.387143
#
# Coordination Sequence:
#
# PCOD9351064 Si02
#       6
#     8   8   8   8   4   8
#     4  10  21  35  53  75 100 136 174 213 259 303
#     4  10  21  35  51  73 102 134 162 201 253 301
#     4   8  14  25  46  74  97 121 154 199 246 292
#     4   8  14  27  46  70  97 123 157 196 245 305
#     4  12  26  40  52  72 106 142 180 232 272 292
#     4  10  19  33  55  79 100 131 173 211 251 311
#
# _framework density 22.222266999999999
#
# number of rings (size 3 to 8) (size 9 to 14) (size 15 to 20)
#    0.000    2.545    0.000    2.182    0.000    4.364 
#    0.000    0.000    2.000    0.000    0.000    0.000 
#    0.000    0.000    0.000    0.000    0.000    0.000 
#
# Total GULP energy -122561.858092 kJ/mol
# GULP energy per Si atom -5570.993550 kJ/mol
# Density = 2.217169 g / cm^3
# Si number density = 22.222267 Si / 1000 Ang^3
#
#
#
# Elastic Constant Matrix: (Units=GPa)
#
#
# Indices 1 2 3 4 5 6 
#
# 1 40.1643 22.7488 8.4149 0.0000 0.0000 0.0000
# 2 22.7488 198.5641 16.3094 0.0000 0.0000 0.0000
# 3 8.4149 16.3094 102.0818 0.0000 0.0000 0.0000
# 4 0.0000 0.0000 0.0000 38.1391 0.0000 0.0000
# 5 0.0000 0.0000 0.0000 0.0000 3.5712 0.0000
# 6 0.0000 0.0000 0.0000 0.0000 0.0000 -74.8761
#
#
#
# Elastic Compliance Matrix: (Units=1/GPa)
#
#
# Indices 1 2 3 4 5 6 
#
# 1 0.026930 -0.002942 -0.001750 0.000000 0.000000 0.000000
# 2 -0.002942 0.005424 -0.000624 0.000000 0.000000 0.000000
# 3 -0.001750 -0.000624 0.010040 0.000000 0.000000 0.000000
# 4 0.000000 0.000000 0.000000 0.026220 0.000000 0.000000
# 5 0.000000 0.000000 0.000000 0.000000 0.280015 0.000000
# 6 0.000000 0.000000 0.000000 0.000000 0.000000 -0.013355
#
#
# Mechanical properties :
#
#
# Convention : Reuss Voigt Hill
#
# Bulk Modulus (GPa) = 31.48274 48.41739 39.95007
# Shear Modulus (GPa) = 14.02549 12.92264 13.47406
#
# Velocity S-wave (km/s) = 2.51499 2.41408 2.46505
# Velocity P-wave (km/s) = 4.75726 5.44109 5.11063
#
# Compressibility (1/GPa) = 0.03176343
#
# Stress axis : x y z
#
# Youngs Moduli (GPa) = 37.13270 184.35108 99.60116
#
# Poissons Ratio (x) = 0.54229 0.17430
# Poissons Ratio (y) = 0.10923 0.06217
# Poissons Ratio (z) = 0.06498 0.11507
#
# Static dielectric constant tensor:
#      x y z
#    x 1.904810 0.000000 0.000000 
#    y 0.000000 1.900820 0.000000 
#    z 0.000000 0.000000 1.812760 
# 
# From -- ./inp_files/798.got.cif
#   From: 2010.05.17/outbox.cif.g08.bks.cpg/sg36_1_cif.got.tgz:798.got - 2010.06.03 17:41:39.
