data_PCOD9351850
_publ_section_title
;
Structure prediction by ZEFSAII (Michael W. Deem and Ramdas Pophale) SiO2 
 PCOD9351850
Probable space group: C M C 21
;
_chemical_formula_sum "Si O2"
_cell_formula_units_Z 64
_cell_length_a 12.775273
_cell_length_b 14.306014
_cell_length_c 17.148549
_cell_angle_alpha 90.000000
_cell_angle_beta 90.000000
_cell_angle_gamma 90.000000
_cell_volume 3134.124280
_symmetry_space_group_name_H-M "C M C 21"
_symmetry_group_IT_number 36
_symmetry_cell_setting 'orthorhombic'
loop_
_space_group_symop_operation_xyz
x,y,z
-x,-y,1/2+z
x,-y,1/2+z
-x,y,z
1/2+x,1/2+y,z
1/2-x,1/2-y,1/2+z
1/2+x,1/2-y,1/2+z
1/2-x,1/2+y,z
loop_
_atom_site_type_symbol
_atom_site_label
_atom_site_fract_x
_atom_site_fract_y
_atom_site_fract_z
Si Si1 0.726420 0.922727 0.343030
Si Si2 0.117073 0.686658 0.229812
Si Si3 0.885865 0.664606 0.530355
Si Si4 0.116732 0.554835 0.002872
Si Si5 0.224877 0.350682 0.180680
Si Si6 0.777362 0.719356 0.379818
Si Si7 0.876158 0.906936 0.790454
Si Si8 0.245091 0.057453 0.141307
O O1 0.647173 0.946162 0.412058
O O2 0.676885 0.888248 0.261486
O O3 0.784795 0.830104 0.372912
O O4 0.809056 0.004444 0.322903
O O5 0.190851 0.771361 0.201195
O O6 0.135272 0.676857 0.322133
O O7 0.152923 0.590719 0.190175
O O8 0.000000 0.709717 0.210412
O O9 0.892437 0.552518 0.528571
O O10 0.853824 0.690225 0.617611
O O11 0.798401 0.690993 0.467688
O O12 0.000000 0.703337 0.508853
O O13 0.215991 0.590117 0.055408
O O14 0.000000 0.598335 0.014641
O O15 0.273089 0.445898 0.143456
O O16 0.670940 0.679355 0.340661
O O17 0.844570 0.900201 0.698313
O O18 0.000000 0.917021 0.799354
#
# Coordination Sequence:
#
# PCOD9351850 Si02
#       8
#     8   8   8   8   8   8   8   8
#     4  10  21  38  62  85 121 156 203 248 292 364
#     4  10  20  37  63  88 111 152 205 248 298 358
#     4  10  20  37  59  84 121 158 194 246 306 354
#     4  10  20  36  60  88 118 152 197 252 304 351
#     4   9  21  37  55  87 121 155 192 250 294 357
#     4  10  21  37  60  88 119 152 200 252 292 357
#     4  10  21  41  63  85 122 162 195 245 307 364
#     4   9  20  37  58  85 119 151 196 249 295 361
#
# _framework density 20.420376999999998
#
# number of rings (size 3 to 8) (size 9 to 14) (size 15 to 20)
#    0.000    2.250    1.250    0.750    1.750    6.500 
#    0.000    8.125    0.000    0.000    0.000    0.000 
#    0.000    0.000    0.000    0.000    0.000    0.000 
#
# Total GULP energy -178134.772006 kJ/mol
# GULP energy per Si atom -5566.711625 kJ/mol
# Density = 2.037390 g / cm^3
# Si number density = 20.420377 Si / 1000 Ang^3
#
#
#
# Elastic Constant Matrix: (Units=GPa)
#
#
# Indices 1 2 3 4 5 6 
#
# 1 91.8162 22.5809 47.8195 0.0000 0.0000 0.0000
# 2 22.5809 68.8735 12.2049 0.0000 0.0000 0.0000
# 3 47.8195 12.2049 111.7815 0.0000 0.0000 0.0000
# 4 0.0000 0.0000 0.0000 22.3058 0.0000 0.0000
# 5 0.0000 0.0000 0.0000 0.0000 12.9648 0.0000
# 6 0.0000 0.0000 0.0000 0.0000 0.0000 5.1297
#
#
#
# Elastic Compliance Matrix: (Units=1/GPa)
#
#
# Indices 1 2 3 4 5 6 
#
# 1 0.014948 -0.003842 -0.005975 0.000000 0.000000 0.000000
# 2 -0.003842 0.015793 -0.000081 0.000000 0.000000 0.000000
# 3 -0.005975 -0.000081 0.011511 0.000000 0.000000 0.000000
# 4 0.000000 0.000000 0.000000 0.044831 0.000000 0.000000
# 5 0.000000 0.000000 0.000000 0.000000 0.077132 0.000000
# 6 0.000000 0.000000 0.000000 0.000000 0.000000 0.194943
#
#
# Mechanical properties :
#
#
# Convention : Reuss Voigt Hill
#
# Bulk Modulus (GPa) = 44.53080 48.63131 46.58105
# Shear Modulus (GPa) = 12.93858 20.73779 16.83819
#
# Velocity S-wave (km/s) = 2.51989 3.19022 2.87466
# Velocity P-wave (km/s) = 5.50644 6.11856 5.82055
#
# Compressibility (1/GPa) = 0.02245637
#
# Stress axis : x y z
#
# Youngs Moduli (GPa) = 66.89739 63.31776 86.87315
#
# Poissons Ratio (x) = 0.24327 0.51909
# Poissons Ratio (y) = 0.25703 0.00702
# Poissons Ratio (z) = 0.39973 0.00511
#
# Static dielectric constant tensor:
#      x y z
#    x 1.708880 0.000000 0.000000 
#    y 0.000000 1.770010 0.000000 
#    z 0.000000 0.000000 1.806970 
# 
# From -- ./inp_files/14383.got.cif
#   From: 2010.05.17/outbox.cif.g08.bks.cpg/sg36_8_cif.got.tgz:14383.got - 2010.06.03 17:41:39.
