data_PCOD9351808
_publ_section_title
;
Structure prediction by ZEFSAII (Michael W. Deem and Ramdas Pophale) SiO2 
 PCOD9351808
Probable space group: C M C 21
;
_chemical_formula_sum "Si O2"
_cell_formula_units_Z 64
_cell_length_a 22.801611
_cell_length_b 13.686473
_cell_length_c 9.122935
_cell_angle_alpha 90.000000
_cell_angle_beta 90.000000
_cell_angle_gamma 90.000000
_cell_volume 2847.027472
_symmetry_space_group_name_H-M "C M C 21"
_symmetry_group_IT_number 36
_symmetry_cell_setting 'orthorhombic'
loop_
_space_group_symop_operation_xyz
x,y,z
-x,-y,1/2+z
x,-y,1/2+z
-x,y,z
1/2+x,1/2+y,z
1/2-x,1/2-y,1/2+z
1/2+x,1/2-y,1/2+z
1/2-x,1/2+y,z
loop_
_atom_site_type_symbol
_atom_site_label
_atom_site_fract_x
_atom_site_fract_y
_atom_site_fract_z
Si Si1 0.235689 0.231556 0.405180
Si Si2 0.933891 0.796480 0.818009
Si Si3 0.245281 0.008346 0.318522
Si Si4 0.668721 0.786232 0.125579
Si Si5 0.371896 0.610670 0.787868
Si Si6 0.327442 0.991697 0.567348
Si Si7 0.567772 0.488725 0.010595
Si Si8 0.623789 0.792987 0.591363
O O1 0.229527 0.114739 0.382228
O O2 0.298592 0.249971 0.479176
O O3 0.219413 0.279809 0.250568
O O4 0.185930 0.264868 0.517431
O O5 0.885004 0.771385 0.697734
O O6 0.927035 0.904350 0.886276
O O7 0.000000 0.784335 0.763824
O O8 0.922335 0.729858 0.962565
O O9 0.265921 0.021756 0.152596
O O10 0.191956 0.933904 0.323647
O O11 0.305453 0.977983 0.401172
O O12 0.651891 0.898341 0.094601
O O13 0.394084 0.546934 0.647200
O O14 0.410783 0.585469 0.929269
O O15 0.381192 0.720611 0.728515
O O16 0.371112 0.907794 0.620143
O O17 0.500000 0.494981 0.056110
#
# Coordination Sequence:
#
# PCOD9351808 Si02
#       8
#     8   8   8   8   8   8   8   8
#     4  10  20  36  58  87 118 151 197 246 302 358
#     4   9  19  39  65  88 115 156 202 246 299 360
#     4  11  21  35  57  86 117 153 192 243 300 359
#     4  10  20  37  61  90 121 156 196 247 302 358
#     4  11  20  37  60  85 117 156 199 237 293 365
#     4  11  23  37  55  84 124 156 194 244 297 348
#     4  10  21  37  60  89 118 150 194 248 298 348
#     4  10  21  36  56  85 120 158 198 241 291 354
#
# _framework density 22.479586999999999
#
# number of rings (size 3 to 8) (size 9 to 14) (size 15 to 20)
#    0.000    1.750    0.000    7.125    0.000    1.500 
#    0.000   10.625    0.000    0.000    0.000   11.375 
#    0.000    1.000    0.000    0.000    0.000    0.000 
#
# Total GULP energy -178994.736727 kJ/mol
# GULP energy per Si atom -5593.585523 kJ/mol
# Density = 2.242842 g / cm^3
# Si number density = 22.479587 Si / 1000 Ang^3
#
#
#
# Elastic Constant Matrix: (Units=GPa)
#
#
# Indices 1 2 3 4 5 6 
#
# 1 81.6768 17.5947 35.6191 0.0000 0.0000 0.0000
# 2 17.5947 114.3503 40.7393 0.0000 0.0000 0.0000
# 3 35.6191 40.7393 82.4755 0.0000 0.0000 0.0000
# 4 0.0000 0.0000 0.0000 38.4134 0.0000 0.0000
# 5 0.0000 0.0000 0.0000 0.0000 30.0759 0.0000
# 6 0.0000 0.0000 0.0000 0.0000 0.0000 18.2282
#
#
#
# Elastic Compliance Matrix: (Units=1/GPa)
#
#
# Indices 1 2 3 4 5 6 
#
# 1 0.015084 0.000000 -0.006515 0.000000 0.000000 0.000000
# 2 0.000000 0.010613 -0.005242 0.000000 0.000000 0.000000
# 3 -0.006515 -0.005242 0.017528 0.000000 0.000000 0.000000
# 4 0.000000 0.000000 0.000000 0.026033 0.000000 0.000000
# 5 0.000000 0.000000 0.000000 0.000000 0.033249 0.000000
# 6 0.000000 0.000000 0.000000 0.000000 0.000000 0.054860
#
#
# Mechanical properties :
#
#
# Convention : Reuss Voigt Hill
#
# Bulk Modulus (GPa) = 50.73259 51.82320 51.27789
# Shear Modulus (GPa) = 26.67368 29.64678 28.16023
#
# Velocity S-wave (km/s) = 3.44840 3.63551 3.54319
# Velocity P-wave (km/s) = 6.20263 6.38170 6.29280
#
# Compressibility (1/GPa) = 0.01971119
#
# Stress axis : x y z
#
# Youngs Moduli (GPa) = 66.29380 94.22685 57.05261
#
# Poissons Ratio (x) = 0.00001 0.37167
# Poissons Ratio (y) = 0.00000 0.29908
# Poissons Ratio (z) = 0.43187 0.49395
#
# Static dielectric constant tensor:
#      x y z
#    x 1.816640 0.000000 0.000000 
#    y 0.000000 1.907440 0.000000 
#    z 0.000000 0.000000 1.841810 
# 
# From -- ./inp_files/5676.got.cif
#   From: 2010.05.17/outbox.cif.g08.bks.cpg/sg36_3_cif.got.tgz:5676.got - 2010.06.03 17:41:39.
