data_PCOD9351693
_publ_section_title
;
Structure prediction by ZEFSAII (Michael W. Deem and Ramdas Pophale) SiO2 
 PCOD9351693
Probable space group: C M C 21
;
_chemical_formula_sum "Si O2"
_cell_formula_units_Z 64
_cell_length_a 9.168149
_cell_length_b 17.981933
_cell_length_c 21.213719
_cell_angle_alpha 90.000000
_cell_angle_beta 90.000000
_cell_angle_gamma 90.000000
_cell_volume 3497.315799
_symmetry_space_group_name_H-M "C M C 21"
_symmetry_group_IT_number 36
_symmetry_cell_setting 'orthorhombic'
loop_
_space_group_symop_operation_xyz
x,y,z
-x,-y,1/2+z
x,-y,1/2+z
-x,y,z
1/2+x,1/2+y,z
1/2-x,1/2-y,1/2+z
1/2+x,1/2-y,1/2+z
1/2-x,1/2+y,z
loop_
_atom_site_type_symbol
_atom_site_label
_atom_site_fract_x
_atom_site_fract_y
_atom_site_fract_z
Si Si1 0.167830 0.840639 0.680560
Si Si2 0.830649 0.339823 0.807715
Si Si3 0.167830 0.340639 0.180560
Si Si4 0.169351 0.160177 0.807715
Si Si5 0.672884 0.338098 0.053494
Si Si6 0.672884 0.838098 0.553494
Si Si7 0.674884 0.079933 0.922728
Si Si8 0.825116 0.079933 0.422728
O O1 0.260905 0.864114 0.741200
O O2 0.170603 0.750000 0.680090
O O3 0.238078 0.864468 0.614433
O O4 0.000000 0.864076 0.686122
O O5 0.824556 0.250000 0.809944
O O6 0.739371 0.372459 0.865343
O O7 0.000000 0.362169 0.811844
O O8 0.260904 0.364114 0.241200
O O9 0.238079 0.364468 0.114433
O O10 0.000000 0.364076 0.186122
O O11 0.260629 0.127541 0.865343
O O12 0.000000 0.137831 0.811844
O O13 0.500000 0.346329 0.066058
O O14 0.701101 0.250000 0.044408
O O15 0.708758 0.380709 0.989391
O O16 0.500000 0.846330 0.566059
O O17 0.708758 0.880709 0.489392
O O18 0.500000 0.074316 0.917134
O O19 0.750000 1.000000 0.921214
O O20 0.000000 0.074316 0.417134
#
# Coordination Sequence:
#
# PCOD9351693 Si02
#       8
#     8   8   8   8   8   8   8   8
#     4   9  17  30  52  82 111 137 171 219 270 319
#     4  10  20  35  57  83 110 141 179 223 269 319
#     4   9  17  30  52  82 111 137 171 219 270 319
#     4  10  20  35  57  83 110 141 179 223 269 319
#     4   9  18  34  56  80 106 138 176 219 268 321
#     4   9  18  34  56  80 106 138 176 219 268 321
#     4  11  23  38  55  77 109 146 183 224 269 319
#     4  11  23  38  55  77 109 146 183 224 269 319
#
# _framework density 18.29975
#
# number of rings (size 3 to 8) (size 9 to 14) (size 15 to 20)
#    0.000    2.250    0.000    3.000    0.000    7.500 
#    0.000    3.750    0.000    3.000    0.000    0.000 
#    0.000    0.000    0.000    0.000    0.000    0.000 
#
# Total GULP energy -178650.382491 kJ/mol
# GULP energy per Si atom -5582.824453 kJ/mol
# Density = 1.825810 g / cm^3
# Si number density = 18.299750 Si / 1000 Ang^3
#
#
#
# Elastic Constant Matrix: (Units=GPa)
#
#
# Indices 1 2 3 4 5 6 
#
# 1 117.4502 36.2069 101.8452 0.0000 0.0000 0.0000
# 2 36.2069 25.0961 37.7118 0.0000 0.0000 0.0000
# 3 101.8452 37.7118 180.5071 0.0000 0.0000 0.0000
# 4 0.0000 0.0000 0.0000 -10.7629 0.0000 0.0000
# 5 0.0000 0.0000 0.0000 0.0000 40.8089 0.0000
# 6 0.0000 0.0000 0.0000 0.0000 0.0000 22.0799
#
#
#
# Elastic Compliance Matrix: (Units=1/GPa)
#
#
# Indices 1 2 3 4 5 6 
#
# 1 0.021258 -0.018433 -0.008143 0.000000 0.000000 0.000000
# 2 -0.018433 0.074064 -0.005074 0.000000 0.000000 0.000000
# 3 -0.008143 -0.005074 0.011194 0.000000 0.000000 0.000000
# 4 0.000000 0.000000 0.000000 -0.092911 0.000000 0.000000
# 5 0.000000 0.000000 0.000000 0.000000 0.024504 0.000000
# 6 0.000000 0.000000 0.000000 0.000000 0.000000 0.045290
#
#
# Mechanical properties :
#
#
# Convention : Reuss Voigt Hill
#
# Bulk Modulus (GPa) = 23.13865 74.95347 49.04606
# Shear Modulus (GPa) = 31.03600 20.24446 25.64023
#
# Velocity S-wave (km/s) = 4.12270 3.32967 3.74722
# Velocity P-wave (km/s) = 5.94423 7.47194 6.75144
#
# Compressibility (1/GPa) = 0.04321774
#
# Stress axis : x y z
#
# Youngs Moduli (GPa) = 47.04210 13.50182 89.33112
#
# Poissons Ratio (x) = 0.24887 0.72742
# Poissons Ratio (y) = 0.86711 0.45323
# Poissons Ratio (z) = 0.38306 0.06850
#
# Static dielectric constant tensor:
#      x y z
#    x 1.611370 0.000000 0.000000 
#    y 0.000000 1.616890 0.000000 
#    z 0.000000 0.000000 1.600310 
# 
# From -- ./inp_files/15045.got.cif
#   From: 2010.05.17/outbox.cif.g08.bks.cpg/sg36_8_cif.got.tgz:15045.got - 2010.06.03 17:41:39.
