data_PCOD9351216
_publ_section_title
;
Structure prediction by ZEFSAII (Michael W. Deem and Ramdas Pophale) SiO2 
 PCOD9351216
Probable space group: C M C 21
;
_chemical_formula_sum "Si O2"
_cell_formula_units_Z 64
_cell_length_a 8.976978
_cell_length_b 25.616930
_cell_length_c 14.184862
_cell_angle_alpha 90.000000
_cell_angle_beta 90.000000
_cell_angle_gamma 90.000000
_cell_volume 3261.987988
_symmetry_space_group_name_H-M "C M C 21"
_symmetry_group_IT_number 36
_symmetry_cell_setting 'orthorhombic'
loop_
_space_group_symop_operation_xyz
x,y,z
-x,-y,1/2+z
x,-y,1/2+z
-x,y,z
1/2+x,1/2+y,z
1/2-x,1/2-y,1/2+z
1/2+x,1/2-y,1/2+z
1/2-x,1/2+y,z
loop_
_atom_site_type_symbol
_atom_site_label
_atom_site_fract_x
_atom_site_fract_y
_atom_site_fract_z
Si Si1 0.817972 0.041340 0.338820
Si Si2 0.328550 0.834410 0.368090
Si Si3 0.180539 0.907114 0.640191
Si Si4 0.178162 0.937612 0.437044
Si Si5 0.671746 0.813404 0.144823
Si Si6 0.829215 0.877877 0.997462
Si Si7 0.176273 0.704659 0.165185
Si Si8 0.328090 0.721137 0.362160
O O1 0.770957 0.065431 0.238277
O O2 0.773074 0.077891 0.426554
O O3 0.000000 0.042304 0.336222
O O4 0.767053 0.983474 0.367884
O O5 0.500000 0.845894 0.393114
O O6 0.228334 0.881358 0.401328
O O7 0.317610 0.826210 0.255642
O O8 0.289360 0.777015 0.406703
O O9 0.222426 0.940413 0.547398
O O10 0.248477 0.849049 0.630641
O O11 0.000000 0.902209 0.643169
O O12 0.000000 0.940816 0.435697
O O13 0.500000 0.804967 0.119893
O O14 0.760310 0.759585 0.126629
O O15 0.735635 0.862387 0.087923
O O16 0.828796 0.825300 0.935405
O O17 0.000000 0.890390 0.023990
O O18 0.220550 0.707813 0.276019
O O19 0.000000 0.702485 0.150837
O O20 0.500000 0.726052 0.325154
#
# Coordination Sequence:
#
# PCOD9351216 Si02
#       8
#     8   8   8   8   8   8   8   8
#     4   9  19  38  61  85 117 154 193 240 296 347
#     4   9  20  38  56  78 117 158 187 231 297 351
#     4  10  20  38  59  82 117 154 188 239 301 346
#     4  10  22  37  60  90 112 149 203 244 284 345
#     4  10  22  38  56  83 121 161 195 237 300 353
#     4  10  19  34  59  88 116 154 195 236 291 348
#     4  11  21  34  56  86 116 151 200 242 285 346
#     4   9  18  35  57  82 116 155 187 231 300 350
#
# _framework density 19.619937
#
# number of rings (size 3 to 8) (size 9 to 14) (size 15 to 20)
#    0.000    2.250    1.250    2.250    1.750    4.500 
#    0.000    3.750    0.000    0.000    0.000    0.000 
#    0.000    0.000    0.000    0.000    0.000    0.000 
#
# Total GULP energy -178535.050335 kJ/mol
# GULP energy per Si atom -5579.220323 kJ/mol
# Density = 1.957528 g / cm^3
# Si number density = 19.619937 Si / 1000 Ang^3
#
#
#
# Elastic Constant Matrix: (Units=GPa)
#
#
# Indices 1 2 3 4 5 6 
#
# 1 35.8326 10.7489 18.5118 0.0000 0.0000 0.0000
# 2 10.7489 86.7719 17.0945 0.0000 0.0000 0.0000
# 3 18.5118 17.0945 46.9138 0.0000 0.0000 0.0000
# 4 0.0000 0.0000 0.0000 23.3471 0.0000 0.0000
# 5 0.0000 0.0000 0.0000 0.0000 20.0400 0.0000
# 6 0.0000 0.0000 0.0000 0.0000 0.0000 21.3633
#
#
#
# Elastic Compliance Matrix: (Units=1/GPa)
#
#
# Indices 1 2 3 4 5 6 
#
# 1 0.035300 -0.001755 -0.013290 0.000000 0.000000 0.000000
# 2 -0.001755 0.012503 -0.003863 0.000000 0.000000 0.000000
# 3 -0.013290 -0.003863 0.027967 0.000000 0.000000 0.000000
# 4 0.000000 0.000000 0.000000 0.042832 0.000000 0.000000
# 5 0.000000 0.000000 0.000000 0.000000 0.049900 0.000000
# 6 0.000000 0.000000 0.000000 0.000000 0.000000 0.046809
#
#
# Mechanical properties :
#
#
# Convention : Reuss Voigt Hill
#
# Bulk Modulus (GPa) = 26.34729 29.13652 27.74190
# Shear Modulus (GPa) = 18.81269 21.16095 19.98682
#
# Velocity S-wave (km/s) = 3.09990 3.28768 3.19517
# Velocity P-wave (km/s) = 5.12547 5.41244 5.27091
#
# Compressibility (1/GPa) = 0.03795457
#
# Stress axis : x y z
#
# Youngs Moduli (GPa) = 28.32898 79.98111 35.75594
#
# Poissons Ratio (x) = 0.14034 0.47518
# Poissons Ratio (y) = 0.04971 0.13814
# Poissons Ratio (z) = 0.37648 0.30900
#
# Static dielectric constant tensor:
#      x y z
#    x 1.678580 0.000000 0.000000 
#    y 0.000000 1.683270 0.000000 
#    z 0.000000 0.000000 1.715970 
# 
# From -- ./inp_files/11013.got.cif
#   From: 2010.05.17/outbox.cif.g08.bks.cpg/sg36_6_cif.got.tgz:11013.got - 2010.06.03 17:41:39.
