data_PCOD9351681
_publ_section_title
;
Structure prediction by ZEFSAII (Michael W. Deem and Ramdas Pophale) SiO2 
 PCOD9351681
Probable space group: C M C 21
;
_chemical_formula_sum "Si O2"
_cell_formula_units_Z 64
_cell_length_a 7.600653
_cell_length_b 24.392372
_cell_length_c 15.932957
_cell_angle_alpha 90.000000
_cell_angle_beta 90.000000
_cell_angle_gamma 90.000000
_cell_volume 2953.937652
_symmetry_space_group_name_H-M "C M C 21"
_symmetry_group_IT_number 36
_symmetry_cell_setting 'orthorhombic'
loop_
_space_group_symop_operation_xyz
x,y,z
-x,-y,1/2+z
x,-y,1/2+z
-x,y,z
1/2+x,1/2+y,z
1/2-x,1/2-y,1/2+z
1/2+x,1/2-y,1/2+z
1/2-x,1/2+y,z
loop_
_atom_site_type_symbol
_atom_site_label
_atom_site_fract_x
_atom_site_fract_y
_atom_site_fract_z
Si Si1 0.285389 0.249267 0.929850
Si Si2 0.295236 0.948911 0.344091
Si Si3 0.712028 0.858015 0.675409
Si Si4 0.715537 0.870772 0.490627
Si Si5 0.707921 0.240049 0.737592
Si Si6 0.711583 0.071630 0.332812
Si Si7 0.711494 0.363414 0.002118
Si Si8 0.298410 0.380181 0.183879
O O1 0.500000 0.250484 0.931140
O O2 0.229916 0.190736 0.965595
O O3 0.230927 0.252916 0.832506
O O4 0.223324 0.302037 0.981398
O O5 0.500000 0.957326 0.365399
O O6 0.219854 0.913517 0.421005
O O7 0.288022 0.913097 0.259675
O O8 0.219650 0.009469 0.331204
O O9 0.500000 0.860399 0.676316
O O10 0.770766 0.881669 0.585984
O O11 0.759748 0.794116 0.683382
O O12 0.779847 0.891205 0.756035
O O13 0.500000 0.870868 0.488211
O O14 0.500000 0.228960 0.741385
O O15 0.793167 0.184680 0.703766
O O16 0.500000 0.070139 0.322909
O O17 0.750280 0.099513 0.421760
O O18 0.500000 0.359765 0.011319
O O19 0.779582 0.386225 0.090636
O O20 0.500000 0.399003 0.183036
#
# Coordination Sequence:
#
# PCOD9351681 Si02
#       8
#     8   8   8   8   8   8   8   8
#     4   9  16  30  55  81 103 141 187 222 270 340
#     4  10  21  39  60  82 113 154 195 236 283 335
#     4  10  20  35  56  84 115 145 184 234 284 337
#     4   9  17  33  57  79 106 148 187 221 275 343
#     4  11  20  34  59  86 112 148 188 229 284 346
#     4  10  22  37  57  87 116 147 192 242 284 324
#     4  10  21  38  59  82 113 153 191 229 284 349
#     4  11  23  38  59  87 116 150 190 235 286 338
#
# _framework density 21.665994999999999
#
# number of rings (size 3 to 8) (size 9 to 14) (size 15 to 20)
#    0.000    2.000    2.500    1.500    0.000    4.500 
#    0.000    3.125    0.000    0.000    0.000    0.000 
#    0.000    0.000    0.000    0.000    0.000    0.000 
#
# Total GULP energy -178805.205424 kJ/mol
# GULP energy per Si atom -5587.662670 kJ/mol
# Density = 2.161668 g / cm^3
# Si number density = 21.665995 Si / 1000 Ang^3
#
#
#
# Elastic Constant Matrix: (Units=GPa)
#
#
# Indices 1 2 3 4 5 6 
#
# 1 46.8971 -8.7423 -6.4623 0.0000 0.0000 0.0000
# 2 -8.7423 122.2650 34.4033 0.0000 0.0000 0.0000
# 3 -6.4623 34.4033 114.8046 0.0000 0.0000 0.0000
# 4 0.0000 0.0000 0.0000 0.0240 0.0000 0.0000
# 5 0.0000 0.0000 0.0000 0.0000 11.0555 0.0000
# 6 0.0000 0.0000 0.0000 0.0000 0.0000 5.9508
#
#
#
# Elastic Compliance Matrix: (Units=1/GPa)
#
#
# Indices 1 2 3 4 5 6 
#
# 1 0.021683 0.001318 0.000826 0.000000 0.000000 0.000000
# 2 0.001318 0.009012 -0.002626 0.000000 0.000000 0.000000
# 3 0.000826 -0.002626 0.009544 0.000000 0.000000 0.000000
# 4 0.000000 0.000000 0.000000 41.719982 0.000000 0.000000
# 5 0.000000 0.000000 0.000000 0.000000 0.090452 0.000000
# 6 0.000000 0.000000 0.000000 0.000000 0.000000 0.168044
#
#
# Mechanical properties :
#
#
# Convention : Reuss Voigt Hill
#
# Bulk Modulus (GPa) = 25.46264 35.81823 30.64043
# Shear Modulus (GPa) = 0.11895 21.05726 10.58811
#
# Velocity S-wave (km/s) = 0.23457 3.12092 2.21305
# Velocity P-wave (km/s) = 3.44256 5.43643 4.55005
#
# Compressibility (1/GPa) = 0.03927323
#
# Stress axis : x y z
#
# Youngs Moduli (GPa) = 46.11964 110.96005 104.77794
#
# Poissons Ratio (x) = -0.14625 -0.08650
# Poissons Ratio (y) = -0.06079 0.27520
# Poissons Ratio (z) = -0.03807 0.29144
#
# Static dielectric constant tensor:
#      x y z
#    x 1.815700 0.000000 0.000000 
#    y 0.000000 1.747140 0.000000 
#    z 0.000000 0.000000 1.789610 
# 
# From -- ./inp_files/10940.got.cif
#   From: 2010.05.17/outbox.cif.g08.bks.cpg/sg36_6_cif.got.tgz:10940.got - 2010.06.03 17:41:39.
