data_PCOD9351321
_publ_section_title
;
Structure prediction by ZEFSAII (Michael W. Deem and Ramdas Pophale) SiO2 
 PCOD9351321
Probable space group: C M C 21
;
_chemical_formula_sum "Si O2"
_cell_formula_units_Z 48
_cell_length_a 14.818184
_cell_length_b 31.790733
_cell_length_c 4.889481
_cell_angle_alpha 90.000000
_cell_angle_beta 90.000000
_cell_angle_gamma 90.000000
_cell_volume 2303.341262
_symmetry_space_group_name_H-M "C M C 21"
_symmetry_group_IT_number 36
_symmetry_cell_setting 'orthorhombic'
loop_
_space_group_symop_operation_xyz
x,y,z
-x,-y,1/2+z
x,-y,1/2+z
-x,y,z
1/2+x,1/2+y,z
1/2-x,1/2-y,1/2+z
1/2+x,1/2-y,1/2+z
1/2-x,1/2+y,z
loop_
_atom_site_type_symbol
_atom_site_label
_atom_site_fract_x
_atom_site_fract_y
_atom_site_fract_z
Si Si1 0.308672 0.471169 0.197310
Si Si2 0.832396 0.588824 0.980624
Si Si3 0.206948 0.773931 0.903240
Si Si4 0.500000 0.805025 0.916055
Si Si5 0.678243 0.854338 0.972807
Si Si6 0.500000 0.252153 0.920896
Si Si7 0.500000 0.969789 0.637106
Si Si8 0.000000 0.971287 0.335399
O O1 0.302853 0.513066 0.387897
O O2 0.233217 0.441180 0.310638
O O3 0.406140 0.450621 0.256620
O O4 0.851371 0.625221 0.759406
O O5 0.914852 0.559719 0.076174
O O6 0.793620 0.610630 0.252044
O O7 0.257372 0.760011 0.624973
O O8 0.245107 0.819030 0.997658
O O9 0.098112 0.773483 0.872129
O O10 0.588897 0.831665 0.858774
O O11 0.500000 0.763481 0.732079
O O12 0.500000 0.788862 0.226705
O O13 0.500000 0.989541 0.938579
O O14 0.000000 0.986211 0.647725
#
# Coordination Sequence:
#
# PCOD9351321 Si02
#       8
#     8   8   8   4   8   4   4   4
#     4  10  19  36  58  83 111 153 204 249 296 369
#     4  12  24  39  58  89 126 166 203 253 333 379
#     4  12  23  43  66  96 126 166 218 271 328 389
#     4  12  22  39  66  89 118 163 214 263 320 366
#     4  12  24  40  60  92 129 161 206 272 319 386
#     4  12  22  41  68  97 118 167 216 267 316 380
#     4  12  24  42  64  90 126 170 218 268 314 388
#     4   8  16  30  54  80 102 130 190 250 282 332
#
# _framework density 20.839293000000001
#
# number of rings (size 3 to 8) (size 9 to 14) (size 15 to 20)
#    0.000    0.667    3.333    6.000    0.000    0.000 
#    0.000    1.667    0.000    0.000    0.000    0.000 
#    0.000    0.000    0.000    0.000    0.000    0.000 
#
# Total GULP energy -134114.162783 kJ/mol
# GULP energy per Si atom -5588.090116 kJ/mol
# Density = 2.079186 g / cm^3
# Si number density = 20.839293 Si / 1000 Ang^3
#
#
#
# Elastic Constant Matrix: (Units=GPa)
#
#
# Indices 1 2 3 4 5 6 
#
# 1 103.6151 21.2218 -21.3270 0.0000 0.0000 0.0000
# 2 21.2218 60.6528 -2.5062 0.0000 0.0000 0.0000
# 3 -21.3270 -2.5062 70.5306 0.0000 0.0000 0.0000
# 4 0.0000 0.0000 0.0000 20.2544 0.0000 0.0000
# 5 0.0000 0.0000 0.0000 0.0000 15.2756 0.0000
# 6 0.0000 0.0000 0.0000 0.0000 0.0000 -486.5820
#
#
#
# Elastic Compliance Matrix: (Units=1/GPa)
#
#
# Indices 1 2 3 4 5 6 
#
# 1 0.011080 -0.003744 0.003217 0.000000 0.000000 0.000000
# 2 -0.003744 0.017777 -0.000500 0.000000 0.000000 0.000000
# 3 0.003217 -0.000500 0.015133 0.000000 0.000000 0.000000
# 4 0.000000 0.000000 0.000000 0.049372 0.000000 0.000000
# 5 0.000000 0.000000 0.000000 0.000000 0.065464 0.000000
# 6 0.000000 0.000000 0.000000 0.000000 0.000000 -0.002055
#
#
# Mechanical properties :
#
#
# Convention : Reuss Voigt Hill
#
# Bulk Modulus (GPa) = 23.84576 25.50841 24.67708
# Shear Modulus (GPa) = 28.93466 -74.38307 -22.72421
#
# Velocity S-wave (km/s) = 3.73026 -5.98090 -3.30578
# Velocity P-wave (km/s) = 5.47911 5.95212 1.64426
#
# Compressibility (1/GPa) = 0.04193617
#
# Stress axis : x y z
#
# Youngs Moduli (GPa) = 90.25159 56.25383 66.07928
#
# Poissons Ratio (x) = 0.21061 -0.21260
# Poissons Ratio (y) = 0.33789 0.03307
# Poissons Ratio (z) = -0.29037 0.02815
#
# Static dielectric constant tensor:
#      x y z
#    x 1.803640 0.000000 0.000000 
#    y 0.000000 1.735020 0.000000 
#    z 0.000000 0.000000 1.740380 
# 
# From -- ./inp_files/861.got.cif
#   From: 2010.05.17/outbox.cif.g08.bks.cpg/sg36_1_cif.got.tgz:861.got - 2010.06.03 17:41:39.
