data_PCOD9351051
_publ_section_title
;
Structure prediction by ZEFSAII (Michael W. Deem and Ramdas Pophale) SiO2 
 PCOD9351051
Probable space group: C M C 21
;
_chemical_formula_sum "Si O2"
_cell_formula_units_Z 48
_cell_length_a 7.391888
_cell_length_b 20.670710
_cell_length_c 14.460479
_cell_angle_alpha 90.000000
_cell_angle_beta 90.000000
_cell_angle_gamma 90.000000
_cell_volume 2209.497178
_symmetry_space_group_name_H-M "C M C 21"
_symmetry_group_IT_number 36
_symmetry_cell_setting 'orthorhombic'
loop_
_space_group_symop_operation_xyz
x,y,z
-x,-y,1/2+z
x,-y,1/2+z
-x,y,z
1/2+x,1/2+y,z
1/2-x,1/2-y,1/2+z
1/2+x,1/2-y,1/2+z
1/2-x,1/2+y,z
loop_
_atom_site_type_symbol
_atom_site_label
_atom_site_fract_x
_atom_site_fract_y
_atom_site_fract_z
Si Si1 0.717403 0.296892 0.985650
Si Si2 0.791495 0.953626 0.491681
Si Si3 0.721422 0.612982 0.804613
Si Si4 0.278835 0.421789 0.100123
Si Si5 0.219427 0.326663 0.598984
Si Si6 0.788740 0.739299 0.285079
O O1 0.500000 0.297082 0.989354
O O2 0.771703 0.300302 0.879359
O O3 0.778630 0.355680 0.049788
O O4 0.777827 0.228169 0.026146
O O5 0.714318 0.924728 0.396034
O O6 0.786440 0.895690 0.565649
O O7 0.000000 0.969847 0.470402
O O8 0.713943 0.017225 0.540464
O O9 0.500000 0.614339 0.809255
O O10 0.774037 0.580047 0.707706
O O11 0.783942 0.688010 0.800735
O O12 0.500000 0.422739 0.100598
O O13 0.283369 0.300674 0.698226
O O14 0.000000 0.330219 0.598737
O O15 0.000000 0.749264 0.263369
#
# Coordination Sequence:
#
# PCOD9351051 Si02
#       6
#     8   8   8   8   8   8
#     4  10  19  33  54  79 103 133 177 222 255 300
#     4  10  20  33  55  81 104 135 177 222 257 303
#     4   9  16  30  51  75 104 137 171 208 261 316
#     4   9  18  33  53  78 108 139 172 215 268 312
#     4  10  20  34  53  76 105 141 172 208 264 317
#     4  10  19  33  54  77 106 143 175 209 261 318
#
# _framework density 21.724399999999999
#
# number of rings (size 3 to 8) (size 9 to 14) (size 15 to 20)
#    0.000    2.333    3.333    0.000    0.000    2.000 
#    0.000    4.167    0.000    3.000    0.000    0.000 
#    0.000    0.000    0.000    0.000    0.000    0.000 
#
# Total GULP energy -134033.943044 kJ/mol
# GULP energy per Si atom -5584.747627 kJ/mol
# Density = 2.167495 g / cm^3
# Si number density = 21.724400 Si / 1000 Ang^3
#
#
#
# Elastic Constant Matrix: (Units=GPa)
#
#
# Indices 1 2 3 4 5 6 
#
# 1 71.2478 -6.4517 -10.5712 0.0000 0.0000 0.0000
# 2 -6.4517 81.3387 4.5585 0.0000 0.0000 0.0000
# 3 -10.5712 4.5585 113.6613 0.0000 0.0000 0.0000
# 4 0.0000 0.0000 0.0000 33.6834 0.0000 0.0000
# 5 0.0000 0.0000 0.0000 0.0000 11.9972 0.0000
# 6 0.0000 0.0000 0.0000 0.0000 0.0000 11.4690
#
#
#
# Elastic Compliance Matrix: (Units=1/GPa)
#
#
# Indices 1 2 3 4 5 6 
#
# 1 0.014323 0.001064 0.001289 0.000000 0.000000 0.000000
# 2 0.001064 0.012401 -0.000398 0.000000 0.000000 0.000000
# 3 0.001289 -0.000398 0.008934 0.000000 0.000000 0.000000
# 4 0.000000 0.000000 0.000000 0.029688 0.000000 0.000000
# 5 0.000000 0.000000 0.000000 0.000000 0.083353 0.000000
# 6 0.000000 0.000000 0.000000 0.000000 0.000000 0.087191
#
#
# Mechanical properties :
#
#
# Convention : Reuss Voigt Hill
#
# Bulk Modulus (GPa) = 25.27297 26.81320 26.04309
# Shear Modulus (GPa) = 20.39401 30.01074 25.20238
#
# Velocity S-wave (km/s) = 3.06724 3.72079 3.40971
# Velocity P-wave (km/s) = 4.91962 5.55232 5.24552
#
# Compressibility (1/GPa) = 0.03956796
#
# Stress axis : x y z
#
# Youngs Moduli (GPa) = 69.81692 80.63882 111.93219
#
# Poissons Ratio (x) = -0.08579 -0.14433
# Poissons Ratio (y) = -0.07427 0.04459
# Poissons Ratio (z) = -0.09003 0.03213
#
# Static dielectric constant tensor:
#      x y z
#    x 1.866050 0.000000 0.000000 
#    y 0.000000 1.742140 0.000000 
#    z 0.000000 0.000000 1.767550 
# 
# From -- ./inp_files/7676.got.cif
#   From: 2010.05.17/outbox.cif.g08.bks.cpg/sg36_4_cif.got.tgz:7676.got - 2010.06.03 17:41:39.
