data_PCOD9351712
_publ_section_title
;
Structure prediction by ZEFSAII (Michael W. Deem and Ramdas Pophale) SiO2 
 PCOD9351712
Probable space group: C M C 21
;
_chemical_formula_sum "Si O2"
_cell_formula_units_Z 48
_cell_length_a 14.307712
_cell_length_b 14.256034
_cell_length_c 11.903116
_cell_angle_alpha 90.000000
_cell_angle_beta 90.000000
_cell_angle_gamma 90.000000
_cell_volume 2427.893196
_symmetry_space_group_name_H-M "C M C 21"
_symmetry_group_IT_number 36
_symmetry_cell_setting 'orthorhombic'
loop_
_space_group_symop_operation_xyz
x,y,z
-x,-y,1/2+z
x,-y,1/2+z
-x,y,z
1/2+x,1/2+y,z
1/2-x,1/2-y,1/2+z
1/2+x,1/2-y,1/2+z
1/2-x,1/2+y,z
loop_
_atom_site_type_symbol
_atom_site_label
_atom_site_fract_x
_atom_site_fract_y
_atom_site_fract_z
Si Si1 0.604681 0.696606 0.684790
Si Si2 0.105520 0.394841 0.081556
Si Si3 0.390418 0.651461 0.432179
Si Si4 0.704048 0.831136 0.312721
Si Si5 0.400380 0.909855 0.691053
Si Si6 0.772061 0.462852 0.886057
O O1 0.500000 0.676064 0.729304
O O2 0.619087 0.644455 0.567290
O O3 0.689185 0.683363 0.771036
O O4 0.604162 0.805546 0.646807
O O5 0.145528 0.349893 0.196737
O O6 0.098141 0.506271 0.104271
O O7 0.000000 0.359827 0.057862
O O8 0.177537 0.396375 0.978651
O O9 0.500000 0.656533 0.405408
O O10 0.339040 0.742832 0.378933
O O11 0.337004 0.559938 0.387582
O O12 0.703654 0.926738 0.386465
O O13 0.500000 0.918205 0.756175
O O14 0.313627 0.927519 0.769531
#
# Coordination Sequence:
#
# PCOD9351712 Si02
#       6
#     8   8   8   8   8   8
#     4  10  20  37  60  83 115 156 198 239 294 360
#     4  10  20  35  57  87 117 147 193 250 303 354
#     4  11  23  40  61  87 120 159 198 245 301 357
#     4  11  22  38  61  88 117 158 203 244 296 360
#     4   9  18  33  56  84 110 144 188 238 294 350
#     4  11  21  35  59  85 117 152 192 246 296 353
#
# _framework density 19.770226000000001
#
# number of rings (size 3 to 8) (size 9 to 14) (size 15 to 20)
#    0.000    1.667    3.333    2.000    0.000    4.000 
#    0.000    0.000    0.000    0.000    0.000    0.000 
#    0.000    0.000    0.000    0.000    0.000    0.000 
#
# Total GULP energy -133705.156718 kJ/mol
# GULP energy per Si atom -5571.048197 kJ/mol
# Density = 1.972523 g / cm^3
# Si number density = 19.770226 Si / 1000 Ang^3
#
#
#
# Elastic Constant Matrix: (Units=GPa)
#
#
# Indices 1 2 3 4 5 6 
#
# 1 141.6164 -2.6473 31.4608 0.0000 0.0000 0.0000
# 2 -2.6473 24.0479 -4.4582 0.0000 0.0000 0.0000
# 3 31.4608 -4.4582 38.7553 0.0000 0.0000 0.0000
# 4 0.0000 0.0000 0.0000 16.2694 0.0000 0.0000
# 5 0.0000 0.0000 0.0000 0.0000 30.2685 0.0000
# 6 0.0000 0.0000 0.0000 0.0000 0.0000 18.9433
#
#
#
# Elastic Compliance Matrix: (Units=1/GPa)
#
#
# Indices 1 2 3 4 5 6 
#
# 1 0.008618 -0.000356 -0.007037 0.000000 0.000000 0.000000
# 2 -0.000356 0.042505 0.005178 0.000000 0.000000 0.000000
# 3 -0.007037 0.005178 0.032111 0.000000 0.000000 0.000000
# 4 0.000000 0.000000 0.000000 0.061465 0.000000 0.000000
# 5 0.000000 0.000000 0.000000 0.000000 0.033038 0.000000
# 6 0.000000 0.000000 0.000000 0.000000 0.000000 0.052789
#
#
# Mechanical properties :
#
#
# Convention : Reuss Voigt Hill
#
# Bulk Modulus (GPa) = 12.68958 28.12559 20.40759
# Shear Modulus (GPa) = 19.14081 25.10052 22.12067
#
# Velocity S-wave (km/s) = 3.11491 3.56703 3.34861
# Velocity P-wave (km/s) = 4.40106 5.58767 5.02948
#
# Compressibility (1/GPa) = 0.07880479
#
# Stress axis : x y z
#
# Youngs Moduli (GPa) = 116.03697 23.52692 31.14201
#
# Poissons Ratio (x) = 0.00837 0.21914
# Poissons Ratio (y) = 0.04129 -0.16126
# Poissons Ratio (z) = 0.81653 -0.12183
#
# Static dielectric constant tensor:
#      x y z
#    x 1.802400 0.000000 0.000000 
#    y 0.000000 1.704160 0.000000 
#    z 0.000000 0.000000 1.683480 
# 
# From -- ./inp_files/7678.got.cif
#   From: 2010.05.17/outbox.cif.g08.bks.cpg/sg36_4_cif.got.tgz:7678.got - 2010.06.03 17:41:39.
