data_PCOD9351294
_publ_section_title
;
Structure prediction by ZEFSAII (Michael W. Deem and Ramdas Pophale) SiO2 
 PCOD9351294
Probable space group: C M C 21
;
_chemical_formula_sum "Si O2"
_cell_formula_units_Z 64
_cell_length_a 9.441029
_cell_length_b 14.609741
_cell_length_c 21.667091
_cell_angle_alpha 90.000000
_cell_angle_beta 90.000000
_cell_angle_gamma 90.000000
_cell_volume 2988.563279
_symmetry_space_group_name_H-M "C M C 21"
_symmetry_group_IT_number 36
_symmetry_cell_setting 'orthorhombic'
loop_
_space_group_symop_operation_xyz
x,y,z
-x,-y,1/2+z
x,-y,1/2+z
-x,y,z
1/2+x,1/2+y,z
1/2-x,1/2-y,1/2+z
1/2+x,1/2-y,1/2+z
1/2-x,1/2+y,z
loop_
_atom_site_type_symbol
_atom_site_label
_atom_site_fract_x
_atom_site_fract_y
_atom_site_fract_z
Si Si1 0.835971 0.093106 0.819040
Si Si2 0.335839 0.402367 0.767778
Si Si3 0.162699 0.282433 0.412313
Si Si4 0.836140 0.016485 0.130187
Si Si5 0.163518 0.428130 0.519710
Si Si6 0.334022 0.169443 0.612480
Si Si7 0.162649 0.244204 0.719769
Si Si8 0.835443 0.371066 0.970550
O O1 0.741884 0.152822 0.864080
O O2 0.834025 0.145681 0.753365
O O3 0.000000 0.093154 0.839791
O O4 0.790359 0.988361 0.809402
O O5 0.500000 0.380205 0.781482
O O6 0.331396 0.438209 0.697048
O O7 0.235729 0.315042 0.766519
O O8 0.166840 0.341501 0.475364
O O9 0.238274 0.185830 0.424411
O O10 0.000000 0.269243 0.394630
O O11 0.773764 0.078619 0.075406
O O12 0.734313 0.928867 0.127833
O O13 0.000000 0.990917 0.117597
O O14 0.198078 0.521676 0.481641
O O15 0.000000 0.440466 0.542032
O O16 0.500000 0.173769 0.628083
O O17 0.248274 0.237941 0.656141
O O18 0.320950 0.175153 0.538583
O O19 0.000000 0.269367 0.708549
O O20 0.000000 0.364540 0.951919
#
# Coordination Sequence:
#
# PCOD9351294 Si02
#       8
#     8   8   8   8   8   8   8   8
#     4  10  23  45  63  81 120 163 200 245 301 359
#     4  10  22  40  60  88 122 157 199 247 299 359
#     4  11  24  40  62  90 118 153 205 254 292 350
#     4  10  19  35  60  89 124 158 197 243 297 359
#     4   9  21  40  58  85 122 158 196 243 298 354
#     4  10  20  36  60  89 125 161 197 244 302 359
#     4  11  23  39  61  90 120 158 203 248 302 360
#     4   9  20  39  60  84 119 160 195 236 299 358
#
# _framework density 21.414971999999999
#
# number of rings (size 3 to 8) (size 9 to 14) (size 15 to 20)
#    0.000    2.000    1.250    2.250    1.750    7.000 
#    0.000    3.750    0.000    0.000    0.000    0.000 
#    0.000    0.000    0.000    0.000    0.000    0.000 
#
# Total GULP energy -178850.265881 kJ/mol
# GULP energy per Si atom -5589.070809 kJ/mol
# Density = 2.136623 g / cm^3
# Si number density = 21.414972 Si / 1000 Ang^3
#
#
#
# Elastic Constant Matrix: (Units=GPa)
#
#
# Indices 1 2 3 4 5 6 
#
# 1 79.6493 27.6340 16.9921 0.0000 0.0000 0.0000
# 2 27.6340 86.2018 2.3145 0.0000 0.0000 0.0000
# 3 16.9921 2.3145 31.1655 0.0000 0.0000 0.0000
# 4 0.0000 0.0000 0.0000 39.2533 0.0000 0.0000
# 5 0.0000 0.0000 0.0000 0.0000 27.8747 0.0000
# 6 0.0000 0.0000 0.0000 0.0000 0.0000 27.8173
#
#
#
# Elastic Compliance Matrix: (Units=1/GPa)
#
#
# Indices 1 2 3 4 5 6 
#
# 1 0.016051 -0.004920 -0.008386 0.000000 0.000000 0.000000
# 2 -0.004920 0.013132 0.001707 0.000000 0.000000 0.000000
# 3 -0.008386 0.001707 0.036532 0.000000 0.000000 0.000000
# 4 0.000000 0.000000 0.000000 0.025476 0.000000 0.000000
# 5 0.000000 0.000000 0.000000 0.000000 0.035875 0.000000
# 6 0.000000 0.000000 0.000000 0.000000 0.000000 0.035949
#
#
# Mechanical properties :
#
#
# Convention : Reuss Voigt Hill
#
# Bulk Modulus (GPa) = 23.51966 32.32198 27.92082
# Shear Modulus (GPa) = 24.95190 28.99411 26.97300
#
# Velocity S-wave (km/s) = 3.41715 3.68355 3.55285
# Velocity P-wave (km/s) = 5.15518 5.76345 5.46778
#
# Compressibility (1/GPa) = 0.04251762
#
# Stress axis : x y z
#
# Youngs Moduli (GPa) = 62.30064 76.14875 27.37308
#
# Poissons Ratio (x) = 0.37468 0.22955
# Poissons Ratio (y) = 0.30655 -0.04674
# Poissons Ratio (z) = 0.52246 -0.13002
#
# Static dielectric constant tensor:
#      x y z
#    x 1.726210 0.000000 0.000000 
#    y 0.000000 1.794330 0.000000 
#    z 0.000000 0.000000 1.794680 
# 
# From -- ./inp_files/16651.got.cif
#   From: 2010.05.17/outbox.cif.g08.bks.cpg/sg36_9_cif.got.tgz:16651.got - 2010.06.03 17:41:39.
