data_PCOD9351418
_publ_section_title
;
Structure prediction by ZEFSAII (Michael W. Deem and Ramdas Pophale) SiO2 
 PCOD9351418
Probable space group: C M C 21
;
_chemical_formula_sum "Si O2"
_cell_formula_units_Z 40
_cell_length_a 21.092923
_cell_length_b 5.325803
_cell_length_c 13.936416
_cell_angle_alpha 90.000000
_cell_angle_beta 90.000000
_cell_angle_gamma 90.000000
_cell_volume 1565.571716
_symmetry_space_group_name_H-M "C M C 21"
_symmetry_group_IT_number 36
_symmetry_cell_setting 'orthorhombic'
loop_
_space_group_symop_operation_xyz
x,y,z
-x,-y,1/2+z
x,-y,1/2+z
-x,y,z
1/2+x,1/2+y,z
1/2-x,1/2-y,1/2+z
1/2+x,1/2-y,1/2+z
1/2-x,1/2+y,z
loop_
_atom_site_type_symbol
_atom_site_label
_atom_site_fract_x
_atom_site_fract_y
_atom_site_fract_z
Si Si1 0.211177 0.655633 0.908320
Si Si2 0.428892 0.300773 0.209310
Si Si3 0.428964 0.030411 0.398237
Si Si4 0.604828 0.808485 0.106812
Si Si5 0.758041 0.852825 0.620514
O O1 0.248095 0.908998 0.880252
O O2 0.136116 0.630544 0.884640
O O3 0.215299 0.655085 0.025577
O O4 0.500000 0.221753 0.181293
O O5 0.422522 0.258615 0.322634
O O6 0.422223 0.585833 0.173707
O O7 0.388416 0.074813 0.161697
O O8 0.500000 0.915743 0.381136
O O9 0.428306 0.133335 0.506544
O O10 0.671801 0.685024 0.081434
O O11 0.744840 0.604701 0.678834
#
# Coordination Sequence:
#
# PCOD9351418 Si02
#       5
#     8   8   8   8   8
#     4  10  21  41  70  98 143 184 230 299 349 424
#     4  11  27  46  67 111 150 181 252 306 350 454
#     4  11  25  47  78 108 145 198 243 303 376 428
#     4  12  24  46  75 101 145 200 233 299 375 425
#     4  10  19  38  69  96 137 181 230 293 347 419
#
# _framework density 25.549769000000001
#
# number of rings (size 3 to 8) (size 9 to 14) (size 15 to 20)
#    0.000    1.200    4.000    3.000    2.800    3.200 
#    0.000   11.000    0.000    0.000    0.000    0.000 
#    0.000    0.000    0.000    0.000    0.000    0.000 
#
# Total GULP energy -111687.803719 kJ/mol
# GULP energy per Si atom -5584.390186 kJ/mol
# Density = 2.549162 g / cm^3
# Si number density = 25.549769 Si / 1000 Ang^3
#
#
#
# Elastic Constant Matrix: (Units=GPa)
#
#
# Indices 1 2 3 4 5 6 
#
# 1 168.4889 42.3232 1.6073 0.0000 0.0000 0.0000
# 2 42.3232 194.7302 31.6162 0.0000 0.0000 0.0000
# 3 1.6073 31.6162 118.5510 0.0000 0.0000 0.0000
# 4 0.0000 0.0000 0.0000 34.4500 0.0000 0.0000
# 5 0.0000 0.0000 0.0000 0.0000 -26.6496 0.0000
# 6 0.0000 0.0000 0.0000 0.0000 0.0000 25.9821
#
#
#
# Elastic Compliance Matrix: (Units=1/GPa)
#
#
# Indices 1 2 3 4 5 6 
#
# 1 0.006287 -0.001414 0.000292 0.000000 0.000000 0.000000
# 2 -0.001414 0.005686 -0.001497 0.000000 0.000000 0.000000
# 3 0.000292 -0.001497 0.008830 0.000000 0.000000 0.000000
# 4 0.000000 0.000000 0.000000 0.029028 0.000000 0.000000
# 5 0.000000 0.000000 0.000000 0.000000 -0.037524 0.000000
# 6 0.000000 0.000000 0.000000 0.000000 0.000000 0.038488
#
#
# Mechanical properties :
#
#
# Convention : Reuss Voigt Hill
#
# Bulk Modulus (GPa) = 64.24580 70.31817 67.28199
# Shear Modulus (GPa) = 81.66975 33.83806 57.75391
#
# Velocity S-wave (km/s) = 5.65989 3.64318 4.75957
# Velocity P-wave (km/s) = 8.24090 6.72895 7.52300
#
# Compressibility (1/GPa) = 0.01556522
#
# Stress axis : x y z
#
# Youngs Moduli (GPa) = 159.04597 175.88021 113.24391
#
# Poissons Ratio (x) = 0.24868 -0.03305
# Poissons Ratio (y) = 0.22488 0.16954
# Poissons Ratio (z) = -0.04641 0.26332
#
# Static dielectric constant tensor:
#      x y z
#    x 2.149430 0.000000 0.000000 
#    y 0.000000 2.105880 0.000000 
#    z 0.000000 0.000000 1.950830 
# 
# From -- ./inp_files/12901.got.cif
#   From: 2010.05.17/outbox.cif.g08.bks.cpg/sg36_7_cif.got.tgz:12901.got - 2010.06.03 17:41:39.
