data_PCOD9351484
_publ_section_title
;
Structure prediction by ZEFSAII (Michael W. Deem and Ramdas Pophale) SiO2 
 PCOD9351484
Probable space group: C M C 21
;
_chemical_formula_sum "Si O2"
_cell_formula_units_Z 64
_cell_length_a 8.405197
_cell_length_b 20.321483
_cell_length_c 20.987893
_cell_angle_alpha 90.000000
_cell_angle_beta 90.000000
_cell_angle_gamma 90.000000
_cell_volume 3584.859478
_symmetry_space_group_name_H-M "C M C 21"
_symmetry_group_IT_number 36
_symmetry_cell_setting 'orthorhombic'
loop_
_space_group_symop_operation_xyz
x,y,z
-x,-y,1/2+z
x,-y,1/2+z
-x,y,z
1/2+x,1/2+y,z
1/2-x,1/2-y,1/2+z
1/2+x,1/2-y,1/2+z
1/2-x,1/2+y,z
loop_
_atom_site_type_symbol
_atom_site_label
_atom_site_fract_x
_atom_site_fract_y
_atom_site_fract_z
Si Si1 0.692321 0.825441 0.740730
Si Si2 0.190415 0.825882 0.239594
Si Si3 0.307801 0.324447 0.881054
Si Si4 0.690724 0.575204 0.489845
Si Si5 0.690459 0.076576 0.631151
Si Si6 0.306138 0.074186 0.132605
Si Si7 0.692446 0.927343 0.488247
Si Si8 0.192321 0.673250 0.879938
O O1 0.500000 0.826081 0.740480
O O2 0.744179 0.749900 0.729309
O O3 0.749394 0.844914 0.811102
O O4 0.749559 0.874833 0.685913
O O5 0.251549 0.873570 0.184704
O O6 0.250180 0.846192 0.309620
O O7 0.000000 0.826471 0.239415
O O8 0.500000 0.324772 0.880857
O O9 0.255653 0.248749 0.891625
O O10 0.252850 0.373283 0.936527
O O11 0.500000 0.574652 0.489436
O O12 0.747578 0.593678 0.560699
O O13 0.751600 0.501639 0.475922
O O14 0.500000 0.076663 0.629374
O O15 0.742939 0.001263 0.645182
O O16 0.500000 0.075418 0.133563
O O17 0.256836 0.090972 0.060274
O O18 0.500000 0.927389 0.487784
O O19 0.748132 0.876295 0.434793
O O20 0.000000 0.672647 0.879985
#
# Coordination Sequence:
#
# PCOD9351484 Si02
#       8
#     8   8   8   8   8   8   8   8
#     4   9  18  33  53  74  98 130 167 207 248 292
#     4  10  20  33  51  76 104 131 161 205 257 300
#     4   9  19  34  51  73 101 132 166 204 246 293
#     4  10  20  34  52  75 103 132 163 206 257 301
#     4  10  20  35  54  74  99 132 169 207 245 297
#     4   8  16  32  52  73  95 124 167 210 243 284
#     4   9  18  33  53  74  97 130 170 208 245 292
#     4   9  18  34  54  73  97 133 173 207 241 291
#
# _framework density 17.852861000000001
#
# number of rings (size 3 to 8) (size 9 to 14) (size 15 to 20)
#    0.000    2.750    0.000    1.875    0.000    4.000 
#    0.000   10.625    0.000    3.000    0.000    0.000 
#    0.000    0.000    0.000    0.000    0.000    0.000 
#
# Total GULP energy -178452.470470 kJ/mol
# GULP energy per Si atom -5576.639702 kJ/mol
# Density = 1.781223 g / cm^3
# Si number density = 17.852861 Si / 1000 Ang^3
#
#
#
# Elastic Constant Matrix: (Units=GPa)
#
#
# Indices 1 2 3 4 5 6 
#
# 1 13.2219 17.9560 23.4751 0.0000 0.0000 0.0000
# 2 17.9560 113.9358 136.6963 0.0000 0.0000 0.0000
# 3 23.4751 136.6963 197.1529 0.0000 0.0000 0.0000
# 4 0.0000 0.0000 0.0000 45.3376 0.0000 0.0000
# 5 0.0000 0.0000 0.0000 0.0000 29.1411 0.0000
# 6 0.0000 0.0000 0.0000 0.0000 0.0000 22.5051
#
#
#
# Elastic Compliance Matrix: (Units=1/GPa)
#
#
# Indices 1 2 3 4 5 6 
#
# 1 0.097281 -0.008528 -0.005670 0.000000 0.000000 0.000000
# 2 -0.008528 0.052948 -0.035696 0.000000 0.000000 0.000000
# 3 -0.005670 -0.035696 0.030497 0.000000 0.000000 0.000000
# 4 0.000000 0.000000 0.000000 0.022057 0.000000 0.000000
# 5 0.000000 0.000000 0.000000 0.000000 0.034316 0.000000
# 6 0.000000 0.000000 0.000000 0.000000 0.000000 0.044434
#
#
# Mechanical properties :
#
#
# Convention : Reuss Voigt Hill
#
# Bulk Modulus (GPa) = 12.35528 75.61839 43.98684
# Shear Modulus (GPa) = 12.24588 29.14232 20.69410
#
# Velocity S-wave (km/s) = 2.62188 4.04463 3.40832
# Velocity P-wave (km/s) = 4.01264 8.01626 6.33884
#
# Compressibility (1/GPa) = 0.08093705
#
# Stress axis : x y z
#
# Youngs Moduli (GPa) = 10.27948 18.88661 32.78999
#
# Poissons Ratio (x) = 0.16107 0.18592
# Poissons Ratio (y) = 0.08767 1.17047
# Poissons Ratio (z) = 0.05829 0.67417
#
# Static dielectric constant tensor:
#      x y z
#    x 1.619400 0.000000 0.000000 
#    y 0.000000 1.605460 0.000000 
#    z 0.000000 0.000000 1.587080 
# 
# From -- ./inp_files/13832.got.cif
#   From: 2010.05.17/outbox.cif.g08.bks.cpg/sg36_7_cif.got.tgz:13832.got - 2010.06.03 17:41:39.
