data_PCOD9351719
_publ_section_title
;
Structure prediction by ZEFSAII (Michael W. Deem and Ramdas Pophale) SiO2 
 PCOD9351719
Probable space group: C M C 21
;
_chemical_formula_sum "Si O2"
_cell_formula_units_Z 48
_cell_length_a 12.841208
_cell_length_b 13.568465
_cell_length_c 14.338259
_cell_angle_alpha 90.000000
_cell_angle_beta 90.000000
_cell_angle_gamma 90.000000
_cell_volume 2498.233458
_symmetry_space_group_name_H-M "C M C 21"
_symmetry_group_IT_number 36
_symmetry_cell_setting 'orthorhombic'
loop_
_space_group_symop_operation_xyz
x,y,z
-x,-y,1/2+z
x,-y,1/2+z
-x,y,z
1/2+x,1/2+y,z
1/2-x,1/2-y,1/2+z
1/2+x,1/2-y,1/2+z
1/2-x,1/2+y,z
loop_
_atom_site_type_symbol
_atom_site_label
_atom_site_fract_x
_atom_site_fract_y
_atom_site_fract_z
Si Si1 0.382359 0.981861 0.405650
Si Si2 0.214003 0.930275 0.035211
Si Si3 0.381353 0.707625 0.256138
Si Si4 0.880507 0.867480 0.559365
Si Si5 0.801506 0.266372 0.450816
Si Si6 0.384400 0.933347 0.193078
O O1 0.500000 0.012736 0.427025
O O2 0.366163 0.868703 0.442250
O O3 0.369121 0.981427 0.294240
O O4 0.296094 0.049243 0.452421
O O5 0.288057 0.945976 0.124638
O O6 0.131799 0.018260 0.033249
O O7 0.167723 0.821381 0.021693
O O8 0.500000 0.677304 0.283336
O O9 0.345126 0.644574 0.167392
O O10 0.311618 0.718254 0.348099
O O11 0.388437 0.817221 0.214362
O O12 0.809472 0.803668 0.489905
O O13 0.000000 0.835465 0.555521
O O14 0.500000 0.963138 0.157118
#
# Coordination Sequence:
#
# PCOD9351719 Si02
#       6
#     8   8   8   8   8   8
#     4   9  20  36  54  81 111 140 178 228 275 323
#     4  11  21  32  58  84 108 141 184 231 270 325
#     4   9  18  36  60  80 107 148 185 224 278 334
#     4  10  22  38  55  82 117 148 182 224 276 334
#     4  10  20  35  58  81 105 146 189 228 265 328
#     4   9  17  33  57  80 106 141 182 223 272 328
#
# _framework density 19.213577000000001
#
# number of rings (size 3 to 8) (size 9 to 14) (size 15 to 20)
#    0.000    2.333    1.667    2.000    2.333    2.000 
#    0.000    0.000    0.000    2.000    0.000    0.000 
#    0.000    0.000    0.000    0.000    0.000    0.000 
#
# Total GULP energy -133671.378364 kJ/mol
# GULP energy per Si atom -5569.640765 kJ/mol
# Density = 1.916985 g / cm^3
# Si number density = 19.213577 Si / 1000 Ang^3
#
#
#
# Elastic Constant Matrix: (Units=GPa)
#
#
# Indices 1 2 3 4 5 6 
#
# 1 52.4146 10.0524 44.8611 0.0000 0.0000 0.0000
# 2 10.0524 46.1388 12.3500 0.0000 0.0000 0.0000
# 3 44.8611 12.3500 78.5780 0.0000 0.0000 0.0000
# 4 0.0000 0.0000 0.0000 28.2946 0.0000 0.0000
# 5 0.0000 0.0000 0.0000 0.0000 -21.4041 0.0000
# 6 0.0000 0.0000 0.0000 0.0000 0.0000 5.8086
#
#
#
# Elastic Compliance Matrix: (Units=1/GPa)
#
#
# Indices 1 2 3 4 5 6 
#
# 1 0.037595 -0.002553 -0.021062 0.000000 0.000000 0.000000
# 2 -0.002553 0.022799 -0.002126 0.000000 0.000000 0.000000
# 3 -0.021062 -0.002126 0.025085 0.000000 0.000000 0.000000
# 4 0.000000 0.000000 0.000000 0.035342 0.000000 0.000000
# 5 0.000000 0.000000 0.000000 0.000000 -0.046720 0.000000
# 6 0.000000 0.000000 0.000000 0.000000 0.000000 0.172160
#
#
# Mechanical properties :
#
#
# Convention : Reuss Voigt Hill
#
# Bulk Modulus (GPa) = 29.41436 34.62871 32.02154
# Shear Modulus (GPa) = 16.17724 9.86434 13.02079
#
# Velocity S-wave (km/s) = 2.90482 2.26830 2.60607
# Velocity P-wave (km/s) = 5.15684 4.99224 5.07521
#
# Compressibility (1/GPa) = 0.03399700
#
# Stress axis : x y z
#
# Youngs Moduli (GPa) = 26.59902 43.86159 39.86446
#
# Poissons Ratio (x) = 0.11199 0.83964
# Poissons Ratio (y) = 0.06791 0.08474
# Poissons Ratio (z) = 0.56024 0.09323
#
# Static dielectric constant tensor:
#      x y z
#    x 1.675230 0.000000 0.000000 
#    y 0.000000 1.670170 0.000000 
#    z 0.000000 0.000000 1.706770 
# 
# From -- ./inp_files/8409.got.cif
#   From: 2010.05.17/outbox.cif.g08.bks.cpg/sg36_5_cif.got.tgz:8409.got - 2010.06.03 17:41:39.
