data_PCOD9351196
_publ_section_title
;
Structure prediction by ZEFSAII (Michael W. Deem and Ramdas Pophale) SiO2 
 PCOD9351196
Probable space group: C M C 21
;
_chemical_formula_sum "Si O2"
_cell_formula_units_Z 64
_cell_length_a 16.021878
_cell_length_b 8.608193
_cell_length_c 21.482852
_cell_angle_alpha 90.000000
_cell_angle_beta 90.000000
_cell_angle_gamma 90.000000
_cell_volume 2962.902446
_symmetry_space_group_name_H-M "C M C 21"
_symmetry_group_IT_number 36
_symmetry_cell_setting 'orthorhombic'
loop_
_space_group_symop_operation_xyz
x,y,z
-x,-y,1/2+z
x,-y,1/2+z
-x,y,z
1/2+x,1/2+y,z
1/2-x,1/2-y,1/2+z
1/2+x,1/2-y,1/2+z
1/2-x,1/2+y,z
loop_
_atom_site_type_symbol
_atom_site_label
_atom_site_fract_x
_atom_site_fract_y
_atom_site_fract_z
Si Si1 0.398845 0.645740 0.289670
Si Si2 0.602273 0.036864 0.718602
Si Si3 0.904820 0.931344 0.504982
Si Si4 0.381124 0.204214 0.392184
Si Si5 0.091562 0.436620 0.469770
Si Si6 0.810873 0.161913 0.421838
Si Si7 0.399351 0.840511 0.084950
Si Si8 0.595073 0.309995 0.253800
O O1 0.500000 0.641333 0.289449
O O2 0.373104 0.816571 0.263102
O O3 0.366092 0.631245 0.360285
O O4 0.370632 0.488926 0.251274
O O5 0.500000 0.030456 0.721801
O O6 0.629738 0.092509 0.650136
O O7 0.631341 0.857369 0.729916
O O8 0.911960 0.808748 0.448715
O O9 0.873820 0.832372 0.564139
O O10 0.000000 0.992773 0.515669
O O11 0.836293 0.044207 0.476381
O O12 0.282598 0.177966 0.398614
O O13 0.405716 0.276951 0.327554
O O14 0.416487 0.036127 0.406845
O O15 0.163171 0.320105 0.453966
O O16 0.116695 0.542881 0.527957
O O17 0.000000 0.366902 0.482966
O O18 0.500000 0.830359 0.088958
O O19 0.500000 0.318326 0.228991
#
# Coordination Sequence:
#
# PCOD9351196 Si02
#       8
#     8   8   8   8   8   8   8   8
#     4  10  20  34  56  85 116 150 190 235 290 353
#     4   9  18  35  57  84 113 146 195 249 287 334
#     4  10  19  35  57  79 113 151 181 228 288 346
#     4  11  21  34  54  81 114 149 181 227 287 347
#     4  10  20  34  55  82 110 147 187 228 282 343
#     4  12  22  33  53  88 119 143 182 243 289 342
#     4   8  17  35  56  78 108 146 190 235 285 339
#     4  10  19  34  58  83 115 156 192 235 292 352
#
# _framework density 21.600441
#
# number of rings (size 3 to 8) (size 9 to 14) (size 15 to 20)
#    0.000    2.000    1.250    4.500    0.000    1.000 
#    2.250    0.000    0.000    6.000    0.000    0.000 
#    0.000    0.000    0.000    0.000    0.000    0.000 
#
# Total GULP energy -178216.262133 kJ/mol
# GULP energy per Si atom -5569.258192 kJ/mol
# Density = 2.155128 g / cm^3
# Si number density = 21.600441 Si / 1000 Ang^3
#
#
#
# Elastic Constant Matrix: (Units=GPa)
#
#
# Indices 1 2 3 4 5 6 
#
# 1 56.2762 20.4819 3.3484 0.0000 0.0000 0.0000
# 2 20.4819 76.3753 -3.1739 0.0000 0.0000 0.0000
# 3 3.3484 -3.1739 36.4163 0.0000 0.0000 0.0000
# 4 0.0000 0.0000 0.0000 19.0156 0.0000 0.0000
# 5 0.0000 0.0000 0.0000 0.0000 -10.3567 0.0000
# 6 0.0000 0.0000 0.0000 0.0000 0.0000 20.7028
#
#
#
# Elastic Compliance Matrix: (Units=1/GPa)
#
#
# Indices 1 2 3 4 5 6 
#
# 1 0.019882 -0.005427 -0.002301 0.000000 0.000000 0.000000
# 2 -0.005427 0.014622 0.001773 0.000000 0.000000 0.000000
# 3 -0.002301 0.001773 0.027826 0.000000 0.000000 0.000000
# 4 0.000000 0.000000 0.000000 0.052588 0.000000 0.000000
# 5 0.000000 0.000000 0.000000 0.000000 -0.096556 0.000000
# 6 0.000000 0.000000 0.000000 0.000000 0.000000 0.048303
#
#
# Mechanical properties :
#
#
# Convention : Reuss Voigt Hill
#
# Bulk Modulus (GPa) = 19.83322 23.37562 21.60442
# Shear Modulus (GPa) = 52.42031 15.76643 34.09337
#
# Velocity S-wave (km/s) = 4.93162 2.70462 3.97717
# Velocity P-wave (km/s) = 6.45210 4.53857 5.57800
#
# Compressibility (1/GPa) = 0.05042045
#
# Stress axis : x y z
#
# Youngs Moduli (GPa) = 50.29741 68.38816 35.93713
#
# Poissons Ratio (x) = 0.37117 0.08270
# Poissons Ratio (y) = 0.27298 -0.06373
# Poissons Ratio (z) = 0.11574 -0.12128
#
# Static dielectric constant tensor:
#      x y z
#    x 1.784960 0.000000 0.000000 
#    y 0.000000 1.942860 0.000000 
#    z 0.000000 0.000000 1.766620 
# 
# From -- ./inp_files/16225.got.cif
#   From: 2010.05.17/outbox.cif.g08.bks.cpg/sg36_9_cif.got.tgz:16225.got - 2010.06.03 17:41:39.
