data_PCOD9351067
_publ_section_title
;
Structure prediction by ZEFSAII (Michael W. Deem and Ramdas Pophale) SiO2 
 PCOD9351067
Probable space group: C M C 21
;
_chemical_formula_sum "Si O2"
_cell_formula_units_Z 24
_cell_length_a 7.597524
_cell_length_b 17.640595
_cell_length_c 7.929686
_cell_angle_alpha 90.000000
_cell_angle_beta 90.000000
_cell_angle_gamma 90.000000
_cell_volume 1062.774928
_symmetry_space_group_name_H-M "C M C 21"
_symmetry_group_IT_number 36
_symmetry_cell_setting 'orthorhombic'
loop_
_space_group_symop_operation_xyz
x,y,z
-x,-y,1/2+z
x,-y,1/2+z
-x,y,z
1/2+x,1/2+y,z
1/2-x,1/2-y,1/2+z
1/2+x,1/2-y,1/2+z
1/2-x,1/2+y,z
loop_
_atom_site_type_symbol
_atom_site_label
_atom_site_fract_x
_atom_site_fract_y
_atom_site_fract_z
Si Si1 0.698883 0.128188 0.696960
Si Si2 0.297051 0.269705 0.498139
Si Si3 0.000000 0.121423 0.190012
Si Si4 0.500000 0.528759 0.838569
O O1 0.500000 0.104308 0.654940
O O2 0.766669 0.188121 0.557636
O O3 0.694433 0.180626 0.864951
O O4 0.829147 0.060523 0.740736
O O5 0.500000 0.260928 0.432954
O O6 0.333123 0.323249 0.662958
O O7 0.000000 0.068238 0.021244
O O8 0.000000 0.061714 0.338754
#
# Coordination Sequence:
#
# PCOD9351067 Si02
#       4
#     8   8   4   4
#     4  10  19  33  55  79 106 135 176 219 260 307
#     4   8  18  34  51  79 102 136 177 209 258 318
#     4   8  18  36  52  72 109 138 173 210 265 310
#     4  10  20  36  54  76 107 142 175 216 259 316
#
# _framework density 22.582393
#
# number of rings (size 3 to 8) (size 9 to 14) (size 15 to 20)
#    1.000    2.000    1.667    0.000    2.333    2.667 
#    0.000    6.667    0.000    0.000    0.000    0.000 
#    0.000    0.000    0.000    0.000    0.000    0.000 
#
# Total GULP energy -66865.636179 kJ/mol
# GULP energy per Si atom -5572.136348 kJ/mol
# Density = 2.253099 g / cm^3
# Si number density = 22.582393 Si / 1000 Ang^3
#
#
#
# Elastic Constant Matrix: (Units=GPa)
#
#
# Indices 1 2 3 4 5 6 
#
# 1 77.3879 26.8095 -2.4382 0.0000 0.0000 0.0000
# 2 26.8095 93.2113 6.3531 0.0000 0.0000 0.0000
# 3 -2.4382 6.3531 41.2123 0.0000 0.0000 0.0000
# 4 0.0000 0.0000 0.0000 43.4121 0.0000 0.0000
# 5 0.0000 0.0000 0.0000 0.0000 4.6152 0.0000
# 6 0.0000 0.0000 0.0000 0.0000 0.0000 17.1917
#
#
#
# Elastic Compliance Matrix: (Units=1/GPa)
#
#
# Indices 1 2 3 4 5 6 
#
# 1 0.014444 -0.004257 0.001511 0.000000 0.000000 0.000000
# 2 -0.004257 0.012097 -0.002117 0.000000 0.000000 0.000000
# 3 0.001511 -0.002117 0.024680 0.000000 0.000000 0.000000
# 4 0.000000 0.000000 0.000000 0.023035 0.000000 0.000000
# 5 0.000000 0.000000 0.000000 0.000000 0.216675 0.000000
# 6 0.000000 0.000000 0.000000 0.000000 0.000000 0.058167
#
#
# Mechanical properties :
#
#
# Convention : Reuss Voigt Hill
#
# Bulk Modulus (GPa) = 24.09917 30.36224 27.23071
# Shear Modulus (GPa) = 13.41714 25.11629 19.26672
#
# Velocity S-wave (km/s) = 2.44015 3.33859 2.92408
# Velocity P-wave (km/s) = 4.31670 5.32315 4.84612
#
# Compressibility (1/GPa) = 0.04149521
#
# Stress axis : x y z
#
# Youngs Moduli (GPa) = 69.23077 82.66427 40.51815
#
# Poissons Ratio (x) = 0.35194 -0.06122
# Poissons Ratio (y) = 0.29475 0.08577
# Poissons Ratio (z) = -0.10460 0.17498
#
# Static dielectric constant tensor:
#      x y z
#    x 1.784870 0.000000 0.000000 
#    y 0.000000 1.816500 0.000000 
#    z 0.000000 0.000000 1.923000 
# 
# From -- ./inp_files/2177.got.cif
#   From: 2010.05.17/outbox.cif.g08.bks.cpg/sg36_2_cif.got.tgz:2177.got - 2010.06.03 17:41:39.
