data_PCOD9351847
_publ_section_title
;
Structure prediction by ZEFSAII (Michael W. Deem and Ramdas Pophale) SiO2 
 PCOD9351847
Probable space group: C M C 21
;
_chemical_formula_sum "Si O2"
_cell_formula_units_Z 64
_cell_length_a 8.940619
_cell_length_b 29.284478
_cell_length_c 12.739598
_cell_angle_alpha 90.000000
_cell_angle_beta 90.000000
_cell_angle_gamma 90.000000
_cell_volume 3335.498879
_symmetry_space_group_name_H-M "C M C 21"
_symmetry_group_IT_number 36
_symmetry_cell_setting 'orthorhombic'
loop_
_space_group_symop_operation_xyz
x,y,z
-x,-y,1/2+z
x,-y,1/2+z
-x,y,z
1/2+x,1/2+y,z
1/2-x,1/2-y,1/2+z
1/2+x,1/2-y,1/2+z
1/2-x,1/2+y,z
loop_
_atom_site_type_symbol
_atom_site_label
_atom_site_fract_x
_atom_site_fract_y
_atom_site_fract_z
Si Si1 0.175644 0.352243 0.907840
Si Si2 0.176441 0.571527 0.564941
Si Si3 0.322331 0.766413 0.785300
Si Si4 0.320507 0.835091 0.598365
Si Si5 0.819788 0.986862 0.879004
Si Si6 0.175809 0.089911 0.226902
Si Si7 0.678199 0.418763 0.286156
Si Si8 0.821218 0.675297 0.859295
O O1 0.202551 0.298975 0.887417
O O2 0.282022 0.378742 0.827185
O O3 0.000000 0.360353 0.877554
O O4 0.196129 0.376847 0.018707
O O5 0.236160 0.537595 0.474659
O O6 0.267828 0.566812 0.670873
O O7 0.000000 0.564376 0.582036
O O8 0.500000 0.758151 0.776487
O O9 0.275283 0.797315 0.685319
O O10 0.238510 0.719158 0.797720
O O11 0.500000 0.837436 0.602198
O O12 0.258316 0.884588 0.632427
O O13 0.274063 0.821636 0.481624
O O14 0.780983 0.959976 0.770395
O O15 0.000000 0.981841 0.892832
O O16 0.783261 0.039839 0.864854
O O17 0.000000 0.090134 0.205770
O O18 0.500000 0.413198 0.287339
O O19 0.756501 0.371701 0.315421
O O20 0.000000 0.674226 0.854596
#
# Coordination Sequence:
#
# PCOD9351847 Si02
#       8
#     8   8   8   8   8   8   8   8
#     4   8  16  32  54  81 112 142 176 222 274 329
#     4  10  20  36  60  88 116 147 185 232 283 331
#     4   9  18  36  59  81 107 144 186 225 278 342
#     4   9  20  38  57  79 112 149 182 225 282 337
#     4   9  20  38  58  82 112 148 190 232 276 331
#     4   9  16  29  54  84 108 135 179 228 270 320
#     4  11  24  41  58  79 114 155 191 230 278 334
#     4  11  24  40  56  80 113 146 187 236 283 332
#
# _framework density 19.187532999999998
#
# number of rings (size 3 to 8) (size 9 to 14) (size 15 to 20)
#    0.000    2.500    0.000    2.250    0.000    7.000 
#    0.000    6.250    0.000    0.000    0.000    0.000 
#    0.000    0.000    0.000    0.000    0.000    0.000 
#
# Total GULP energy -178454.805004 kJ/mol
# GULP energy per Si atom -5576.712656 kJ/mol
# Density = 1.914386 g / cm^3
# Si number density = 19.187533 Si / 1000 Ang^3
#
#
#
# Elastic Constant Matrix: (Units=GPa)
#
#
# Indices 1 2 3 4 5 6 
#
# 1 27.7390 38.2860 17.9411 0.0000 0.0000 0.0000
# 2 38.2860 126.9090 31.2976 0.0000 0.0000 0.0000
# 3 17.9411 31.2976 64.8843 0.0000 0.0000 0.0000
# 4 0.0000 0.0000 0.0000 18.7513 0.0000 0.0000
# 5 0.0000 0.0000 0.0000 0.0000 24.8304 0.0000
# 6 0.0000 0.0000 0.0000 0.0000 0.0000 24.8978
#
#
#
# Elastic Compliance Matrix: (Units=1/GPa)
#
#
# Indices 1 2 3 4 5 6 
#
# 1 0.067001 -0.017756 -0.009961 0.000000 0.000000 0.000000
# 2 -0.017756 0.013649 -0.001674 0.000000 0.000000 0.000000
# 3 -0.009961 -0.001674 0.018974 0.000000 0.000000 0.000000
# 4 0.000000 0.000000 0.000000 0.053330 0.000000 0.000000
# 5 0.000000 0.000000 0.000000 0.000000 0.040273 0.000000
# 6 0.000000 0.000000 0.000000 0.000000 0.000000 0.040164
#
#
# Mechanical properties :
#
#
# Convention : Reuss Voigt Hill
#
# Bulk Modulus (GPa) = 24.48552 43.84241 34.16396
# Shear Modulus (GPa) = 16.35119 22.49640 19.42379
#
# Velocity S-wave (km/s) = 2.92238 3.42782 3.18514
# Velocity P-wave (km/s) = 4.91690 6.21012 5.60096
#
# Compressibility (1/GPa) = 0.04084047
#
# Stress axis : x y z
#
# Youngs Moduli (GPa) = 14.92520 73.26424 52.70369
#
# Poissons Ratio (x) = 1.30090 0.52501
# Poissons Ratio (y) = 0.26501 0.08823
# Poissons Ratio (z) = 0.14868 0.12265
#
# Static dielectric constant tensor:
#      x y z
#    x 1.639370 0.000000 0.000000 
#    y 0.000000 1.675940 0.000000 
#    z 0.000000 0.000000 1.691650 
# 
# From -- ./inp_files/7147.got.cif
#   From: 2010.05.17/outbox.cif.g08.bks.cpg/sg36_4_cif.got.tgz:7147.got - 2010.06.03 17:41:39.
