data_PCOD9351828
_publ_section_title
;
Structure prediction by ZEFSAII (Michael W. Deem and Ramdas Pophale) SiO2 
 PCOD9351828
Probable space group: C M C 21
;
_chemical_formula_sum "Si O2"
_cell_formula_units_Z 64
_cell_length_a 9.160772
_cell_length_b 23.401465
_cell_length_c 16.540597
_cell_angle_alpha 90.000000
_cell_angle_beta 90.000000
_cell_angle_gamma 90.000000
_cell_volume 3545.898510
_symmetry_space_group_name_H-M "C M C 21"
_symmetry_group_IT_number 36
_symmetry_cell_setting 'orthorhombic'
loop_
_space_group_symop_operation_xyz
x,y,z
-x,-y,1/2+z
x,-y,1/2+z
-x,y,z
1/2+x,1/2+y,z
1/2-x,1/2-y,1/2+z
1/2+x,1/2-y,1/2+z
1/2-x,1/2+y,z
loop_
_atom_site_type_symbol
_atom_site_label
_atom_site_fract_x
_atom_site_fract_y
_atom_site_fract_z
Si Si1 0.833945 0.142802 0.520570
Si Si2 0.169332 0.779120 0.173052
Si Si3 0.829244 0.030879 0.426820
Si Si4 0.676165 0.850106 0.619432
Si Si5 0.326413 0.813037 0.336210
Si Si6 0.825422 0.588543 0.951651
Si Si7 0.175706 0.884790 0.779413
Si Si8 0.170975 0.707146 0.388756
O O1 0.826589 0.169311 0.608828
O O2 0.814428 0.076243 0.500511
O O3 0.710684 0.174119 0.469667
O O4 0.000000 0.156482 0.489317
O O5 0.210254 0.717668 0.133153
O O6 0.268504 0.797409 0.247801
O O7 0.000000 0.773085 0.199922
O O8 0.787157 0.064762 0.343844
O O9 0.000000 0.017161 0.418793
O O10 0.743002 0.973709 0.444927
O O11 0.500000 0.855028 0.627160
O O12 0.718333 0.875614 0.531941
O O13 0.754647 0.886079 0.690500
O O14 0.500000 0.804910 0.341197
O O15 0.290341 0.875215 0.371086
O O16 0.243676 0.768614 0.393525
O O17 0.000000 0.583248 0.955797
O O18 0.245462 0.828115 0.819169
O O19 0.000000 0.880780 0.775612
O O20 0.000000 0.708996 0.373194
#
# Coordination Sequence:
#
# PCOD9351828 Si02
#       8
#     8   8   8   8   8   8   8   8
#     4   9  19  37  59  83 114 151 187 234 290 340
#     4  10  20  36  59  87 118 150 187 234 294 352
#     4   9  20  39  60  82 111 151 199 238 282 344
#     4  10  20  36  59  87 116 149 193 239 292 353
#     4  11  22  37  56  81 117 154 190 235 291 347
#     4  10  23  41  59  82 116 158 195 241 295 340
#     4  10  20  36  59  86 115 150 190 240 291 338
#     4  11  20  32  55  86 115 147 187 231 285 344
#
# _framework density 18.049022999999998
#
# number of rings (size 3 to 8) (size 9 to 14) (size 15 to 20)
#    0.000    2.000    1.250    3.375    0.000    6.500 
#    2.250    1.250    0.000    0.000    0.000    0.000 
#    0.000    0.000    0.000    0.000    0.000    0.000 
#
# Total GULP energy -178400.019632 kJ/mol
# GULP energy per Si atom -5575.000613 kJ/mol
# Density = 1.800794 g / cm^3
# Si number density = 18.049023 Si / 1000 Ang^3
#
#
#
# Elastic Constant Matrix: (Units=GPa)
#
#
# Indices 1 2 3 4 5 6 
#
# 1 56.2654 53.5367 41.1895 0.0000 0.0000 0.0000
# 2 53.5367 132.8624 61.5437 0.0000 0.0000 0.0000
# 3 41.1895 61.5437 83.4103 0.0000 0.0000 0.0000
# 4 0.0000 0.0000 0.0000 19.2250 0.0000 0.0000
# 5 0.0000 0.0000 0.0000 0.0000 28.9121 0.0000
# 6 0.0000 0.0000 0.0000 0.0000 0.0000 31.1014
#
#
#
# Elastic Compliance Matrix: (Units=1/GPa)
#
#
# Indices 1 2 3 4 5 6 
#
# 1 0.033557 -0.008881 -0.010018 0.000000 0.000000 0.000000
# 2 -0.008881 0.013785 -0.005786 0.000000 0.000000 0.000000
# 3 -0.010018 -0.005786 0.021205 0.000000 0.000000 0.000000
# 4 0.000000 0.000000 0.000000 0.052016 0.000000 0.000000
# 5 0.000000 0.000000 0.000000 0.000000 0.034588 0.000000
# 6 0.000000 0.000000 0.000000 0.000000 0.000000 0.032153
#
#
# Mechanical properties :
#
#
# Convention : Reuss Voigt Hill
#
# Bulk Modulus (GPa) = 52.14488 65.00866 58.57677
# Shear Modulus (GPa) = 20.57049 23.59890 22.08470
#
# Velocity S-wave (km/s) = 3.37961 3.61984 3.50179
# Velocity P-wave (km/s) = 6.64699 7.31895 6.99105
#
# Compressibility (1/GPa) = 0.01917734
#
# Stress axis : x y z
#
# Youngs Moduli (GPa) = 29.79965 72.54122 47.15870
#
# Poissons Ratio (x) = 0.64426 0.47245
# Poissons Ratio (y) = 0.26466 0.27284
# Poissons Ratio (z) = 0.29854 0.41969
#
# Static dielectric constant tensor:
#      x y z
#    x 1.605340 0.000000 0.000000 
#    y 0.000000 1.624970 0.000000 
#    z 0.000000 0.000000 1.659810 
# 
# From -- ./inp_files/13907.got.cif
#   From: 2010.05.17/outbox.cif.g08.bks.cpg/sg36_7_cif.got.tgz:13907.got - 2010.06.03 17:41:39.
