data_PCOD9351193
_publ_section_title
;
Structure prediction by ZEFSAII (Michael W. Deem and Ramdas Pophale) SiO2 
 PCOD9351193
Probable space group: C M C 21
;
_chemical_formula_sum "Si O2"
_cell_formula_units_Z 48
_cell_length_a 13.155025
_cell_length_b 8.691542
_cell_length_c 22.091532
_cell_angle_alpha 90.000000
_cell_angle_beta 90.000000
_cell_angle_gamma 90.000000
_cell_volume 2525.889486
_symmetry_space_group_name_H-M "C M C 21"
_symmetry_group_IT_number 36
_symmetry_cell_setting 'orthorhombic'
loop_
_space_group_symop_operation_xyz
x,y,z
-x,-y,1/2+z
x,-y,1/2+z
-x,y,z
1/2+x,1/2+y,z
1/2-x,1/2-y,1/2+z
1/2+x,1/2-y,1/2+z
1/2-x,1/2+y,z
loop_
_atom_site_type_symbol
_atom_site_label
_atom_site_fract_x
_atom_site_fract_y
_atom_site_fract_z
Si Si1 0.688714 0.264225 0.043940
Si Si2 0.741743 0.339963 0.872859
Si Si3 0.881453 0.104104 0.660794
Si Si4 0.381785 0.073537 0.940956
Si Si5 0.623082 0.396918 0.301112
Si Si6 0.884581 0.096674 0.050574
O O1 0.673319 0.275433 0.116324
O O2 0.646934 0.430415 0.022557
O O3 0.805893 0.226169 0.032682
O O4 0.629639 0.127374 0.010666
O O5 0.668310 0.217361 0.905096
O O6 0.811969 0.432699 0.920082
O O7 0.671401 0.458430 0.836064
O O8 0.820394 0.250087 0.829525
O O9 0.850124 0.093126 0.729832
O O10 0.875050 0.945535 0.622106
O O11 0.000000 0.147211 0.659988
O O12 0.500000 0.050108 0.926499
O O13 0.500000 0.391470 0.307378
O O14 0.000000 0.132755 0.035330
#
# Coordination Sequence:
#
# PCOD9351193 Si02
#       6
#     8   8   8   8   8   8
#     4  10  19  34  58  80 108 143 175 216 274 319
#     4  10  23  36  55  82 104 146 185 220 268 315
#     4   8  18  34  57  81 107 141 176 221 274 320
#     4  11  21  38  57  78 111 143 181 225 263 319
#     4  10  20  37  57  79 109 140 180 226 269 319
#     4   9  19  35  52  80 111 135 173 216 264 322
#
# _framework density 19.003207
#
# number of rings (size 3 to 8) (size 9 to 14) (size 15 to 20)
#    1.000    1.333    0.000    3.000    2.333    0.000 
#    0.000    8.333    0.000    1.000    0.000    0.000 
#    0.000    0.000    0.000    0.000    0.000    0.000 
#
# Total GULP energy -133675.754945 kJ/mol
# GULP energy per Si atom -5569.823123 kJ/mol
# Density = 1.895995 g / cm^3
# Si number density = 19.003207 Si / 1000 Ang^3
#
#
#
# Elastic Constant Matrix: (Units=GPa)
#
#
# Indices 1 2 3 4 5 6 
#
# 1 116.2280 17.1056 32.1696 0.0000 0.0000 0.0000
# 2 17.1056 34.4622 24.6715 0.0000 0.0000 0.0000
# 3 32.1696 24.6715 73.9711 0.0000 0.0000 0.0000
# 4 0.0000 0.0000 0.0000 17.4773 0.0000 0.0000
# 5 0.0000 0.0000 0.0000 0.0000 24.6697 0.0000
# 6 0.0000 0.0000 0.0000 0.0000 0.0000 28.9629
#
#
#
# Elastic Compliance Matrix: (Units=1/GPa)
#
#
# Indices 1 2 3 4 5 6 
#
# 1 0.009932 -0.002414 -0.003514 0.000000 0.000000 0.000000
# 2 -0.002414 0.038706 -0.011860 0.000000 0.000000 0.000000
# 3 -0.003514 -0.011860 0.019003 0.000000 0.000000 0.000000
# 4 0.000000 0.000000 0.000000 0.057217 0.000000 0.000000
# 5 0.000000 0.000000 0.000000 0.000000 0.040536 0.000000
# 6 0.000000 0.000000 0.000000 0.000000 0.000000 0.034527
#
#
# Mechanical properties :
#
#
# Convention : Reuss Voigt Hill
#
# Bulk Modulus (GPa) = 31.18701 41.39498 36.29099
# Shear Modulus (GPa) = 20.31004 24.26961 22.28983
#
# Velocity S-wave (km/s) = 3.27275 3.57758 3.42855
# Velocity P-wave (km/s) = 5.54331 6.23665 5.90017
#
# Compressibility (1/GPa) = 0.03206463
#
# Stress axis : x y z
#
# Youngs Moduli (GPa) = 100.68795 25.83588 52.62426
#
# Poissons Ratio (x) = 0.06237 0.18493
# Poissons Ratio (y) = 0.24305 0.62411
# Poissons Ratio (z) = 0.35383 0.30641
#
# Static dielectric constant tensor:
#      x y z
#    x 1.643580 0.000000 0.000000 
#    y 0.000000 1.660300 0.000000 
#    z 0.000000 0.000000 1.702170 
# 
# From -- ./inp_files/17133.got.cif
#   From: 2010.05.17/outbox.cif.g08.bks.cpg/sg36_9_cif.got.tgz:17133.got - 2010.06.03 17:41:39.
