data_PCOD9351116
_publ_section_title
;
Structure prediction by ZEFSAII (Michael W. Deem and Ramdas Pophale) SiO2 
 PCOD9351116
Probable space group: C M C 21
;
_chemical_formula_sum "Si O2"
_cell_formula_units_Z 64
_cell_length_a 8.795410
_cell_length_b 25.156914
_cell_length_c 14.422977
_cell_angle_alpha 90.000000
_cell_angle_beta 90.000000
_cell_angle_gamma 90.000000
_cell_volume 3191.305385
_symmetry_space_group_name_H-M "C M C 21"
_symmetry_group_IT_number 36
_symmetry_cell_setting 'orthorhombic'
loop_
_space_group_symop_operation_xyz
x,y,z
-x,-y,1/2+z
x,-y,1/2+z
-x,y,z
1/2+x,1/2+y,z
1/2-x,1/2-y,1/2+z
1/2+x,1/2-y,1/2+z
1/2-x,1/2+y,z
loop_
_atom_site_type_symbol
_atom_site_label
_atom_site_fract_x
_atom_site_fract_y
_atom_site_fract_z
Si Si1 0.320415 0.045362 0.331250
Si Si2 0.823675 0.837511 0.336831
Si Si3 0.183074 0.913881 0.637502
Si Si4 0.180464 0.948219 0.438569
Si Si5 0.677411 0.825636 0.140860
Si Si6 0.824782 0.873583 0.974008
Si Si7 0.317218 0.706843 0.173710
Si Si8 0.176824 0.720506 0.375149
O O1 0.500000 0.045013 0.319922
O O2 0.247313 0.063205 0.233576
O O3 0.271746 0.087006 0.410690
O O4 0.262220 0.989431 0.371236
O O5 0.800980 0.889279 0.397707
O O6 0.715840 0.835235 0.248066
O O7 0.804177 0.782955 0.392969
O O8 0.000000 0.837051 0.303719
O O9 0.234307 0.945483 0.545507
O O10 0.217813 0.850523 0.629409
O O11 0.000000 0.917705 0.640944
O O12 0.000000 0.960763 0.438872
O O13 0.500000 0.833327 0.121866
O O14 0.712341 0.762889 0.122182
O O15 0.771417 0.866714 0.079105
O O16 0.790096 0.815746 0.932142
O O17 0.000000 0.888368 0.966953
O O18 0.500000 0.707021 0.194329
O O19 0.220220 0.710645 0.267950
O O20 0.000000 0.706186 0.392309
#
# Coordination Sequence:
#
# PCOD9351116 Si02
#       8
#     8   8   8   8   8   8   8   8
#     4  12  26  44  65  91 125 164 209 268 320 365
#     4   9  20  39  62  90 127 166 206 249 305 371
#     4  10  21  40  67  94 122 161 207 253 307 376
#     4  10  23  43  68  94 122 166 212 254 307 375
#     4  10  21  36  59  92 131 169 208 256 311 366
#     4  12  24  39  60  88 123 167 214 257 309 375
#     4   9  18  34  59  89 125 164 203 248 305 370
#     4  10  19  33  58  90 125 161 201 253 306 362
#
# _framework density 20.054489
#
# number of rings (size 3 to 8) (size 9 to 14) (size 15 to 20)
#    0.000    1.750    1.250    3.000    1.750    3.000 
#    0.000    1.250    0.000    0.000    0.000    0.000 
#    0.000    0.000    0.000    0.000    0.000    0.000 
#
# Total GULP energy -178703.944984 kJ/mol
# GULP energy per Si atom -5584.498281 kJ/mol
# Density = 2.000884 g / cm^3
# Si number density = 20.054489 Si / 1000 Ang^3
#
#
#
# Elastic Constant Matrix: (Units=GPa)
#
#
# Indices 1 2 3 4 5 6 
#
# 1 36.0453 19.7325 8.4700 0.0000 0.0000 0.0000
# 2 19.7325 63.6832 9.8113 0.0000 0.0000 0.0000
# 3 8.4700 9.8113 34.8195 0.0000 0.0000 0.0000
# 4 0.0000 0.0000 0.0000 18.9522 0.0000 0.0000
# 5 0.0000 0.0000 0.0000 0.0000 21.7192 0.0000
# 6 0.0000 0.0000 0.0000 0.0000 0.0000 25.1161
#
#
#
# Elastic Compliance Matrix: (Units=1/GPa)
#
#
# Indices 1 2 3 4 5 6 
#
# 1 0.034428 -0.009803 -0.005613 0.000000 0.000000 0.000000
# 2 -0.009803 0.019207 -0.003027 0.000000 0.000000 0.000000
# 3 -0.005613 -0.003027 0.030938 0.000000 0.000000 0.000000
# 4 0.000000 0.000000 0.000000 0.052764 0.000000 0.000000
# 5 0.000000 0.000000 0.000000 0.000000 0.046042 0.000000
# 6 0.000000 0.000000 0.000000 0.000000 0.000000 0.039815
#
#
# Mechanical properties :
#
#
# Convention : Reuss Voigt Hill
#
# Bulk Modulus (GPa) = 20.97014 23.39730 22.18372
# Shear Modulus (GPa) = 18.11753 19.59311 18.85532
#
# Velocity S-wave (km/s) = 3.00895 3.12908 3.06960
# Velocity P-wave (km/s) = 4.74879 4.97464 4.86302
#
# Compressibility (1/GPa) = 0.04768685
#
# Stress axis : x y z
#
# Youngs Moduli (GPa) = 29.04589 52.06530 32.32291
#
# Poissons Ratio (x) = 0.51040 0.18141
# Poissons Ratio (y) = 0.28474 0.09785
# Poissons Ratio (z) = 0.16302 0.15762
#
# Static dielectric constant tensor:
#      x y z
#    x 1.677780 0.000000 0.000000 
#    y 0.000000 1.724420 0.000000 
#    z 0.000000 0.000000 1.721750 
# 
# From -- ./inp_files/11010.got.cif
#   From: 2010.05.17/outbox.cif.g08.bks.cpg/sg36_6_cif.got.tgz:11010.got - 2010.06.03 17:41:39.
