data_PCOD9351992
_publ_section_title
;
Structure prediction by ZEFSAII (Michael W. Deem and Ramdas Pophale) SiO2 
 PCOD9351992
Probable space group: C M C 21
;
_chemical_formula_sum "Si O2"
_cell_formula_units_Z 48
_cell_length_a 25.408952
_cell_length_b 11.385953
_cell_length_c 9.035558
_cell_angle_alpha 90.000000
_cell_angle_beta 90.000000
_cell_angle_gamma 90.000000
_cell_volume 2614.033311
_symmetry_space_group_name_H-M "C M C 21"
_symmetry_group_IT_number 36
_symmetry_cell_setting 'orthorhombic'
loop_
_space_group_symop_operation_xyz
x,y,z
-x,-y,1/2+z
x,-y,1/2+z
-x,y,z
1/2+x,1/2+y,z
1/2-x,1/2-y,1/2+z
1/2+x,1/2-y,1/2+z
1/2-x,1/2+y,z
loop_
_atom_site_type_symbol
_atom_site_label
_atom_site_fract_x
_atom_site_fract_y
_atom_site_fract_z
Si Si1 0.561715 0.669471 0.420520
Si Si2 0.061375 0.956782 0.607268
Si Si3 0.316714 0.911172 0.810025
Si Si4 0.148968 0.663206 0.804412
Si Si5 0.238807 0.588381 0.998120
Si Si6 0.850005 0.201930 0.993832
O O1 0.500000 0.704613 0.423792
O O2 0.574137 0.590827 0.564303
O O3 0.568531 0.583684 0.276937
O O4 0.601725 0.775905 0.393542
O O5 0.097486 0.873214 0.507852
O O6 0.000000 0.940815 0.570728
O O7 0.283228 0.897136 0.662199
O O8 0.356014 0.022118 0.788902
O O9 0.345316 0.794426 0.861623
O O10 0.277316 0.959575 0.937925
O O11 0.152992 0.723329 0.645660
O O12 0.204177 0.673378 0.892336
O O13 0.299678 0.616887 0.987110
#
# Coordination Sequence:
#
# PCOD9351992 Si02
#       6
#     8   8   8   8   8   8
#     4   9  18  36  57  78 108 141 179 221 268 317
#     4   9  20  35  54  81 109 138 178 227 263 314
#     4  10  20  38  51  77 113 135 179 221 258 319
#     4   9  19  37  52  77 110 139 175 220 264 312
#     4  10  21  33  55  77 110 139 173 220 261 321
#     4  11  20  35  56  78 105 146 178 213 274 317
#
# _framework density 18.362428999999999
#
# number of rings (size 3 to 8) (size 9 to 14) (size 15 to 20)
#    1.000    1.333    1.667    1.000    0.000    5.333 
#    0.000    0.833    0.000    1.000    0.000    0.000 
#    0.000    0.000    0.000    0.000    0.000    0.000 
#
# Total GULP energy -133702.570861 kJ/mol
# GULP energy per Si atom -5570.940453 kJ/mol
# Density = 1.832064 g / cm^3
# Si number density = 18.362429 Si / 1000 Ang^3
#
#
#
# Elastic Constant Matrix: (Units=GPa)
#
#
# Indices 1 2 3 4 5 6 
#
# 1 43.1753 20.2100 2.7566 0.0000 0.0000 0.0000
# 2 20.2100 44.8015 -5.8141 0.0000 0.0000 0.0000
# 3 2.7566 -5.8141 33.3810 0.0000 0.0000 0.0000
# 4 0.0000 0.0000 0.0000 30.6259 0.0000 0.0000
# 5 0.0000 0.0000 0.0000 0.0000 4.0592 0.0000
# 6 0.0000 0.0000 0.0000 0.0000 0.0000 -2.7724
#
#
#
# Elastic Compliance Matrix: (Units=1/GPa)
#
#
# Indices 1 2 3 4 5 6 
#
# 1 0.030146 -0.014244 -0.004970 0.000000 0.000000 0.000000
# 2 -0.014244 0.029567 0.006326 0.000000 0.000000 0.000000
# 3 -0.004970 0.006326 0.031469 0.000000 0.000000 0.000000
# 4 0.000000 0.000000 0.000000 0.032652 0.000000 0.000000
# 5 0.000000 0.000000 0.000000 0.000000 0.246351 0.000000
# 6 0.000000 0.000000 0.000000 0.000000 0.000000 -0.360694
#
#
# Mechanical properties :
#
#
# Convention : Reuss Voigt Hill
#
# Bulk Modulus (GPa) = 15.28909 17.29587 16.29248
# Shear Modulus (GPa) = 87.61079 13.32958 50.47018
#
# Velocity S-wave (km/s) = 6.91488 2.69721 5.24836
# Velocity P-wave (km/s) = 8.49108 4.37487 6.75418
#
# Compressibility (1/GPa) = 0.06540612
#
# Stress axis : x y z
#
# Youngs Moduli (GPa) = 33.17170 33.82140 31.77688
#
# Poissons Ratio (x) = 0.48175 0.15794
# Poissons Ratio (y) = 0.47250 -0.20102
# Poissons Ratio (z) = 0.16488 -0.21396
#
# Static dielectric constant tensor:
#      x y z
#    x 1.606410 0.000000 0.000000 
#    y 0.000000 1.646530 0.000000 
#    z 0.000000 0.000000 1.652950 
# 
# From -- ./inp_files/8850.got.cif
#   From: 2010.05.17/outbox.cif.g08.bks.cpg/sg36_5_cif.got.tgz:8850.got - 2010.06.03 17:41:39.
