data_PCOD9351903
_publ_section_title
;
Structure prediction by ZEFSAII (Michael W. Deem and Ramdas Pophale) SiO2 
 PCOD9351903
Probable space group: C M C 21
;
_chemical_formula_sum "Si O2"
_cell_formula_units_Z 64
_cell_length_a 7.784650
_cell_length_b 32.505373
_cell_length_c 9.695132
_cell_angle_alpha 90.000000
_cell_angle_beta 90.000000
_cell_angle_gamma 90.000000
_cell_volume 2453.284821
_symmetry_space_group_name_H-M "C M C 21"
_symmetry_group_IT_number 36
_symmetry_cell_setting 'orthorhombic'
loop_
_space_group_symop_operation_xyz
x,y,z
-x,-y,1/2+z
x,-y,1/2+z
-x,y,z
1/2+x,1/2+y,z
1/2-x,1/2-y,1/2+z
1/2+x,1/2-y,1/2+z
1/2-x,1/2+y,z
loop_
_atom_site_type_symbol
_atom_site_label
_atom_site_fract_x
_atom_site_fract_y
_atom_site_fract_z
Si Si1 0.710220 0.324326 0.224590
Si Si2 0.790409 0.873964 0.976800
Si Si3 0.197162 0.047912 0.651190
Si Si4 0.298185 0.199814 0.125579
Si Si5 0.697058 0.619903 0.966685
Si Si6 0.303464 0.743321 0.387671
Si Si7 0.209501 0.922290 0.721931
Si Si8 0.306219 0.999252 0.404258
O O1 0.500000 0.320368 0.232293
O O2 0.763284 0.362854 0.322173
O O3 0.790246 0.284748 0.294919
O O4 0.759378 0.334737 0.067783
O O5 0.735896 0.884616 0.822462
O O6 0.000000 0.874130 0.975036
O O7 0.731029 0.913621 0.066123
O O8 0.201303 0.009900 0.541957
O O9 0.000000 0.057147 0.677572
O O10 0.274475 0.038188 0.799873
O O11 0.500000 0.194168 0.094875
O O12 0.200895 0.160696 0.064425
O O13 0.237901 0.239315 0.033899
O O14 0.278144 0.209823 0.286418
O O15 0.500000 0.607985 0.943074
O O16 0.776148 0.585774 0.067811
O O17 0.500000 0.730440 0.408437
O O18 0.271602 0.962597 0.800031
O O19 0.000000 0.923665 0.719144
O O20 0.500000 0.999585 0.452221
#
# Coordination Sequence:
#
# PCOD9351903 Si02
#       8
#     8   8   8   8   8   8   8   8
#     4   9  17  32  52  75 102 132 168 213 261 306
#     4   8  16  31  52  75  99 130 172 215 251 299
#     4  10  20  37  58  79 106 145 186 221 264 325
#     4  10  21  36  54  76 104 138 174 215 263 312
#     4   9  18  32  52  76 103 135 173 216 259 309
#     4  10  21  36  53  76 105 137 174 214 258 312
#     4   9  18  34  53  74 102 139 178 213 255 313
#     4  11  22  36  54  81 113 142 177 227 277 316
#
# _framework density 26.087472999999999
#
# number of rings (size 3 to 8) (size 9 to 14) (size 15 to 20)
#    0.000    2.500    0.000    3.000    0.000    4.000 
#    0.000    8.125    0.000    0.000    0.000    0.000 
#    0.000    0.000    0.000    0.000    0.000    0.000 
#
# Total GULP energy -178892.251086 kJ/mol
# GULP energy per Si atom -5590.382846 kJ/mol
# Density = 2.602810 g / cm^3
# Si number density = 26.087473 Si / 1000 Ang^3
#
#
#
# Elastic Constant Matrix: (Units=GPa)
#
#
# Indices 1 2 3 4 5 6 
#
# 1 53.2291 -3.4095 5.9014 0.0000 0.0000 0.0000
# 2 -3.4095 59.2219 16.8706 0.0000 0.0000 0.0000
# 3 5.9014 16.8706 173.5332 0.0000 0.0000 0.0000
# 4 0.0000 0.0000 0.0000 60.3149 0.0000 0.0000
# 5 0.0000 0.0000 0.0000 0.0000 5.6344 0.0000
# 6 0.0000 0.0000 0.0000 0.0000 0.0000 -18.2748
#
#
#
# Elastic Compliance Matrix: (Units=1/GPa)
#
#
# Indices 1 2 3 4 5 6 
#
# 1 0.018956 0.001311 -0.000772 0.000000 0.000000 0.000000
# 2 0.001311 0.017457 -0.001742 0.000000 0.000000 0.000000
# 3 -0.000772 -0.001742 0.005958 0.000000 0.000000 0.000000
# 4 0.000000 0.000000 0.000000 0.016580 0.000000 0.000000
# 5 0.000000 0.000000 0.000000 0.000000 0.177481 0.000000
# 6 0.000000 0.000000 0.000000 0.000000 0.000000 -0.054720
#
#
# Mechanical properties :
#
#
# Convention : Reuss Voigt Hill
#
# Bulk Modulus (GPa) = 25.02086 36.07878 30.54982
# Shear Modulus (GPa) = 25.32417 27.30968 26.31693
#
# Velocity S-wave (km/s) = 3.11905 3.23902 3.17960
# Velocity P-wave (km/s) = 4.75219 5.27714 5.02153
#
# Compressibility (1/GPa) = 0.03996665
#
# Stress axis : x y z
#
# Youngs Moduli (GPa) = 52.75285 57.28253 167.83663
#
# Poissons Ratio (x) = -0.07512 0.12959
# Poissons Ratio (y) = -0.06918 0.29233
# Poissons Ratio (z) = 0.04073 0.09977
#
# Static dielectric constant tensor:
#      x y z
#    x 1.868700 0.000000 0.000000 
#    y 0.000000 2.172210 0.000000 
#    z 0.000000 0.000000 2.024300 
# 
# From -- ./inp_files/7259.got.cif
#   From: 2010.05.17/outbox.cif.g08.bks.cpg/sg36_4_cif.got.tgz:7259.got - 2010.06.03 17:41:39.
