data_PCOD9351243
_publ_section_title
;
Structure prediction by ZEFSAII (Michael W. Deem and Ramdas Pophale) SiO2 
 PCOD9351243
Probable space group: C M C 21
;
_chemical_formula_sum "Si O2"
_cell_formula_units_Z 32
_cell_length_a 15.842316
_cell_length_b 12.647144
_cell_length_c 9.180131
_cell_angle_alpha 90.000000
_cell_angle_beta 90.000000
_cell_angle_gamma 90.000000
_cell_volume 1839.331522
_symmetry_space_group_name_H-M "C M C 21"
_symmetry_group_IT_number 36
_symmetry_cell_setting 'orthorhombic'
loop_
_space_group_symop_operation_xyz
x,y,z
-x,-y,1/2+z
x,-y,1/2+z
-x,y,z
1/2+x,1/2+y,z
1/2-x,1/2-y,1/2+z
1/2+x,1/2-y,1/2+z
1/2-x,1/2+y,z
loop_
_atom_site_type_symbol
_atom_site_label
_atom_site_fract_x
_atom_site_fract_y
_atom_site_fract_z
Si Si1 0.096213 0.763584 0.927740
Si Si2 0.167518 0.429487 0.249888
Si Si3 0.741473 0.102304 0.438550
Si Si4 0.905643 0.348065 0.739773
O O1 0.118351 0.667502 0.819554
O O2 0.166567 0.852771 0.908326
O O3 0.000000 0.798809 0.906130
O O4 0.103893 0.716963 0.091587
O O5 0.226520 0.485635 0.371439
O O6 0.105909 0.526659 0.205354
O O7 0.219765 0.397712 0.108242
O O8 0.670030 0.171229 0.353460
O O9 0.000000 0.330531 0.798857
#
# Coordination Sequence:
#
# PCOD9351243 Si02
#       4
#     8   8   8   8
#     4  11  21  36  57  84 111 143 183 226 269 323
#     4  10  19  35  57  78 114 140 180 224 276 314
#     4  10  21  35  56  84 112 144 180 225 274 322
#     4   9  18  34  55  82 109 137 178 227 272 313
#
# _framework density 17.397625999999999
#
# number of rings (size 3 to 8) (size 9 to 14) (size 15 to 20)
#    1.500    0.500    2.500    2.250    0.000    2.000 
#    0.000    1.250    0.000    1.500    0.000    0.000 
#    0.000    0.000    0.000    0.000    0.000    0.000 
#
# Total GULP energy -89073.422004 kJ/mol
# GULP energy per Si atom -5567.088875 kJ/mol
# Density = 1.735803 g / cm^3
# Si number density = 17.397626 Si / 1000 Ang^3
#
#
#
# Elastic Constant Matrix: (Units=GPa)
#
#
# Indices 1 2 3 4 5 6 
#
# 1 152.8563 31.5875 40.8450 0.0000 0.0000 0.0000
# 2 31.5875 10.9003 2.5609 0.0000 0.0000 0.0000
# 3 40.8450 2.5609 66.7129 0.0000 0.0000 0.0000
# 4 0.0000 0.0000 0.0000 12.8984 0.0000 0.0000
# 5 0.0000 0.0000 0.0000 0.0000 15.5141 0.0000
# 6 0.0000 0.0000 0.0000 0.0000 0.0000 -21.5351
#
#
#
# Elastic Compliance Matrix: (Units=1/GPa)
#
#
# Indices 1 2 3 4 5 6 
#
# 1 0.022511 -0.062559 -0.011381 0.000000 0.000000 0.000000
# 2 -0.062559 0.266432 0.028074 0.000000 0.000000 0.000000
# 3 -0.011381 0.028074 0.020880 0.000000 0.000000 0.000000
# 4 0.000000 0.000000 0.000000 0.077529 0.000000 0.000000
# 5 0.000000 0.000000 0.000000 0.000000 0.064457 0.000000
# 6 0.000000 0.000000 0.000000 0.000000 0.000000 -0.046436
#
#
# Mechanical properties :
#
#
# Convention : Reuss Voigt Hill
#
# Bulk Modulus (GPa) = 4.58525 42.27292 23.42908
# Shear Modulus (GPa) = 8.77499 11.74057 10.25778
#
# Velocity S-wave (km/s) = 2.24827 2.60058 2.43082
# Velocity P-wave (km/s) = 3.06283 5.77652 4.62326
#
# Compressibility (1/GPa) = 0.21809075
#
# Stress axis : x y z
#
# Youngs Moduli (GPa) = 44.42279 3.75331 47.89309
#
# Poissons Ratio (x) = 0.23480 0.54506
# Poissons Ratio (y) = 2.77906 -1.34457
# Poissons Ratio (z) = 0.50557 -0.10537
#
# Static dielectric constant tensor:
#      x y z
#    x 1.585840 0.000000 0.000000 
#    y 0.000000 1.590080 0.000000 
#    z 0.000000 0.000000 1.585370 
# 
# From -- ./inp_files/2922.got.cif
#   From: 2010.05.17/outbox.cif.g08.bks.cpg/sg36_2_cif.got.tgz:2922.got - 2010.06.03 17:41:39.
