data_PCOD9351453
_publ_section_title
;
Structure prediction by ZEFSAII (Michael W. Deem and Ramdas Pophale) SiO2 
 PCOD9351453
Probable space group: C M C 21
;
_chemical_formula_sum "Si O2"
_cell_formula_units_Z 64
_cell_length_a 23.380797
_cell_length_b 16.786199
_cell_length_c 7.879606
_cell_angle_alpha 90.000000
_cell_angle_beta 90.000000
_cell_angle_gamma 90.000000
_cell_volume 3092.546089
_symmetry_space_group_name_H-M "C M C 21"
_symmetry_group_IT_number 36
_symmetry_cell_setting 'orthorhombic'
loop_
_space_group_symop_operation_xyz
x,y,z
-x,-y,1/2+z
x,-y,1/2+z
-x,y,z
1/2+x,1/2+y,z
1/2-x,1/2-y,1/2+z
1/2+x,1/2-y,1/2+z
1/2-x,1/2+y,z
loop_
_atom_site_type_symbol
_atom_site_label
_atom_site_fract_x
_atom_site_fract_y
_atom_site_fract_z
Si Si1 0.682377 0.041061 0.965860
Si Si2 0.664743 0.212447 0.066702
Si Si3 0.563389 0.596619 0.384528
Si Si4 0.721730 0.247622 0.423025
Si Si5 0.150906 0.383574 0.108587
Si Si6 0.067783 0.268585 0.305067
Si Si7 0.307321 0.581686 0.017284
Si Si8 0.619189 0.534346 0.710518
O O1 0.673485 0.077207 0.780895
O O2 0.750301 0.029752 0.984279
O O3 0.668909 0.116361 0.086851
O O4 0.644526 0.962821 0.994150
O O5 0.688535 0.248955 0.242705
O O6 0.709282 0.246246 0.923920
O O7 0.602060 0.224299 0.984854
O O8 0.500000 0.609250 0.456406
O O9 0.574480 0.674119 0.268957
O O10 0.606129 0.584083 0.542514
O O11 0.565458 0.514488 0.280602
O O12 0.698150 0.171173 0.519994
O O13 0.708524 0.326553 0.533416
O O14 0.098681 0.326655 0.168802
O O15 0.000000 0.286570 0.316992
O O16 0.350788 0.580897 0.859969
O O17 0.338329 0.538505 0.169197
#
# Coordination Sequence:
#
# PCOD9351453 Si02
#       8
#     8   8   8   8   8   8   8   8
#     4  10  21  36  56  84 115 148 186 243 307 369
#     4  10  21  37  59  88 122 156 199 249 311 375
#     4  10  20  35  53  76 109 150 194 237 279 332
#     4  11  21  36  60  90 121 156 196 247 309 383
#     4  11  22  39  61  87 118 154 198 248 313 376
#     4  10  22  40  60  83 116 159 207 258 307 363
#     4  10  20  33  51  81 113 144 181 227 288 353
#     4  10  20  32  52  79 112 149 187 229 280 347
#
# _framework density 20.694921999999998
#
# number of rings (size 3 to 8) (size 9 to 14) (size 15 to 20)
#    0.000    1.750    0.000    5.625    0.000    4.000 
#    0.000    3.125    0.000    4.500    0.000    0.000 
#    0.000    0.000    0.000    0.000    0.000    0.000 
#
# Total GULP energy -178332.496323 kJ/mol
# GULP energy per Si atom -5572.890510 kJ/mol
# Density = 2.064782 g / cm^3
# Si number density = 20.694922 Si / 1000 Ang^3
#
#
#
# Elastic Constant Matrix: (Units=GPa)
#
#
# Indices 1 2 3 4 5 6 
#
# 1 97.9640 31.2159 2.9919 0.0000 0.0000 0.0000
# 2 31.2159 107.3892 18.9050 0.0000 0.0000 0.0000
# 3 2.9919 18.9050 45.9437 0.0000 0.0000 0.0000
# 4 0.0000 0.0000 0.0000 33.1068 0.0000 0.0000
# 5 0.0000 0.0000 0.0000 0.0000 17.4188 0.0000
# 6 0.0000 0.0000 0.0000 0.0000 0.0000 18.4942
#
#
#
# Elastic Compliance Matrix: (Units=1/GPa)
#
#
# Indices 1 2 3 4 5 6 
#
# 1 0.011268 -0.003392 0.000662 0.000000 0.000000 0.000000
# 2 -0.003392 0.011060 -0.004330 0.000000 0.000000 0.000000
# 3 0.000662 -0.004330 0.023504 0.000000 0.000000 0.000000
# 4 0.000000 0.000000 0.000000 0.030205 0.000000 0.000000
# 5 0.000000 0.000000 0.000000 0.000000 0.057409 0.000000
# 6 0.000000 0.000000 0.000000 0.000000 0.000000 0.054071
#
#
# Mechanical properties :
#
#
# Convention : Reuss Voigt Hill
#
# Bulk Modulus (GPa) = 31.53319 39.72470 35.62895
# Shear Modulus (GPa) = 23.56155 27.01623 25.28889
#
# Velocity S-wave (km/s) = 3.37785 3.61702 3.49948
# Velocity P-wave (km/s) = 5.52118 6.05647 5.79501
#
# Compressibility (1/GPa) = 0.03171261
#
# Stress axis : x y z
#
# Youngs Moduli (GPa) = 88.74311 90.41410 42.54510
#
# Poissons Ratio (x) = 0.30669 -0.02816
# Poissons Ratio (y) = 0.30102 0.18423
# Poissons Ratio (z) = -0.05874 0.39151
#
# Static dielectric constant tensor:
#      x y z
#    x 1.779060 0.000000 0.000000 
#    y 0.000000 1.794300 0.000000 
#    z 0.000000 0.000000 1.779580 
# 
# From -- ./inp_files/5652.got.cif
#   From: 2010.05.17/outbox.cif.g08.bks.cpg/sg36_3_cif.got.tgz:5652.got - 2010.06.03 17:41:39.
