data_PCOD9351593
_publ_section_title
;
Structure prediction by ZEFSAII (Michael W. Deem and Ramdas Pophale) SiO2 
 PCOD9351593
Probable space group: C M C 21
;
_chemical_formula_sum "Si O2"
_cell_formula_units_Z 64
_cell_length_a 26.972789
_cell_length_b 20.507810
_cell_length_c 5.746894
_cell_angle_alpha 90.000000
_cell_angle_beta 90.000000
_cell_angle_gamma 90.000000
_cell_volume 3178.910691
_symmetry_space_group_name_H-M "C M C 21"
_symmetry_group_IT_number 36
_symmetry_cell_setting 'orthorhombic'
loop_
_space_group_symop_operation_xyz
x,y,z
-x,-y,1/2+z
x,-y,1/2+z
-x,y,z
1/2+x,1/2+y,z
1/2-x,1/2-y,1/2+z
1/2+x,1/2-y,1/2+z
1/2-x,1/2+y,z
loop_
_atom_site_type_symbol
_atom_site_label
_atom_site_fract_x
_atom_site_fract_y
_atom_site_fract_z
Si Si1 0.805359 0.168406 0.117970
Si Si2 0.557274 0.840618 0.638530
Si Si3 0.313202 0.970310 0.179571
Si Si4 0.701348 0.516117 0.157962
Si Si5 0.866701 0.647811 0.531588
Si Si6 0.122247 0.246647 0.381637
Si Si7 0.203582 0.731677 0.240696
Si Si8 0.558124 0.025968 0.895576
O O1 0.789490 0.093654 0.134621
O O2 0.855549 0.180406 0.268736
O O3 0.760449 0.214420 0.206182
O O4 0.809461 0.198307 0.857243
O O5 0.500000 0.835820 0.708981
O O6 0.579005 0.770041 0.558359
O O7 0.559953 0.895950 0.436715
O O8 0.592189 0.869670 0.841139
O O9 0.341869 0.902834 0.206136
O O10 0.326457 0.008795 0.415058
O O11 0.253097 0.975317 0.173196
O O12 0.676783 0.504095 0.411355
O O13 0.889336 0.709768 0.659852
O O14 0.818568 0.675443 0.400854
O O15 0.171020 0.273424 0.510744
O O16 0.500000 0.006344 0.887204
O O17 0.577395 0.994698 0.139679
#
# Coordination Sequence:
#
# PCOD9351593 Si02
#       8
#     8   8   8   8   8   8   8   8
#     4  11  21  35  60  84 123 160 211 252 312 386
#     4  10  23  41  61  83 116 157 211 272 332 384
#     4  10  22  36  54  80 114 156 202 262 309 365
#     4  10  23  36  57  86 121 167 205 250 306 371
#     4  10  23  37  56  81 115 150 209 258 314 373
#     4  10  23  38  57  87 114 158 204 260 312 375
#     4  10  20  34  56  83 110 157 199 253 303 363
#     4   9  19  35  56  80 107 149 202 257 317 375
#
# _framework density 20.132681000000002
#
# number of rings (size 3 to 8) (size 9 to 14) (size 15 to 20)
#    0.000    2.000    1.250    1.500   10.500    1.500 
#    0.000    0.000    0.000    0.000    0.000    0.000 
#    0.000    1.000    0.000    0.000    0.000    0.000 
#
# Total GULP energy -178146.149966 kJ/mol
# GULP energy per Si atom -5567.067186 kJ/mol
# Density = 2.008686 g / cm^3
# Si number density = 20.132681 Si / 1000 Ang^3
#
#
#
# Elastic Constant Matrix: (Units=GPa)
#
#
# Indices 1 2 3 4 5 6 
#
# 1 50.8306 13.1116 11.4144 0.0000 0.0000 0.0000
# 2 13.1116 46.9968 8.0026 0.0000 0.0000 0.0000
# 3 11.4144 8.0026 97.2440 0.0000 0.0000 0.0000
# 4 0.0000 0.0000 0.0000 26.3011 0.0000 0.0000
# 5 0.0000 0.0000 0.0000 0.0000 22.3886 0.0000
# 6 0.0000 0.0000 0.0000 0.0000 0.0000 20.2829
#
#
#
# Elastic Compliance Matrix: (Units=1/GPa)
#
#
# Indices 1 2 3 4 5 6 
#
# 1 0.021601 -0.005674 -0.002069 0.000000 0.000000 0.000000
# 2 -0.005674 0.023071 -0.001233 0.000000 0.000000 0.000000
# 3 -0.002069 -0.001233 0.010628 0.000000 0.000000 0.000000
# 4 0.000000 0.000000 0.000000 0.038021 0.000000 0.000000
# 5 0.000000 0.000000 0.000000 0.000000 0.044666 0.000000
# 6 0.000000 0.000000 0.000000 0.000000 0.000000 0.049303
#
#
# Mechanical properties :
#
#
# Convention : Reuss Voigt Hill
#
# Bulk Modulus (GPa) = 26.77441 28.90318 27.83880
# Shear Modulus (GPa) = 22.96844 24.63071 23.79957
#
# Velocity S-wave (km/s) = 3.38132 3.50154 3.44195
# Velocity P-wave (km/s) = 5.34530 5.54393 5.44552
#
# Compressibility (1/GPa) = 0.03734909
#
# Stress axis : x y z
#
# Youngs Moduli (GPa) = 46.29330 43.34447 94.09415
#
# Poissons Ratio (x) = 0.24595 0.19464
# Poissons Ratio (y) = 0.26268 0.11598
# Poissons Ratio (z) = 0.09576 0.05342
#
# Static dielectric constant tensor:
#      x y z
#    x 1.724970 0.000000 0.000000 
#    y 0.000000 1.765260 0.000000 
#    z 0.000000 0.000000 1.843150 
# 
# From -- ./inp_files/1804.got.cif
#   From: 2010.05.17/outbox.cif.g08.bks.cpg/sg36_1_cif.got.tgz:1804.got - 2010.06.03 17:41:39.
