data_PCOD9351069
_publ_section_title
;
Structure prediction by ZEFSAII (Michael W. Deem and Ramdas Pophale) SiO2 
 PCOD9351069
Probable space group: C M C 21
;
_chemical_formula_sum "Si O2"
_cell_formula_units_Z 40
_cell_length_a 21.365993
_cell_length_b 20.521745
_cell_length_c 5.076183
_cell_angle_alpha 90.000000
_cell_angle_beta 90.000000
_cell_angle_gamma 90.000000
_cell_volume 2225.741067
_symmetry_space_group_name_H-M "C M C 21"
_symmetry_group_IT_number 36
_symmetry_cell_setting 'orthorhombic'
loop_
_space_group_symop_operation_xyz
x,y,z
-x,-y,1/2+z
x,-y,1/2+z
-x,y,z
1/2+x,1/2+y,z
1/2-x,1/2-y,1/2+z
1/2+x,1/2-y,1/2+z
1/2-x,1/2+y,z
loop_
_atom_site_type_symbol
_atom_site_label
_atom_site_fract_x
_atom_site_fract_y
_atom_site_fract_z
Si Si1 0.303910 0.464050 0.029750
Si Si2 0.428719 0.602302 0.413821
Si Si3 0.070508 0.192721 0.926809
Si Si4 0.266674 0.162864 0.699491
Si Si5 0.172454 0.713950 0.208549
O O1 0.284839 0.521526 0.229619
O O2 0.275536 0.401145 0.174600
O O3 0.378435 0.452692 0.986662
O O4 0.500000 0.580437 0.346789
O O5 0.432176 0.645198 0.676922
O O6 0.404781 0.649982 0.176150
O O7 0.108987 0.254322 0.819727
O O8 0.000000 0.211913 0.003874
O O9 0.218552 0.223373 0.705141
O O10 0.303748 0.165167 0.428711
O O11 0.315998 0.177621 0.932550
#
# Coordination Sequence:
#
# PCOD9351069 Si02
#       5
#     8   8   8   8   8
#     4  12  24  36  53  72 108 147 190 231 257 312
#     4  10  21  35  51  73 106 144 188 226 258 307
#     4  10  19  33  55  80 107 136 172 221 277 325
#     4  10  21  33  51  78 101 135 181 216 278 317
#     4  10  19  33  56  75 104 132 169 228 270 343
#
# _framework density 17.971543
#
# number of rings (size 3 to 8) (size 9 to 14) (size 15 to 20)
#    0.000    1.600    2.000    3.600    5.600    0.800 
#    0.000    0.000    0.000    0.000    0.000    0.000 
#    0.000   16.000    0.000    0.000    0.000    0.000 
#
# Total GULP energy -111336.899116 kJ/mol
# GULP energy per Si atom -5566.844956 kJ/mol
# Density = 1.793064 g / cm^3
# Si number density = 17.971543 Si / 1000 Ang^3
#
#
#
# Elastic Constant Matrix: (Units=GPa)
#
#
# Indices 1 2 3 4 5 6 
#
# 1 20.5664 7.0848 8.1520 0.0000 0.0000 0.0000
# 2 7.0848 12.5990 60.5975 0.0000 0.0000 0.0000
# 3 8.1520 60.5975 73.7801 0.0000 0.0000 0.0000
# 4 0.0000 0.0000 0.0000 29.2430 0.0000 0.0000
# 5 0.0000 0.0000 0.0000 0.0000 21.8797 0.0000
# 6 0.0000 0.0000 0.0000 0.0000 0.0000 -1.2736
#
#
#
# Elastic Compliance Matrix: (Units=1/GPa)
#
#
# Indices 1 2 3 4 5 6 
#
# 1 0.050840 0.000533 -0.006055 0.000000 0.000000 0.000000
# 2 0.000533 -0.026897 0.022032 0.000000 0.000000 0.000000
# 3 -0.006055 0.022032 -0.003873 0.000000 0.000000 0.000000
# 4 0.000000 0.000000 0.000000 0.034196 0.000000 0.000000
# 5 0.000000 0.000000 0.000000 0.000000 0.045705 0.000000
# 6 0.000000 0.000000 0.000000 0.000000 0.000000 -0.785194
#
#
# Mechanical properties :
#
#
# Convention : Reuss Voigt Hill
#
# Bulk Modulus (GPa) = 18.83593 28.73492 23.78542
# Shear Modulus (GPa) = -7.13727 12.04391 2.45332
#
# Velocity S-wave (km/s) = -1.99501 2.59156 1.16965
# Velocity P-wave (km/s) = 2.27969 4.99788 3.88431
#
# Compressibility (1/GPa) = 0.05309004
#
# Stress axis : x y z
#
# Youngs Moduli (GPa) = 19.66972 -37.17900 -258.20368
#
# Poissons Ratio (x) = 0.01980 -1.56334
# Poissons Ratio (y) = -0.01048 5.68882
# Poissons Ratio (z) = 0.11909 0.81914
#
# Static dielectric constant tensor:
#      x y z
#    x 1.683130 0.000000 0.000000 
#    y 0.000000 1.628990 0.000000 
#    z 0.000000 0.000000 1.641540 
# 
# From -- ./inp_files/1077.got.cif
#   From: 2010.05.17/outbox.cif.g08.bks.cpg/sg36_1_cif.got.tgz:1077.got - 2010.06.03 17:41:39.
