data_PCOD9351678
_publ_section_title
;
Structure prediction by ZEFSAII (Michael W. Deem and Ramdas Pophale) SiO2 
 PCOD9351678
Probable space group: C M C 21
;
_chemical_formula_sum "Si O2"
_cell_formula_units_Z 64
_cell_length_a 13.466368
_cell_length_b 15.605903
_cell_length_c 15.933565
_cell_angle_alpha 90.000000
_cell_angle_beta 90.000000
_cell_angle_gamma 90.000000
_cell_volume 3348.515688
_symmetry_space_group_name_H-M "C M C 21"
_symmetry_group_IT_number 36
_symmetry_cell_setting 'orthorhombic'
loop_
_space_group_symop_operation_xyz
x,y,z
-x,-y,1/2+z
x,-y,1/2+z
-x,y,z
1/2+x,1/2+y,z
1/2-x,1/2-y,1/2+z
1/2+x,1/2-y,1/2+z
1/2-x,1/2+y,z
loop_
_atom_site_type_symbol
_atom_site_label
_atom_site_fract_x
_atom_site_fract_y
_atom_site_fract_z
Si Si1 0.234422 0.352165 0.142770
Si Si2 0.762737 0.600747 0.827380
Si Si3 0.812636 0.940026 0.498371
Si Si4 0.613910 0.737217 0.050335
Si Si5 0.385945 0.371773 0.009166
Si Si6 0.616239 0.067806 0.286001
Si Si7 0.382851 0.020994 0.091486
Si Si8 0.259215 0.792366 0.886941
O O1 0.269520 0.387005 0.231450
O O2 0.164135 0.270002 0.136078
O O3 0.328035 0.328790 0.085955
O O4 0.163166 0.425533 0.102312
O O5 0.686426 0.569208 0.897888
O O6 0.844940 0.524581 0.821700
O O7 0.779778 0.699966 0.854970
O O8 0.870209 0.863323 0.541255
O O9 0.696515 0.936830 0.527689
O O10 0.862521 0.028557 0.522558
O O11 0.500000 0.761747 0.047806
O O12 0.669864 0.775330 0.968104
O O13 0.500000 0.351758 0.009020
O O14 0.333297 0.344062 0.923746
O O15 0.500000 0.078393 0.307226
O O16 0.624573 0.062201 0.184569
O O17 0.680495 0.146346 0.323345
O O18 0.500000 0.020555 0.067326
#
# Coordination Sequence:
#
# PCOD9351678 Si02
#       8
#     8   8   8   8   8   8   8   8
#     4   9  20  37  58  82 116 151 193 252 291 351
#     4  10  21  38  60  86 122 152 194 248 307 351
#     4  10  20  36  58  86 115 156 194 246 294 358
#     4  10  20  35  56  83 112 150 198 239 291 357
#     4  10  20  39  60  83 118 161 198 239 301 360
#     4  10  20  37  61  89 118 154 199 251 301 357
#     4   9  19  35  58  84 114 150 194 241 300 354
#     4  10  21  37  62  85 117 156 193 250 300 360
#
# _framework density 19.112946999999998
#
# number of rings (size 3 to 8) (size 9 to 14) (size 15 to 20)
#    0.000    2.250    1.250    1.125    1.750    1.500 
#    0.000    8.750    0.000    0.000    0.000    0.000 
#    0.000    0.000    0.000    0.000    0.000    0.000 
#
# Total GULP energy -178198.381340 kJ/mol
# GULP energy per Si atom -5568.699417 kJ/mol
# Density = 1.906944 g / cm^3
# Si number density = 19.112947 Si / 1000 Ang^3
#
#
#
# Elastic Constant Matrix: (Units=GPa)
#
#
# Indices 1 2 3 4 5 6 
#
# 1 93.7562 8.9225 9.5557 0.0000 0.0000 0.0000
# 2 8.9225 63.1751 -0.3551 0.0000 0.0000 0.0000
# 3 9.5557 -0.3551 35.8192 0.0000 0.0000 0.0000
# 4 0.0000 0.0000 0.0000 21.8062 0.0000 0.0000
# 5 0.0000 0.0000 0.0000 0.0000 17.0457 0.0000
# 6 0.0000 0.0000 0.0000 0.0000 0.0000 17.2348
#
#
#
# Elastic Compliance Matrix: (Units=1/GPa)
#
#
# Indices 1 2 3 4 5 6 
#
# 1 0.011121 -0.001587 -0.002983 0.000000 0.000000 0.000000
# 2 -0.001587 0.016056 0.000583 0.000000 0.000000 0.000000
# 3 -0.002983 0.000583 0.028719 0.000000 0.000000 0.000000
# 4 0.000000 0.000000 0.000000 0.045859 0.000000 0.000000
# 5 0.000000 0.000000 0.000000 0.000000 0.058666 0.000000
# 6 0.000000 0.000000 0.000000 0.000000 0.000000 0.058022
#
#
# Mechanical properties :
#
#
# Convention : Reuss Voigt Hill
#
# Bulk Modulus (GPa) = 20.86711 25.44408 23.15560
# Shear Modulus (GPa) = 20.62771 22.85915 21.74343
#
# Velocity S-wave (km/s) = 3.28876 3.46208 3.37653
# Velocity P-wave (km/s) = 5.03615 5.41505 5.22903
#
# Compressibility (1/GPa) = 0.04792230
#
# Stress axis : x y z
#
# Youngs Moduli (GPa) = 89.91987 62.28010 34.81960
#
# Poissons Ratio (x) = 0.09887 0.10385
# Poissons Ratio (y) = 0.14274 -0.02029
# Poissons Ratio (z) = 0.26819 -0.03629
#
# Static dielectric constant tensor:
#      x y z
#    x 1.650930 0.000000 0.000000 
#    y 0.000000 1.693130 0.000000 
#    z 0.000000 0.000000 1.688480 
# 
# From -- ./inp_files/14391.got.cif
#   From: 2010.05.17/outbox.cif.g08.bks.cpg/sg36_8_cif.got.tgz:14391.got - 2010.06.03 17:41:39.
