data_PCOD9351594
_publ_section_title
;
Structure prediction by ZEFSAII (Michael W. Deem and Ramdas Pophale) SiO2 
 PCOD9351594
Probable space group: C M C 21
;
_chemical_formula_sum "Si O2"
_cell_formula_units_Z 64
_cell_length_a 8.806367
_cell_length_b 20.635847
_cell_length_c 20.233980
_cell_angle_alpha 90.000000
_cell_angle_beta 90.000000
_cell_angle_gamma 90.000000
_cell_volume 3677.057287
_symmetry_space_group_name_H-M "C M C 21"
_symmetry_group_IT_number 36
_symmetry_cell_setting 'orthorhombic'
loop_
_space_group_symop_operation_xyz
x,y,z
-x,-y,1/2+z
x,-y,1/2+z
-x,y,z
1/2+x,1/2+y,z
1/2-x,1/2-y,1/2+z
1/2+x,1/2-y,1/2+z
1/2-x,1/2+y,z
loop_
_atom_site_type_symbol
_atom_site_label
_atom_site_fract_x
_atom_site_fract_y
_atom_site_fract_z
Si Si1 0.183192 0.078752 0.045290
Si Si2 0.817402 0.978397 0.291086
Si Si3 0.182754 0.193129 0.948113
Si Si4 0.182477 0.973364 0.936947
Si Si5 0.819361 0.340658 0.305659
Si Si6 0.317982 0.207266 0.271748
Si Si7 0.318799 0.835852 0.921091
Si Si8 0.681936 0.917490 0.690089
O O1 0.260488 0.073703 0.115932
O O2 0.000000 0.075655 0.052877
O O3 0.220142 0.146257 0.008474
O O4 0.231217 0.021766 0.995015
O O5 0.753622 0.906652 0.279040
O O6 0.000000 0.977262 0.289471
O O7 0.767811 0.000594 0.364901
O O8 0.755046 0.029438 0.238372
O O9 0.260777 0.168599 0.881013
O O10 0.222332 0.268627 0.957229
O O11 0.000000 0.189556 0.937050
O O12 0.239786 0.900503 0.945714
O O13 0.000000 0.973746 0.936353
O O14 0.763350 0.276312 0.267762
O O15 0.000000 0.344812 0.304491
O O16 0.500000 0.217658 0.270667
O O17 0.281070 0.176761 0.343815
O O18 0.276349 0.153985 0.217464
O O19 0.500000 0.844391 0.925483
O O20 0.500000 0.922997 0.693779
#
# Coordination Sequence:
#
# PCOD9351594 Si02
#       8
#     8   8   8   8   8   8   8   8
#     4  10  21  39  58  79 111 155 197 232 283 349
#     4  11  21  37  59  83 115 154 192 235 289 343
#     4   9  18  36  56  78 111 150 187 226 282 341
#     4  10  20  34  56  83 112 147 190 233 278 339
#     4  11  21  32  55  88 115 141 187 240 282 329
#     4   9  19  36  55  78 113 150 183 227 286 342
#     4   9  17  31  55  82 109 141 180 233 286 326
#     4  11  23  39  58  85 116 150 194 240 288 345
#
# _framework density 17.405221999999998
#
# number of rings (size 3 to 8) (size 9 to 14) (size 15 to 20)
#    0.000    2.000    2.500    2.625    0.000    4.500 
#    0.000    1.250    0.000    6.000    0.000    0.000 
#    0.000    0.000    0.000    0.000    0.000    0.000 
#
# Total GULP energy -178616.024976 kJ/mol
# GULP energy per Si atom -5581.750781 kJ/mol
# Density = 1.736561 g / cm^3
# Si number density = 17.405222 Si / 1000 Ang^3
#
#
#
# Elastic Constant Matrix: (Units=GPa)
#
#
# Indices 1 2 3 4 5 6 
#
# 1 45.9488 53.9700 44.1297 0.0000 0.0000 0.0000
# 2 53.9700 163.1115 78.3493 0.0000 0.0000 0.0000
# 3 44.1297 78.3493 109.5323 0.0000 0.0000 0.0000
# 4 0.0000 0.0000 0.0000 24.8191 0.0000 0.0000
# 5 0.0000 0.0000 0.0000 0.0000 22.9061 0.0000
# 6 0.0000 0.0000 0.0000 0.0000 0.0000 30.7782
#
#
#
# Elastic Compliance Matrix: (Units=1/GPa)
#
#
# Indices 1 2 3 4 5 6 
#
# 1 0.042587 -0.008911 -0.010784 0.000000 0.000000 0.000000
# 2 -0.008911 0.011205 -0.004424 0.000000 0.000000 0.000000
# 3 -0.010784 -0.004424 0.016639 0.000000 0.000000 0.000000
# 4 0.000000 0.000000 0.000000 0.040292 0.000000 0.000000
# 5 0.000000 0.000000 0.000000 0.000000 0.043657 0.000000
# 6 0.000000 0.000000 0.000000 0.000000 0.000000 0.032491
#
#
# Mechanical properties :
#
#
# Convention : Reuss Voigt Hill
#
# Bulk Modulus (GPa) = 45.06127 74.61009 59.83568
# Shear Modulus (GPa) = 20.61811 25.17691 22.89751
#
# Velocity S-wave (km/s) = 3.44553 3.80743 3.63099
# Velocity P-wave (km/s) = 6.46333 7.89229 7.21328
#
# Compressibility (1/GPa) = 0.02219201
#
# Stress axis : x y z
#
# Youngs Moduli (GPa) = 23.48141 89.24955 60.09894
#
# Poissons Ratio (x) = 0.79532 0.64809
# Poissons Ratio (y) = 0.20925 0.26590
# Poissons Ratio (z) = 0.25322 0.39488
#
# Static dielectric constant tensor:
#      x y z
#    x 1.583650 0.000000 0.000000 
#    y 0.000000 1.593190 0.000000 
#    z 0.000000 0.000000 1.566390 
# 
# From -- ./inp_files/13930.got.cif
#   From: 2010.05.17/outbox.cif.g08.bks.cpg/sg36_7_cif.got.tgz:13930.got - 2010.06.03 17:41:39.
