data_PCOD9351948
_publ_section_title
;
Structure prediction by ZEFSAII (Michael W. Deem and Ramdas Pophale) SiO2 
 PCOD9351948
Probable space group: C M C 21
;
_chemical_formula_sum "Si O2"
_cell_formula_units_Z 64
_cell_length_a 8.011143
_cell_length_b 14.600346
_cell_length_c 25.444075
_cell_angle_alpha 90.000000
_cell_angle_beta 90.000000
_cell_angle_gamma 90.000000
_cell_volume 2976.077928
_symmetry_space_group_name_H-M "C M C 21"
_symmetry_group_IT_number 36
_symmetry_cell_setting 'orthorhombic'
loop_
_space_group_symop_operation_xyz
x,y,z
-x,-y,1/2+z
x,-y,1/2+z
-x,y,z
1/2+x,1/2+y,z
1/2-x,1/2-y,1/2+z
1/2+x,1/2-y,1/2+z
1/2-x,1/2+y,z
loop_
_atom_site_type_symbol
_atom_site_label
_atom_site_fract_x
_atom_site_fract_y
_atom_site_fract_z
Si Si1 0.195389 0.842423 0.913680
Si Si2 0.698307 0.187716 0.668041
Si Si3 0.807536 0.502574 0.481105
Si Si4 0.192232 0.855292 0.279847
Si Si5 0.302895 0.636746 0.893377
Si Si6 0.298115 0.396086 0.685229
Si Si7 0.797728 0.852540 0.797327
Si Si8 0.198449 0.465108 0.095742
O O1 0.223727 0.733733 0.909877
O O2 0.242305 0.882689 0.856177
O O3 0.000000 0.860341 0.922166
O O4 0.294755 0.894654 0.958506
O O5 0.500000 0.194902 0.661403
O O6 0.727084 0.133997 0.722798
O O7 0.758984 0.291671 0.673598
O O8 0.768497 0.129488 0.619657
O O9 0.722267 0.437394 0.438492
O O10 0.733179 0.502573 0.539703
O O11 0.000000 0.473069 0.483307
O O12 0.261235 0.893145 0.335247
O O13 0.210266 0.745556 0.289433
O O14 0.000000 0.884015 0.274482
O O15 0.500000 0.652977 0.886324
O O16 0.500000 0.400839 0.681312
O O17 0.255607 0.413476 0.746680
O O18 0.223906 0.461924 0.641832
O O19 0.000000 0.837085 0.795652
O O20 0.000000 0.452248 0.087444
#
# Coordination Sequence:
#
# PCOD9351948 Si02
#       8
#     8   8   8   8   8   8   8   8
#     4  10  20  37  61  87 115 146 182 228 282 336
#     4   9  19  37  57  78 109 146 177 214 273 333
#     4  11  24  40  56  79 112 150 195 238 276 326
#     4   9  17  30  53  85 113 137 174 222 269 324
#     4  10  21  38  59  84 115 149 185 228 279 332
#     4   9  18  34  57  82 108 141 177 215 268 329
#     4   8  16  32  54  81 113 144 173 212 270 336
#     4  10  23  40  55  76 107 143 187 233 271 316
#
# _framework density 21.504812999999999
#
# number of rings (size 3 to 8) (size 9 to 14) (size 15 to 20)
#    0.000    2.500    0.000    2.250    0.000    7.500 
#    0.000    5.000    0.000    0.000    0.000    0.000 
#    0.000    0.000    0.000    0.000    0.000    0.000 
#
# Total GULP energy -178541.477344 kJ/mol
# GULP energy per Si atom -5579.421167 kJ/mol
# Density = 2.145587 g / cm^3
# Si number density = 21.504813 Si / 1000 Ang^3
#
#
#
# Elastic Constant Matrix: (Units=GPa)
#
#
# Indices 1 2 3 4 5 6 
#
# 1 15.3297 -6.0299 3.7826 0.0000 0.0000 0.0000
# 2 -6.0299 49.1987 14.0108 0.0000 0.0000 0.0000
# 3 3.7826 14.0108 106.8297 0.0000 0.0000 0.0000
# 4 0.0000 0.0000 0.0000 27.7475 0.0000 0.0000
# 5 0.0000 0.0000 0.0000 0.0000 20.3434 0.0000
# 6 0.0000 0.0000 0.0000 0.0000 0.0000 21.4964
#
#
#
# Elastic Compliance Matrix: (Units=1/GPa)
#
#
# Indices 1 2 3 4 5 6 
#
# 1 0.069947 0.009638 -0.003741 0.000000 0.000000 0.000000
# 2 0.009638 0.022442 -0.003285 0.000000 0.000000 0.000000
# 3 -0.003741 -0.003285 0.009924 0.000000 0.000000 0.000000
# 4 0.000000 0.000000 0.000000 0.036039 0.000000 0.000000
# 5 0.000000 0.000000 0.000000 0.000000 0.049156 0.000000
# 6 0.000000 0.000000 0.000000 0.000000 0.000000 0.046519
#
#
# Mechanical properties :
#
#
# Convention : Reuss Voigt Hill
#
# Bulk Modulus (GPa) = 9.29897 21.65390 15.47643
# Shear Modulus (GPa) = 18.89297 24.55709 21.72503
#
# Velocity S-wave (km/s) = 2.96724 3.38292 3.18188
# Velocity P-wave (km/s) = 4.00910 5.03488 4.55099
#
# Compressibility (1/GPa) = 0.10753882
#
# Stress axis : x y z
#
# Youngs Moduli (GPa) = 14.29656 44.55856 100.76659
#
# Poissons Ratio (x) = -0.42946 0.37694
# Poissons Ratio (y) = -0.13779 0.33098
# Poissons Ratio (z) = 0.05348 0.14636
#
# Static dielectric constant tensor:
#      x y z
#    x 1.768320 0.000000 0.000000 
#    y 0.000000 1.791530 0.000000 
#    z 0.000000 0.000000 1.809910 
# 
# From -- ./inp_files/16665.got.cif
#   From: 2010.05.17/outbox.cif.g08.bks.cpg/sg36_9_cif.got.tgz:16665.got - 2010.06.03 17:41:39.
