data_PCOD9351336
_publ_section_title
;
Structure prediction by ZEFSAII (Michael W. Deem and Ramdas Pophale) SiO2 
 PCOD9351336
Probable space group: C M C 21
;
_chemical_formula_sum "Si O2"
_cell_formula_units_Z 48
_cell_length_a 22.384095
_cell_length_b 20.940233
_cell_length_c 5.246677
_cell_angle_alpha 90.000000
_cell_angle_beta 90.000000
_cell_angle_gamma 90.000000
_cell_volume 2459.265281
_symmetry_space_group_name_H-M "C M C 21"
_symmetry_group_IT_number 36
_symmetry_cell_setting 'orthorhombic'
loop_
_space_group_symop_operation_xyz
x,y,z
-x,-y,1/2+z
x,-y,1/2+z
-x,y,z
1/2+x,1/2+y,z
1/2-x,1/2-y,1/2+z
1/2+x,1/2-y,1/2+z
1/2-x,1/2+y,z
loop_
_atom_site_type_symbol
_atom_site_label
_atom_site_fract_x
_atom_site_fract_y
_atom_site_fract_z
Si Si1 0.930675 0.837979 0.548180
Si Si2 0.428832 0.464734 0.250212
Si Si3 0.264984 0.844142 0.564276
Si Si4 0.831866 0.757409 0.313238
Si Si5 0.253589 0.456501 0.242482
Si Si6 0.337666 0.626190 0.449685
O O1 0.927267 0.889421 0.317787
O O2 0.890612 0.776774 0.473533
O O3 0.897603 0.873161 0.781729
O O4 0.000000 0.824910 0.600977
O O5 0.404921 0.503727 0.492095
O O6 0.500000 0.478105 0.233792
O O7 0.226070 0.784506 0.460720
O O8 0.319037 0.814081 0.723470
O O9 0.281324 0.892254 0.335094
O O10 0.216977 0.878949 0.747646
O O11 0.835629 0.803379 0.068753
O O12 0.243938 0.502834 0.485369
O O13 0.317833 0.422788 0.175739
#
# Coordination Sequence:
#
# PCOD9351336 Si02
#       6
#     8   8   8   8   8   8
#     4  10  23  37  53  84 120 160 213 267 318 367
#     4   9  19  35  52  68  97 147 202 248 285 331
#     4  10  19  36  60  85 117 154 203 258 313 395
#     4  10  20  35  58  86 111 156 208 254 318 379
#     4  11  22  37  57  87 120 153 197 254 318 372
#     4  10  21  36  57  80 112 160 198 259 304 378
#
# _framework density 19.518024
#
# number of rings (size 3 to 8) (size 9 to 14) (size 15 to 20)
#    0.000    2.000    3.333    0.000    2.333    2.000 
#    0.000    0.000    0.000    0.000    0.000    0.000 
#    0.000    1.333    0.000    0.333    0.000    0.333 
#
# Total GULP energy -133746.801272 kJ/mol
# GULP energy per Si atom -5572.783386 kJ/mol
# Density = 1.947360 g / cm^3
# Si number density = 19.518024 Si / 1000 Ang^3
#
#
#
# Elastic Constant Matrix: (Units=GPa)
#
#
# Indices 1 2 3 4 5 6 
#
# 1 71.6893 45.8572 34.9111 0.0000 0.0000 0.0000
# 2 45.8572 76.6701 40.0167 0.0000 0.0000 0.0000
# 3 34.9111 40.0167 128.9571 0.0000 0.0000 0.0000
# 4 0.0000 0.0000 0.0000 50.5659 0.0000 0.0000
# 5 0.0000 0.0000 0.0000 0.0000 21.5728 0.0000
# 6 0.0000 0.0000 0.0000 0.0000 0.0000 23.6913
#
#
#
# Elastic Compliance Matrix: (Units=1/GPa)
#
#
# Indices 1 2 3 4 5 6 
#
# 1 0.023177 -0.012634 -0.002354 0.000000 0.000000 0.000000
# 2 -0.012634 0.022450 -0.003546 0.000000 0.000000 0.000000
# 3 -0.002354 -0.003546 0.009492 0.000000 0.000000 0.000000
# 4 0.000000 0.000000 0.000000 0.019776 0.000000 0.000000
# 5 0.000000 0.000000 0.000000 0.000000 0.046355 0.000000
# 6 0.000000 0.000000 0.000000 0.000000 0.000000 0.042210
#
#
# Mechanical properties :
#
#
# Convention : Reuss Voigt Hill
#
# Bulk Modulus (GPa) = 55.39813 57.65406 56.52609
# Shear Modulus (GPa) = 24.20782 29.60142 26.90462
#
# Velocity S-wave (km/s) = 3.52558 3.89861 3.71678
# Velocity P-wave (km/s) = 6.70952 7.06176 6.88789
#
# Compressibility (1/GPa) = 0.01805115
#
# Stress axis : x y z
#
# Youngs Moduli (GPa) = 43.14670 44.54306 105.34886
#
# Poissons Ratio (x) = 0.56274 0.24799
# Poissons Ratio (y) = 0.54510 0.37361
# Poissons Ratio (z) = 0.10157 0.15797
#
# Static dielectric constant tensor:
#      x y z
#    x 1.822400 0.000000 0.000000 
#    y 0.000000 1.765000 0.000000 
#    z 0.000000 0.000000 1.817240 
# 
# From -- ./inp_files/1345.got.cif
#   From: 2010.05.17/outbox.cif.g08.bks.cpg/sg36_1_cif.got.tgz:1345.got - 2010.06.03 17:41:39.
