data_PCOD9351081
_publ_section_title
;
Structure prediction by ZEFSAII (Michael W. Deem and Ramdas Pophale) SiO2 
 PCOD9351081
Probable space group: C M C 21
;
_chemical_formula_sum "Si O2"
_cell_formula_units_Z 64
_cell_length_a 7.512252
_cell_length_b 26.856369
_cell_length_c 13.403133
_cell_angle_alpha 90.000000
_cell_angle_beta 90.000000
_cell_angle_gamma 90.000000
_cell_volume 2704.106366
_symmetry_space_group_name_H-M "C M C 21"
_symmetry_group_IT_number 36
_symmetry_cell_setting 'orthorhombic'
loop_
_space_group_symop_operation_xyz
x,y,z
-x,-y,1/2+z
x,-y,1/2+z
-x,y,z
1/2+x,1/2+y,z
1/2-x,1/2-y,1/2+z
1/2+x,1/2-y,1/2+z
1/2-x,1/2+y,z
loop_
_atom_site_type_symbol
_atom_site_label
_atom_site_fract_x
_atom_site_fract_y
_atom_site_fract_z
Si Si1 0.784947 0.585012 0.456570
Si Si2 0.715912 0.121533 0.037048
Si Si3 0.293587 0.218515 0.139837
Si Si4 0.714584 0.193811 0.519626
Si Si5 0.218625 0.242123 0.834066
Si Si6 0.204515 0.563526 0.233573
Si Si7 0.791743 0.129931 0.813958
Si Si8 0.789226 0.954985 0.167464
O O1 0.721590 0.639141 0.494198
O O2 0.719346 0.573806 0.344340
O O3 0.739761 0.548924 0.548631
O O4 0.000000 0.585777 0.451615
O O5 0.500000 0.118586 0.031515
O O6 0.780814 0.177822 0.063921
O O7 0.777848 0.089625 0.133101
O O8 0.777302 0.107555 0.925936
O O9 0.500000 0.205435 0.145109
O O10 0.219606 0.218429 0.250718
O O11 0.279243 0.277143 0.116040
O O12 0.500000 0.192370 0.523074
O O13 0.773505 0.233017 0.436453
O O14 0.284893 0.185785 0.821568
O O15 0.000000 0.241421 0.832931
O O16 0.208453 0.504925 0.212469
O O17 0.000000 0.581495 0.238520
O O18 0.718932 0.093397 0.728218
O O19 0.000000 0.135996 0.790951
O O20 0.000000 0.957727 0.185241
#
# Coordination Sequence:
#
# PCOD9351081 Si02
#       8
#     8   8   8   8   8   8   8   8
#     4  10  22  41  64  90 121 158 202 251 300 360
#     4  10  21  37  60  90 121 155 200 250 298 353
#     4  10  19  33  55  84 118 155 194 238 286 340
#     4  10  19  34  57  84 115 155 196 232 279 341
#     4   9  17  32  55  80 114 157 192 226 279 344
#     4  10  23  43  65  89 117 156 204 253 307 359
#     4  10  21  38  59  86 122 161 197 239 299 361
#     4  11  25  42  63  91 120 157 201 251 310 364
#
# _framework density 23.66771
#
# number of rings (size 3 to 8) (size 9 to 14) (size 15 to 20)
#    0.000    2.000    1.250    1.875    1.750    6.500 
#    0.000    1.250    0.000    3.000    0.000    0.000 
#    0.000    0.000    0.000    0.000    0.000    0.000 
#
# Total GULP energy -178611.808061 kJ/mol
# GULP energy per Si atom -5581.619002 kJ/mol
# Density = 2.361384 g / cm^3
# Si number density = 23.667710 Si / 1000 Ang^3
#
#
#
# Elastic Constant Matrix: (Units=GPa)
#
#
# Indices 1 2 3 4 5 6 
#
# 1 64.5922 -6.6954 -9.2631 0.0000 0.0000 0.0000
# 2 -6.6954 68.0577 17.9821 0.0000 0.0000 0.0000
# 3 -9.2631 17.9821 126.6911 0.0000 0.0000 0.0000
# 4 0.0000 0.0000 0.0000 33.0339 0.0000 0.0000
# 5 0.0000 0.0000 0.0000 0.0000 -16.5667 0.0000
# 6 0.0000 0.0000 0.0000 0.0000 0.0000 4.3417
#
#
#
# Elastic Compliance Matrix: (Units=1/GPa)
#
#
# Indices 1 2 3 4 5 6 
#
# 1 0.015755 0.001294 0.000968 0.000000 0.000000 0.000000
# 2 0.001294 0.015372 -0.002087 0.000000 0.000000 0.000000
# 3 0.000968 -0.002087 0.008260 0.000000 0.000000 0.000000
# 4 0.000000 0.000000 0.000000 0.030272 0.000000 0.000000
# 5 0.000000 0.000000 0.000000 0.000000 -0.060362 0.000000
# 6 0.000000 0.000000 0.000000 0.000000 0.000000 0.230323
#
#
# Mechanical properties :
#
#
# Convention : Reuss Voigt Hill
#
# Bulk Modulus (GPa) = 25.16523 29.26536 27.21529
# Shear Modulus (GPa) = 19.80073 21.31627 20.55850
#
# Velocity S-wave (km/s) = 2.89557 3.00434 2.95045
# Velocity P-wave (km/s) = 4.67278 4.94233 4.80945
#
# Compressibility (1/GPa) = 0.03973737
#
# Stress axis : x y z
#
# Youngs Moduli (GPa) = 63.47300 65.05245 121.06148
#
# Poissons Ratio (x) = -0.08418 -0.11722
# Poissons Ratio (y) = -0.08214 0.25269
# Poissons Ratio (z) = -0.06146 0.13578
#
# Static dielectric constant tensor:
#      x y z
#    x 1.919500 0.000000 0.000000 
#    y 0.000000 1.916860 0.000000 
#    z 0.000000 0.000000 1.911100 
# 
# From -- ./inp_files/7055.got.cif
#   From: 2010.05.17/outbox.cif.g08.bks.cpg/sg36_4_cif.got.tgz:7055.got - 2010.06.03 17:41:39.
