data_PCOD9351322
_publ_section_title
;
Structure prediction by ZEFSAII (Michael W. Deem and Ramdas Pophale) SiO2 
 PCOD9351322
Probable space group: C M C 21
;
_chemical_formula_sum "Si O2"
_cell_formula_units_Z 48
_cell_length_a 7.978684
_cell_length_b 27.070957
_cell_length_c 10.339622
_cell_angle_alpha 90.000000
_cell_angle_beta 90.000000
_cell_angle_gamma 90.000000
_cell_volume 2233.261278
_symmetry_space_group_name_H-M "C M C 21"
_symmetry_group_IT_number 36
_symmetry_cell_setting 'orthorhombic'
loop_
_space_group_symop_operation_xyz
x,y,z
-x,-y,1/2+z
x,-y,1/2+z
-x,y,z
1/2+x,1/2+y,z
1/2-x,1/2-y,1/2+z
1/2+x,1/2-y,1/2+z
1/2-x,1/2+y,z
loop_
_atom_site_type_symbol
_atom_site_label
_atom_site_fract_x
_atom_site_fract_y
_atom_site_fract_z
Si Si1 0.705393 0.359411 0.549280
Si Si2 0.307495 0.535815 0.943194
Si Si3 0.198991 0.170062 0.329236
Si Si4 0.690502 0.029086 0.669640
Si Si5 0.296453 0.360697 0.110433
Si Si6 0.297309 0.283553 0.329783
O O1 0.500000 0.360535 0.551188
O O2 0.761208 0.410769 0.485821
O O3 0.766063 0.352711 0.695836
O O4 0.753819 0.313693 0.458129
O O5 0.500000 0.543103 0.902678
O O6 0.217516 0.513933 0.818078
O O7 0.299713 0.500787 0.067187
O O8 0.264867 0.148934 0.464587
O O9 0.226496 0.228755 0.326320
O O10 0.000000 0.160397 0.329917
O O11 0.500000 0.020484 0.631139
O O12 0.732982 0.086971 0.661113
O O13 0.500000 0.361963 0.111286
O O14 0.245975 0.316472 0.206371
O O15 0.500000 0.280285 0.329373
#
# Coordination Sequence:
#
# PCOD9351322 Si02
#       6
#     8   8   8   8   8   8
#     4   9  19  37  60  86 117 154 204 253 291 355
#     4  11  23  44  70  92 120 169 216 251 308 386
#     4  10  21  35  57  90 120 155 205 254 302 364
#     4  12  26  43  64  97 131 158 201 268 326 366
#     4  10  21  39  61  86 121 165 210 249 299 381
#     4  10  19  36  58  83 119 161 206 253 302 362
#
# _framework density 21.493228999999999
#
# number of rings (size 3 to 8) (size 9 to 14) (size 15 to 20)
#    0.000    1.667    1.667    3.000    2.333    1.333 
#    0.000    1.667    0.000    0.000    0.000    0.000 
#    0.000    0.000    0.000    0.000    0.000    0.000 
#
# Total GULP energy -134182.545418 kJ/mol
# GULP energy per Si atom -5590.939392 kJ/mol
# Density = 2.144431 g / cm^3
# Si number density = 21.493229 Si / 1000 Ang^3
#
#
#
# Elastic Constant Matrix: (Units=GPa)
#
#
# Indices 1 2 3 4 5 6 
#
# 1 21.9851 -12.1220 2.3016 0.0000 0.0000 0.0000
# 2 -12.1220 34.7814 8.5465 0.0000 0.0000 0.0000
# 3 2.3016 8.5465 148.9344 0.0000 0.0000 0.0000
# 4 0.0000 0.0000 0.0000 36.8563 0.0000 0.0000
# 5 0.0000 0.0000 0.0000 0.0000 12.0854 0.0000
# 6 0.0000 0.0000 0.0000 0.0000 0.0000 25.5241
#
#
#
# Elastic Compliance Matrix: (Units=1/GPa)
#
#
# Indices 1 2 3 4 5 6 
#
# 1 0.056914 0.020339 -0.002047 0.000000 0.000000 0.000000
# 2 0.020339 0.036430 -0.002405 0.000000 0.000000 0.000000
# 3 -0.002047 -0.002405 0.006884 0.000000 0.000000 0.000000
# 4 0.000000 0.000000 0.000000 0.027132 0.000000 0.000000
# 5 0.000000 0.000000 0.000000 0.000000 0.082744 0.000000
# 6 0.000000 0.000000 0.000000 0.000000 0.000000 0.039179
#
#
# Mechanical properties :
#
#
# Convention : Reuss Voigt Hill
#
# Bulk Modulus (GPa) = 7.57562 22.57254 15.07408
# Shear Modulus (GPa) = 19.11971 28.69148 23.90560
#
# Velocity S-wave (km/s) = 2.98580 3.65760 3.33864
# Velocity P-wave (km/s) = 3.92670 5.32563 4.67875
#
# Compressibility (1/GPa) = 0.13200240
#
# Stress axis : x y z
#
# Youngs Moduli (GPa) = 17.57040 27.44966 145.26451
#
# Poissons Ratio (x) = -0.55829 0.29731
# Poissons Ratio (y) = -0.35736 0.34934
# Poissons Ratio (z) = 0.03596 0.06601
#
# Static dielectric constant tensor:
#      x y z
#    x 1.759100 0.000000 0.000000 
#    y 0.000000 1.721980 0.000000 
#    z 0.000000 0.000000 1.778920 
# 
# From -- ./inp_files/2704.got.cif
#   From: 2010.05.17/outbox.cif.g08.bks.cpg/sg36_2_cif.got.tgz:2704.got - 2010.06.03 17:41:39.
