data_PCOD9351487
_publ_section_title
;
Structure prediction by ZEFSAII (Michael W. Deem and Ramdas Pophale) SiO2 
 PCOD9351487
Probable space group: C M C 21
;
_chemical_formula_sum "Si O2"
_cell_formula_units_Z 64
_cell_length_a 7.468093
_cell_length_b 23.073037
_cell_length_c 17.058849
_cell_angle_alpha 90.000000
_cell_angle_beta 90.000000
_cell_angle_gamma 90.000000
_cell_volume 2939.437328
_symmetry_space_group_name_H-M "C M C 21"
_symmetry_group_IT_number 36
_symmetry_cell_setting 'orthorhombic'
loop_
_space_group_symop_operation_xyz
x,y,z
-x,-y,1/2+z
x,-y,1/2+z
-x,y,z
1/2+x,1/2+y,z
1/2-x,1/2-y,1/2+z
1/2+x,1/2-y,1/2+z
1/2-x,1/2+y,z
loop_
_atom_site_type_symbol
_atom_site_label
_atom_site_fract_x
_atom_site_fract_y
_atom_site_fract_z
Si Si1 0.781853 0.783877 0.491770
Si Si2 0.795293 0.030381 0.174177
Si Si3 0.718147 0.716122 0.699242
Si Si4 0.704708 0.469619 0.016837
Si Si5 0.705592 0.161687 0.531782
Si Si6 0.218777 0.992916 0.345507
Si Si7 0.794407 0.661687 0.159231
Si Si8 0.717629 0.640776 0.845506
O O1 0.723203 0.716960 0.483290
O O2 0.714725 0.812756 0.571526
O O3 0.724223 0.824236 0.421334
O O4 0.000000 0.782835 0.495887
O O5 0.796501 0.099561 0.163089
O O6 0.000000 0.007826 0.177511
O O7 0.719091 0.018111 0.261311
O O8 0.715645 0.000000 0.095507
O O9 0.500000 0.717164 0.695124
O O10 0.785278 0.687244 0.619487
O O11 0.776796 0.783040 0.707723
O O12 0.775777 0.675764 0.769679
O O13 0.500000 0.492174 0.013503
O O14 0.780909 0.481889 0.929703
O O15 0.703500 0.400439 0.027925
O O16 0.500000 0.151514 0.509158
O O17 0.270299 0.925647 0.345507
O O18 0.000000 0.998978 0.345507
O O19 0.000000 0.651514 0.181853
O O20 0.500000 0.641072 0.845506
#
# Coordination Sequence:
#
# PCOD9351487 Si02
#       8
#     8   8   8   8   8   8   8   8
#     4   9  18  33  54  77 101 133 172 214 258 309
#     4  10  20  35  55  76 102 139 179 218 260 308
#     4   9  18  33  54  77 101 133 172 214 258 309
#     4  10  20  35  55  76 102 139 179 218 260 308
#     4  10  20  33  51  77 107 137 170 209 259 313
#     4   9  18  31  51  79 101 127 176 225 260 303
#     4  10  20  33  51  77 107 137 170 209 259 313
#     4   9  16  31  55  77  97 127 174 221 256 301
#
# _framework density 21.772874000000002
#
# number of rings (size 3 to 8) (size 9 to 14) (size 15 to 20)
#    0.000    2.500    0.000    2.250    0.000    6.500 
#    0.000    2.500    0.000    1.500    0.000    0.000 
#    0.000    0.000    0.000    0.000    0.000    0.000 
#
# Total GULP energy -178487.492960 kJ/mol
# GULP energy per Si atom -5577.734155 kJ/mol
# Density = 2.172332 g / cm^3
# Si number density = 21.772874 Si / 1000 Ang^3
#
#
#
# Elastic Constant Matrix: (Units=GPa)
#
#
# Indices 1 2 3 4 5 6 
#
# 1 62.5295 -2.6213 1.5497 0.0000 0.0000 0.0000
# 2 -2.6213 166.3470 78.3588 0.0000 0.0000 0.0000
# 3 1.5497 78.3588 132.5728 0.0000 0.0000 0.0000
# 4 0.0000 0.0000 0.0000 36.0387 0.0000 0.0000
# 5 0.0000 0.0000 0.0000 0.0000 3.6461 0.0000
# 6 0.0000 0.0000 0.0000 0.0000 0.0000 -22.6694
#
#
#
# Elastic Compliance Matrix: (Units=1/GPa)
#
#
# Indices 1 2 3 4 5 6 
#
# 1 0.016024 0.000472 -0.000466 0.000000 0.000000 0.000000
# 2 0.000472 0.008345 -0.004938 0.000000 0.000000 0.000000
# 3 -0.000466 -0.004938 0.010467 0.000000 0.000000 0.000000
# 4 0.000000 0.000000 0.000000 0.027748 0.000000 0.000000
# 5 0.000000 0.000000 0.000000 0.000000 0.274268 0.000000
# 6 0.000000 0.000000 0.000000 0.000000 0.000000 -0.044112
#
#
# Mechanical properties :
#
#
# Convention : Reuss Voigt Hill
#
# Bulk Modulus (GPa) = 40.04542 57.33595 48.69069
# Shear Modulus (GPa) = 16.08089 22.34722 19.21406
#
# Velocity S-wave (km/s) = 2.72062 3.20719 2.97387
# Velocity P-wave (km/s) = 5.31990 6.33290 5.84837
#
# Compressibility (1/GPa) = 0.02497165
#
# Stress axis : x y z
#
# Youngs Moduli (GPa) = 62.40712 119.83190 95.53736
#
# Poissons Ratio (x) = -0.05659 0.04456
# Poissons Ratio (y) = -0.02947 0.47176
# Poissons Ratio (z) = 0.02911 0.59172
#
# Static dielectric constant tensor:
#      x y z
#    x 1.823120 0.000000 0.000000 
#    y 0.000000 1.745840 0.000000 
#    z 0.000000 0.000000 1.787830 
# 
# From -- ./inp_files/13774.got.cif
#   From: 2010.05.17/outbox.cif.g08.bks.cpg/sg36_7_cif.got.tgz:13774.got - 2010.06.03 17:41:39.
