data_PCOD9351392
_publ_section_title
;
Structure prediction by ZEFSAII (Michael W. Deem and Ramdas Pophale) SiO2 
 PCOD9351392
Probable space group: C M C 21
;
_chemical_formula_sum "Si O2"
_cell_formula_units_Z 64
_cell_length_a 15.312593
_cell_length_b 11.502874
_cell_length_c 15.218433
_cell_angle_alpha 90.000000
_cell_angle_beta 90.000000
_cell_angle_gamma 90.000000
_cell_volume 2680.556951
_symmetry_space_group_name_H-M "C M C 21"
_symmetry_group_IT_number 36
_symmetry_cell_setting 'orthorhombic'
loop_
_space_group_symop_operation_xyz
x,y,z
-x,-y,1/2+z
x,-y,1/2+z
-x,y,z
1/2+x,1/2+y,z
1/2-x,1/2-y,1/2+z
1/2+x,1/2-y,1/2+z
1/2-x,1/2+y,z
loop_
_atom_site_type_symbol
_atom_site_label
_atom_site_fract_x
_atom_site_fract_y
_atom_site_fract_z
Si Si1 0.601702 0.997456 0.663000
Si Si2 0.099183 0.950145 0.112776
Si Si3 0.159384 0.581942 0.485456
Si Si4 0.101171 0.251533 0.724984
Si Si5 0.101956 0.167625 0.033473
Si Si6 0.363214 0.892867 0.341208
Si Si7 0.644538 0.359365 0.922506
Si Si8 0.837512 0.908857 0.357700
O O1 0.500000 0.988627 0.631826
O O2 0.662373 0.013022 0.577688
O O3 0.599295 0.088695 0.743743
O O4 0.635466 0.879139 0.709603
O O5 0.145973 0.851291 0.169246
O O6 0.000000 0.953380 0.146266
O O7 0.127385 0.084759 0.114944
O O8 0.100034 0.896458 0.014328
O O9 0.110066 0.695872 0.522478
O O10 0.117166 0.498058 0.410787
O O11 0.251682 0.626617 0.445503
O O12 0.107224 0.197942 0.821010
O O13 0.000000 0.263055 0.700295
O O14 0.000000 0.137663 0.016260
O O15 0.165627 0.115172 0.960744
O O16 0.379498 0.767924 0.387121
O O17 0.259822 0.900555 0.324794
O O18 0.624903 0.461364 0.851580
#
# Coordination Sequence:
#
# PCOD9351392 Si02
#       8
#     8   8   8   8   8   8   8   8
#     4  11  26  43  66 101 132 176 229 278 341 410
#     4   9  20  37  60  91 121 159 214 266 322 395
#     4  11  23  42  65  95 138 176 224 272 341 413
#     4  10  21  40  63  90 127 168 214 269 334 396
#     4  10  19  37  64  89 120 164 216 269 324 392
#     4  11  24  42  62  97 135 171 225 276 333 408
#     4  10  22  40  61  91 125 175 215 272 341 393
#     4  10  21  37  59  90 122 161 219 262 322 395
#
# _framework density 23.875634999999999
#
# number of rings (size 3 to 8) (size 9 to 14) (size 15 to 20)
#    0.000    1.750    1.250    2.250    3.500    4.000 
#    0.000    1.250    0.000    0.000    0.000    0.000 
#    0.000    0.000    0.000    0.000    0.000    0.000 
#
# Total GULP energy -178273.539637 kJ/mol
# GULP energy per Si atom -5571.048114 kJ/mol
# Density = 2.382129 g / cm^3
# Si number density = 23.875635 Si / 1000 Ang^3
#
#
#
# Elastic Constant Matrix: (Units=GPa)
#
#
# Indices 1 2 3 4 5 6 
#
# 1 47.6993 -8.7558 -7.0093 0.0000 0.0000 0.0000
# 2 -8.7558 125.8682 10.6337 0.0000 0.0000 0.0000
# 3 -7.0093 10.6337 68.1191 0.0000 0.0000 0.0000
# 4 0.0000 0.0000 0.0000 31.7715 0.0000 0.0000
# 5 0.0000 0.0000 0.0000 0.0000 15.7301 0.0000
# 6 0.0000 0.0000 0.0000 0.0000 0.0000 11.5176
#
#
#
# Elastic Compliance Matrix: (Units=1/GPa)
#
#
# Indices 1 2 3 4 5 6 
#
# 1 0.021503 0.001326 0.002006 0.000000 0.000000 0.000000
# 2 0.001326 0.008133 -0.001133 0.000000 0.000000 0.000000
# 3 0.002006 -0.001133 0.015063 0.000000 0.000000 0.000000
# 4 0.000000 0.000000 0.000000 0.031475 0.000000 0.000000
# 5 0.000000 0.000000 0.000000 0.000000 0.063572 0.000000
# 6 0.000000 0.000000 0.000000 0.000000 0.000000 0.086824
#
#
# Mechanical properties :
#
#
# Convention : Reuss Voigt Hill
#
# Bulk Modulus (GPa) = 20.36795 25.71376 23.04085
# Shear Modulus (GPa) = 20.96104 28.25838 24.60971
#
# Velocity S-wave (km/s) = 2.96620 3.44403 3.21401
# Velocity P-wave (km/s) = 4.50338 5.15833 4.84194
#
# Compressibility (1/GPa) = 0.04909675
#
# Stress axis : x y z
#
# Youngs Moduli (GPa) = 46.50544 122.95873 66.38603
#
# Poissons Ratio (x) = -0.16309 -0.13314
# Poissons Ratio (y) = -0.06168 0.07522
# Poissons Ratio (z) = -0.09327 0.13932
#
# Static dielectric constant tensor:
#      x y z
#    x 1.928810 0.000000 0.000000 
#    y 0.000000 2.017430 0.000000 
#    z 0.000000 0.000000 1.957030 
# 
# From -- ./inp_files/12622.got.cif
#   From: 2010.05.17/outbox.cif.g08.bks.cpg/sg36_7_cif.got.tgz:12622.got - 2010.06.03 17:41:39.
