data_PCOD9351911
_publ_section_title
;
Structure prediction by ZEFSAII (Michael W. Deem and Ramdas Pophale) SiO2 
 PCOD9351911
Probable space group: C M C 21
;
_chemical_formula_sum "Si O2"
_cell_formula_units_Z 64
_cell_length_a 8.929721
_cell_length_b 23.341812
_cell_length_c 16.469746
_cell_angle_alpha 90.000000
_cell_angle_beta 90.000000
_cell_angle_gamma 90.000000
_cell_volume 3432.885816
_symmetry_space_group_name_H-M "C M C 21"
_symmetry_group_IT_number 36
_symmetry_cell_setting 'orthorhombic'
loop_
_space_group_symop_operation_xyz
x,y,z
-x,-y,1/2+z
x,-y,1/2+z
-x,y,z
1/2+x,1/2+y,z
1/2-x,1/2-y,1/2+z
1/2+x,1/2-y,1/2+z
1/2-x,1/2+y,z
loop_
_atom_site_type_symbol
_atom_site_label
_atom_site_fract_x
_atom_site_fract_y
_atom_site_fract_z
Si Si1 0.681344 0.910173 0.228330
Si Si2 0.666245 0.701941 0.270373
Si Si3 0.819964 0.034686 0.248654
Si Si4 0.319642 0.155256 0.563606
Si Si5 0.673260 0.392411 0.904865
Si Si6 0.678194 0.284554 0.519107
Si Si7 0.327433 0.817604 0.354929
Si Si8 0.673779 0.132706 0.143976
O O1 0.500000 0.915041 0.225936
O O2 0.727665 0.874344 0.148089
O O3 0.720202 0.875134 0.309878
O O4 0.754945 0.972195 0.233166
O O5 0.500000 0.687489 0.235314
O O6 0.675600 0.667274 0.354490
O O7 0.670918 0.768680 0.286204
O O8 0.797007 0.679776 0.214014
O O9 0.774971 0.061213 0.337192
O O10 0.757299 0.077327 0.179694
O O11 0.000000 0.035042 0.246864
O O12 0.500000 0.156312 0.562876
O O13 0.263756 0.117863 0.486939
O O14 0.269918 0.221655 0.550972
O O15 0.500000 0.405022 0.924941
O O16 0.500000 0.286421 0.528568
O O17 0.724750 0.294584 0.426410
O O18 0.752474 0.337083 0.567054
O O19 0.500000 0.823037 0.384247
O O20 0.500000 0.120782 0.131535
#
# Coordination Sequence:
#
# PCOD9351911 Si02
#       8
#     8   8   8   8   8   8   8   8
#     4  10  22  40  60  85 117 159 202 245 294 348
#     4   9  17  33  57  84 118 153 187 234 292 347
#     4  10  22  42  62  83 114 154 199 247 298 349
#     4  10  21  37  60  89 121 154 194 241 294 351
#     4   9  18  34  59  86 113 149 193 239 291 346
#     4  11  22  37  58  89 125 155 191 240 297 357
#     4  10  20  37  59  83 120 160 194 237 293 350
#     4  11  22  36  59  87 114 150 196 241 291 352
#
# _framework density 18.643207
#
# number of rings (size 3 to 8) (size 9 to 14) (size 15 to 20)
#    0.000    2.000    1.250    3.375    0.000    6.500 
#    2.250    1.250    0.000    0.000    0.000    0.000 
#    0.000    0.000    0.000    0.000    0.000    0.000 
#
# Total GULP energy -178501.480948 kJ/mol
# GULP energy per Si atom -5578.171280 kJ/mol
# Density = 1.860077 g / cm^3
# Si number density = 18.643207 Si / 1000 Ang^3
#
#
#
# Elastic Constant Matrix: (Units=GPa)
#
#
# Indices 1 2 3 4 5 6 
#
# 1 43.6942 35.2393 24.2963 0.0000 0.0000 0.0000
# 2 35.2393 132.5965 47.3945 0.0000 0.0000 0.0000
# 3 24.2963 47.3945 58.4367 0.0000 0.0000 0.0000
# 4 0.0000 0.0000 0.0000 22.7525 0.0000 0.0000
# 5 0.0000 0.0000 0.0000 0.0000 31.8450 0.0000
# 6 0.0000 0.0000 0.0000 0.0000 0.0000 -1.8849
#
#
#
# Elastic Compliance Matrix: (Units=1/GPa)
#
#
# Indices 1 2 3 4 5 6 
#
# 1 0.032227 -0.005317 -0.009087 0.000000 0.000000 0.000000
# 2 -0.005317 0.011498 -0.007114 0.000000 0.000000 0.000000
# 3 -0.009087 -0.007114 0.026661 0.000000 0.000000 0.000000
# 4 0.000000 0.000000 0.000000 0.043951 0.000000 0.000000
# 5 0.000000 0.000000 0.000000 0.000000 0.031402 0.000000
# 6 0.000000 0.000000 0.000000 0.000000 0.000000 -0.530536
#
#
# Mechanical properties :
#
#
# Convention : Reuss Voigt Hill
#
# Bulk Modulus (GPa) = 36.56435 49.84307 43.20371
# Shear Modulus (GPa) = -15.03107 19.06234 2.01564
#
# Velocity S-wave (km/s) = -2.84253 3.20110 1.04092
# Velocity P-wave (km/s) = 2.98026 6.36050 4.96679
#
# Compressibility (1/GPa) = 0.02734904
#
# Stress axis : x y z
#
# Youngs Moduli (GPa) = 31.02967 86.97439 37.50830
#
# Poissons Ratio (x) = 0.46242 0.34084
# Poissons Ratio (y) = 0.16498 0.26685
# Poissons Ratio (z) = 0.28197 0.61878
#
# Static dielectric constant tensor:
#      x y z
#    x 1.642230 0.000000 0.000000 
#    y 0.000000 1.635030 0.000000 
#    z 0.000000 0.000000 1.674620 
# 
# From -- ./inp_files/11093.got.cif
#   From: 2010.05.17/outbox.cif.g08.bks.cpg/sg36_6_cif.got.tgz:11093.got - 2010.06.03 17:41:39.
