data_PCOD9351286
_publ_section_title
;
Structure prediction by ZEFSAII (Michael W. Deem and Ramdas Pophale) SiO2 
 PCOD9351286
Probable space group: C M C 21
;
_chemical_formula_sum "Si O2"
_cell_formula_units_Z 64
_cell_length_a 7.976135
_cell_length_b 31.973322
_cell_length_c 11.486840
_cell_angle_alpha 90.000000
_cell_angle_beta 90.000000
_cell_angle_gamma 90.000000
_cell_volume 2929.414516
_symmetry_space_group_name_H-M "C M C 21"
_symmetry_group_IT_number 36
_symmetry_cell_setting 'orthorhombic'
loop_
_space_group_symop_operation_xyz
x,y,z
-x,-y,1/2+z
x,-y,1/2+z
-x,y,z
1/2+x,1/2+y,z
1/2-x,1/2-y,1/2+z
1/2+x,1/2-y,1/2+z
1/2-x,1/2+y,z
loop_
_atom_site_type_symbol
_atom_site_label
_atom_site_fract_x
_atom_site_fract_y
_atom_site_fract_z
Si Si1 0.307170 0.609656 0.264130
Si Si2 0.200487 0.740395 0.292311
Si Si3 0.794509 0.983072 0.834029
Si Si4 0.805099 0.677011 0.098676
Si Si5 0.202138 0.668349 0.842072
Si Si6 0.192473 0.388002 0.148949
Si Si7 0.695334 0.523216 0.592288
Si Si8 0.310523 0.676160 0.474559
O O1 0.500000 0.604774 0.225292
O O2 0.246246 0.564829 0.306177
O O3 0.206782 0.632591 0.163064
O O4 0.306248 0.642181 0.370534
O O5 0.267750 0.711690 0.186410
O O6 0.257320 0.787725 0.281822
O O7 0.258702 0.719292 0.413656
O O8 0.000000 0.738136 0.291147
O O9 0.000000 0.985244 0.838810
O O10 0.737074 0.008536 0.719012
O O11 0.735659 0.992819 0.966854
O O12 0.000000 0.688286 0.082586
O O13 0.728024 0.672917 0.971881
O O14 0.263950 0.628008 0.771740
O O15 0.000000 0.663799 0.845492
O O16 0.290536 0.426398 0.092871
O O17 0.000000 0.401666 0.159286
O O18 0.199811 0.346065 0.071313
O O19 0.500000 0.511020 0.593452
O O20 0.500000 0.680069 0.519489
#
# Coordination Sequence:
#
# PCOD9351286 Si02
#       8
#     8   8   8   8   8   8   8   8
#     4   9  17  33  57  84 108 139 184 233 281 338
#     4  10  21  36  57  86 112 142 190 238 284 343
#     4   9  18  34  58  87 116 148 192 241 292 354
#     4   9  20  38  55  77 110 147 184 231 288 346
#     4  10  23  40  55  77 115 155 189 235 293 344
#     4  11  23  38  57  84 117 154 197 243 288 344
#     4  10  20  38  61  86 117 155 197 246 303 361
#     4  10  19  35  60  83 111 148 187 231 285 340
#
# _framework density 21.847369
#
# number of rings (size 3 to 8) (size 9 to 14) (size 15 to 20)
#    0.000    2.250    1.250    1.125    1.750    3.500 
#    0.000    2.500    0.000    0.000    0.000    0.000 
#    0.000    0.000    0.000    0.000    0.000    0.000 
#
# Total GULP energy -178476.674383 kJ/mol
# GULP energy per Si atom -5577.396074 kJ/mol
# Density = 2.179764 g / cm^3
# Si number density = 21.847369 Si / 1000 Ang^3
#
#
#
# Elastic Constant Matrix: (Units=GPa)
#
#
# Indices 1 2 3 4 5 6 
#
# 1 19.1943 -5.3577 5.1345 0.0000 0.0000 0.0000
# 2 -5.3577 48.7649 32.8022 0.0000 0.0000 0.0000
# 3 5.1345 32.8022 138.7378 0.0000 0.0000 0.0000
# 4 0.0000 0.0000 0.0000 25.4565 0.0000 0.0000
# 5 0.0000 0.0000 0.0000 0.0000 -45.1862 0.0000
# 6 0.0000 0.0000 0.0000 0.0000 0.0000 19.1562
#
#
#
# Elastic Compliance Matrix: (Units=1/GPa)
#
#
# Indices 1 2 3 4 5 6 
#
# 1 0.055707 0.008927 -0.004172 0.000000 0.000000 0.000000
# 2 0.008927 0.025815 -0.006434 0.000000 0.000000 0.000000
# 3 -0.004172 -0.006434 0.008883 0.000000 0.000000 0.000000
# 4 0.000000 0.000000 0.000000 0.039283 0.000000 0.000000
# 5 0.000000 0.000000 0.000000 0.000000 -0.022131 0.000000
# 6 0.000000 0.000000 0.000000 0.000000 0.000000 0.052203
#
#
# Mechanical properties :
#
#
# Convention : Reuss Voigt Hill
#
# Bulk Modulus (GPa) = 11.48810 30.20611 20.84710
# Shear Modulus (GPa) = 26.02353 11.49317 18.75835
#
# Velocity S-wave (km/s) = 3.45505 2.29610 2.93338
# Velocity P-wave (km/s) = 4.60285 4.57006 4.58649
#
# Compressibility (1/GPa) = 0.08704658
#
# Stress axis : x y z
#
# Youngs Moduli (GPa) = 17.95120 38.73696 112.56908
#
# Poissons Ratio (x) = -0.34580 0.46966
# Poissons Ratio (y) = -0.16025 0.72426
# Poissons Ratio (z) = 0.07490 0.24923
#
# Static dielectric constant tensor:
#      x y z
#    x 1.804760 0.000000 0.000000 
#    y 0.000000 1.762460 0.000000 
#    z 0.000000 0.000000 1.868270 
# 
# From -- ./inp_files/7208.got.cif
#   From: 2010.05.17/outbox.cif.g08.bks.cpg/sg36_4_cif.got.tgz:7208.got - 2010.06.03 17:41:39.
