data_PCOD9351750
_publ_section_title
;
Structure prediction by ZEFSAII (Michael W. Deem and Ramdas Pophale) SiO2 
 PCOD9351750
Probable space group: C M C 21
;
_chemical_formula_sum "Si O2"
_cell_formula_units_Z 48
_cell_length_a 23.562912
_cell_length_b 18.398886
_cell_length_c 5.297707
_cell_angle_alpha 90.000000
_cell_angle_beta 90.000000
_cell_angle_gamma 90.000000
_cell_volume 2296.721971
_symmetry_space_group_name_H-M "C M C 21"
_symmetry_group_IT_number 36
_symmetry_cell_setting 'orthorhombic'
loop_
_space_group_symop_operation_xyz
x,y,z
-x,-y,1/2+z
x,-y,1/2+z
-x,y,z
1/2+x,1/2+y,z
1/2-x,1/2-y,1/2+z
1/2+x,1/2-y,1/2+z
1/2-x,1/2+y,z
loop_
_atom_site_type_symbol
_atom_site_label
_atom_site_fract_x
_atom_site_fract_y
_atom_site_fract_z
Si Si1 0.565316 0.201864 0.789440
Si Si2 0.931614 0.960141 0.273122
Si Si3 0.237598 0.524878 0.027574
Si Si4 0.901215 0.791625 0.289388
Si Si5 0.329826 0.104902 0.684814
Si Si6 0.717596 0.238692 0.416556
O O1 0.500000 0.178279 0.795827
O O2 0.575073 0.252195 0.541691
O O3 0.609884 0.135272 0.769648
O O4 0.579040 0.248064 0.040768
O O5 0.919024 0.874917 0.275357
O O6 0.000000 0.967507 0.272633
O O7 0.909881 0.999962 0.523288
O O8 0.267858 0.516296 0.294415
O O9 0.180426 0.475893 0.078627
O O10 0.215604 0.600707 0.916638
O O11 0.833398 0.787180 0.311401
O O12 0.307964 0.159197 0.471250
O O13 0.764025 0.237311 0.197424
#
# Coordination Sequence:
#
# PCOD9351750 Si02
#       6
#     8   8   8   8   8   8
#     4  11  22  35  59  90 122 156 194 240 296 358
#     4  10  20  35  60  85 115 159 193 226 292 376
#     4   8  18  32  59  76 110 154 186 226 281 346
#     4  11  23  40  59  85 125 155 194 260 295 351
#     4   9  21  36  60  82 118 148 196 240 290 340
#     4  11  24  38  63  86 113 152 207 252 309 355
#
# _framework density 20.899352
#
# number of rings (size 3 to 8) (size 9 to 14) (size 15 to 20)
#    1.000    1.000    0.000    4.500    7.000    1.333 
#    0.000    0.833   11.000    0.000    0.000    0.000 
#    0.000    0.000    0.000    0.000    0.000    0.000 
#
# Total GULP energy -133765.040955 kJ/mol
# GULP energy per Si atom -5573.543373 kJ/mol
# Density = 2.085178 g / cm^3
# Si number density = 20.899352 Si / 1000 Ang^3
#
#
#
# Elastic Constant Matrix: (Units=GPa)
#
#
# Indices 1 2 3 4 5 6 
#
# 1 34.6649 -6.2329 6.2229 0.0000 0.0000 0.0000
# 2 -6.2329 37.6180 19.3066 0.0000 0.0000 0.0000
# 3 6.2229 19.3066 157.1512 0.0000 0.0000 0.0000
# 4 0.0000 0.0000 0.0000 31.6310 0.0000 0.0000
# 5 0.0000 0.0000 0.0000 0.0000 18.3836 0.0000
# 6 0.0000 0.0000 0.0000 0.0000 0.0000 0.7620
#
#
#
# Elastic Compliance Matrix: (Units=1/GPa)
#
#
# Indices 1 2 3 4 5 6 
#
# 1 0.030276 0.006011 -0.001937 0.000000 0.000000 0.000000
# 2 0.006011 0.029565 -0.003870 0.000000 0.000000 0.000000
# 3 -0.001937 -0.003870 0.006915 0.000000 0.000000 0.000000
# 4 0.000000 0.000000 0.000000 0.031615 0.000000 0.000000
# 5 0.000000 0.000000 0.000000 0.000000 0.054396 0.000000
# 6 0.000000 0.000000 0.000000 0.000000 0.000000 1.312253
#
#
# Mechanical properties :
#
#
# Convention : Reuss Voigt Hill
#
# Bulk Modulus (GPa) = 14.88907 29.78078 22.33493
# Shear Modulus (GPa) = 3.36247 24.16451 13.76349
#
# Velocity S-wave (km/s) = 1.26980 3.40403 2.56903
# Velocity P-wave (km/s) = 3.04787 5.45256 4.41701
#
# Compressibility (1/GPa) = 0.06716337
#
# Stress axis : x y z
#
# Youngs Moduli (GPa) = 33.02928 33.82348 144.60310
#
# Poissons Ratio (x) = -0.20330 0.28014
# Poissons Ratio (y) = -0.19853 0.55964
# Poissons Ratio (z) = 0.06399 0.13090
#
# Static dielectric constant tensor:
#      x y z
#    x 1.747350 0.000000 0.000000 
#    y 0.000000 1.730960 0.000000 
#    z 0.000000 0.000000 1.832440 
# 
# From -- ./inp_files/1749.got.cif
#   From: 2010.05.17/outbox.cif.g08.bks.cpg/sg36_1_cif.got.tgz:1749.got - 2010.06.03 17:41:39.
