data_PCOD9351094
_publ_section_title
;
Structure prediction by ZEFSAII (Michael W. Deem and Ramdas Pophale) SiO2 
 PCOD9351094
Probable space group: C M C 21
;
_chemical_formula_sum "Si O2"
_cell_formula_units_Z 48
_cell_length_a 7.728846
_cell_length_b 20.244902
_cell_length_c 11.954988
_cell_angle_alpha 90.000000
_cell_angle_beta 90.000000
_cell_angle_gamma 90.000000
_cell_volume 1870.593743
_symmetry_space_group_name_H-M "C M C 21"
_symmetry_group_IT_number 36
_symmetry_cell_setting 'orthorhombic'
loop_
_space_group_symop_operation_xyz
x,y,z
-x,-y,1/2+z
x,-y,1/2+z
-x,y,z
1/2+x,1/2+y,z
1/2-x,1/2-y,1/2+z
1/2+x,1/2-y,1/2+z
1/2-x,1/2+y,z
loop_
_atom_site_type_symbol
_atom_site_label
_atom_site_fract_x
_atom_site_fract_y
_atom_site_fract_z
Si Si1 0.307123 0.248667 0.413850
Si Si2 0.704356 0.544178 0.925674
Si Si3 0.300253 0.606988 0.455459
Si Si4 0.803927 0.579979 0.158402
Si Si5 0.792698 0.433308 0.190637
Si Si6 0.291231 0.223264 0.174276
O O1 0.500000 0.277235 0.414533
O O2 0.308123 0.168479 0.414191
O O3 0.229488 0.262293 0.287601
O O4 0.238775 0.261299 0.541543
O O5 0.500000 0.543231 0.949033
O O6 0.743232 0.584390 0.814799
O O7 0.760338 0.466657 0.920734
O O8 0.805410 0.578433 0.024701
O O9 0.500000 0.614678 0.422518
O O10 0.288952 0.606688 0.590336
O O11 0.722745 0.508994 0.183611
O O12 0.719227 0.648596 0.189354
O O13 0.000000 0.578505 0.201861
O O14 0.000000 0.433486 0.174803
O O15 0.500000 0.222683 0.184602
#
# Coordination Sequence:
#
# PCOD9351094 Si02
#       6
#     8   8   8   8   8   8
#     4  11  24  42  65  91 119 157 205 254 306 364
#     4  10  20  33  53  84 119 152 188 236 295 356
#     4  10  21  37  57  83 117 155 195 242 296 354
#     4   9  19  36  57  80 110 151 196 241 290 349
#     4  10  19  33  56  84 115 153 195 239 290 351
#     4  10  23  43  64  88 120 158 203 254 305 360
#
# _framework density 25.660299999999999
#
# number of rings (size 3 to 8) (size 9 to 14) (size 15 to 20)
#    0.000    2.000    0.000    3.000    0.000    7.333 
#    0.000    3.333    0.000    0.000    0.000    0.000 
#    0.000    0.000    0.000    0.000    0.000    0.000 
#
# Total GULP energy -133915.226878 kJ/mol
# GULP energy per Si atom -5579.801120 kJ/mol
# Density = 2.560190 g / cm^3
# Si number density = 25.660300 Si / 1000 Ang^3
#
#
#
# Elastic Constant Matrix: (Units=GPa)
#
#
# Indices 1 2 3 4 5 6 
#
# 1 78.9295 8.6321 17.3853 0.0000 0.0000 0.0000
# 2 8.6321 56.2258 -36.6119 0.0000 0.0000 0.0000
# 3 17.3853 -36.6119 131.5238 0.0000 0.0000 0.0000
# 4 0.0000 0.0000 0.0000 3.8244 0.0000 0.0000
# 5 0.0000 0.0000 0.0000 0.0000 30.7196 0.0000
# 6 0.0000 0.0000 0.0000 0.0000 0.0000 21.8877
#
#
#
# Elastic Compliance Matrix: (Units=1/GPa)
#
#
# Indices 1 2 3 4 5 6 
#
# 1 0.013757 -0.004026 -0.002939 0.000000 0.000000 0.000000
# 2 -0.004026 0.022901 0.006907 0.000000 0.000000 0.000000
# 3 -0.002939 0.006907 0.009914 0.000000 0.000000 0.000000
# 4 0.000000 0.000000 0.000000 0.261480 0.000000 0.000000
# 5 0.000000 0.000000 0.000000 0.000000 0.032553 0.000000
# 6 0.000000 0.000000 0.000000 0.000000 0.000000 0.045688
#
#
# Mechanical properties :
#
#
# Convention : Reuss Voigt Hill
#
# Bulk Modulus (GPa) = 21.52543 27.27668 24.40105
# Shear Modulus (GPa) = 12.44108 29.77124 21.10616
#
# Velocity S-wave (km/s) = 2.20429 3.40988 2.87108
# Velocity P-wave (km/s) = 3.85815 5.11429 4.52997
#
# Compressibility (1/GPa) = 0.04645668
#
# Stress axis : x y z
#
# Youngs Moduli (GPa) = 72.68905 43.66594 100.86333
#
# Poissons Ratio (x) = 0.17580 0.29646
# Poissons Ratio (y) = 0.29264 -0.69667
# Poissons Ratio (z) = 0.21365 -0.30160
#
# Static dielectric constant tensor:
#      x y z
#    x 1.973210 0.000000 0.000000 
#    y 0.000000 2.037090 0.000000 
#    z 0.000000 0.000000 2.163320 
# 
# From -- ./inp_files/6750.got.cif
#   From: 2010.05.17/outbox.cif.g08.bks.cpg/sg36_4_cif.got.tgz:6750.got - 2010.06.03 17:41:39.
