data_PCOD9351127
_publ_section_title
;
Structure prediction by ZEFSAII (Michael W. Deem and Ramdas Pophale) SiO2 
 PCOD9351127
Probable space group: C M C 21
;
_chemical_formula_sum "Si O2"
_cell_formula_units_Z 56
_cell_length_a 16.750706
_cell_length_b 12.005891
_cell_length_c 13.597121
_cell_angle_alpha 90.000000
_cell_angle_beta 90.000000
_cell_angle_gamma 90.000000
_cell_volume 2734.478258
_symmetry_space_group_name_H-M "C M C 21"
_symmetry_group_IT_number 36
_symmetry_cell_setting 'orthorhombic'
loop_
_space_group_symop_operation_xyz
x,y,z
-x,-y,1/2+z
x,-y,1/2+z
-x,y,z
1/2+x,1/2+y,z
1/2-x,1/2-y,1/2+z
1/2+x,1/2-y,1/2+z
1/2-x,1/2+y,z
loop_
_atom_site_type_symbol
_atom_site_label
_atom_site_fract_x
_atom_site_fract_y
_atom_site_fract_z
Si Si1 0.590900 0.077866 0.587620
Si Si2 0.903491 0.050982 0.978250
Si Si3 0.220577 0.558308 0.742225
Si Si4 0.181099 0.869669 0.856477
Si Si5 0.909490 0.827411 0.667092
Si Si6 0.591555 0.043874 0.355763
Si Si7 0.176296 0.232925 0.836743
O O1 0.500000 0.037791 0.614478
O O2 0.669870 0.034705 0.644031
O O3 0.591412 0.209081 0.612464
O O4 0.599350 0.059145 0.472229
O O5 0.872178 0.145831 0.902810
O O6 0.000000 0.049416 0.976171
O O7 0.866796 0.936003 0.939006
O O8 0.875160 0.084802 0.087840
O O9 0.274091 0.459881 0.786639
O O10 0.147344 0.556233 0.820282
O O11 0.277818 0.666006 0.749617
O O12 0.126629 0.813111 0.774428
O O13 0.249709 0.788551 0.895768
O O14 0.000000 0.864277 0.683085
O O15 0.500000 0.023365 0.332180
O O16 0.621054 0.161862 0.309358
#
# Coordination Sequence:
#
# PCOD9351127 Si02
#       7
#     8   8   8   8   8   8   8
#     4  10  19  35  58  80 105 145 188 220 264 329
#     4  10  20  36  57  80 108 147 186 221 266 328
#     4  10  21  34  54  83 114 139 179 230 279 316
#     4  10  21  34  54  83 114 139 179 230 279 316
#     4  10  19  35  58  80 105 145 188 220 264 329
#     4  10  20  36  57  80 108 147 186 221 266 328
#     4  10  19  34  51  80 112 140 174 224 275 318
#
# _framework density 20.479225
#
# number of rings (size 3 to 8) (size 9 to 14) (size 15 to 20)
#    0.000    2.000    2.857    1.286    0.000    3.429 
#    0.000    0.000    0.000    0.000    0.000    8.000 
#    0.000    0.000    0.000    0.000    0.000    0.000 
#
# Total GULP energy -155960.405410 kJ/mol
# GULP energy per Si atom -5570.014479 kJ/mol
# Density = 2.043261 g / cm^3
# Si number density = 20.479225 Si / 1000 Ang^3
#
#
#
# Elastic Constant Matrix: (Units=GPa)
#
#
# Indices 1 2 3 4 5 6 
#
# 1 76.0823 5.1366 15.4570 0.0000 0.0000 0.0000
# 2 5.1366 33.3258 2.6536 0.0000 0.0000 0.0000
# 3 15.4570 2.6536 41.1261 0.0000 0.0000 0.0000
# 4 0.0000 0.0000 0.0000 19.8453 0.0000 0.0000
# 5 0.0000 0.0000 0.0000 0.0000 18.4956 0.0000
# 6 0.0000 0.0000 0.0000 0.0000 0.0000 24.0579
#
#
#
# Elastic Compliance Matrix: (Units=1/GPa)
#
#
# Indices 1 2 3 4 5 6 
#
# 1 0.014336 -0.001790 -0.005273 0.000000 0.000000 0.000000
# 2 -0.001790 0.030385 -0.001288 0.000000 0.000000 0.000000
# 3 -0.005273 -0.001288 0.026380 0.000000 0.000000 0.000000
# 4 0.000000 0.000000 0.000000 0.050390 0.000000 0.000000
# 5 0.000000 0.000000 0.000000 0.000000 0.054067 0.000000
# 6 0.000000 0.000000 0.000000 0.000000 0.000000 0.041566
#
#
# Mechanical properties :
#
#
# Convention : Reuss Voigt Hill
#
# Bulk Modulus (GPa) = 18.38210 21.89206 20.13708
# Shear Modulus (GPa) = 19.84457 20.96555 20.40506
#
# Velocity S-wave (km/s) = 3.11627 3.20308 3.15997
# Velocity P-wave (km/s) = 4.68440 4.93890 4.81333
#
# Compressibility (1/GPa) = 0.05440076
#
# Stress axis : x y z
#
# Youngs Moduli (GPa) = 69.75604 32.91081 37.90719
#
# Poissons Ratio (x) = 0.05890 0.19987
# Poissons Ratio (y) = 0.12485 0.04882
# Poissons Ratio (z) = 0.36779 0.04238
#
# Static dielectric constant tensor:
#      x y z
#    x 1.765540 0.000000 0.000000 
#    y 0.000000 1.761820 0.000000 
#    z 0.000000 0.000000 1.735000 
# 
# From -- ./inp_files/12141.got.cif
#   From: 2010.05.17/outbox.cif.g08.bks.cpg/sg36_7_cif.got.tgz:12141.got - 2010.06.03 17:41:39.
