data_PCOD9351817
_publ_section_title
;
Structure prediction by ZEFSAII (Michael W. Deem and Ramdas Pophale) SiO2 
 PCOD9351817
Probable space group: C M C 21
;
_chemical_formula_sum "Si O2"
_cell_formula_units_Z 56
_cell_length_a 14.911949
_cell_length_b 9.073073
_cell_length_c 19.561181
_cell_angle_alpha 90.000000
_cell_angle_beta 90.000000
_cell_angle_gamma 90.000000
_cell_volume 2646.573054
_symmetry_space_group_name_H-M "C M C 21"
_symmetry_group_IT_number 36
_symmetry_cell_setting 'orthorhombic'
loop_
_space_group_symop_operation_xyz
x,y,z
-x,-y,1/2+z
x,-y,1/2+z
-x,y,z
1/2+x,1/2+y,z
1/2-x,1/2-y,1/2+z
1/2+x,1/2-y,1/2+z
1/2-x,1/2+y,z
loop_
_atom_site_type_symbol
_atom_site_label
_atom_site_fract_x
_atom_site_fract_y
_atom_site_fract_z
Si Si1 0.149538 0.156823 0.628000
Si Si2 0.708136 0.495975 0.496849
Si Si3 0.291864 0.995975 0.809903
Si Si4 0.649538 0.156823 0.678752
Si Si5 0.096378 0.043275 0.249621
Si Si6 0.735533 0.250000 0.403376
Si Si7 0.096378 0.456725 0.557131
O O1 0.160966 0.035869 0.567661
O O2 0.250000 0.197019 0.653376
O O3 0.105626 0.301085 0.596337
O O4 0.101957 0.083432 0.692184
O O5 0.679738 0.349794 0.456530
O O6 0.705243 0.636779 0.447387
O O7 0.814183 0.473146 0.512504
O O8 0.185817 0.973146 0.794248
O O9 0.320262 0.849794 0.850222
O O10 0.339034 0.035869 0.739091
O O11 0.294757 0.136779 0.859365
O O12 0.605626 0.301085 0.710415
O O13 0.601957 0.083432 0.614568
O O14 0.000000 0.036730 0.285396
O O15 0.000000 0.463270 0.521356
#
# Coordination Sequence:
#
# PCOD9351817 Si02
#       7
#     8   8   8   8   8   8   8
#     4  10  20  36  59  84 109 147 186 229 272 334
#     4  10  20  37  61  85 106 148 192 233 260 336
#     4  10  20  37  61  85 106 148 192 233 260 336
#     4  10  20  36  59  84 109 147 186 229 272 334
#     4  11  22  36  56  87 118 142 175 233 292 328
#     4  10  20  36  62  82 106 146 204 224 264 310
#     4  11  22  36  56  87 118 142 175 233 292 328
#
# _framework density 21.159438000000002
#
# number of rings (size 3 to 8) (size 9 to 14) (size 15 to 20)
#    0.000    1.714    2.857    3.429    4.000    0.000 
#    0.000    1.429    0.000    0.000    0.000    0.000 
#    0.000    0.000    0.000    0.000    0.000    0.000 
#
# Total GULP energy -156378.653093 kJ/mol
# GULP energy per Si atom -5584.951896 kJ/mol
# Density = 2.111128 g / cm^3
# Si number density = 21.159438 Si / 1000 Ang^3
#
#
#
# Elastic Constant Matrix: (Units=GPa)
#
#
# Indices 1 2 3 4 5 6 
#
# 1 75.5342 9.8035 2.5336 0.0000 0.0000 0.0000
# 2 9.8035 89.1673 12.1632 0.0000 0.0000 0.0000
# 3 2.5336 12.1632 64.3559 0.0000 0.0000 0.0000
# 4 0.0000 0.0000 0.0000 39.7647 0.0000 0.0000
# 5 0.0000 0.0000 0.0000 0.0000 0.1717 0.0000
# 6 0.0000 0.0000 0.0000 0.0000 0.0000 -66.4637
#
#
#
# Elastic Compliance Matrix: (Units=1/GPa)
#
#
# Indices 1 2 3 4 5 6 
#
# 1 0.013435 -0.001442 -0.000256 0.000000 0.000000 0.000000
# 2 -0.001442 0.011666 -0.002148 0.000000 0.000000 0.000000
# 3 -0.000256 -0.002148 0.015955 0.000000 0.000000 0.000000
# 4 0.000000 0.000000 0.000000 0.025148 0.000000 0.000000
# 5 0.000000 0.000000 0.000000 0.000000 5.824097 0.000000
# 6 0.000000 0.000000 0.000000 0.000000 0.000000 -0.015046
#
#
# Mechanical properties :
#
#
# Convention : Reuss Voigt Hill
#
# Bulk Modulus (GPa) = 29.97362 30.89532 30.43447
# Shear Modulus (GPa) = 0.84831 8.33167 4.58999
#
# Velocity S-wave (km/s) = 0.63386 1.98648 1.47443
# Velocity P-wave (km/s) = 3.83824 4.46031 4.16092
#
# Compressibility (1/GPa) = 0.03336267
#
# Stress axis : x y z
#
# Youngs Moduli (GPa) = 74.43357 85.71583 62.67750
#
# Poissons Ratio (x) = 0.12361 0.01607
# Poissons Ratio (y) = 0.10734 0.13464
# Poissons Ratio (z) = 0.01908 0.18413
#
# Static dielectric constant tensor:
#      x y z
#    x 1.846680 0.000000 0.000000 
#    y 0.000000 1.781310 0.000000 
#    z 0.000000 0.000000 1.775630 
# 
# From -- ./inp_files/16133.got.cif
#   From: 2010.05.17/outbox.cif.g08.bks.cpg/sg36_9_cif.got.tgz:16133.got - 2010.06.03 17:41:39.
