data_PCOD9351254
_publ_section_title
;
Structure prediction by ZEFSAII (Michael W. Deem and Ramdas Pophale) SiO2 
 PCOD9351254
Probable space group: C M C 21
;
_chemical_formula_sum "Si O2"
_cell_formula_units_Z 32
_cell_length_a 18.593934
_cell_length_b 13.098629
_cell_length_c 5.336714
_cell_angle_alpha 90.000000
_cell_angle_beta 90.000000
_cell_angle_gamma 90.000000
_cell_volume 1299.783608
_symmetry_space_group_name_H-M "C M C 21"
_symmetry_group_IT_number 36
_symmetry_cell_setting 'orthorhombic'
loop_
_space_group_symop_operation_xyz
x,y,z
-x,-y,1/2+z
x,-y,1/2+z
-x,y,z
1/2+x,1/2+y,z
1/2-x,1/2-y,1/2+z
1/2+x,1/2-y,1/2+z
1/2-x,1/2+y,z
loop_
_atom_site_type_symbol
_atom_site_label
_atom_site_fract_x
_atom_site_fract_y
_atom_site_fract_z
Si Si1 0.581071 0.931630 0.442590
Si Si2 0.274564 0.191743 0.002413
Si Si3 0.582381 0.624731 0.351451
Si Si4 0.861651 0.895378 0.355371
O O1 0.500000 0.885606 0.450278
O O2 0.646465 0.853232 0.462307
O O3 0.586664 0.006328 0.682665
O O4 0.247308 0.267828 0.779295
O O5 0.219462 0.096295 0.948570
O O6 0.500000 0.637700 0.419242
O O7 0.631278 0.655725 0.584680
O O8 0.600062 0.504068 0.318532
O O9 0.598726 0.666911 0.075761
#
# Coordination Sequence:
#
# PCOD9351254 Si02
#       4
#     8   8   8   8
#     4  10  23  45  75 101 128 177 238 293 333 391
#     4  12  26  43  63  99 137 170 213 276 347 406
#     4  10  19  35  57  90 121 153 208 251 294 374
#     4  10  20  33  57  82 122 162 199 252 306 365
#
# _framework density 24.619482999999999
#
# number of rings (size 3 to 8) (size 9 to 14) (size 15 to 20)
#    0.000    1.500    0.000    6.750    7.000    0.000 
#    0.000   10.000    0.000    0.000    0.000    0.000 
#    0.000    0.000    0.000    0.000    0.000    0.000 
#
# Total GULP energy -89414.314832 kJ/mol
# GULP energy per Si atom -5588.394677 kJ/mol
# Density = 2.456345 g / cm^3
# Si number density = 24.619483 Si / 1000 Ang^3
#
#
#
# Elastic Constant Matrix: (Units=GPa)
#
#
# Indices 1 2 3 4 5 6 
#
# 1 145.5129 22.3849 19.7467 0.0000 0.0000 0.0000
# 2 22.3849 54.4078 8.3438 0.0000 0.0000 0.0000
# 3 19.7467 8.3438 196.0723 0.0000 0.0000 0.0000
# 4 0.0000 0.0000 0.0000 29.1140 0.0000 0.0000
# 5 0.0000 0.0000 0.0000 0.0000 29.4830 0.0000
# 6 0.0000 0.0000 0.0000 0.0000 0.0000 30.8189
#
#
#
# Elastic Compliance Matrix: (Units=1/GPa)
#
#
# Indices 1 2 3 4 5 6 
#
# 1 0.007411 -0.002954 -0.000621 0.000000 0.000000 0.000000
# 2 -0.002954 0.019678 -0.000540 0.000000 0.000000 0.000000
# 3 -0.000621 -0.000540 0.005186 0.000000 0.000000 0.000000
# 4 0.000000 0.000000 0.000000 0.034348 0.000000 0.000000
# 5 0.000000 0.000000 0.000000 0.000000 0.033918 0.000000
# 6 0.000000 0.000000 0.000000 0.000000 0.000000 0.032448
#
#
# Mechanical properties :
#
#
# Convention : Reuss Voigt Hill
#
# Bulk Modulus (GPa) = 41.58784 55.21598 48.40191
# Shear Modulus (GPa) = 33.50501 40.91770 37.21135
#
# Velocity S-wave (km/s) = 3.69306 4.08119 3.89197
# Velocity P-wave (km/s) = 5.92569 6.68466 6.31658
#
# Compressibility (1/GPa) = 0.02404549
#
# Stress axis : x y z
#
# Youngs Moduli (GPa) = 134.93687 50.81870 192.84011
#
# Poissons Ratio (x) = 0.15011 0.11969
# Poissons Ratio (y) = 0.39858 0.10411
# Poissons Ratio (z) = 0.08375 0.02744
#
# Static dielectric constant tensor:
#      x y z
#    x 1.943380 0.000000 0.000000 
#    y 0.000000 2.051370 0.000000 
#    z 0.000000 0.000000 2.017900 
# 
# From -- ./inp_files/635.got.cif
#   From: 2010.05.17/outbox.cif.g08.bks.cpg/sg36_1_cif.got.tgz:635.got - 2010.06.03 17:41:39.
