data_PCOD9351013
_publ_section_title
;
Structure prediction by ZEFSAII (Michael W. Deem and Ramdas Pophale) SiO2 
 PCOD9351013
Probable space group: C M C 21
;
_chemical_formula_sum "Si O2"
_cell_formula_units_Z 64
_cell_length_a 8.894388
_cell_length_b 16.813013
_cell_length_c 19.458161
_cell_angle_alpha 90.000000
_cell_angle_beta 90.000000
_cell_angle_gamma 90.000000
_cell_volume 2909.801826
_symmetry_space_group_name_H-M "C M C 21"
_symmetry_group_IT_number 36
_symmetry_cell_setting 'orthorhombic'
loop_
_space_group_symop_operation_xyz
x,y,z
-x,-y,1/2+z
x,-y,1/2+z
-x,y,z
1/2+x,1/2+y,z
1/2-x,1/2-y,1/2+z
1/2+x,1/2-y,1/2+z
1/2-x,1/2+y,z
loop_
_atom_site_type_symbol
_atom_site_label
_atom_site_fract_x
_atom_site_fract_y
_atom_site_fract_z
Si Si1 0.679742 0.893144 0.763360
Si Si2 0.318402 0.757017 0.340218
Si Si3 0.675833 0.934709 0.297863
Si Si4 0.836947 0.112818 0.669533
Si Si5 0.831265 0.978845 0.024491
Si Si6 0.827701 0.609453 0.101046
Si Si7 0.662705 0.762849 0.105180
Si Si8 0.670630 0.843025 0.957150
O O1 0.500000 0.884221 0.773210
O O2 0.759842 0.811445 0.787035
O O3 0.700428 0.909248 0.681712
O O4 0.732258 0.973347 0.804463
O O5 0.500000 0.756638 0.339518
O O6 0.267914 0.849666 0.329107
O O7 0.251541 0.722683 0.411020
O O8 0.500000 0.938238 0.314428
O O9 0.705872 0.919185 0.217191
O O10 0.843434 0.069147 0.596683
O O11 0.794173 0.203029 0.652516
O O12 0.000000 0.104629 0.703494
O O13 0.000000 0.008960 0.009445
O O14 0.705563 0.041896 0.045528
O O15 0.771273 0.921624 0.964930
O O16 0.704338 0.675042 0.085221
O O17 0.000000 0.636197 0.094779
O O18 0.500000 0.769088 0.139585
O O19 0.658926 0.811906 0.035033
O O20 0.500000 0.858415 0.932771
#
# Coordination Sequence:
#
# PCOD9351013 Si02
#       8
#     8   8   8   8   8   8   8   8
#     4  10  22  40  62  90 127 165 206 251 304 375
#     4  11  24  41  63  89 119 160 209 262 311 360
#     4  10  21  39  61  86 120 163 205 248 303 369
#     4  10  19  32  55  86 116 149 190 238 296 358
#     4  10  20  35  58  86 119 153 190 242 299 358
#     4  11  21  35  59  91 124 157 198 248 304 368
#     4  10  21  36  57  84 117 155 195 245 305 365
#     4  10  22  42  63  82 112 158 205 248 300 365
#
# _framework density 21.994624999999999
#
# number of rings (size 3 to 8) (size 9 to 14) (size 15 to 20)
#    0.000    1.750    1.250    3.000    0.000    7.000 
#    2.250    0.000    0.000    0.000    0.000    0.000 
#    0.000    0.000    0.000    0.000    0.000    0.000 
#
# Total GULP energy -178316.838475 kJ/mol
# GULP energy per Si atom -5572.401202 kJ/mol
# Density = 2.194456 g / cm^3
# Si number density = 21.994625 Si / 1000 Ang^3
#
#
#
# Elastic Constant Matrix: (Units=GPa)
#
#
# Indices 1 2 3 4 5 6 
#
# 1 51.8510 15.6926 3.2779 0.0000 0.0000 0.0000
# 2 15.6926 42.3488 -6.8461 0.0000 0.0000 0.0000
# 3 3.2779 -6.8461 24.4050 0.0000 0.0000 0.0000
# 4 0.0000 0.0000 0.0000 26.2838 0.0000 0.0000
# 5 0.0000 0.0000 0.0000 0.0000 20.0495 0.0000
# 6 0.0000 0.0000 0.0000 0.0000 0.0000 28.2352
#
#
#
# Elastic Compliance Matrix: (Units=1/GPa)
#
#
# Indices 1 2 3 4 5 6 
#
# 1 0.022429 -0.009216 -0.005598 0.000000 0.000000 0.000000
# 2 -0.009216 0.028522 0.009239 0.000000 0.000000 0.000000
# 3 -0.005598 0.009239 0.044319 0.000000 0.000000 0.000000
# 4 0.000000 0.000000 0.000000 0.038046 0.000000 0.000000
# 5 0.000000 0.000000 0.000000 0.000000 0.049877 0.000000
# 6 0.000000 0.000000 0.000000 0.000000 0.000000 0.035417
#
#
# Mechanical properties :
#
#
# Convention : Reuss Voigt Hill
#
# Bulk Modulus (GPa) = 11.88783 15.87262 13.88023
# Shear Modulus (GPa) = 19.39490 22.01240 20.70365
#
# Velocity S-wave (km/s) = 2.97274 3.16699 3.07140
# Velocity P-wave (km/s) = 4.14723 4.53931 4.34769
#
# Compressibility (1/GPa) = 0.08411962
#
# Stress axis : x y z
#
# Youngs Moduli (GPa) = 44.58483 35.06054 22.56385
#
# Poissons Ratio (x) = 0.32312 0.12631
# Poissons Ratio (y) = 0.41090 -0.20846
# Poissons Ratio (z) = 0.24958 -0.32392
#
# Static dielectric constant tensor:
#      x y z
#    x 1.813320 0.000000 0.000000 
#    y 0.000000 1.865920 0.000000 
#    z 0.000000 0.000000 1.819180 
# 
# From -- ./inp_files/15613.got.cif
#   From: 2010.05.17/outbox.cif.g08.bks.cpg/sg36_8_cif.got.tgz:15613.got - 2010.06.03 17:41:39.
