data_PCOD9351875
_publ_section_title
;
Structure prediction by ZEFSAII (Michael W. Deem and Ramdas Pophale) SiO2 
 PCOD9351875
Probable space group: C M C 21
;
_chemical_formula_sum "Si O2"
_cell_formula_units_Z 52
_cell_length_a 17.226040
_cell_length_b 17.858952
_cell_length_c 8.445710
_cell_angle_alpha 90.000000
_cell_angle_beta 90.000000
_cell_angle_gamma 90.000000
_cell_volume 2598.229960
_symmetry_space_group_name_H-M "C M C 21"
_symmetry_group_IT_number 36
_symmetry_cell_setting 'orthorhombic'
loop_
_space_group_symop_operation_xyz
x,y,z
-x,-y,1/2+z
x,-y,1/2+z
-x,y,z
1/2+x,1/2+y,z
1/2-x,1/2-y,1/2+z
1/2+x,1/2-y,1/2+z
1/2-x,1/2+y,z
loop_
_atom_site_type_symbol
_atom_site_label
_atom_site_fract_x
_atom_site_fract_y
_atom_site_fract_z
Si Si1 0.500000 0.101340 0.356971
Si Si2 0.331821 0.830698 0.853653
Si Si3 0.725756 0.969219 0.038207
Si Si4 0.500000 0.069121 0.732806
Si Si5 0.879505 0.940856 0.556638
Si Si6 0.269973 0.701059 0.054902
Si Si7 0.500000 0.515106 0.798683
Si Si8 0.664405 0.898742 0.359046
O O1 0.578196 0.148848 0.323419
O O2 0.500000 0.082394 0.544753
O O3 0.500000 0.020358 0.269830
O O4 0.292362 0.908585 0.904324
O O5 0.315248 0.774768 0.999829
O O6 0.287005 0.795707 0.704903
O O7 0.812985 0.997203 0.032332
O O8 0.672258 0.041138 0.001386
O O9 0.706490 0.934829 0.207588
O O10 0.424304 0.106878 0.809185
O O11 0.833923 0.863626 0.582115
O O12 0.932984 0.968171 0.699962
O O13 0.932523 0.940751 0.401011
O O14 0.211882 0.672918 0.915745
#
# Coordination Sequence:
#
# PCOD9351875 Si02
#       8
#     4   8   8   4   8   8   4   8
#     4  12  28  40  70 105 141 169 219 288 344 408
#     4  12  25  45  64  96 134 183 222 273 336 411
#     4  11  20  38  62  95 126 167 224 269 337 395
#     4  12  22  40  66 104 139 165 214 280 348 388
#     4  10  21  38  63  95 121 166 213 287 317 392
#     4  11  26  43  67  91 136 180 230 268 336 404
#     4  10  20  36  62  89 120 152 215 264 342 352
#     4  11  21  37  65  97 131 173 216 280 330 407
#
# _framework density 20.013625000000001
#
# number of rings (size 3 to 8) (size 9 to 14) (size 15 to 20)
#    0.000    0.923    3.077    5.538    2.154    1.231 
#    0.000    0.000    0.000    0.923    0.000    0.000 
#    0.000    0.000    0.000    0.000    0.000    0.000 
#
# Total GULP energy -144753.789364 kJ/mol
# GULP energy per Si atom -5567.453437 kJ/mol
# Density = 1.996807 g / cm^3
# Si number density = 20.013625 Si / 1000 Ang^3
#
#
#
# Elastic Constant Matrix: (Units=GPa)
#
#
# Indices 1 2 3 4 5 6 
#
# 1 156.7515 32.7589 26.3906 0.0000 0.0000 0.0000
# 2 32.7589 55.1600 7.6258 0.0000 0.0000 0.0000
# 3 26.3906 7.6258 65.1152 0.0000 0.0000 0.0000
# 4 0.0000 0.0000 0.0000 29.4356 0.0000 0.0000
# 5 0.0000 0.0000 0.0000 0.0000 22.4019 0.0000
# 6 0.0000 0.0000 0.0000 0.0000 0.0000 23.0299
#
#
#
# Elastic Compliance Matrix: (Units=1/GPa)
#
#
# Indices 1 2 3 4 5 6 
#
# 1 0.007702 -0.004211 -0.002628 0.000000 0.000000 0.000000
# 2 -0.004211 0.020730 -0.000721 0.000000 0.000000 0.000000
# 3 -0.002628 -0.000721 0.016507 0.000000 0.000000 0.000000
# 4 0.000000 0.000000 0.000000 0.033973 0.000000 0.000000
# 5 0.000000 0.000000 0.000000 0.000000 0.044639 0.000000
# 6 0.000000 0.000000 0.000000 0.000000 0.000000 0.043422
#
#
# Mechanical properties :
#
#
# Convention : Reuss Voigt Hill
#
# Bulk Modulus (GPa) = 33.53673 45.61971 39.57822
# Shear Modulus (GPa) = 26.03730 28.99021 27.51376
#
# Velocity S-wave (km/s) = 3.61082 3.81008 3.71179
# Velocity P-wave (km/s) = 5.84614 6.49611 6.17967
#
# Compressibility (1/GPa) = 0.02981805
#
# Stress axis : x y z
#
# Youngs Moduli (GPa) = 129.83565 48.24040 60.57988
#
# Poissons Ratio (x) = 0.20313 0.15923
# Poissons Ratio (y) = 0.54671 0.04368
# Poissons Ratio (z) = 0.34126 0.03479
#
# Static dielectric constant tensor:
#      x y z
#    x 1.700780 0.000000 0.000000 
#    y 0.000000 1.703290 0.000000 
#    z 0.000000 0.000000 1.762580 
# 
# From -- ./inp_files/4803.got.cif
#   From: 2010.05.17/outbox.cif.g08.bks.cpg/sg36_3_cif.got.tgz:4803.got - 2010.06.03 17:41:39.
