data_PCOD9351217
_publ_section_title
;
Structure prediction by ZEFSAII (Michael W. Deem and Ramdas Pophale) SiO2 
 PCOD9351217
Probable space group: C M C 21
;
_chemical_formula_sum "Si O2"
_cell_formula_units_Z 48
_cell_length_a 14.433097
_cell_length_b 11.658913
_cell_length_c 12.071005
_cell_angle_alpha 90.000000
_cell_angle_beta 90.000000
_cell_angle_gamma 90.000000
_cell_volume 2031.238978
_symmetry_space_group_name_H-M "C M C 21"
_symmetry_group_IT_number 36
_symmetry_cell_setting 'orthorhombic'
loop_
_space_group_symop_operation_xyz
x,y,z
-x,-y,1/2+z
x,-y,1/2+z
-x,y,z
1/2+x,1/2+y,z
1/2-x,1/2-y,1/2+z
1/2+x,1/2-y,1/2+z
1/2-x,1/2+y,z
loop_
_atom_site_type_symbol
_atom_site_label
_atom_site_fract_x
_atom_site_fract_y
_atom_site_fract_z
Si Si1 0.719929 0.461400 0.713370
Si Si2 0.602880 0.830681 0.072528
Si Si3 0.601499 0.914372 0.842904
Si Si4 0.892624 0.256017 0.311563
Si Si5 0.753423 0.150336 0.987889
Si Si6 0.606357 0.639948 0.805475
O O1 0.806593 0.466892 0.794986
O O2 0.652947 0.361063 0.762548
O O3 0.761417 0.427344 0.594731
O O4 0.661168 0.578267 0.706932
O O5 0.500000 0.772033 0.054569
O O6 0.608149 0.840180 0.204073
O O7 0.600592 0.925728 0.976429
O O8 0.692537 0.759401 0.038434
O O9 0.500000 0.952356 0.802891
O O10 0.609513 0.778194 0.810994
O O11 0.830572 0.305774 0.411423
O O12 0.000000 0.239056 0.343599
O O13 0.834420 0.097757 0.910573
O O14 0.500000 0.605216 0.807316
#
# Coordination Sequence:
#
# PCOD9351217 Si02
#       6
#     8   8   8   8   8   8
#     4  11  21  38  63  90 127 167 205 255 318 373
#     4   8  15  31  58  83 113 158 205 246 301 367
#     4   9  18  38  65  91 123 166 211 254 311 375
#     4  10  19  34  59  89 119 160 207 254 307 365
#     4  10  20  37  57  88 128 164 198 261 314 370
#     4  10  21  40  62  91 124 161 210 258 307 370
#
# _framework density 23.630897000000001
#
# number of rings (size 3 to 8) (size 9 to 14) (size 15 to 20)
#    0.000    2.333    3.333    2.000    0.000    2.667 
#    6.000    0.833    0.000    0.000    0.000    0.000 
#    0.000    0.000    0.000    0.000    0.000    0.000 
#
# Total GULP energy -133942.130173 kJ/mol
# GULP energy per Si atom -5580.922091 kJ/mol
# Density = 2.357711 g / cm^3
# Si number density = 23.630897 Si / 1000 Ang^3
#
#
#
# Elastic Constant Matrix: (Units=GPa)
#
#
# Indices 1 2 3 4 5 6 
#
# 1 228.4755 57.5996 84.5063 0.0000 0.0000 0.0000
# 2 57.5996 77.4989 33.7854 0.0000 0.0000 0.0000
# 3 84.5063 33.7854 81.9698 0.0000 0.0000 0.0000
# 4 0.0000 0.0000 0.0000 17.0389 0.0000 0.0000
# 5 0.0000 0.0000 0.0000 0.0000 40.0802 0.0000
# 6 0.0000 0.0000 0.0000 0.0000 0.0000 34.1983
#
#
#
# Elastic Compliance Matrix: (Units=1/GPa)
#
#
# Indices 1 2 3 4 5 6 
#
# 1 0.007508 -0.002689 -0.006632 0.000000 0.000000 0.000000
# 2 -0.002689 0.016693 -0.004108 0.000000 0.000000 0.000000
# 3 -0.006632 -0.004108 0.020730 0.000000 0.000000 0.000000
# 4 0.000000 0.000000 0.000000 0.058689 0.000000 0.000000
# 5 0.000000 0.000000 0.000000 0.000000 0.024950 0.000000
# 6 0.000000 0.000000 0.000000 0.000000 0.000000 0.029241
#
#
# Mechanical properties :
#
#
# Convention : Reuss Voigt Hill
#
# Bulk Modulus (GPa) = 55.33193 82.19186 68.76190
# Shear Modulus (GPa) = 26.22030 32.40035 29.31033
#
# Velocity S-wave (km/s) = 3.33465 3.70686 3.52567
# Velocity P-wave (km/s) = 6.18808 7.29233 6.76278
#
# Compressibility (1/GPa) = 0.01807275
#
# Stress axis : x y z
#
# Youngs Moduli (GPa) = 133.19958 59.90616 48.23989
#
# Poissons Ratio (x) = 0.16108 0.31991
# Poissons Ratio (y) = 0.35815 0.19818
# Poissons Ratio (z) = 0.88333 0.24611
#
# Static dielectric constant tensor:
#      x y z
#    x 1.864550 0.000000 0.000000 
#    y 0.000000 1.999210 0.000000 
#    z 0.000000 0.000000 1.964090 
# 
# From -- ./inp_files/8415.got.cif
#   From: 2010.05.17/outbox.cif.g08.bks.cpg/sg36_5_cif.got.tgz:8415.got - 2010.06.03 17:41:39.
