data_PCOD9351222
_publ_section_title
;
Structure prediction by ZEFSAII (Michael W. Deem and Ramdas Pophale) SiO2 
 PCOD9351222
Probable space group: C M C 21
;
_chemical_formula_sum "Si O2"
_cell_formula_units_Z 56
_cell_length_a 13.923420
_cell_length_b 33.126342
_cell_length_c 5.568233
_cell_angle_alpha 90.000000
_cell_angle_beta 90.000000
_cell_angle_gamma 90.000000
_cell_volume 2568.247091
_symmetry_space_group_name_H-M "C M C 21"
_symmetry_group_IT_number 36
_symmetry_cell_setting 'orthorhombic'
loop_
_space_group_symop_operation_xyz
x,y,z
-x,-y,1/2+z
x,-y,1/2+z
-x,y,z
1/2+x,1/2+y,z
1/2-x,1/2-y,1/2+z
1/2+x,1/2-y,1/2+z
1/2-x,1/2+y,z
loop_
_atom_site_type_symbol
_atom_site_label
_atom_site_fract_x
_atom_site_fract_y
_atom_site_fract_z
Si Si1 0.610951 0.669176 0.695580
Si Si2 0.782543 0.899697 0.900671
Si Si3 0.294855 0.162099 0.013167
Si Si4 0.693008 0.249022 0.030683
Si Si5 0.107131 0.403200 0.223692
Si Si6 0.853147 0.012946 0.376272
Si Si7 0.637261 0.018264 0.952564
O O1 0.500000 0.665305 0.765965
O O2 0.646758 0.630099 0.546529
O O3 0.688296 0.671475 0.910210
O O4 0.627232 0.711348 0.553651
O O5 0.728848 0.870366 0.715663
O O6 0.838010 0.939608 0.817414
O O7 0.694104 0.917178 0.055858
O O8 0.359680 0.140446 0.814003
O O9 0.344888 0.203901 0.084137
O O10 0.768516 0.253015 0.255023
O O11 0.112030 0.434788 0.442030
O O12 0.000000 0.403106 0.121951
O O13 0.897438 0.008069 0.642118
O O14 0.750870 0.990648 0.428567
O O15 0.601265 0.000091 0.700631
#
# Coordination Sequence:
#
# PCOD9351222 Si02
#       7
#     8   8   8   8   8   8   8
#     4  10  23  41  67 101 129 168 222 274 326 388
#     4  11  21  40  65  88 130 172 215 273 327 396
#     4  10  22  40  66  90 132 174 211 268 328 390
#     4  10  20  42  67  96 128 169 208 261 321 390
#     4  11  24  37  56  90 128 173 220 265 321 391
#     4  10  19  34  60  89 117 165 218 261 326 390
#     4  10  19  36  54  82 121 163 216 264 316 375
#
# _framework density 21.804756999999999
#
# number of rings (size 3 to 8) (size 9 to 14) (size 15 to 20)
#    0.000    1.714    4.286    1.714    2.000    2.286 
#    0.000    0.000    0.000    0.857    0.000    0.000 
#    0.000    0.000    0.000    0.000    0.000    0.000 
#
# Total GULP energy -156021.583534 kJ/mol
# GULP energy per Si atom -5572.199412 kJ/mol
# Density = 2.175513 g / cm^3
# Si number density = 21.804757 Si / 1000 Ang^3
#
#
#
# Elastic Constant Matrix: (Units=GPa)
#
#
# Indices 1 2 3 4 5 6 
#
# 1 109.0856 19.4043 2.7776 0.0000 0.0000 0.0000
# 2 19.4043 127.6653 14.3625 0.0000 0.0000 0.0000
# 3 2.7776 14.3625 85.4094 0.0000 0.0000 0.0000
# 4 0.0000 0.0000 0.0000 41.9662 0.0000 0.0000
# 5 0.0000 0.0000 0.0000 0.0000 -9.2409 0.0000
# 6 0.0000 0.0000 0.0000 0.0000 0.0000 -9.2072
#
#
#
# Elastic Compliance Matrix: (Units=1/GPa)
#
#
# Indices 1 2 3 4 5 6 
#
# 1 0.009422 -0.001425 -0.000067 0.000000 0.000000 0.000000
# 2 -0.001425 0.008199 -0.001332 0.000000 0.000000 0.000000
# 3 -0.000067 -0.001332 0.011935 0.000000 0.000000 0.000000
# 4 0.000000 0.000000 0.000000 0.023829 0.000000 0.000000
# 5 0.000000 0.000000 0.000000 0.000000 -0.108214 0.000000
# 6 0.000000 0.000000 0.000000 0.000000 0.000000 -0.108611
#
#
# Mechanical properties :
#
#
# Convention : Reuss Voigt Hill
#
# Bulk Modulus (GPa) = 41.82645 43.91656 42.87151
# Shear Modulus (GPa) = -33.37261 23.74468 -4.81397
#
# Velocity S-wave (km/s) = -3.91643 3.30353 -1.48746
# Velocity P-wave (km/s) = 1.10785 5.89369 4.09318
#
# Compressibility (1/GPa) = 0.02390831
#
# Stress axis : x y z
#
# Youngs Moduli (GPa) = 106.13206 121.95983 83.79027
#
# Poissons Ratio (x) = 0.17374 0.00560
# Poissons Ratio (y) = 0.15120 0.11165
# Poissons Ratio (z) = 0.00710 0.16251
#
# Static dielectric constant tensor:
#      x y z
#    x 1.769440 0.000000 0.000000 
#    y 0.000000 1.840570 0.000000 
#    z 0.000000 0.000000 1.880240 
# 
# From -- ./inp_files/945.got.cif
#   From: 2010.05.17/outbox.cif.g08.bks.cpg/sg36_1_cif.got.tgz:945.got - 2010.06.03 17:41:39.
