data_PCOD9351905
_publ_section_title
;
Structure prediction by ZEFSAII (Michael W. Deem and Ramdas Pophale) SiO2 
 PCOD9351905
Probable space group: C M C 21
;
_chemical_formula_sum "Si O2"
_cell_formula_units_Z 48
_cell_length_a 21.890848
_cell_length_b 9.625452
_cell_length_c 8.375949
_cell_angle_alpha 90.000000
_cell_angle_beta 90.000000
_cell_angle_gamma 90.000000
_cell_volume 1764.890406
_symmetry_space_group_name_H-M "C M C 21"
_symmetry_group_IT_number 36
_symmetry_cell_setting 'orthorhombic'
loop_
_space_group_symop_operation_xyz
x,y,z
-x,-y,1/2+z
x,-y,1/2+z
-x,y,z
1/2+x,1/2+y,z
1/2-x,1/2-y,1/2+z
1/2+x,1/2-y,1/2+z
1/2-x,1/2+y,z
loop_
_atom_site_type_symbol
_atom_site_label
_atom_site_fract_x
_atom_site_fract_y
_atom_site_fract_z
Si Si1 0.401406 0.470598 0.739500
Si Si2 0.594312 0.710874 0.537155
Si Si3 0.766094 0.044293 0.850980
Si Si4 0.742935 0.704965 0.545894
Si Si5 0.571021 0.028121 0.848278
Si Si6 0.925780 0.288727 0.051399
O O1 0.427644 0.379064 0.883272
O O2 0.428047 0.618853 0.686174
O O3 0.332720 0.503806 0.790901
O O4 0.404232 0.366630 0.587480
O O5 0.668674 0.712028 0.542463
O O6 0.574898 0.867496 0.501083
O O7 0.767140 0.143926 0.005012
O O8 0.737093 0.136878 0.711964
O O9 0.736221 0.902029 0.908177
O O10 0.500000 0.007616 0.812728
O O11 0.595556 0.877639 0.898821
O O12 0.596208 0.117596 0.702165
O O13 0.000000 0.284503 0.051175
#
# Coordination Sequence:
#
# PCOD9351905 Si02
#       6
#     8   8   8   8   8   8
#     4   9  19  35  54  79 113 148 183 228 278 332
#     4   9  19  35  53  81 111 144 184 226 277 333
#     4  10  20  37  58  82 112 148 192 239 288 342
#     4  10  20  37  58  81 111 147 188 237 290 341
#     4   9  18  34  55  80 112 146 184 228 272 325
#     4   9  18  34  56  83 115 149 185 226 273 327
#
# _framework density 27.197158000000002
#
# number of rings (size 3 to 8) (size 9 to 14) (size 15 to 20)
#    0.000    2.667    0.000    1.000    0.000    3.333 
#    0.000   20.000    0.000    0.000    0.000    0.000 
#    0.000    0.000    0.000    0.000    0.000    0.000 
#
# Total GULP energy -134336.384590 kJ/mol
# GULP energy per Si atom -5597.349358 kJ/mol
# Density = 2.713526 g / cm^3
# Si number density = 27.197158 Si / 1000 Ang^3
#
#
#
# Elastic Constant Matrix: (Units=GPa)
#
#
# Indices 1 2 3 4 5 6 
#
# 1 130.6545 5.3431 8.4310 0.0000 0.0000 0.0000
# 2 5.3431 168.9873 22.1474 0.0000 0.0000 0.0000
# 3 8.4310 22.1474 47.2783 0.0000 0.0000 0.0000
# 4 0.0000 0.0000 0.0000 80.6602 0.0000 0.0000
# 5 0.0000 0.0000 0.0000 0.0000 16.3409 0.0000
# 6 0.0000 0.0000 0.0000 0.0000 0.0000 26.2724
#
#
#
# Elastic Compliance Matrix: (Units=1/GPa)
#
#
# Indices 1 2 3 4 5 6 
#
# 1 0.007744 -0.000068 -0.001349 0.000000 0.000000 0.000000
# 2 -0.000068 0.006305 -0.002942 0.000000 0.000000 0.000000
# 3 -0.001349 -0.002942 0.022770 0.000000 0.000000 0.000000
# 4 0.000000 0.000000 0.000000 0.012398 0.000000 0.000000
# 5 0.000000 0.000000 0.000000 0.000000 0.061196 0.000000
# 6 0.000000 0.000000 0.000000 0.000000 0.000000 0.038063
#
#
# Mechanical properties :
#
#
# Convention : Reuss Voigt Hill
#
# Bulk Modulus (GPa) = 35.58526 46.52924 41.05725
# Shear Modulus (GPa) = 30.01928 45.38795 37.70362
#
# Velocity S-wave (km/s) = 3.32590 4.08959 3.72735
# Velocity P-wave (km/s) = 5.27839 6.28052 5.80113
#
# Compressibility (1/GPa) = 0.02810152
#
# Stress axis : x y z
#
# Youngs Moduli (GPa) = 129.13873 158.59745 43.91771
#
# Poissons Ratio (x) = 0.01079 0.05925
# Poissons Ratio (y) = 0.00879 0.12919
# Poissons Ratio (z) = 0.17421 0.46652
#
# Static dielectric constant tensor:
#      x y z
#    x 2.029160 0.000000 0.000000 
#    y 0.000000 2.051660 0.000000 
#    z 0.000000 0.000000 2.216820 
# 
# From -- ./inp_files/5986.got.cif
#   From: 2010.05.17/outbox.cif.g08.bks.cpg/sg36_3_cif.got.tgz:5986.got - 2010.06.03 17:41:39.
