data_PCOD9351668
_publ_section_title
;
Structure prediction by ZEFSAII (Michael W. Deem and Ramdas Pophale) SiO2 
 PCOD9351668
Probable space group: C M C 21
;
_chemical_formula_sum "Si O2"
_cell_formula_units_Z 48
_cell_length_a 7.920797
_cell_length_b 37.645754
_cell_length_c 7.125034
_cell_angle_alpha 90.000000
_cell_angle_beta 90.000000
_cell_angle_gamma 90.000000
_cell_volume 2124.573813
_symmetry_space_group_name_H-M "C M C 21"
_symmetry_group_IT_number 36
_symmetry_cell_setting 'orthorhombic'
loop_
_space_group_symop_operation_xyz
x,y,z
-x,-y,1/2+z
x,-y,1/2+z
-x,y,z
1/2+x,1/2+y,z
1/2-x,1/2-y,1/2+z
1/2+x,1/2-y,1/2+z
1/2-x,1/2+y,z
loop_
_atom_site_type_symbol
_atom_site_label
_atom_site_fract_x
_atom_site_fract_y
_atom_site_fract_z
Si Si1 0.000000 0.822424 0.451330
Si Si2 0.310741 0.948245 0.448313
Si Si3 0.689674 0.971178 0.882423
Si Si4 0.311303 0.199034 0.446261
Si Si5 0.000000 0.926715 0.953720
Si Si6 0.500000 0.403812 0.518850
Si Si7 0.500000 0.345437 0.018331
Si Si8 0.809739 0.277401 0.379904
O O1 0.000000 0.828927 0.226453
O O2 0.168779 0.799898 0.490249
O O3 0.000000 0.861628 0.533786
O O4 0.500000 0.937758 0.388238
O O5 0.317900 0.955618 0.672721
O O6 0.166970 0.919155 0.419162
O O7 0.266731 0.987185 0.368843
O O8 0.500000 0.969079 0.964022
O O9 0.832233 0.949507 0.991717
O O10 0.500000 0.188961 0.384483
O O11 0.254591 0.237054 0.365869
O O12 0.318997 0.206678 0.670572
O O13 0.167809 0.169545 0.418625
O O14 0.000000 0.919543 0.728896
O O15 0.000000 0.887566 0.037239
O O16 0.000000 0.277712 0.459061
#
# Coordination Sequence:
#
# PCOD9351668 Si02
#       8
#     4   8   8   8   4   4   4   8
#     4  10  22  37  51  76 109 138 172 216 263 311
#     4   9  18  33  53  77 104 134 172 215 256 303
#     4   9  18  33  53  77 104 134 172 215 256 303
#     4  10  20  35  56  79 103 132 170 216 263 313
#     4  10  21  35  51  74 106 140 174 212 256 307
#     4  10  21  35  51  74 106 140 174 212 256 307
#     4  10  22  37  51  76 109 138 172 216 263 311
#     4  10  20  35  56  79 103 132 170 216 263 313
#
# _framework density 22.592763999999999
#
# number of rings (size 3 to 8) (size 9 to 14) (size 15 to 20)
#    0.000    2.333    1.667    0.500    0.000    4.000 
#    0.000    0.000    0.000    0.000    0.000    0.000 
#    0.000    0.000    0.000    0.000    0.000    0.000 
#
# Total GULP energy -134197.284445 kJ/mol
# GULP energy per Si atom -5591.553519 kJ/mol
# Density = 2.254134 g / cm^3
# Si number density = 22.592764 Si / 1000 Ang^3
#
#
#
# Elastic Constant Matrix: (Units=GPa)
#
#
# Indices 1 2 3 4 5 6 
#
# 1 215.5351 120.3833 16.4850 0.0000 0.0000 0.0000
# 2 120.3833 146.0560 6.8258 0.0000 0.0000 0.0000
# 3 16.4850 6.8258 49.4525 0.0000 0.0000 0.0000
# 4 0.0000 0.0000 0.0000 17.4039 0.0000 0.0000
# 5 0.0000 0.0000 0.0000 0.0000 3.3092 0.0000
# 6 0.0000 0.0000 0.0000 0.0000 0.0000 140.0967
#
#
#
# Elastic Compliance Matrix: (Units=1/GPa)
#
#
# Indices 1 2 3 4 5 6 
#
# 1 0.008779 -0.007145 -0.001940 0.000000 0.000000 0.000000
# 2 -0.007145 0.012706 0.000628 0.000000 0.000000 0.000000
# 3 -0.001940 0.000628 0.020782 0.000000 0.000000 0.000000
# 4 0.000000 0.000000 0.000000 0.057458 0.000000 0.000000
# 5 0.000000 0.000000 0.000000 0.000000 0.302189 0.000000
# 6 0.000000 0.000000 0.000000 0.000000 0.000000 0.007138
#
#
# Mechanical properties :
#
#
# Convention : Reuss Voigt Hill
#
# Bulk Modulus (GPa) = 39.44430 77.60355 58.52392
# Shear Modulus (GPa) = 11.50968 49.98525 30.74746
#
# Velocity S-wave (km/s) = 2.25953 4.70877 3.69310
# Velocity P-wave (km/s) = 4.92991 7.99917 6.64420
#
# Compressibility (1/GPa) = 0.02535221
#
# Stress axis : x y z
#
# Youngs Moduli (GPa) = 113.91193 78.70033 48.11971
#
# Poissons Ratio (x) = 0.56231 0.09336
# Poissons Ratio (y) = 0.81390 -0.03022
# Poissons Ratio (z) = 0.22101 -0.04942
#
# Static dielectric constant tensor:
#      x y z
#    x 1.842150 0.000000 0.000000 
#    y 0.000000 1.753910 0.000000 
#    z 0.000000 0.000000 1.922700 
# 
# From -- ./inp_files/2770.got.cif
#   From: 2010.05.17/outbox.cif.g08.bks.cpg/sg36_2_cif.got.tgz:2770.got - 2010.06.03 17:41:39.
