data_PCOD9351278
_publ_section_title
;
Structure prediction by ZEFSAII (Michael W. Deem and Ramdas Pophale) SiO2 
 PCOD9351278
Probable space group: C M C 21
;
_chemical_formula_sum "Si O2"
_cell_formula_units_Z 64
_cell_length_a 8.122002
_cell_length_b 15.869355
_cell_length_c 24.440971
_cell_angle_alpha 90.000000
_cell_angle_beta 90.000000
_cell_angle_gamma 90.000000
_cell_volume 3150.219557
_symmetry_space_group_name_H-M "C M C 21"
_symmetry_group_IT_number 36
_symmetry_cell_setting 'orthorhombic'
loop_
_space_group_symop_operation_xyz
x,y,z
-x,-y,1/2+z
x,-y,1/2+z
-x,y,z
1/2+x,1/2+y,z
1/2-x,1/2-y,1/2+z
1/2+x,1/2-y,1/2+z
1/2-x,1/2+y,z
loop_
_atom_site_type_symbol
_atom_site_label
_atom_site_fract_x
_atom_site_fract_y
_atom_site_fract_z
Si Si1 0.698873 0.500345 0.231870
Si Si2 0.700709 0.097215 0.920185
Si Si3 0.697225 0.655084 0.305178
Si Si4 0.194536 0.009246 0.107191
Si Si5 0.300902 0.159148 0.801046
Si Si6 0.805527 0.346955 0.043078
Si Si7 0.698785 0.901000 0.923599
Si Si8 0.694447 0.834178 0.535422
O O1 0.500000 0.503802 0.231173
O O2 0.762081 0.576801 0.269864
O O3 0.756732 0.508885 0.169549
O O4 0.747509 0.412422 0.259191
O O5 0.500000 0.099217 0.921013
O O6 0.755778 0.134889 0.862397
O O7 0.748985 0.999241 0.923912
O O8 0.758777 0.146282 0.974047
O O9 0.500000 0.654979 0.298892
O O10 0.758267 0.746947 0.287226
O O11 0.734795 0.641713 0.368999
O O12 0.224023 0.918092 0.080321
O O13 0.000000 0.026470 0.107703
O O14 0.275534 0.082652 0.071226
O O15 0.500000 0.159917 0.802233
O O16 0.773606 0.250565 0.059039
O O17 0.000000 0.364130 0.043943
O O18 0.746464 0.359157 0.980342
O O19 0.500000 0.897929 0.921366
O O20 0.500000 0.819075 0.531922
#
# Coordination Sequence:
#
# PCOD9351278 Si02
#       8
#     8   8   8   8   8   8   8   8
#     4  10  23  41  58  82 117 151 194 248 294 340
#     4   9  17  33  57  86 120 152 187 234 289 354
#     4  10  21  37  58  87 118 151 190 238 294 351
#     4  11  24  42  61  84 118 161 206 252 298 350
#     4  10  20  36  60  86 115 154 194 230 286 353
#     4  11  23  40  61  89 122 157 199 248 299 355
#     4  10  19  35  59  87 119 153 191 238 290 350
#     4  11  22  40  64  91 123 157 195 244 300 361
#
# _framework density 20.316044999999999
#
# number of rings (size 3 to 8) (size 9 to 14) (size 15 to 20)
#    0.000    1.750    2.500    1.875    0.000    4.500 
#    0.000    2.500    0.000    0.000    0.000    0.000 
#    0.000    0.000    0.000    0.000    0.000    0.000 
#
# Total GULP energy -178813.580504 kJ/mol
# GULP energy per Si atom -5587.924391 kJ/mol
# Density = 2.026980 g / cm^3
# Si number density = 20.316045 Si / 1000 Ang^3
#
#
#
# Elastic Constant Matrix: (Units=GPa)
#
#
# Indices 1 2 3 4 5 6 
#
# 1 12.8271 -1.3675 0.6510 0.0000 0.0000 0.0000
# 2 -1.3675 103.6710 14.1213 0.0000 0.0000 0.0000
# 3 0.6510 14.1213 94.3223 0.0000 0.0000 0.0000
# 4 0.0000 0.0000 0.0000 0.0442 0.0000 0.0000
# 5 0.0000 0.0000 0.0000 0.0000 -4.7882 0.0000
# 6 0.0000 0.0000 0.0000 0.0000 0.0000 23.2351
#
#
#
# Elastic Compliance Matrix: (Units=1/GPa)
#
#
# Indices 1 2 3 4 5 6 
#
# 1 0.078116 0.001127 -0.000708 0.000000 0.000000 0.000000
# 2 0.001127 0.009863 -0.001484 0.000000 0.000000 0.000000
# 3 -0.000708 -0.001484 0.010829 0.000000 0.000000 0.000000
# 4 0.000000 0.000000 0.000000 22.621439 0.000000 0.000000
# 5 0.000000 0.000000 0.000000 0.000000 -0.208847 0.000000
# 6 0.000000 0.000000 0.000000 0.000000 0.000000 0.043038
#
#
# Mechanical properties :
#
#
# Convention : Reuss Voigt Hill
#
# Bulk Modulus (GPa) = 10.34369 26.40335 18.37352
# Shear Modulus (GPa) = 0.22135 16.85926 8.54030
#
# Velocity S-wave (km/s) = 0.33044 2.88384 2.05252
# Velocity P-wave (km/s) = 2.29086 4.91052 3.83153
#
# Compressibility (1/GPa) = 0.09667725
#
# Stress axis : x y z
#
# Youngs Moduli (GPa) = 12.80146 101.38949 92.34407
#
# Poissons Ratio (x) = -0.11425 0.06537
# Poissons Ratio (y) = -0.01442 0.13708
# Poissons Ratio (z) = 0.00906 0.15050
#
# Static dielectric constant tensor:
#      x y z
#    x 1.715200 0.000000 0.000000 
#    y 0.000000 1.706360 0.000000 
#    z 0.000000 0.000000 1.702770 
# 
# From -- ./inp_files/16548.got.cif
#   From: 2010.05.17/outbox.cif.g08.bks.cpg/sg36_9_cif.got.tgz:16548.got - 2010.06.03 17:41:39.
