data_PCOD9351182
_publ_section_title
;
Structure prediction by ZEFSAII (Michael W. Deem and Ramdas Pophale) SiO2 
 PCOD9351182
Probable space group: C M C 21
;
_chemical_formula_sum "Si O2"
_cell_formula_units_Z 64
_cell_length_a 8.644775
_cell_length_b 20.737978
_cell_length_c 20.256588
_cell_angle_alpha 90.000000
_cell_angle_beta 90.000000
_cell_angle_gamma 90.000000
_cell_volume 3631.502928
_symmetry_space_group_name_H-M "C M C 21"
_symmetry_group_IT_number 36
_symmetry_cell_setting 'orthorhombic'
loop_
_space_group_symop_operation_xyz
x,y,z
-x,-y,1/2+z
x,-y,1/2+z
-x,y,z
1/2+x,1/2+y,z
1/2-x,1/2-y,1/2+z
1/2+x,1/2-y,1/2+z
1/2-x,1/2+y,z
loop_
_atom_site_type_symbol
_atom_site_label
_atom_site_fract_x
_atom_site_fract_y
_atom_site_fract_z
Si Si1 0.185289 0.545365 0.647950
Si Si2 0.314795 0.832795 0.064557
Si Si3 0.687453 0.444879 0.828503
Si Si4 0.814639 0.089692 0.178578
Si Si5 0.685175 0.771528 0.666786
Si Si6 0.313331 0.727643 0.814853
Si Si7 0.685501 0.670975 0.418616
Si Si8 0.312797 0.583107 0.790868
O O1 0.231641 0.596703 0.592245
O O2 0.256768 0.474291 0.641613
O O3 0.243829 0.573636 0.717923
O O4 0.000000 0.540338 0.649485
O O5 0.500000 0.829763 0.064499
O O6 0.251972 0.779443 0.115151
O O7 0.252341 0.821998 0.991413
O O8 0.500000 0.443727 0.829738
O O9 0.733503 0.419822 0.755613
O O10 0.741670 0.395667 0.884189
O O11 0.734488 0.519753 0.832192
O O12 0.744978 0.156450 0.153617
O O13 0.000000 0.092270 0.176445
O O14 0.500000 0.769815 0.663796
O O15 0.731716 0.751862 0.741539
O O16 0.500000 0.732451 0.819982
O O17 0.237796 0.771792 0.870280
O O18 0.269244 0.652351 0.819628
O O19 0.500000 0.669741 0.421889
O O20 0.500000 0.582191 0.784319
#
# Coordination Sequence:
#
# PCOD9351182 Si02
#       8
#     8   8   8   8   8   8   8   8
#     4  10  20  34  54  82 113 146 187 239 287 337
#     4  11  24  40  57  80 115 156 196 240 293 347
#     4   8  16  31  53  80 107 139 181 228 274 328
#     4  10  19  34  57  84 115 147 185 234 286 341
#     4  11  21  35  58  88 117 149 192 241 289 343
#     4  10  20  34  56  85 117 149 186 237 290 344
#     4  11  22  37  57  81 113 152 196 239 286 347
#     4   9  17  33  56  82 111 144 185 232 283 339
#
# _framework density 17.623557000000002
#
# number of rings (size 3 to 8) (size 9 to 14) (size 15 to 20)
#    0.000    2.000    2.500    2.625    0.000    2.500 
#    0.000    1.875    0.000    4.500    0.000    0.000 
#    0.000    0.000    0.000    0.000    0.000    0.000 
#
# Total GULP energy -178589.647579 kJ/mol
# GULP energy per Si atom -5580.926487 kJ/mol
# Density = 1.758345 g / cm^3
# Si number density = 17.623557 Si / 1000 Ang^3
#
#
#
# Elastic Constant Matrix: (Units=GPa)
#
#
# Indices 1 2 3 4 5 6 
#
# 1 39.0510 40.6741 33.8567 0.0000 0.0000 0.0000
# 2 40.6741 160.5725 73.9023 0.0000 0.0000 0.0000
# 3 33.8567 73.9023 108.7079 0.0000 0.0000 0.0000
# 4 0.0000 0.0000 0.0000 25.0043 0.0000 0.0000
# 5 0.0000 0.0000 0.0000 0.0000 23.3266 0.0000
# 6 0.0000 0.0000 0.0000 0.0000 0.0000 26.1841
#
#
#
# Elastic Compliance Matrix: (Units=1/GPa)
#
#
# Indices 1 2 3 4 5 6 
#
# 1 0.038940 -0.006232 -0.007891 0.000000 0.000000 0.000000
# 2 -0.006232 0.010061 -0.004899 0.000000 0.000000 0.000000
# 3 -0.007891 -0.004899 0.014987 0.000000 0.000000 0.000000
# 4 0.000000 0.000000 0.000000 0.039993 0.000000 0.000000
# 5 0.000000 0.000000 0.000000 0.000000 0.042870 0.000000
# 6 0.000000 0.000000 0.000000 0.000000 0.000000 0.038191
#
#
# Mechanical properties :
#
#
# Convention : Reuss Voigt Hill
#
# Bulk Modulus (GPa) = 38.54422 67.24418 52.89420
# Shear Modulus (GPa) = 21.57652 25.56287 23.56970
#
# Velocity S-wave (km/s) = 3.50280 3.81267 3.66101
# Velocity P-wave (km/s) = 6.18690 7.59082 6.92453
#
# Compressibility (1/GPa) = 0.02594423
#
# Stress axis : x y z
#
# Youngs Moduli (GPa) = 25.68055 99.39452 66.72494
#
# Poissons Ratio (x) = 0.61942 0.52653
# Poissons Ratio (y) = 0.16004 0.32687
# Poissons Ratio (z) = 0.20265 0.48691
#
# Static dielectric constant tensor:
#      x y z
#    x 1.590340 0.000000 0.000000 
#    y 0.000000 1.613640 0.000000 
#    z 0.000000 0.000000 1.566980 
# 
# From -- ./inp_files/13819.got.cif
#   From: 2010.05.17/outbox.cif.g08.bks.cpg/sg36_7_cif.got.tgz:13819.got - 2010.06.03 17:41:39.
