data_PCOD9351848
_publ_section_title
;
Structure prediction by ZEFSAII (Michael W. Deem and Ramdas Pophale) SiO2 
 PCOD9351848
Probable space group: C M C 21
;
_chemical_formula_sum "Si O2"
_cell_formula_units_Z 56
_cell_length_a 17.061494
_cell_length_b 14.408069
_cell_length_c 11.893910
_cell_angle_alpha 90.000000
_cell_angle_beta 90.000000
_cell_angle_gamma 90.000000
_cell_volume 2923.798812
_symmetry_space_group_name_H-M "C M C 21"
_symmetry_group_IT_number 36
_symmetry_cell_setting 'orthorhombic'
loop_
_space_group_symop_operation_xyz
x,y,z
-x,-y,1/2+z
x,-y,1/2+z
-x,y,z
1/2+x,1/2+y,z
1/2-x,1/2-y,1/2+z
1/2+x,1/2-y,1/2+z
1/2-x,1/2+y,z
loop_
_atom_site_type_symbol
_atom_site_label
_atom_site_fract_x
_atom_site_fract_y
_atom_site_fract_z
Si Si1 0.908520 0.418266 0.518950
Si Si2 0.000000 0.066142 0.939832
Si Si3 0.410279 0.125084 0.448428
Si Si4 0.690345 0.862406 0.304127
Si Si5 0.334276 0.337099 0.706978
Si Si6 0.500000 0.562297 0.212258
Si Si7 0.339638 0.677675 0.954996
Si Si8 0.180547 0.568183 0.235287
O O1 0.903253 0.530853 0.519235
O O2 0.872360 0.379651 0.403857
O O3 0.854123 0.388945 0.621755
O O4 0.000000 0.393373 0.530309
O O5 0.921612 0.127512 0.929272
O O6 0.000000 0.030882 0.075400
O O7 0.000000 0.002725 0.825451
O O8 0.500000 0.156331 0.455882
O O9 0.356029 0.213030 0.470514
O O10 0.386417 0.090258 0.325411
O O11 0.667264 0.771499 0.235057
O O12 0.774063 0.843724 0.363151
O O13 0.693611 0.957578 0.234258
O O14 0.420419 0.378337 0.725099
O O15 0.314422 0.357353 0.577187
O O16 0.262992 0.386450 0.772072
#
# Coordination Sequence:
#
# PCOD9351848 Si02
#       8
#     8   4   8   8   8   4   8   8
#     4  10  22  39  60  86 122 155 201 256 310 369
#     4  10  22  42  68  89 126 170 216 263 312 375
#     4  10  20  36  60  88 116 158 201 249 307 370
#     4  11  23  38  62  90 122 161 204 253 317 373
#     4  11  23  40  62  88 125 163 204 261 312 375
#     4  10  24  44  64  95 128 168 214 263 318 377
#     4  11  20  39  62  88 124 162 209 256 310 377
#     4  11  21  39  60  87 120 158 202 255 309 369
#
# _framework density 19.153164
#
# number of rings (size 3 to 8) (size 9 to 14) (size 15 to 20)
#    0.000    1.429    3.571    2.143    1.000    0.571 
#    0.000    2.857    0.000    0.000    0.000    0.000 
#    0.000    0.000    0.000    0.000    0.000    0.000 
#
# Total GULP energy -155990.776431 kJ/mol
# GULP energy per Si atom -5571.099158 kJ/mol
# Density = 1.910957 g / cm^3
# Si number density = 19.153164 Si / 1000 Ang^3
#
#
#
# Elastic Constant Matrix: (Units=GPa)
#
#
# Indices 1 2 3 4 5 6 
#
# 1 110.3270 10.5722 23.4675 0.0000 0.0000 0.0000
# 2 10.5722 53.1384 11.2681 0.0000 0.0000 0.0000
# 3 23.4675 11.2681 58.4758 0.0000 0.0000 0.0000
# 4 0.0000 0.0000 0.0000 18.9491 0.0000 0.0000
# 5 0.0000 0.0000 0.0000 0.0000 16.0691 0.0000
# 6 0.0000 0.0000 0.0000 0.0000 0.0000 32.2066
#
#
#
# Elastic Compliance Matrix: (Units=1/GPa)
#
#
# Indices 1 2 3 4 5 6 
#
# 1 0.009981 -0.001185 -0.003777 0.000000 0.000000 0.000000
# 2 -0.001185 0.019761 -0.003332 0.000000 0.000000 0.000000
# 3 -0.003777 -0.003332 0.019259 0.000000 0.000000 0.000000
# 4 0.000000 0.000000 0.000000 0.052773 0.000000 0.000000
# 5 0.000000 0.000000 0.000000 0.000000 0.062231 0.000000
# 6 0.000000 0.000000 0.000000 0.000000 0.000000 0.031049
#
#
# Mechanical properties :
#
#
# Convention : Reuss Voigt Hill
#
# Bulk Modulus (GPa) = 30.85253 34.72855 32.79054
# Shear Modulus (GPa) = 22.47717 25.22053 23.84885
#
# Velocity S-wave (km/s) = 3.42943 3.63269 3.53252
# Velocity P-wave (km/s) = 5.64133 5.98052 5.81340
#
# Compressibility (1/GPa) = 0.03241225
#
# Stress axis : x y z
#
# Youngs Moduli (GPa) = 100.19083 50.60437 51.92346
#
# Poissons Ratio (x) = 0.05996 0.19613
# Poissons Ratio (y) = 0.11871 0.17303
# Poissons Ratio (z) = 0.37845 0.16864
#
# Static dielectric constant tensor:
#      x y z
#    x 1.632900 0.000000 0.000000 
#    y 0.000000 1.662600 0.000000 
#    z 0.000000 0.000000 1.704210 
# 
# From -- ./inp_files/8506.got.cif
#   From: 2010.05.17/outbox.cif.g08.bks.cpg/sg36_5_cif.got.tgz:8506.got - 2010.06.03 17:41:39.
