data_PCOD9351021
_publ_section_title
;
Structure prediction by ZEFSAII (Michael W. Deem and Ramdas Pophale) SiO2 
 PCOD9351021
Probable space group: C M C 21
;
_chemical_formula_sum "Si O2"
_cell_formula_units_Z 52
_cell_length_a 7.418116
_cell_length_b 14.901487
_cell_length_c 18.041230
_cell_angle_alpha 90.000000
_cell_angle_beta 90.000000
_cell_angle_gamma 90.000000
_cell_volume 1994.294868
_symmetry_space_group_name_H-M "C M C 21"
_symmetry_group_IT_number 36
_symmetry_cell_setting 'orthorhombic'
loop_
_space_group_symop_operation_xyz
x,y,z
-x,-y,1/2+z
x,-y,1/2+z
-x,y,z
1/2+x,1/2+y,z
1/2-x,1/2-y,1/2+z
1/2+x,1/2-y,1/2+z
1/2-x,1/2+y,z
loop_
_atom_site_type_symbol
_atom_site_label
_atom_site_fract_x
_atom_site_fract_y
_atom_site_fract_z
Si Si1 0.000000 0.359350 0.682461
Si Si2 0.795822 0.142093 0.380478
Si Si3 0.207348 0.738027 0.614471
Si Si4 0.216847 0.127881 0.985356
Si Si5 0.203660 0.501993 0.765699
Si Si6 0.795269 0.679497 0.820139
Si Si7 0.281212 0.565562 0.534886
O O1 0.842546 0.282514 0.671476
O O2 0.841342 0.438757 0.696236
O O3 0.802191 0.058958 0.325365
O O4 0.705301 0.224462 0.337228
O O5 0.716102 0.110999 0.457922
O O6 0.000000 0.170917 0.397898
O O7 0.263476 0.788197 0.537333
O O8 0.219544 0.631836 0.599460
O O9 0.000000 0.761759 0.629012
O O10 0.000000 0.124700 0.977499
O O11 0.277260 0.037540 0.027164
O O12 0.292558 0.136997 0.903056
O O13 0.280457 0.602181 0.766600
O O14 0.000000 0.513690 0.797288
O O15 0.000000 0.698256 0.793794
O O16 0.500000 0.564682 0.536548
#
# Coordination Sequence:
#
# PCOD9351021 Si02
#       7
#     4   8   8   8   8   8   8
#     4  10  24  46  64  82 126 172 218 262 302 364
#     4  10  19  32  59  92 121 153 196 255 317 374
#     4  11  23  41  65  90 121 171 212 254 310 378
#     4  10  21  34  57  95 128 155 197 255 321 376
#     4   9  21  39  58  81 116 163 203 250 306 364
#     4  10  19  33  57  89 122 154 197 246 310 379
#     4  10  19  35  59  94 131 158 193 260 326 373
#
# _framework density 26.074379
#
# number of rings (size 3 to 8) (size 9 to 14) (size 15 to 20)
#    0.462    1.538    3.846    0.000    1.077    2.462 
#    0.000    1.538    0.000    0.000    0.000    0.000 
#    0.000    0.000    0.000    0.000    0.000    0.000 
#
# Total GULP energy -144746.357259 kJ/mol
# GULP energy per Si atom -5567.167587 kJ/mol
# Density = 2.601503 g / cm^3
# Si number density = 26.074379 Si / 1000 Ang^3
#
#
#
# Elastic Constant Matrix: (Units=GPa)
#
#
# Indices 1 2 3 4 5 6 
#
# 1 105.8034 -11.1221 -4.1939 0.0000 0.0000 0.0000
# 2 -11.1221 129.9365 16.4897 0.0000 0.0000 0.0000
# 3 -4.1939 16.4897 109.9925 0.0000 0.0000 0.0000
# 4 0.0000 0.0000 0.0000 40.8365 0.0000 0.0000
# 5 0.0000 0.0000 0.0000 0.0000 7.7625 0.0000
# 6 0.0000 0.0000 0.0000 0.0000 0.0000 14.1873
#
#
#
# Elastic Compliance Matrix: (Units=1/GPa)
#
#
# Indices 1 2 3 4 5 6 
#
# 1 0.009544 0.000786 0.000246 0.000000 0.000000 0.000000
# 2 0.000786 0.007910 -0.001156 0.000000 0.000000 0.000000
# 3 0.000246 -0.001156 0.009274 0.000000 0.000000 0.000000
# 4 0.000000 0.000000 0.000000 0.024488 0.000000 0.000000
# 5 0.000000 0.000000 0.000000 0.000000 0.128824 0.000000
# 6 0.000000 0.000000 0.000000 0.000000 0.000000 0.070486
#
#
# Mechanical properties :
#
#
# Convention : Reuss Voigt Hill
#
# Bulk Modulus (GPa) = 37.76455 38.67555 38.22005
# Shear Modulus (GPa) = 19.26035 35.52784 27.39409
#
# Velocity S-wave (km/s) = 2.72080 3.69529 3.24483
# Velocity P-wave (km/s) = 4.93813 5.75081 5.35990
#
# Compressibility (1/GPa) = 0.02647986
#
# Stress axis : x y z
#
# Youngs Moduli (GPa) = 104.77967 126.42216 107.82600
#
# Poissons Ratio (x) = -0.09933 -0.02654
# Poissons Ratio (y) = -0.08232 0.12463
# Poissons Ratio (z) = -0.02579 0.14613
#
# Static dielectric constant tensor:
#      x y z
#    x 2.034580 0.000000 0.000000 
#    y 0.000000 2.084450 0.000000 
#    z 0.000000 0.000000 2.125910 
# 
# From -- ./inp_files/15365.got.cif
#   From: 2010.05.17/outbox.cif.g08.bks.cpg/sg36_8_cif.got.tgz:15365.got - 2010.06.03 17:41:39.
