data_PCOD9351697
_publ_section_title
;
Structure prediction by ZEFSAII (Michael W. Deem and Ramdas Pophale) SiO2 
 PCOD9351697
Probable space group: C M C 21
;
_chemical_formula_sum "Si O2"
_cell_formula_units_Z 64
_cell_length_a 7.882582
_cell_length_b 23.481170
_cell_length_c 16.498547
_cell_angle_alpha 90.000000
_cell_angle_beta 90.000000
_cell_angle_gamma 90.000000
_cell_volume 3053.753153
_symmetry_space_group_name_H-M "C M C 21"
_symmetry_group_IT_number 36
_symmetry_cell_setting 'orthorhombic'
loop_
_space_group_symop_operation_xyz
x,y,z
-x,-y,1/2+z
x,-y,1/2+z
-x,y,z
1/2+x,1/2+y,z
1/2-x,1/2-y,1/2+z
1/2+x,1/2-y,1/2+z
1/2-x,1/2+y,z
loop_
_atom_site_type_symbol
_atom_site_label
_atom_site_fract_x
_atom_site_fract_y
_atom_site_fract_z
Si Si1 0.192532 0.885246 0.793670
Si Si2 0.695398 0.961866 0.930200
Si Si3 0.296172 0.414351 0.102387
Si Si4 0.201403 0.796294 0.489355
Si Si5 0.305181 0.525890 0.173865
Si Si6 0.704580 0.784525 0.138727
Si Si7 0.699288 0.926449 0.506129
Si Si8 0.293935 0.741479 0.316646
O O1 0.191482 0.923598 0.873016
O O2 0.280433 0.926179 0.728670
O O3 0.267033 0.823942 0.812810
O O4 0.000000 0.872814 0.764410
O O5 0.500000 0.957875 0.903407
O O6 0.745263 0.028347 0.935845
O O7 0.712047 0.934789 0.019154
O O8 0.500000 0.420492 0.094373
O O9 0.236978 0.461718 0.167967
O O10 0.254973 0.349447 0.121155
O O11 0.264731 0.757301 0.565370
O O12 0.273725 0.860208 0.490689
O O13 0.235324 0.769203 0.400998
O O14 0.000000 0.801333 0.499926
O O15 0.500000 0.520482 0.202426
O O16 0.300654 0.552305 0.084306
O O17 0.500000 0.781005 0.138304
O O18 0.760316 0.768291 0.230180
O O19 0.500000 0.936711 0.522408
O O20 0.500000 0.743542 0.319576
#
# Coordination Sequence:
#
# PCOD9351697 Si02
#       8
#     8   8   8   8   8   8   8   8
#     4  10  20  36  58  82 110 144 183 229 281 333
#     4  10  21  36  55  81 112 145 182 227 280 336
#     4  10  20  35  57  84 112 145 187 230 275 331
#     4  11  23  39  60  84 113 152 194 238 287 337
#     4   9  19  36  57  82 112 144 180 227 281 335
#     4  10  22  40  60  82 115 156 191 232 288 342
#     4  10  21  37  57  82 111 145 186 229 278 337
#     4  10  22  39  58  83 115 151 191 234 284 343
#
# _framework density 20.957816000000001
#
# number of rings (size 3 to 8) (size 9 to 14) (size 15 to 20)
#    0.000    2.000    0.000    3.000    0.000    9.500 
#    0.000    3.750    0.000    0.000    0.000    0.000 
#    0.000    0.000    0.000    0.000    0.000    0.000 
#
# Total GULP energy -178479.854271 kJ/mol
# GULP energy per Si atom -5577.495446 kJ/mol
# Density = 2.091012 g / cm^3
# Si number density = 20.957816 Si / 1000 Ang^3
#
#
#
# Elastic Constant Matrix: (Units=GPa)
#
#
# Indices 1 2 3 4 5 6 
#
# 1 37.7777 3.1919 -0.1474 0.0000 0.0000 0.0000
# 2 3.1919 178.7327 46.7085 0.0000 0.0000 0.0000
# 3 -0.1474 46.7085 73.1809 0.0000 0.0000 0.0000
# 4 0.0000 0.0000 0.0000 32.0721 0.0000 0.0000
# 5 0.0000 0.0000 0.0000 0.0000 17.3029 0.0000
# 6 0.0000 0.0000 0.0000 0.0000 0.0000 -292.1957
#
#
#
# Elastic Compliance Matrix: (Units=1/GPa)
#
#
# Indices 1 2 3 4 5 6 
#
# 1 0.026522 -0.000585 0.000427 0.000000 0.000000 0.000000
# 2 -0.000585 0.006728 -0.004295 0.000000 0.000000 0.000000
# 3 0.000427 -0.004295 0.016407 0.000000 0.000000 0.000000
# 4 0.000000 0.000000 0.000000 0.031180 0.000000 0.000000
# 5 0.000000 0.000000 0.000000 0.000000 0.057794 0.000000
# 6 0.000000 0.000000 0.000000 0.000000 0.000000 -0.003422
#
#
# Mechanical properties :
#
#
# Convention : Reuss Voigt Hill
#
# Bulk Modulus (GPa) = 24.54010 43.24413 33.89212
# Shear Modulus (GPa) = 31.70610 -32.56824 -0.43107
#
# Velocity S-wave (km/s) = 3.89376 -3.94635 -0.45402
# Velocity P-wave (km/s) = 5.65242 0.29354 3.99147
#
# Compressibility (1/GPa) = 0.04074963
#
# Stress axis : x y z
#
# Youngs Moduli (GPa) = 37.70487 148.63475 60.94894
#
# Poissons Ratio (x) = 0.08698 -0.02602
# Poissons Ratio (y) = 0.02207 0.26180
# Poissons Ratio (z) = -0.01610 0.63844
#
# Static dielectric constant tensor:
#      x y z
#    x 1.737150 0.000000 0.000000 
#    y 0.000000 1.752150 0.000000 
#    z 0.000000 0.000000 1.769810 
# 
# From -- ./inp_files/13794.got.cif
#   From: 2010.05.17/outbox.cif.g08.bks.cpg/sg36_7_cif.got.tgz:13794.got - 2010.06.03 17:41:39.
