data_PCOD9351932
_publ_section_title
;
Structure prediction by ZEFSAII (Michael W. Deem and Ramdas Pophale) SiO2 
 PCOD9351932
Probable space group: C M C 21
;
_chemical_formula_sum "Si O2"
_cell_formula_units_Z 64
_cell_length_a 9.150428
_cell_length_b 27.021088
_cell_length_c 13.191749
_cell_angle_alpha 90.000000
_cell_angle_beta 90.000000
_cell_angle_gamma 90.000000
_cell_volume 3261.719570
_symmetry_space_group_name_H-M "C M C 21"
_symmetry_group_IT_number 36
_symmetry_cell_setting 'orthorhombic'
loop_
_space_group_symop_operation_xyz
x,y,z
-x,-y,1/2+z
x,-y,1/2+z
-x,y,z
1/2+x,1/2+y,z
1/2-x,1/2-y,1/2+z
1/2+x,1/2-y,1/2+z
1/2-x,1/2+y,z
loop_
_atom_site_type_symbol
_atom_site_label
_atom_site_fract_x
_atom_site_fract_y
_atom_site_fract_z
Si Si1 0.335459 0.052210 0.721060
Si Si2 0.324564 0.304323 0.080086
Si Si3 0.164163 0.494269 0.928482
Si Si4 0.670399 0.473282 0.607833
Si Si5 0.673754 0.123302 0.422067
Si Si6 0.676562 0.877122 0.691943
Si Si7 0.823044 0.305235 0.508663
Si Si8 0.175669 0.335529 0.282893
O O1 0.500000 0.054582 0.677053
O O2 0.298781 0.106577 0.759889
O O3 0.338458 0.015438 0.816057
O O4 0.223113 0.027126 0.645480
O O5 0.500000 0.308319 0.085034
O O6 0.257022 0.307343 0.192480
O O7 0.259341 0.347224 0.008413
O O8 0.284745 0.251437 0.031168
O O9 0.195884 0.435916 0.928313
O O10 0.000000 0.502295 0.970799
O O11 0.278263 0.526097 0.991976
O O12 0.500000 0.466743 0.620832
O O13 0.755355 0.430213 0.666281
O O14 0.500000 0.132214 0.435037
O O15 0.715883 0.138513 0.306809
O O16 0.500000 0.881356 0.690068
O O17 0.724389 0.839836 0.602581
O O18 0.774712 0.322059 0.396673
O O19 0.000000 0.308631 0.507789
O O20 0.000000 0.327054 0.276696
#
# Coordination Sequence:
#
# PCOD9351932 Si02
#       8
#     8   8   8   8   8   8   8   8
#     4  10  20  38  62  85 111 156 207 246 283 339
#     4  11  24  40  61  91 126 160 194 246 317 369
#     4  10  20  37  60  85 114 157 209 247 282 340
#     4  12  24  35  54  89 129 161 189 237 308 363
#     4  10  21  38  64  93 119 157 208 255 294 351
#     4  10  20  41  67  89 117 159 215 255 289 352
#     4   9  21  41  66  91 116 156 204 256 306 355
#     4  10  21  40  64  89 118 156 208 254 295 355
#
# _framework density 19.621552999999999
#
# number of rings (size 3 to 8) (size 9 to 14) (size 15 to 20)
#    0.000    1.750    1.250    3.000    1.750    7.000 
#    0.000    3.750    0.000    0.000    0.000    0.000 
#    0.000    0.000    0.000    0.000    0.000    0.000 
#
# Total GULP energy -178704.437828 kJ/mol
# GULP energy per Si atom -5584.513682 kJ/mol
# Density = 1.957689 g / cm^3
# Si number density = 19.621553 Si / 1000 Ang^3
#
#
#
# Elastic Constant Matrix: (Units=GPa)
#
#
# Indices 1 2 3 4 5 6 
#
# 1 28.2997 16.6482 23.0404 0.0000 0.0000 0.0000
# 2 16.6482 65.6698 20.6410 0.0000 0.0000 0.0000
# 3 23.0404 20.6410 109.8162 0.0000 0.0000 0.0000
# 4 0.0000 0.0000 0.0000 32.8966 0.0000 0.0000
# 5 0.0000 0.0000 0.0000 0.0000 9.9088 0.0000
# 6 0.0000 0.0000 0.0000 0.0000 0.0000 11.8509
#
#
#
# Elastic Compliance Matrix: (Units=1/GPa)
#
#
# Indices 1 2 3 4 5 6 
#
# 1 0.047596 -0.009488 -0.008203 0.000000 0.000000 0.000000
# 2 -0.009488 0.018075 -0.001407 0.000000 0.000000 0.000000
# 3 -0.008203 -0.001407 0.011092 0.000000 0.000000 0.000000
# 4 0.000000 0.000000 0.000000 0.030398 0.000000 0.000000
# 5 0.000000 0.000000 0.000000 0.000000 0.100920 0.000000
# 6 0.000000 0.000000 0.000000 0.000000 0.000000 0.084381
#
#
# Mechanical properties :
#
#
# Convention : Reuss Voigt Hill
#
# Bulk Modulus (GPa) = 25.92837 36.04944 30.98890
# Shear Modulus (GPa) = 14.55547 20.49502 17.52524
#
# Velocity S-wave (km/s) = 2.72657 3.23540 2.99183
# Velocity P-wave (km/s) = 4.81198 5.68941 5.26899
#
# Compressibility (1/GPa) = 0.03856780
#
# Stress axis : x y z
#
# Youngs Moduli (GPa) = 21.01024 55.32444 90.15884
#
# Poissons Ratio (x) = 0.52492 0.73955
# Poissons Ratio (y) = 0.19934 0.12683
# Poissons Ratio (z) = 0.17234 0.07783
#
# Static dielectric constant tensor:
#      x y z
#    x 1.664490 0.000000 0.000000 
#    y 0.000000 1.676700 0.000000 
#    z 0.000000 0.000000 1.716040 
# 
# From -- ./inp_files/7115.got.cif
#   From: 2010.05.17/outbox.cif.g08.bks.cpg/sg36_4_cif.got.tgz:7115.got - 2010.06.03 17:41:39.
