data_PCOD9351938
_publ_section_title
;
Structure prediction by ZEFSAII (Michael W. Deem and Ramdas Pophale) SiO2 
 PCOD9351938
Probable space group: C M C 21
;
_chemical_formula_sum "Si O2"
_cell_formula_units_Z 48
_cell_length_a 7.627618
_cell_length_b 28.265134
_cell_length_c 10.413971
_cell_angle_alpha 90.000000
_cell_angle_beta 90.000000
_cell_angle_gamma 90.000000
_cell_volume 2245.206793
_symmetry_space_group_name_H-M "C M C 21"
_symmetry_group_IT_number 36
_symmetry_cell_setting 'orthorhombic'
loop_
_space_group_symop_operation_xyz
x,y,z
-x,-y,1/2+z
x,-y,1/2+z
-x,y,z
1/2+x,1/2+y,z
1/2-x,1/2-y,1/2+z
1/2+x,1/2-y,1/2+z
1/2-x,1/2+y,z
loop_
_atom_site_type_symbol
_atom_site_label
_atom_site_fract_x
_atom_site_fract_y
_atom_site_fract_z
Si Si1 0.787357 0.291344 0.740400
Si Si2 0.290936 0.316439 0.231594
Si Si3 0.203988 0.534839 0.379721
Si Si4 0.210960 0.357608 0.508195
Si Si5 0.215810 0.462195 0.592181
Si Si6 0.293486 0.361708 0.970055
O O1 0.723470 0.237371 0.740082
O O2 0.727231 0.319644 0.613823
O O3 0.732078 0.320410 0.865832
O O4 0.000000 0.290953 0.739867
O O5 0.500000 0.312606 0.212276
O O6 0.260066 0.342902 0.364943
O O7 0.222016 0.344347 0.107386
O O8 0.277225 0.501490 0.491294
O O9 0.278789 0.528820 0.237081
O O10 0.212847 0.589671 0.419136
O O11 0.000000 0.521341 0.369793
O O12 0.270499 0.410008 0.546783
O O13 0.000000 0.357826 0.514762
O O14 0.000000 0.462335 0.595826
O O15 0.500000 0.371152 0.982886
#
# Coordination Sequence:
#
# PCOD9351938 Si02
#       6
#     8   8   8   8   8   8
#     4  10  20  39  62  82 112 152 194 239 286 337
#     4  10  23  38  55  84 119 154 190 233 284 342
#     4  10  20  38  61  86 114 147 190 240 286 335
#     4  10  20  37  60  86 113 148 191 239 288 337
#     4   9  19  35  60  87 110 142 189 238 283 332
#     4  11  23  39  58  85 120 155 190 233 287 347
#
# _framework density 21.378876999999999
#
# number of rings (size 3 to 8) (size 9 to 14) (size 15 to 20)
#    0.000    2.000    1.667    1.500    2.333    4.000 
#    0.000    1.667    0.000    0.000    0.000    0.000 
#    0.000    0.000    0.000    0.000    0.000    0.000 
#
# Total GULP energy -134130.968810 kJ/mol
# GULP energy per Si atom -5588.790367 kJ/mol
# Density = 2.133022 g / cm^3
# Si number density = 21.378877 Si / 1000 Ang^3
#
#
#
# Elastic Constant Matrix: (Units=GPa)
#
#
# Indices 1 2 3 4 5 6 
#
# 1 38.2111 -3.9912 -7.4921 0.0000 0.0000 0.0000
# 2 -3.9912 121.1398 96.6656 0.0000 0.0000 0.0000
# 3 -7.4921 96.6656 227.1406 0.0000 0.0000 0.0000
# 4 0.0000 0.0000 0.0000 45.5681 0.0000 0.0000
# 5 0.0000 0.0000 0.0000 0.0000 37.0514 0.0000
# 6 0.0000 0.0000 0.0000 0.0000 0.0000 10.5168
#
#
#
# Elastic Compliance Matrix: (Units=1/GPa)
#
#
# Indices 1 2 3 4 5 6 
#
# 1 0.026346 0.000264 0.000757 0.000000 0.000000 0.000000
# 2 0.000264 0.012502 -0.005312 0.000000 0.000000 0.000000
# 3 0.000757 -0.005312 0.006688 0.000000 0.000000 0.000000
# 4 0.000000 0.000000 0.000000 0.021945 0.000000 0.000000
# 5 0.000000 0.000000 0.000000 0.000000 0.026990 0.000000
# 6 0.000000 0.000000 0.000000 0.000000 0.000000 0.095086
#
#
# Mechanical properties :
#
#
# Convention : Reuss Voigt Hill
#
# Bulk Modulus (GPa) = 27.06018 61.87289 44.46654
# Shear Modulus (GPa) = 23.75772 38.71456 31.23614
#
# Velocity S-wave (km/s) = 3.33719 4.26006 3.82655
# Velocity P-wave (km/s) = 5.24729 7.29393 6.35356
#
# Compressibility (1/GPa) = 0.03695466
#
# Stress axis : x y z
#
# Youngs Moduli (GPa) = 37.95596 79.98429 149.51742
#
# Poissons Ratio (x) = -0.02114 -0.11311
# Poissons Ratio (y) = -0.01003 0.79424
# Poissons Ratio (z) = -0.02871 0.42488
#
# Static dielectric constant tensor:
#      x y z
#    x 1.807390 0.000000 0.000000 
#    y 0.000000 1.728740 0.000000 
#    z 0.000000 0.000000 1.748530 
# 
# From -- ./inp_files/2672.got.cif
#   From: 2010.05.17/outbox.cif.g08.bks.cpg/sg36_2_cif.got.tgz:2672.got - 2010.06.03 17:41:39.
