data_PCOD9351812
_publ_section_title
;
Structure prediction by ZEFSAII (Michael W. Deem and Ramdas Pophale) SiO2 
 PCOD9351812
Probable space group: C M C 21
;
_chemical_formula_sum "Si O2"
_cell_formula_units_Z 64
_cell_length_a 8.681090
_cell_length_b 27.114081
_cell_length_c 13.347847
_cell_angle_alpha 90.000000
_cell_angle_beta 90.000000
_cell_angle_gamma 90.000000
_cell_volume 3141.813256
_symmetry_space_group_name_H-M "C M C 21"
_symmetry_group_IT_number 36
_symmetry_cell_setting 'orthorhombic'
loop_
_space_group_symop_operation_xyz
x,y,z
-x,-y,1/2+z
x,-y,1/2+z
-x,y,z
1/2+x,1/2+y,z
1/2-x,1/2-y,1/2+z
1/2+x,1/2-y,1/2+z
1/2-x,1/2+y,z
loop_
_atom_site_type_symbol
_atom_site_label
_atom_site_fract_x
_atom_site_fract_y
_atom_site_fract_z
Si Si1 0.824438 0.238296 0.457380
Si Si2 0.315464 0.589878 0.083652
Si Si3 0.324036 0.808073 0.645194
Si Si4 0.687775 0.552797 0.866537
Si Si5 0.185374 0.223972 0.774164
Si Si6 0.186816 0.121381 0.678979
Si Si7 0.686467 0.556175 0.300347
Si Si8 0.183024 0.629850 0.464169
O O1 0.829946 0.264152 0.564755
O O2 0.743916 0.278412 0.386552
O O3 0.736671 0.186689 0.460302
O O4 0.000000 0.229426 0.425381
O O5 0.500000 0.585559 0.079871
O O6 0.269986 0.646143 0.105375
O O7 0.263824 0.561096 0.184118
O O8 0.256826 0.571707 0.975272
O O9 0.500000 0.824498 0.665678
O O10 0.258178 0.777975 0.738973
O O11 0.500000 0.554611 0.868311
O O12 0.733456 0.586281 0.771321
O O13 0.733108 0.496537 0.845531
O O14 0.235119 0.176873 0.710407
O O15 0.000000 0.225056 0.771077
O O16 0.254039 0.108956 0.570292
O O17 0.000000 0.120447 0.671319
O O18 0.500000 0.558970 0.302245
O O19 0.750865 0.599509 0.370248
O O20 0.000000 0.627491 0.462398
#
# Coordination Sequence:
#
# PCOD9351812 Si02
#       8
#     8   8   8   8   8   8   8   8
#     4  11  22  38  59  86 119 161 207 247 295 355
#     4  10  21  38  61  93 123 154 202 253 302 366
#     4  10  21  37  56  82 119 161 194 231 294 354
#     4   9  20  38  66  96 119 153 204 257 308 363
#     4  10  20  36  58  88 124 159 196 243 302 359
#     4  10  20  39  65  92 126 164 202 253 309 365
#     4  10  22  40  65  93 120 157 204 258 311 367
#     4  12  25  40  60  90 126 165 209 256 307 365
#
# _framework density 20.370401999999999
#
# number of rings (size 3 to 8) (size 9 to 14) (size 15 to 20)
#    0.000    1.750    1.250    3.000    1.750    5.500 
#    0.000    1.875    0.000    0.000    0.000    0.000 
#    0.000    0.000    0.000    0.000    0.000    0.000 
#
# Total GULP energy -178636.661289 kJ/mol
# GULP energy per Si atom -5582.395665 kJ/mol
# Density = 2.032404 g / cm^3
# Si number density = 20.370402 Si / 1000 Ang^3
#
#
#
# Elastic Constant Matrix: (Units=GPa)
#
#
# Indices 1 2 3 4 5 6 
#
# 1 17.5197 14.5403 20.5947 0.0000 0.0000 0.0000
# 2 14.5403 70.9322 21.8447 0.0000 0.0000 0.0000
# 3 20.5947 21.8447 98.4161 0.0000 0.0000 0.0000
# 4 0.0000 0.0000 0.0000 32.3571 0.0000 0.0000
# 5 0.0000 0.0000 0.0000 0.0000 19.4677 0.0000
# 6 0.0000 0.0000 0.0000 0.0000 0.0000 16.2820
#
#
#
# Elastic Compliance Matrix: (Units=1/GPa)
#
#
# Indices 1 2 3 4 5 6 
#
# 1 0.085425 -0.012887 -0.015016 0.000000 0.000000 0.000000
# 2 -0.012887 0.017076 -0.001094 0.000000 0.000000 0.000000
# 3 -0.015016 -0.001094 0.013546 0.000000 0.000000 0.000000
# 4 0.000000 0.000000 0.000000 0.030905 0.000000 0.000000
# 5 0.000000 0.000000 0.000000 0.000000 0.051367 0.000000
# 6 0.000000 0.000000 0.000000 0.000000 0.000000 0.061418
#
#
# Mechanical properties :
#
#
# Convention : Reuss Voigt Hill
#
# Bulk Modulus (GPa) = 17.22504 33.42527 25.32516
# Shear Modulus (GPa) = 14.83323 22.28059 18.55691
#
# Velocity S-wave (km/s) = 2.70140 3.31081 3.02151
# Velocity P-wave (km/s) = 4.26666 5.57312 4.96306
#
# Compressibility (1/GPa) = 0.05805501
#
# Stress axis : x y z
#
# Youngs Moduli (GPa) = 11.70618 58.56038 73.82308
#
# Poissons Ratio (x) = 0.75465 1.10851
# Poissons Ratio (y) = 0.15085 0.08074
# Poissons Ratio (z) = 0.17578 0.06404
#
# Static dielectric constant tensor:
#      x y z
#    x 1.700020 0.000000 0.000000 
#    y 0.000000 1.709990 0.000000 
#    z 0.000000 0.000000 1.739260 
# 
# From -- ./inp_files/7188.got.cif
#   From: 2010.05.17/outbox.cif.g08.bks.cpg/sg36_4_cif.got.tgz:7188.got - 2010.06.03 17:41:39.
