data_PCOD9351099
_publ_section_title
;
Structure prediction by ZEFSAII (Michael W. Deem and Ramdas Pophale) SiO2 
 PCOD9351099
Probable space group: C M C 21
;
_chemical_formula_sum "Si O2"
_cell_formula_units_Z 32
_cell_length_a 5.633861
_cell_length_b 24.244787
_cell_length_c 8.520202
_cell_angle_alpha 90.000000
_cell_angle_beta 90.000000
_cell_angle_gamma 90.000000
_cell_volume 1163.789386
_symmetry_space_group_name_H-M "C M C 21"
_symmetry_group_IT_number 36
_symmetry_cell_setting 'orthorhombic'
loop_
_space_group_symop_operation_xyz
x,y,z
-x,-y,1/2+z
x,-y,1/2+z
-x,y,z
1/2+x,1/2+y,z
1/2-x,1/2-y,1/2+z
1/2+x,1/2-y,1/2+z
1/2-x,1/2+y,z
loop_
_atom_site_type_symbol
_atom_site_label
_atom_site_fract_x
_atom_site_fract_y
_atom_site_fract_z
Si Si1 0.500000 0.126416 0.073700
Si Si2 0.500000 0.096370 0.703793
Si Si3 0.000000 0.524751 0.316420
Si Si4 0.000000 0.777609 0.313965
Si Si5 0.000000 0.773718 0.937198
Si Si6 0.500000 0.515454 0.321202
Si Si7 0.500000 0.364406 0.693672
Si Si8 0.000000 0.889808 0.194179
O O1 0.500000 0.074109 0.192421
O O2 0.250180 0.153724 0.119122
O O3 0.500000 0.112872 0.889087
O O4 0.738251 0.117647 0.624021
O O5 0.500000 0.030876 0.716165
O O6 0.750608 0.522970 0.407049
O O7 0.250191 0.753343 0.377572
O O8 0.000000 0.844085 0.330510
O O9 0.000000 0.772049 0.124606
O O10 0.000000 0.834882 0.862166
O O11 0.500000 0.568122 0.202441
O O12 0.500000 0.452932 0.257999
#
# Coordination Sequence:
#
# PCOD9351099 Si02
#       8
#     4   4   4   4   4   4   4   4
#     4  10  19  33  56  87 127 173 223 280 345 416
#     4  10  19  33  56  87 127 173 223 280 345 416
#     4   8  16  30  46  78 120 164 216 260 324 406
#     4  12  28  50  77 109 147 194 250 311 371 436
#     4  12  28  50  77 109 147 194 250 311 371 436
#     4   8  16  34  56  84 126 166 214 276 346 412
#     4  10  21  39  63  95 130 171 225 280 348 423
#     4  10  21  39  63  95 130 171 225 280 348 423
#
# _framework density 27.496382000000001
#
# number of rings (size 3 to 8) (size 9 to 14) (size 15 to 20)
#    0.000    2.000    0.000    3.000    0.000    6.000 
#    0.000   22.500    0.000    0.000    0.000    0.000 
#    0.000    0.000    0.000    0.000    0.000    0.000 
#
# Total GULP energy -89410.061310 kJ/mol
# GULP energy per Si atom -5588.128832 kJ/mol
# Density = 2.743380 g / cm^3
# Si number density = 27.496382 Si / 1000 Ang^3
#
#
#
# Elastic Constant Matrix: (Units=GPa)
#
#
# Indices 1 2 3 4 5 6 
#
# 1 371.9046 37.4258 81.8625 0.0000 0.0000 0.0000
# 2 37.4258 110.4935 41.7851 0.0000 0.0000 0.0000
# 3 81.8625 41.7851 158.3406 0.0000 0.0000 0.0000
# 4 0.0000 0.0000 0.0000 37.0336 0.0000 0.0000
# 5 0.0000 0.0000 0.0000 0.0000 28.8007 0.0000
# 6 0.0000 0.0000 0.0000 0.0000 0.0000 31.8020
#
#
#
# Elastic Compliance Matrix: (Units=1/GPa)
#
#
# Indices 1 2 3 4 5 6 
#
# 1 0.003058 -0.000486 -0.001452 0.000000 0.000000 0.000000
# 2 -0.000486 0.010131 -0.002422 0.000000 0.000000 0.000000
# 3 -0.001452 -0.002422 0.007706 0.000000 0.000000 0.000000
# 4 0.000000 0.000000 0.000000 0.027002 0.000000 0.000000
# 5 0.000000 0.000000 0.000000 0.000000 0.034721 0.000000
# 6 0.000000 0.000000 0.000000 0.000000 0.000000 0.031445
#
#
# Mechanical properties :
#
#
# Convention : Reuss Voigt Hill
#
# Bulk Modulus (GPa) = 82.15290 106.98728 94.57009
# Shear Modulus (GPa) = 39.41926 51.50496 45.46211
#
# Velocity S-wave (km/s) = 3.79042 4.33269 4.07060
# Velocity P-wave (km/s) = 7.00706 8.00148 7.52073
#
# Compressibility (1/GPa) = 0.01217242
#
# Stress axis : x y z
#
# Youngs Moduli (GPa) = 327.06442 98.70707 129.77666
#
# Poissons Ratio (x) = 0.04801 0.18849
# Poissons Ratio (y) = 0.15908 0.31432
# Poissons Ratio (z) = 0.47502 0.23907
#
# Static dielectric constant tensor:
#      x y z
#    x 2.249760 0.000000 0.000000 
#    y 0.000000 2.162630 0.000000 
#    z 0.000000 0.000000 2.047960 
# 
# From -- ./inp_files/2041.got.cif
#   From: 2010.05.17/outbox.cif.g08.bks.cpg/sg36_2_cif.got.tgz:2041.got - 2010.06.03 17:41:39.
