data_PCOD9351137
_publ_section_title
;
Structure prediction by ZEFSAII (Michael W. Deem and Ramdas Pophale) SiO2 
 PCOD9351137
Probable space group: C M C 21
;
_chemical_formula_sum "Si O2"
_cell_formula_units_Z 64
_cell_length_a 28.013571
_cell_length_b 24.884652
_cell_length_c 5.007454
_cell_angle_alpha 90.000000
_cell_angle_beta 90.000000
_cell_angle_gamma 90.000000
_cell_volume 3490.736071
_symmetry_space_group_name_H-M "C M C 21"
_symmetry_group_IT_number 36
_symmetry_cell_setting 'orthorhombic'
loop_
_space_group_symop_operation_xyz
x,y,z
-x,-y,1/2+z
x,-y,1/2+z
-x,y,z
1/2+x,1/2+y,z
1/2-x,1/2-y,1/2+z
1/2+x,1/2-y,1/2+z
1/2-x,1/2+y,z
loop_
_atom_site_type_symbol
_atom_site_label
_atom_site_fract_x
_atom_site_fract_y
_atom_site_fract_z
Si Si1 0.658180 0.029202 0.405900
Si Si2 0.851706 0.640421 0.707530
Si Si3 0.946198 0.776153 0.315417
Si Si4 0.298412 0.351194 0.629827
Si Si5 0.804901 0.309010 0.701944
Si Si6 0.773094 0.969001 0.843392
Si Si7 0.946718 0.702783 0.814326
Si Si8 0.653119 0.309893 0.122592
O O1 0.646794 0.083380 0.562516
O O2 0.715631 0.029005 0.372326
O O3 0.640995 0.982075 0.606789
O O4 0.822715 0.677373 0.498207
O O5 0.904582 0.662459 0.751889
O O6 0.824999 0.646989 0.990538
O O7 0.940886 0.753332 0.613764
O O8 0.901099 0.810989 0.226780
O O9 0.000000 0.798900 0.285687
O O10 0.943698 0.725027 0.114639
O O11 0.251963 0.314026 0.682036
O O12 0.285992 0.411289 0.723710
O O13 0.314217 0.344324 0.324971
O O14 0.340021 0.330304 0.823671
O O15 0.826973 0.251228 0.631737
O O16 0.790220 0.014756 0.636975
O O17 0.000000 0.681065 0.768656
#
# Coordination Sequence:
#
# PCOD9351137 Si02
#       8
#     8   8   8   8   8   8   8   8
#     4  10  21  34  53  75  99 135 184 239 279 308
#     4  12  20  35  56  75 107 137 190 226 268 327
#     4  10  20  36  56  78 105 140 181 224 260 307
#     4  12  24  36  53  80 113 154 179 213 267 322
#     4  12  23  35  52  79 114 153 179 210 256 326
#     4  10  21  37  55  75 103 140 188 231 262 302
#     4  10  19  34  55  77 100 136 183 230 273 313
#     4  12  22  37  53  79 119 147 179 211 263 327
#
# _framework density 18.334242
#
# number of rings (size 3 to 8) (size 9 to 14) (size 15 to 20)
#    0.000    1.000    3.750    4.500    3.500    0.000 
#    0.000    0.000    0.000    0.750    0.000    0.000 
#    0.000   10.000    0.000    0.000    0.000    0.000 
#
# Total GULP energy -178686.962827 kJ/mol
# GULP energy per Si atom -5583.967588 kJ/mol
# Density = 1.829251 g / cm^3
# Si number density = 18.334242 Si / 1000 Ang^3
#
#
#
# Elastic Constant Matrix: (Units=GPa)
#
#
# Indices 1 2 3 4 5 6 
#
# 1 72.1857 12.4876 6.1753 0.0000 0.0000 0.0000
# 2 12.4876 23.6773 6.0216 0.0000 0.0000 0.0000
# 3 6.1753 6.0216 56.8090 0.0000 0.0000 0.0000
# 4 0.0000 0.0000 0.0000 28.9121 0.0000 0.0000
# 5 0.0000 0.0000 0.0000 0.0000 23.1432 0.0000
# 6 0.0000 0.0000 0.0000 0.0000 0.0000 12.5003
#
#
#
# Elastic Compliance Matrix: (Units=1/GPa)
#
#
# Indices 1 2 3 4 5 6 
#
# 1 0.015282 -0.007849 -0.000829 0.000000 0.000000 0.000000
# 2 -0.007849 0.047436 -0.004175 0.000000 0.000000 0.000000
# 3 -0.000829 -0.004175 0.018136 0.000000 0.000000 0.000000
# 4 0.000000 0.000000 0.000000 0.034588 0.000000 0.000000
# 5 0.000000 0.000000 0.000000 0.000000 0.043209 0.000000
# 6 0.000000 0.000000 0.000000 0.000000 0.000000 0.079998
#
#
# Mechanical properties :
#
#
# Convention : Reuss Voigt Hill
#
# Bulk Modulus (GPa) = 18.13328 22.44902 20.29115
# Shear Modulus (GPa) = 17.68428 21.44359 19.56394
#
# Velocity S-wave (km/s) = 3.10909 3.42364 3.27015
# Velocity P-wave (km/s) = 4.77498 5.28198 5.03487
#
# Compressibility (1/GPa) = 0.05514722
#
# Stress axis : x y z
#
# Youngs Moduli (GPa) = 65.43690 21.08111 55.14044
#
# Poissons Ratio (x) = 0.16546 0.04572
# Poissons Ratio (y) = 0.51361 0.23020
# Poissons Ratio (z) = 0.05426 0.08801
#
# Static dielectric constant tensor:
#      x y z
#    x 1.626310 0.000000 0.000000 
#    y 0.000000 1.651410 0.000000 
#    z 0.000000 0.000000 1.640950 
# 
# From -- ./inp_files/1810.got.cif
#   From: 2010.05.17/outbox.cif.g08.bks.cpg/sg36_1_cif.got.tgz:1810.got - 2010.06.03 17:41:39.
