data_PCOD9351551
_publ_section_title
;
Structure prediction by ZEFSAII (Michael W. Deem and Ramdas Pophale) SiO2 
 PCOD9351551
Probable space group: C M C 21
;
_chemical_formula_sum "Si O2"
_cell_formula_units_Z 64
_cell_length_a 9.128468
_cell_length_b 23.188636
_cell_length_c 16.190688
_cell_angle_alpha 90.000000
_cell_angle_beta 90.000000
_cell_angle_gamma 90.000000
_cell_volume 3427.191758
_symmetry_space_group_name_H-M "C M C 21"
_symmetry_group_IT_number 36
_symmetry_cell_setting 'orthorhombic'
loop_
_space_group_symop_operation_xyz
x,y,z
-x,-y,1/2+z
x,-y,1/2+z
-x,y,z
1/2+x,1/2+y,z
1/2-x,1/2-y,1/2+z
1/2+x,1/2-y,1/2+z
1/2-x,1/2+y,z
loop_
_atom_site_type_symbol
_atom_site_label
_atom_site_fract_x
_atom_site_fract_y
_atom_site_fract_z
Si Si1 0.322772 0.785084 0.957830
Si Si2 0.832296 0.972474 0.759196
Si Si3 0.164362 0.468498 0.481529
Si Si4 0.165382 0.889397 0.602910
Si Si5 0.322780 0.294975 0.301683
Si Si6 0.178222 0.760666 0.639548
Si Si7 0.667279 0.081855 0.796589
Si Si8 0.821880 0.415216 0.914331
O O1 0.500000 0.784380 0.956994
O O2 0.277826 0.741388 0.884090
O O3 0.277150 0.850694 0.938051
O O4 0.280511 0.767240 0.050899
O O5 0.834966 0.933581 0.678363
O O6 0.749759 0.935342 0.828881
O O7 0.000000 0.984254 0.785631
O O8 0.749248 0.032695 0.744249
O O9 0.251422 0.421122 0.530764
O O10 0.160720 0.447240 0.387073
O O11 0.221423 0.534234 0.478845
O O12 0.000000 0.470241 0.515041
O O13 0.222137 0.827693 0.631984
O O14 0.000000 0.878252 0.574092
O O15 0.500000 0.296257 0.298690
O O16 0.257175 0.266146 0.218908
O O17 0.256339 0.359135 0.303522
O O18 0.000000 0.756231 0.649660
O O19 0.500000 0.092244 0.768550
O O20 0.000000 0.417352 0.907470
#
# Coordination Sequence:
#
# PCOD9351551 Si02
#       8
#     8   8   8   8   8   8   8   8
#     4   9  19  36  59  82 112 153 191 226 274 334
#     4  10  20  34  53  80 109 140 179 228 278 328
#     4   9  19  33  53  79 105 136 182 231 272 320
#     4  10  21  35  53  78 111 145 180 223 277 330
#     4  11  22  37  59  87 115 148 188 235 282 328
#     4  10  21  38  57  81 113 152 191 228 275 338
#     4  10  21  38  57  79 107 143 183 225 275 335
#     4   9  18  35  55  78 106 141 184 224 267 327
#
# _framework density 18.674181999999998
#
# number of rings (size 3 to 8) (size 9 to 14) (size 15 to 20)
#    0.000    2.250    0.000    3.375    0.000    6.000 
#    0.000    3.750    0.000    0.000    0.000    0.000 
#    0.000    0.000    0.000    0.000    0.000    0.000 
#
# Total GULP energy -178436.540945 kJ/mol
# GULP energy per Si atom -5576.141905 kJ/mol
# Density = 1.863168 g / cm^3
# Si number density = 18.674182 Si / 1000 Ang^3
#
#
#
# Elastic Constant Matrix: (Units=GPa)
#
#
# Indices 1 2 3 4 5 6 
#
# 1 49.5958 31.5948 17.7855 0.0000 0.0000 0.0000
# 2 31.5948 134.4360 22.3616 0.0000 0.0000 0.0000
# 3 17.7855 22.3616 55.4787 0.0000 0.0000 0.0000
# 4 0.0000 0.0000 0.0000 27.8876 0.0000 0.0000
# 5 0.0000 0.0000 0.0000 0.0000 24.8385 0.0000
# 6 0.0000 0.0000 0.0000 0.0000 0.0000 27.2214
#
#
#
# Elastic Compliance Matrix: (Units=1/GPa)
#
#
# Indices 1 2 3 4 5 6 
#
# 1 0.025551 -0.004976 -0.006186 0.000000 0.000000 0.000000
# 2 -0.004976 0.008942 -0.002009 0.000000 0.000000 0.000000
# 3 -0.006186 -0.002009 0.020818 0.000000 0.000000 0.000000
# 4 0.000000 0.000000 0.000000 0.035858 0.000000 0.000000
# 5 0.000000 0.000000 0.000000 0.000000 0.040260 0.000000
# 6 0.000000 0.000000 0.000000 0.000000 0.000000 0.036736
#
#
# Mechanical properties :
#
#
# Convention : Reuss Voigt Hill
#
# Bulk Modulus (GPa) = 34.51893 42.55495 38.53694
# Shear Modulus (GPa) = 24.49023 27.17407 25.83215
#
# Velocity S-wave (km/s) = 3.62532 3.81880 3.72332
# Velocity P-wave (km/s) = 6.00407 6.50246 6.25823
#
# Compressibility (1/GPa) = 0.02896961
#
# Stress axis : x y z
#
# Youngs Moduli (GPa) = 39.13715 111.83029 48.03608
#
# Poissons Ratio (x) = 0.55648 0.29713
# Poissons Ratio (y) = 0.19475 0.09651
# Poissons Ratio (z) = 0.24209 0.22467
#
# Static dielectric constant tensor:
#      x y z
#    x 1.667930 0.000000 0.000000 
#    y 0.000000 1.648600 0.000000 
#    z 0.000000 0.000000 1.634700 
# 
# From -- ./inp_files/11053.got.cif
#   From: 2010.05.17/outbox.cif.g08.bks.cpg/sg36_6_cif.got.tgz:11053.got - 2010.06.03 17:41:39.
