data_PCOD9351428
_publ_section_title
;
Structure prediction by ZEFSAII (Michael W. Deem and Ramdas Pophale) SiO2 
 PCOD9351428
Probable space group: C M C 21
;
_chemical_formula_sum "Si O2"
_cell_formula_units_Z 64
_cell_length_a 8.312462
_cell_length_b 24.897203
_cell_length_c 15.545427
_cell_angle_alpha 90.000000
_cell_angle_beta 90.000000
_cell_angle_gamma 90.000000
_cell_volume 3217.235773
_symmetry_space_group_name_H-M "C M C 21"
_symmetry_group_IT_number 36
_symmetry_cell_setting 'orthorhombic'
loop_
_space_group_symop_operation_xyz
x,y,z
-x,-y,1/2+z
x,-y,1/2+z
-x,y,z
1/2+x,1/2+y,z
1/2-x,1/2-y,1/2+z
1/2+x,1/2-y,1/2+z
1/2-x,1/2+y,z
loop_
_atom_site_type_symbol
_atom_site_label
_atom_site_fract_x
_atom_site_fract_y
_atom_site_fract_z
Si Si1 0.693717 0.258689 0.284370
Si Si2 0.305413 0.187564 0.447079
Si Si3 0.686543 0.623221 0.812699
Si Si4 0.194524 0.232538 0.096583
Si Si5 0.686110 0.988137 0.595356
Si Si6 0.685779 0.381572 0.518223
Si Si7 0.307409 0.435288 0.945317
Si Si8 0.192983 0.994338 0.282162
O O1 0.500000 0.262133 0.294383
O O2 0.750479 0.221502 0.363393
O O3 0.759648 0.319685 0.287032
O O4 0.735899 0.235916 0.191614
O O5 0.500000 0.188153 0.446581
O O6 0.252515 0.219482 0.532939
O O7 0.251010 0.126033 0.444501
O O8 0.500000 0.623520 0.781730
O O9 0.759849 0.566589 0.784534
O O10 0.684869 0.621991 0.915693
O O11 0.238624 0.175489 0.055121
O O12 0.000000 0.234515 0.100873
O O13 0.500000 0.999697 0.609761
O O14 0.710121 0.931242 0.548884
O O15 0.755846 0.033308 0.531452
O O16 0.770884 0.984139 0.687696
O O17 0.500000 0.391536 0.545460
O O18 0.500000 0.434943 0.942376
O O19 0.247674 0.468727 0.861229
O O20 0.000000 0.990597 0.294216
#
# Coordination Sequence:
#
# PCOD9351428 Si02
#       8
#     8   8   8   8   8   8   8   8
#     4  10  21  38  62  90 120 157 200 248 305 360
#     4  10  22  41  61  87 128 165 196 247 313 364
#     4   9  17  37  66  88 110 151 204 256 298 348
#     4  10  22  39  62  89 121 161 202 246 299 359
#     4  12  26  41  61  92 128 160 196 251 317 366
#     4  10  19  40  67  87 114 157 209 252 295 359
#     4  11  24  43  66  89 119 164 212 253 297 362
#     4  10  22  41  65  90 118 159 211 253 296 360
#
# _framework density 19.892854
#
# number of rings (size 3 to 8) (size 9 to 14) (size 15 to 20)
#    0.000    1.750    2.500    1.500    3.500    2.500 
#    0.000    0.625    0.000    0.000    0.000    0.000 
#    0.000    0.000    0.000    0.000    0.000    0.000 
#
# Total GULP energy -178659.593521 kJ/mol
# GULP energy per Si atom -5583.112298 kJ/mol
# Density = 1.984758 g / cm^3
# Si number density = 19.892854 Si / 1000 Ang^3
#
#
#
# Elastic Constant Matrix: (Units=GPa)
#
#
# Indices 1 2 3 4 5 6 
#
# 1 12.4709 11.7905 -1.0979 0.0000 0.0000 0.0000
# 2 11.7905 76.7893 -14.1404 0.0000 0.0000 0.0000
# 3 -1.0979 -14.1404 44.8403 0.0000 0.0000 0.0000
# 4 0.0000 0.0000 0.0000 31.5082 0.0000 0.0000
# 5 0.0000 0.0000 0.0000 0.0000 18.5043 0.0000
# 6 0.0000 0.0000 0.0000 0.0000 0.0000 27.0713
#
#
#
# Elastic Compliance Matrix: (Units=1/GPa)
#
#
# Indices 1 2 3 4 5 6 
#
# 1 0.094045 -0.014880 -0.002390 0.000000 0.000000 0.000000
# 2 -0.014880 0.016180 0.004738 0.000000 0.000000 0.000000
# 3 -0.002390 0.004738 0.023737 0.000000 0.000000 0.000000
# 4 0.000000 0.000000 0.000000 0.031738 0.000000 0.000000
# 5 0.000000 0.000000 0.000000 0.000000 0.054042 0.000000
# 6 0.000000 0.000000 0.000000 0.000000 0.000000 0.036940
#
#
# Mechanical properties :
#
#
# Convention : Reuss Voigt Hill
#
# Bulk Modulus (GPa) = 9.18290 14.13388 11.65839
# Shear Modulus (GPa) = 15.72110 24.58663 20.15387
#
# Velocity S-wave (km/s) = 2.81426 3.51943 3.18641
# Velocity P-wave (km/s) = 3.89696 4.86164 4.40578
#
# Compressibility (1/GPa) = 0.10889804
#
# Stress axis : x y z
#
# Youngs Moduli (GPa) = 10.63321 61.80515 42.12835
#
# Poissons Ratio (x) = 0.91967 0.10068
# Poissons Ratio (y) = 0.15822 -0.19960
# Poissons Ratio (z) = 0.02541 -0.29283
#
# Static dielectric constant tensor:
#      x y z
#    x 1.712460 0.000000 0.000000 
#    y 0.000000 1.680020 0.000000 
#    z 0.000000 0.000000 1.667060 
# 
# From -- ./inp_files/11118.got.cif
#   From: 2010.05.17/outbox.cif.g08.bks.cpg/sg36_6_cif.got.tgz:11118.got - 2010.06.03 17:41:39.
