data_PCOD9351429
_publ_section_title
;
Structure prediction by ZEFSAII (Michael W. Deem and Ramdas Pophale) SiO2 
 PCOD9351429
Probable space group: C M C 21
;
_chemical_formula_sum "Si O2"
_cell_formula_units_Z 64
_cell_length_a 7.918459
_cell_length_b 24.382894
_cell_length_c 15.766275
_cell_angle_alpha 90.000000
_cell_angle_beta 90.000000
_cell_angle_gamma 90.000000
_cell_volume 3044.072701
_symmetry_space_group_name_H-M "C M C 21"
_symmetry_group_IT_number 36
_symmetry_cell_setting 'orthorhombic'
loop_
_space_group_symop_operation_xyz
x,y,z
-x,-y,1/2+z
x,-y,1/2+z
-x,y,z
1/2+x,1/2+y,z
1/2-x,1/2-y,1/2+z
1/2+x,1/2-y,1/2+z
1/2-x,1/2+y,z
loop_
_atom_site_type_symbol
_atom_site_label
_atom_site_fract_x
_atom_site_fract_y
_atom_site_fract_z
Si Si1 0.704436 0.270366 0.284370
Si Si2 0.296000 0.204059 0.451755
Si Si3 0.703148 0.618972 0.870523
Si Si4 0.196885 0.221095 0.107958
Si Si5 0.806674 0.004060 0.612314
Si Si6 0.811671 0.391538 0.556898
Si Si7 0.296619 0.423267 0.957146
Si Si8 0.205924 0.001223 0.303416
O O1 0.500000 0.267447 0.277736
O O2 0.757249 0.232031 0.363328
O O3 0.751339 0.332685 0.307048
O O4 0.781428 0.251580 0.196392
O O5 0.500000 0.205279 0.453480
O O6 0.236291 0.240943 0.531246
O O7 0.242294 0.140982 0.458428
O O8 0.500000 0.621245 0.880208
O O9 0.748439 0.558496 0.839939
O O10 0.782729 0.629004 0.961708
O O11 0.282442 0.161747 0.113515
O O12 0.000000 0.210320 0.090117
O O13 0.806822 0.943068 0.573821
O O14 0.000000 0.023153 0.625427
O O15 0.731689 0.044819 0.541296
O O16 0.731038 0.997689 0.706487
O O17 0.000000 0.412818 0.567759
O O18 0.500000 0.430090 0.957517
O O19 0.234555 0.453070 0.870782
O O20 0.000000 0.006059 0.300501
#
# Coordination Sequence:
#
# PCOD9351429 Si02
#       8
#     8   8   8   8   8   8   8   8
#     4  10  22  40  64  92 120 155 200 254 308 356
#     4  10  23  42  60  84 125 164 194 241 309 361
#     4  10  19  40  67  87 118 157 199 251 306 360
#     4  11  24  43  64  87 120 165 204 245 304 365
#     4  10  21  39  62  87 119 158 199 244 298 356
#     4  12  24  39  62  91 120 154 203 256 302 354
#     4  10  21  37  60  88 118 156 204 245 284 350
#     4   9  19  36  61  90 114 151 201 242 287 352
#
# _framework density 21.024467000000001
#
# number of rings (size 3 to 8) (size 9 to 14) (size 15 to 20)
#    0.000    1.750    2.500    1.500    3.500    2.500 
#    0.000    0.625    0.000    0.000    0.000    0.000 
#    0.000    0.000    0.000    0.000    0.000    0.000 
#
# Total GULP energy -178734.171412 kJ/mol
# GULP energy per Si atom -5585.442857 kJ/mol
# Density = 2.097661 g / cm^3
# Si number density = 21.024467 Si / 1000 Ang^3
#
#
#
# Elastic Constant Matrix: (Units=GPa)
#
#
# Indices 1 2 3 4 5 6 
#
# 1 21.6833 -1.8509 2.7802 0.0000 0.0000 0.0000
# 2 -1.8509 100.0585 17.6390 0.0000 0.0000 0.0000
# 3 2.7802 17.6390 96.5500 0.0000 0.0000 0.0000
# 4 0.0000 0.0000 0.0000 32.8201 0.0000 0.0000
# 5 0.0000 0.0000 0.0000 0.0000 15.2471 0.0000
# 6 0.0000 0.0000 0.0000 0.0000 0.0000 17.5056
#
#
#
# Elastic Compliance Matrix: (Units=1/GPa)
#
#
# Indices 1 2 3 4 5 6 
#
# 1 0.046413 0.001131 -0.001543 0.000000 0.000000 0.000000
# 2 0.001131 0.010354 -0.001924 0.000000 0.000000 0.000000
# 3 -0.001543 -0.001924 0.010753 0.000000 0.000000 0.000000
# 4 0.000000 0.000000 0.000000 0.030469 0.000000 0.000000
# 5 0.000000 0.000000 0.000000 0.000000 0.065586 0.000000
# 6 0.000000 0.000000 0.000000 0.000000 0.000000 0.057125
#
#
# Mechanical properties :
#
#
# Convention : Reuss Voigt Hill
#
# Bulk Modulus (GPa) = 15.91165 28.38095 22.14630
# Shear Modulus (GPa) = 20.29856 26.42944 23.36400
#
# Velocity S-wave (km/s) = 3.11058 3.54938 3.33720
# Velocity P-wave (km/s) = 4.52609 5.50688 5.04040
#
# Compressibility (1/GPa) = 0.06284704
#
# Stress axis : x y z
#
# Youngs Moduli (GPa) = 21.54576 96.57844 92.99470
#
# Poissons Ratio (x) = -0.10919 0.14349
# Poissons Ratio (y) = -0.02436 0.17894
# Poissons Ratio (z) = 0.03325 0.18584
#
# Static dielectric constant tensor:
#      x y z
#    x 1.786830 0.000000 0.000000 
#    y 0.000000 1.721490 0.000000 
#    z 0.000000 0.000000 1.760160 
# 
# From -- ./inp_files/11064.got.cif
#   From: 2010.05.17/outbox.cif.g08.bks.cpg/sg36_6_cif.got.tgz:11064.got - 2010.06.03 17:41:39.
