data_PCOD9351676
_publ_section_title
;
Structure prediction by ZEFSAII (Michael W. Deem and Ramdas Pophale) SiO2 
 PCOD9351676
Probable space group: C M C 21
;
_chemical_formula_sum "Si O2"
_cell_formula_units_Z 64
_cell_length_a 7.615109
_cell_length_b 18.281590
_cell_length_c 21.307389
_cell_angle_alpha 90.000000
_cell_angle_beta 90.000000
_cell_angle_gamma 90.000000
_cell_volume 2966.335871
_symmetry_space_group_name_H-M "C M C 21"
_symmetry_group_IT_number 36
_symmetry_cell_setting 'orthorhombic'
loop_
_space_group_symop_operation_xyz
x,y,z
-x,-y,1/2+z
x,-y,1/2+z
-x,y,z
1/2+x,1/2+y,z
1/2-x,1/2-y,1/2+z
1/2+x,1/2-y,1/2+z
1/2-x,1/2+y,z
loop_
_atom_site_type_symbol
_atom_site_label
_atom_site_fract_x
_atom_site_fract_y
_atom_site_fract_z
Si Si1 0.792116 0.330463 0.764710
Si Si2 0.797073 0.574384 0.379511
Si Si3 0.714784 0.579911 0.632059
Si Si4 0.704252 0.591913 0.885798
Si Si5 0.712257 0.329352 0.510317
Si Si6 0.287492 0.411321 0.635547
Si Si7 0.215648 0.163679 0.757483
Si Si8 0.791705 0.157976 0.504536
O O1 0.719291 0.379257 0.821683
O O2 0.767549 0.371240 0.699050
O O3 0.724312 0.247692 0.760781
O O4 0.000000 0.323098 0.777306
O O5 0.712777 0.495379 0.389256
O O6 0.787214 0.622203 0.442340
O O7 0.000000 0.558660 0.364750
O O8 0.500000 0.580599 0.631866
O O9 0.770772 0.495561 0.634313
O O10 0.772405 0.623662 0.693824
O O11 0.772738 0.619124 0.568109
O O12 0.500000 0.613860 0.884998
O O13 0.776146 0.621244 0.819797
O O14 0.779842 0.629234 0.948221
O O15 0.500000 0.335228 0.511073
O O16 0.775282 0.367879 0.574075
O O17 0.758189 0.244238 0.507947
O O18 0.500000 0.411746 0.634548
O O19 0.000000 0.162846 0.755884
O O20 0.000000 0.145414 0.500593
#
# Coordination Sequence:
#
# PCOD9351676 Si02
#       8
#     8   8   8   8   8   8   8   8
#     4  10  21  37  56  80 111 146 183 229 286 339
#     4  11  23  38  56  81 115 148 183 235 290 334
#     4   9  18  33  54  81 109 139 181 229 272 320
#     4  10  20  37  61  83 107 146 190 227 274 338
#     4  10  21  37  56  82 117 150 183 232 288 333
#     4  10  20  35  56  81 111 146 184 230 280 332
#     4   9  17  32  56  81 106 140 182 226 271 324
#     4  11  22  37  59  83 110 149 194 234 275 336
#
# _framework density 21.575437999999998
#
# number of rings (size 3 to 8) (size 9 to 14) (size 15 to 20)
#    0.000    2.000    0.000    3.750    0.000    8.000 
#    0.000    3.125    0.000    5.250    0.000    0.000 
#    0.000    0.000    0.000    0.000    0.000    0.000 
#
# Total GULP energy -178894.003365 kJ/mol
# GULP energy per Si atom -5590.437605 kJ/mol
# Density = 2.152633 g / cm^3
# Si number density = 21.575438 Si / 1000 Ang^3
#
#
#
# Elastic Constant Matrix: (Units=GPa)
#
#
# Indices 1 2 3 4 5 6 
#
# 1 40.0688 -18.6144 -11.6361 0.0000 0.0000 0.0000
# 2 -18.6144 183.2401 100.6100 0.0000 0.0000 0.0000
# 3 -11.6361 100.6100 196.6919 0.0000 0.0000 0.0000
# 4 0.0000 0.0000 0.0000 47.3496 0.0000 0.0000
# 5 0.0000 0.0000 0.0000 0.0000 -8.6117 0.0000
# 6 0.0000 0.0000 0.0000 0.0000 0.0000 24.3825
#
#
#
# Elastic Compliance Matrix: (Units=1/GPa)
#
#
# Indices 1 2 3 4 5 6 
#
# 1 0.026203 0.002518 0.000262 0.000000 0.000000 0.000000
# 2 0.002518 0.007831 -0.003856 0.000000 0.000000 0.000000
# 3 0.000262 -0.003856 0.007072 0.000000 0.000000 0.000000
# 4 0.000000 0.000000 0.000000 0.021120 0.000000 0.000000
# 5 0.000000 0.000000 0.000000 0.000000 -0.116121 0.000000
# 6 0.000000 0.000000 0.000000 0.000000 0.000000 0.041013
#
#
# Mechanical properties :
#
#
# Convention : Reuss Voigt Hill
#
# Bulk Modulus (GPa) = 25.67201 62.30220 43.98711
# Shear Modulus (GPa) = 2217.94751 35.93350 1126.94050
#
# Velocity S-wave (km/s) = 32.09717 4.08546 22.87924
# Velocity P-wave (km/s) = 37.22314 7.15498 26.80257
#
# Compressibility (1/GPa) = 0.03895293
#
# Stress axis : x y z
#
# Youngs Moduli (GPa) = 38.16366 127.70558 141.39837
#
# Poissons Ratio (x) = -0.32154 -0.03708
# Poissons Ratio (y) = -0.09609 0.54529
# Poissons Ratio (z) = -0.01001 0.49249
#
# Static dielectric constant tensor:
#      x y z
#    x 1.813600 0.000000 0.000000 
#    y 0.000000 1.723430 0.000000 
#    z 0.000000 0.000000 1.749120 
# 
# From -- ./inp_files/15692.got.cif
#   From: 2010.05.17/outbox.cif.g08.bks.cpg/sg36_8_cif.got.tgz:15692.got - 2010.06.03 17:41:39.
