data_PCOD9351206
_publ_section_title
;
Structure prediction by ZEFSAII (Michael W. Deem and Ramdas Pophale) SiO2 
 PCOD9351206
Probable space group: C M C 21
;
_chemical_formula_sum "Si O2"
_cell_formula_units_Z 64
_cell_length_a 18.623074
_cell_length_b 9.237174
_cell_length_c 19.151824
_cell_angle_alpha 90.000000
_cell_angle_beta 90.000000
_cell_angle_gamma 90.000000
_cell_volume 3294.584383
_symmetry_space_group_name_H-M "C M C 21"
_symmetry_group_IT_number 36
_symmetry_cell_setting 'orthorhombic'
loop_
_space_group_symop_operation_xyz
x,y,z
-x,-y,1/2+z
x,-y,1/2+z
-x,y,z
1/2+x,1/2+y,z
1/2-x,1/2-y,1/2+z
1/2+x,1/2-y,1/2+z
1/2-x,1/2+y,z
loop_
_atom_site_type_symbol
_atom_site_label
_atom_site_fract_x
_atom_site_fract_y
_atom_site_fract_z
Si Si1 0.822859 0.633130 0.787230
Si Si2 0.417635 0.460179 0.149219
Si Si3 0.415335 0.061370 0.391503
Si Si4 0.707872 0.733953 0.583378
Si Si5 0.769681 0.359139 0.730201
Si Si6 0.420256 0.255898 0.267590
Si Si7 0.416242 0.799712 0.157749
Si Si8 0.835606 0.543570 0.535317
O O1 0.861567 0.550575 0.850904
O O2 0.766443 0.527734 0.746534
O O3 0.774613 0.777295 0.790621
O O4 0.885914 0.672372 0.734247
O O5 0.500000 0.427962 0.126908
O O6 0.358447 0.365370 0.109255
O O7 0.414134 0.412876 0.231570
O O8 0.405355 0.630052 0.140403
O O9 0.500000 0.016518 0.391411
O O10 0.413143 0.214237 0.348800
O O11 0.383780 0.076805 0.468305
O O12 0.747444 0.800594 0.652948
O O13 0.762382 0.636013 0.539393
O O14 0.681195 0.873741 0.541485
O O15 0.854798 0.330789 0.734876
O O16 0.500000 0.202236 0.247546
O O17 0.500000 0.828470 0.155651
O O18 0.377575 0.905060 0.103969
#
# Coordination Sequence:
#
# PCOD9351206 Si02
#       8
#     8   8   8   8   8   8   8   8
#     4  11  22  37  62  90 119 163 205 266 319 364
#     4   9  20  37  64  98 127 158 208 270 325 375
#     4  10  23  43  62  90 131 171 216 260 317 397
#     4  11  21  38  61  91 126 159 210 262 319 381
#     4  10  19  34  58  89 117 152 200 263 312 366
#     4   8  17  35  60  86 118 161 202 253 312 370
#     4  11  22  37  61  94 123 164 218 266 318 376
#     4  12  24  39  64  92 129 176 209 262 324 387
#
# _framework density 19.425819000000001
#
# number of rings (size 3 to 8) (size 9 to 14) (size 15 to 20)
#    0.000    1.750    2.500    1.500    3.500    3.500 
#    0.000    0.000    5.500    0.000    0.000    0.000 
#    0.000    0.000    0.000    0.000    0.000    0.000 
#
# Total GULP energy -178307.496800 kJ/mol
# GULP energy per Si atom -5572.109275 kJ/mol
# Density = 1.938160 g / cm^3
# Si number density = 19.425819 Si / 1000 Ang^3
#
#
#
# Elastic Constant Matrix: (Units=GPa)
#
#
# Indices 1 2 3 4 5 6 
#
# 1 111.8509 26.1987 18.1186 0.0000 0.0000 0.0000
# 2 26.1987 59.9095 -0.5303 0.0000 0.0000 0.0000
# 3 18.1186 -0.5303 46.3389 0.0000 0.0000 0.0000
# 4 0.0000 0.0000 0.0000 19.1658 0.0000 0.0000
# 5 0.0000 0.0000 0.0000 0.0000 34.1654 0.0000
# 6 0.0000 0.0000 0.0000 0.0000 0.0000 24.3915
#
#
#
# Elastic Compliance Matrix: (Units=1/GPa)
#
#
# Indices 1 2 3 4 5 6 
#
# 1 0.010738 -0.004733 -0.004253 0.000000 0.000000 0.000000
# 2 -0.004733 0.018780 0.002066 0.000000 0.000000 0.000000
# 3 -0.004253 0.002066 0.023267 0.000000 0.000000 0.000000
# 4 0.000000 0.000000 0.000000 0.052176 0.000000 0.000000
# 5 0.000000 0.000000 0.000000 0.000000 0.029269 0.000000
# 6 0.000000 0.000000 0.000000 0.000000 0.000000 0.040998
#
#
# Mechanical properties :
#
#
# Convention : Reuss Voigt Hill
#
# Bulk Modulus (GPa) = 25.67808 33.96371 29.82089
# Shear Modulus (GPa) = 24.74627 27.16536 25.95581
#
# Velocity S-wave (km/s) = 3.57303 3.74360 3.65930
# Velocity P-wave (km/s) = 5.50175 6.01729 5.76528
#
# Compressibility (1/GPa) = 0.03894372
#
# Stress axis : x y z
#
# Youngs Moduli (GPa) = 93.12650 53.24792 42.98000
#
# Poissons Ratio (x) = 0.25205 0.18278
# Poissons Ratio (y) = 0.44081 -0.08878
# Poissons Ratio (z) = 0.39605 -0.10999
#
# Static dielectric constant tensor:
#      x y z
#    x 1.709640 0.000000 0.000000 
#    y 0.000000 1.714310 0.000000 
#    z 0.000000 0.000000 1.682990 
# 
# From -- ./inp_files/15018.got.cif
#   From: 2010.05.17/outbox.cif.g08.bks.cpg/sg36_8_cif.got.tgz:15018.got - 2010.06.03 17:41:39.
