data_PCOD9351478
_publ_section_title
;
Structure prediction by ZEFSAII (Michael W. Deem and Ramdas Pophale) SiO2 
 PCOD9351478
Probable space group: C M C 21
;
_chemical_formula_sum "Si O2"
_cell_formula_units_Z 64
_cell_length_a 7.336497
_cell_length_b 16.461952
_cell_length_c 19.420172
_cell_angle_alpha 90.000000
_cell_angle_beta 90.000000
_cell_angle_gamma 90.000000
_cell_volume 2345.433627
_symmetry_space_group_name_H-M "C M C 21"
_symmetry_group_IT_number 36
_symmetry_cell_setting 'orthorhombic'
loop_
_space_group_symop_operation_xyz
x,y,z
-x,-y,1/2+z
x,-y,1/2+z
-x,y,z
1/2+x,1/2+y,z
1/2-x,1/2-y,1/2+z
1/2+x,1/2-y,1/2+z
1/2-x,1/2+y,z
loop_
_atom_site_type_symbol
_atom_site_label
_atom_site_fract_x
_atom_site_fract_y
_atom_site_fract_z
Si Si1 0.780565 0.596156 0.492920
Si Si2 0.720615 0.739737 0.912061
Si Si3 0.719679 0.163924 0.283756
Si Si4 0.207439 0.254229 0.155256
Si Si5 0.291779 0.893684 0.248975
Si Si6 0.278062 0.000594 0.365425
Si Si7 0.791051 0.992994 0.123471
Si Si8 0.776538 0.144337 0.035726
O O1 0.729208 0.679880 0.456247
O O2 0.717067 0.522841 0.442418
O O3 0.716669 0.582468 0.570124
O O4 0.000000 0.594966 0.493939
O O5 0.500000 0.736810 0.910254
O O6 0.778251 0.762570 0.834993
O O7 0.784003 0.663729 0.957928
O O8 0.500000 0.164297 0.279564
O O9 0.795090 0.178370 0.208181
O O10 0.771600 0.080608 0.320906
O O11 0.296444 0.323381 0.202669
O O12 0.280387 0.219762 0.084298
O O13 0.000000 0.281247 0.140410
O O14 0.500000 0.870197 0.262591
O O15 0.297133 0.969248 0.195359
O O16 0.210409 0.924353 0.320883
O O17 0.500000 0.996820 0.366231
O O18 0.000000 0.011406 0.138699
O O19 0.712135 0.065227 0.076647
O O20 0.000000 0.142011 0.035412
#
# Coordination Sequence:
#
# PCOD9351478 Si02
#       8
#     8   8   8   8   8   8   8   8
#     4   9  17  33  56  76  98 131 167 202 243 297
#     4   8  15  31  54  74  94 129 170 197 230 291
#     4   9  17  31  53  77 100 127 159 199 244 289
#     4  10  20  33  51  73  97 130 167 201 242 292
#     4  10  20  35  54  73  97 132 171 208 246 294
#     4   8  16  32  54  78 100 127 167 207 243 291
#     4  11  22  33  48  73 102 129 162 208 254 294
#     4   9  18  32  48  68  96 129 165 200 236 288
#
# _framework density 27.287064999999998
#
# number of rings (size 3 to 8) (size 9 to 14) (size 15 to 20)
#    0.000    2.750    0.000    3.375    0.000    3.500 
#    0.000    3.750    0.000    3.000    0.000    0.000 
#    0.000    0.000    0.000    0.000    0.000    0.000 
#
# Total GULP energy -179052.143155 kJ/mol
# GULP energy per Si atom -5595.379474 kJ/mol
# Density = 2.722496 g / cm^3
# Si number density = 27.287065 Si / 1000 Ang^3
#
#
#
# Elastic Constant Matrix: (Units=GPa)
#
#
# Indices 1 2 3 4 5 6 
#
# 1 118.2533 5.3464 -0.9788 0.0000 0.0000 0.0000
# 2 5.3464 71.6476 11.7310 0.0000 0.0000 0.0000
# 3 -0.9788 11.7310 167.5603 0.0000 0.0000 0.0000
# 4 0.0000 0.0000 0.0000 61.7687 0.0000 0.0000
# 5 0.0000 0.0000 0.0000 0.0000 11.5833 0.0000
# 6 0.0000 0.0000 0.0000 0.0000 0.0000 5.0437
#
#
#
# Elastic Compliance Matrix: (Units=1/GPa)
#
#
# Indices 1 2 3 4 5 6 
#
# 1 0.008487 -0.000649 0.000095 0.000000 0.000000 0.000000
# 2 -0.000649 0.014169 -0.000996 0.000000 0.000000 0.000000
# 3 0.000095 -0.000996 0.006038 0.000000 0.000000 0.000000
# 4 0.000000 0.000000 0.000000 0.016189 0.000000 0.000000
# 5 0.000000 0.000000 0.000000 0.000000 0.086331 0.000000
# 6 0.000000 0.000000 0.000000 0.000000 0.000000 0.198266
#
#
# Mechanical properties :
#
#
# Convention : Reuss Voigt Hill
#
# Bulk Modulus (GPa) = 39.07117 43.29538 41.18327
# Shear Modulus (GPa) = 14.65801 38.43666 26.54733
#
# Velocity S-wave (km/s) = 2.32022 3.75721 3.12250
# Velocity P-wave (km/s) = 4.63978 5.89264 5.30334
#
# Compressibility (1/GPa) = 0.02559432
#
# Stress axis : x y z
#
# Youngs Moduli (GPa) = 117.83360 70.57828 165.61040
#
# Poissons Ratio (x) = 0.04579 -0.01573
# Poissons Ratio (y) = 0.07645 0.16491
# Poissons Ratio (z) = -0.01119 0.07028
#
# Static dielectric constant tensor:
#      x y z
#    x 2.037900 0.000000 0.000000 
#    y 0.000000 2.248530 0.000000 
#    z 0.000000 0.000000 2.035410 
# 
# From -- ./inp_files/15601.got.cif
#   From: 2010.05.17/outbox.cif.g08.bks.cpg/sg36_8_cif.got.tgz:15601.got - 2010.06.03 17:41:39.
