data_PCOD9351016
_publ_section_title
;
Structure prediction by ZEFSAII (Michael W. Deem and Ramdas Pophale) SiO2 
 PCOD9351016
Probable space group: C M C 21
;
_chemical_formula_sum "Si O2"
_cell_formula_units_Z 64
_cell_length_a 7.873012
_cell_length_b 15.294900
_cell_length_c 23.708045
_cell_angle_alpha 90.000000
_cell_angle_beta 90.000000
_cell_angle_gamma 90.000000
_cell_volume 2854.850025
_symmetry_space_group_name_H-M "C M C 21"
_symmetry_group_IT_number 36
_symmetry_cell_setting 'orthorhombic'
loop_
_space_group_symop_operation_xyz
x,y,z
-x,-y,1/2+z
x,-y,1/2+z
-x,y,z
1/2+x,1/2+y,z
1/2-x,1/2-y,1/2+z
1/2+x,1/2-y,1/2+z
1/2-x,1/2+y,z
loop_
_atom_site_type_symbol
_atom_site_label
_atom_site_fract_x
_atom_site_fract_y
_atom_site_fract_z
Si Si1 0.795962 0.354991 0.913880
Si Si2 0.297830 0.449601 0.384314
Si Si3 0.290865 0.310541 0.476235
Si Si4 0.693907 0.070187 0.638807
Si Si5 0.300028 0.175686 0.288357
Si Si6 0.794017 0.250360 0.178079
Si Si7 0.201068 0.108556 0.092935
Si Si8 0.302920 0.515782 0.760545
O O1 0.729952 0.453811 0.910423
O O2 0.737828 0.288550 0.962291
O O3 0.754014 0.309856 0.853449
O O4 0.000000 0.361433 0.917482
O O5 0.500000 0.437428 0.378619
O O6 0.234297 0.375240 0.426181
O O7 0.231558 0.448771 0.320046
O O8 0.500000 0.311283 0.476271
O O9 0.231255 0.350666 0.535214
O O10 0.500000 0.076843 0.620219
O O11 0.767560 0.167459 0.641477
O O12 0.704899 0.040965 0.704291
O O13 0.773611 0.993986 0.601801
O O14 0.500000 0.155751 0.287347
O O15 0.265596 0.250163 0.242637
O O16 0.202795 0.089035 0.268245
O O17 0.733369 0.162696 0.146768
O O18 0.000000 0.253341 0.179583
O O19 0.000000 0.124049 0.092232
O O20 0.500000 0.542055 0.752881
#
# Coordination Sequence:
#
# PCOD9351016 Si02
#       8
#     8   8   8   8   8   8   8   8
#     4   9  19  35  56  83 114 146 184 226 277 334
#     4   9  19  35  56  82 113 145 183 231 277 329
#     4   9  19  37  60  82 108 149 193 229 270 334
#     4  11  23  37  55  83 115 146 188 240 284 329
#     4  10  19  32  56  85 116 148 184 232 279 329
#     4  10  22  37  54  80 113 149 187 231 284 338
#     4  10  21  40  61  79 108 152 195 230 278 340
#     4  10  19  33  56  82 115 151 184 225 285 343
#
# _framework density 22.417991000000001
#
# number of rings (size 3 to 8) (size 9 to 14) (size 15 to 20)
#    0.000    2.250    1.250    1.125    1.750    3.000 
#    0.000    3.125    0.000    0.000    0.000    0.000 
#    0.000    0.000    0.000    0.000    0.000    0.000 
#
# Total GULP energy -178671.557517 kJ/mol
# GULP energy per Si atom -5583.486172 kJ/mol
# Density = 2.236697 g / cm^3
# Si number density = 22.417991 Si / 1000 Ang^3
#
#
#
# Elastic Constant Matrix: (Units=GPa)
#
#
# Indices 1 2 3 4 5 6 
#
# 1 24.1537 -2.4767 -0.3085 0.0000 0.0000 0.0000
# 2 -2.4767 43.5385 -16.3124 0.0000 0.0000 0.0000
# 3 -0.3085 -16.3124 14.7688 0.0000 0.0000 0.0000
# 4 0.0000 0.0000 0.0000 22.3589 0.0000 0.0000
# 5 0.0000 0.0000 0.0000 0.0000 11.3215 0.0000
# 6 0.0000 0.0000 0.0000 0.0000 0.0000 16.5259
#
#
#
# Elastic Compliance Matrix: (Units=1/GPa)
#
#
# Indices 1 2 3 4 5 6 
#
# 1 0.041953 0.004631 0.005992 0.000000 0.000000 0.000000
# 2 0.004631 0.039694 0.043940 0.000000 0.000000 0.000000
# 3 0.005992 0.043940 0.116368 0.000000 0.000000 0.000000
# 4 0.000000 0.000000 0.000000 0.044725 0.000000 0.000000
# 5 0.000000 0.000000 0.000000 0.000000 0.088327 0.000000
# 6 0.000000 0.000000 0.000000 0.000000 0.000000 0.060511
#
#
# Mechanical properties :
#
#
# Convention : Reuss Voigt Hill
#
# Bulk Modulus (GPa) = 3.25583 4.91843 4.08713
# Shear Modulus (GPa) = 12.99266 16.81184 14.90225
#
# Velocity S-wave (km/s) = 2.41003 2.74145 2.58106
# Velocity P-wave (km/s) = 3.03311 3.49563 3.27256
#
# Compressibility (1/GPa) = 0.30714113
#
# Stress axis : x y z
#
# Youngs Moduli (GPa) = 23.83624 25.19251 8.59344
#
# Poissons Ratio (x) = -0.11668 -0.05149
# Poissons Ratio (y) = -0.11040 -0.37759
# Poissons Ratio (z) = -0.14282 -1.10695
#
# Static dielectric constant tensor:
#      x y z
#    x 1.809980 0.000000 0.000000 
#    y 0.000000 1.841050 0.000000 
#    z 0.000000 0.000000 1.835440 
# 
# From -- ./inp_files/16540.got.cif
#   From: 2010.05.17/outbox.cif.g08.bks.cpg/sg36_9_cif.got.tgz:16540.got - 2010.06.03 17:41:39.
