data_PCOD9351079
_publ_section_title
;
Structure prediction by ZEFSAII (Michael W. Deem and Ramdas Pophale) SiO2 
 PCOD9351079
Probable space group: C M C 21
;
_chemical_formula_sum "Si O2"
_cell_formula_units_Z 64
_cell_length_a 9.344311
_cell_length_b 16.830606
_cell_length_c 21.346819
_cell_angle_alpha 90.000000
_cell_angle_beta 90.000000
_cell_angle_gamma 90.000000
_cell_volume 3357.223121
_symmetry_space_group_name_H-M "C M C 21"
_symmetry_group_IT_number 36
_symmetry_cell_setting 'orthorhombic'
loop_
_space_group_symop_operation_xyz
x,y,z
-x,-y,1/2+z
x,-y,1/2+z
-x,y,z
1/2+x,1/2+y,z
1/2-x,1/2-y,1/2+z
1/2+x,1/2-y,1/2+z
1/2-x,1/2+y,z
loop_
_atom_site_type_symbol
_atom_site_label
_atom_site_fract_x
_atom_site_fract_y
_atom_site_fract_z
Si Si1 0.831368 0.912620 0.728590
Si Si2 0.170616 0.734289 0.292579
Si Si3 0.828134 0.910523 0.242414
Si Si4 0.658618 0.158204 0.629741
Si Si5 0.341560 0.956497 0.011327
Si Si6 0.665277 0.580087 0.078810
Si Si7 0.168099 0.731433 0.048512
Si Si8 0.668570 0.812300 0.934691
O O1 0.748143 0.833662 0.751001
O O2 0.812897 0.927998 0.653691
O O3 0.000000 0.898522 0.739250
O O4 0.793750 0.997863 0.761916
O O5 0.203007 0.828383 0.280658
O O6 0.203601 0.712893 0.364558
O O7 0.000000 0.725761 0.282557
O O8 0.735459 0.894989 0.180710
O O9 0.000000 0.910628 0.230366
O O10 0.500000 0.184744 0.649742
O O11 0.643620 0.108543 0.566294
O O12 0.761550 0.229033 0.610019
O O13 0.500000 0.996130 0.007292
O O14 0.206952 0.005133 0.036408
O O15 0.315491 0.906336 0.948463
O O16 0.500000 0.603816 0.069471
O O17 0.778381 0.642628 0.053323
O O18 0.000000 0.741752 0.049445
O O19 0.234869 0.768285 0.985670
O O20 0.500000 0.793658 0.946096
#
# Coordination Sequence:
#
# PCOD9351079 Si02
#       8
#     8   8   8   8   8   8   8   8
#     4  10  22  38  58  88 126 156 196 249 297 357
#     4  10  22  40  63  85 116 160 204 248 298 355
#     4  10  20  37  59  86 118 158 201 245 295 356
#     4  10  19  33  55  83 114 148 185 231 289 349
#     4   9  18  33  55  79 110 146 183 231 286 344
#     4  11  21  35  56  85 119 150 186 238 298 355
#     4  11  22  35  56  84 114 149 190 238 292 353
#     4   9  20  41  60  80 113 153 197 242 293 353
#
# _framework density 19.063374
#
# number of rings (size 3 to 8) (size 9 to 14) (size 15 to 20)
#    0.000    2.000    1.250    3.375    0.000    6.500 
#    2.250    0.000    0.000    0.000    0.000    0.000 
#    0.000    0.000    0.000    0.000    0.000    0.000 
#
# Total GULP energy -178167.003487 kJ/mol
# GULP energy per Si atom -5567.718859 kJ/mol
# Density = 1.901999 g / cm^3
# Si number density = 19.063374 Si / 1000 Ang^3
#
#
#
# Elastic Constant Matrix: (Units=GPa)
#
#
# Indices 1 2 3 4 5 6 
#
# 1 57.5963 27.3132 22.8993 0.0000 0.0000 0.0000
# 2 27.3132 75.1671 15.5473 0.0000 0.0000 0.0000
# 3 22.8993 15.5473 32.2440 0.0000 0.0000 0.0000
# 4 0.0000 0.0000 0.0000 17.4746 0.0000 0.0000
# 5 0.0000 0.0000 0.0000 0.0000 10.4049 0.0000
# 6 0.0000 0.0000 0.0000 0.0000 0.0000 25.7905
#
#
#
# Elastic Compliance Matrix: (Units=1/GPa)
#
#
# Indices 1 2 3 4 5 6 
#
# 1 0.026723 -0.006426 -0.015880 0.000000 0.000000 0.000000
# 2 -0.006426 0.016323 -0.003307 0.000000 0.000000 0.000000
# 3 -0.015880 -0.003307 0.043886 0.000000 0.000000 0.000000
# 4 0.000000 0.000000 0.000000 0.057226 0.000000 0.000000
# 5 0.000000 0.000000 0.000000 0.000000 0.096108 0.000000
# 6 0.000000 0.000000 0.000000 0.000000 0.000000 0.038774
#
#
# Mechanical properties :
#
#
# Convention : Reuss Voigt Hill
#
# Bulk Modulus (GPa) = 28.00637 32.94743 30.47690
# Shear Modulus (GPa) = 14.61276 17.35052 15.98164
#
# Velocity S-wave (km/s) = 2.77164 3.02014 2.89856
# Velocity P-wave (km/s) = 4.99657 5.42976 5.21766
#
# Compressibility (1/GPa) = 0.03570616
#
# Stress axis : x y z
#
# Youngs Moduli (GPa) = 37.42090 61.26496 22.78640
#
# Poissons Ratio (x) = 0.39367 0.36185
# Poissons Ratio (y) = 0.24045 0.07535
# Poissons Ratio (z) = 0.59425 0.20260
#
# Static dielectric constant tensor:
#      x y z
#    x 1.664810 0.000000 0.000000 
#    y 0.000000 1.763260 0.000000 
#    z 0.000000 0.000000 1.681410 
# 
# From -- ./inp_files/15606.got.cif
#   From: 2010.05.17/outbox.cif.g08.bks.cpg/sg36_8_cif.got.tgz:15606.got - 2010.06.03 17:41:39.
