data_PCOD9351266
_publ_section_title
;
Structure prediction by ZEFSAII (Michael W. Deem and Ramdas Pophale) SiO2 
 PCOD9351266
Probable space group: C M C 21
;
_chemical_formula_sum "Si O2"
_cell_formula_units_Z 48
_cell_length_a 14.996015
_cell_length_b 14.383952
_cell_length_c 8.644662
_cell_angle_alpha 90.000000
_cell_angle_beta 90.000000
_cell_angle_gamma 90.000000
_cell_volume 1864.670537
_symmetry_space_group_name_H-M "C M C 21"
_symmetry_group_IT_number 36
_symmetry_cell_setting 'orthorhombic'
loop_
_space_group_symop_operation_xyz
x,y,z
-x,-y,1/2+z
x,-y,1/2+z
-x,y,z
1/2+x,1/2+y,z
1/2-x,1/2-y,1/2+z
1/2+x,1/2-y,1/2+z
1/2-x,1/2+y,z
loop_
_atom_site_type_symbol
_atom_site_label
_atom_site_fract_x
_atom_site_fract_y
_atom_site_fract_z
Si Si1 0.606230 0.878469 0.695400
Si Si2 0.672265 0.303257 0.043952
Si Si3 0.891151 0.124656 0.025080
Si Si4 0.654686 0.064972 0.542007
Si Si5 0.600160 0.543983 0.712737
Si Si6 0.101727 0.717755 0.741335
O O1 0.500000 0.866812 0.661562
O O2 0.656261 0.780403 0.665717
O O3 0.616498 0.911720 0.872739
O O4 0.648369 0.956122 0.581316
O O5 0.595663 0.378867 0.080026
O O6 0.752782 0.377564 0.051189
O O7 0.661812 0.251692 0.881348
O O8 0.869178 0.225010 0.088264
O O9 0.000000 0.123330 0.015355
O O10 0.858824 0.050515 0.151142
O O11 0.855434 0.091502 0.860674
O O12 0.603039 0.112486 0.685954
O O13 0.500000 0.517471 0.757984
O O14 0.000000 0.743577 0.780450
#
# Coordination Sequence:
#
# PCOD9351266 Si02
#       6
#     8   8   8   8   8   8
#     4  12  26  50  79 108 144 199 254 298 357 447
#     4  12  26  43  70 106 144 184 234 306 374 427
#     4   9  19  33  57  88 125 171 228 287 346 415
#     4  12  28  47  72 108 147 189 245 313 371 424
#     4  10  19  35  58  92 133 184 240 294 355 435
#     4  11  22  42  68  98 136 187 241 296 360 440
#
# _framework density 25.741814999999999
#
# number of rings (size 3 to 8) (size 9 to 14) (size 15 to 20)
#    0.000    1.000    0.000    7.000    0.000    8.000 
#    0.000    0.000    0.000    0.000    0.000    0.000 
#    0.000    0.000    0.000    0.000    0.000    0.000 
#
# Total GULP energy -134214.090077 kJ/mol
# GULP energy per Si atom -5592.253753 kJ/mol
# Density = 2.568323 g / cm^3
# Si number density = 25.741815 Si / 1000 Ang^3
#
#
#
# Elastic Constant Matrix: (Units=GPa)
#
#
# Indices 1 2 3 4 5 6 
#
# 1 122.7938 20.7739 15.2952 0.0000 0.0000 0.0000
# 2 20.7739 126.0572 -1.3354 0.0000 0.0000 0.0000
# 3 15.2952 -1.3354 84.5955 0.0000 0.0000 0.0000
# 4 0.0000 0.0000 0.0000 50.6830 0.0000 0.0000
# 5 0.0000 0.0000 0.0000 0.0000 22.5341 0.0000
# 6 0.0000 0.0000 0.0000 0.0000 0.0000 26.8838
#
#
#
# Elastic Compliance Matrix: (Units=1/GPa)
#
#
# Indices 1 2 3 4 5 6 
#
# 1 0.008582 -0.001431 -0.001574 0.000000 0.000000 0.000000
# 2 -0.001431 0.008173 0.000388 0.000000 0.000000 0.000000
# 3 -0.001574 0.000388 0.012112 0.000000 0.000000 0.000000
# 4 0.000000 0.000000 0.000000 0.019730 0.000000 0.000000
# 5 0.000000 0.000000 0.000000 0.000000 0.044377 0.000000
# 6 0.000000 0.000000 0.000000 0.000000 0.000000 0.037197
#
#
# Mechanical properties :
#
#
# Convention : Reuss Voigt Hill
#
# Bulk Modulus (GPa) = 42.31631 44.76820 43.54225
# Shear Modulus (GPa) = 34.89591 39.93436 37.41514
#
# Velocity S-wave (km/s) = 3.68586 3.94298 3.81659
# Velocity P-wave (km/s) = 5.88120 6.17725 6.03104
#
# Compressibility (1/GPa) = 0.02363155
#
# Stress axis : x y z
#
# Youngs Moduli (GPa) = 116.52427 122.35660 82.56475
#
# Poissons Ratio (x) = 0.17509 0.12998
# Poissons Ratio (y) = 0.16674 -0.03201
# Poissons Ratio (z) = 0.18344 -0.04744
#
# Static dielectric constant tensor:
#      x y z
#    x 2.094160 0.000000 0.000000 
#    y 0.000000 1.958250 0.000000 
#    z 0.000000 0.000000 2.023690 
# 
# From -- ./inp_files/4663.got.cif
#   From: 2010.05.17/outbox.cif.g08.bks.cpg/sg36_3_cif.got.tgz:4663.got - 2010.06.03 17:41:39.
