data_PCOD9351894
_publ_section_title
;
Structure prediction by ZEFSAII (Michael W. Deem and Ramdas Pophale) SiO2 
 PCOD9351894
Probable space group: C M C 21
;
_chemical_formula_sum "Si O2"
_cell_formula_units_Z 48
_cell_length_a 23.834397
_cell_length_b 9.837012
_cell_length_c 9.730935
_cell_angle_alpha 90.000000
_cell_angle_beta 90.000000
_cell_angle_gamma 90.000000
_cell_volume 2281.507715
_symmetry_space_group_name_H-M "C M C 21"
_symmetry_group_IT_number 36
_symmetry_cell_setting 'orthorhombic'
loop_
_space_group_symop_operation_xyz
x,y,z
-x,-y,1/2+z
x,-y,1/2+z
-x,y,z
1/2+x,1/2+y,z
1/2-x,1/2-y,1/2+z
1/2+x,1/2-y,1/2+z
1/2-x,1/2+y,z
loop_
_atom_site_type_symbol
_atom_site_label
_atom_site_fract_x
_atom_site_fract_y
_atom_site_fract_z
Si Si1 0.379513 0.295080 0.198820
Si Si2 0.216972 0.532688 0.860420
Si Si3 0.500000 0.590657 0.673145
Si Si4 0.803995 0.739261 0.455128
Si Si5 0.318509 0.578114 0.210445
Si Si6 0.000000 0.173380 0.357334
Si Si7 0.621165 0.782129 0.394489
O O1 0.444364 0.331079 0.220757
O O2 0.349545 0.237002 0.333202
O O3 0.348959 0.439222 0.172455
O O4 0.373812 0.209199 0.059563
O O5 0.324894 0.687563 0.091069
O O6 0.213741 0.415665 0.975616
O O7 0.253553 0.663311 0.904345
O O8 0.155856 0.592952 0.830918
O O9 0.500000 0.596304 0.506193
O O10 0.500000 0.440290 0.738301
O O11 0.745813 0.543885 0.246021
O O12 0.348484 0.643856 0.342825
O O13 0.943586 0.263067 0.354214
#
# Coordination Sequence:
#
# PCOD9351894 Si02
#       7
#     8   8   4   8   8   4   8
#     4  10  22  41  61  96 130 167 213 278 336 387
#     4  11  25  41  63  96 132 178 211 278 332 407
#     4  10  20  36  69  91 127 167 227 271 329 383
#     4  11  26  39  64  95 131 166 224 270 334 393
#     4  11  23  39  63  98 125 170 218 275 323 399
#     4  10  22  40  65 101 125 183 217 287 325 401
#     4  11  23  41  65  93 136 170 224 270 339 396
#
# _framework density 21.038719
#
# number of rings (size 3 to 8) (size 9 to 14) (size 15 to 20)
#    0.000    1.333    3.333    2.000    7.000    0.000 
#    0.000    0.833    0.000    2.000    0.000    0.000 
#    0.000    0.000    0.000    0.000    0.000    0.000 
#
# Total GULP energy -134108.575716 kJ/mol
# GULP energy per Si atom -5587.857321 kJ/mol
# Density = 2.099083 g / cm^3
# Si number density = 21.038719 Si / 1000 Ang^3
#
#
#
# Elastic Constant Matrix: (Units=GPa)
#
#
# Indices 1 2 3 4 5 6 
#
# 1 149.1146 36.1374 51.3611 0.0000 0.0000 0.0000
# 2 36.1374 83.2224 9.2476 0.0000 0.0000 0.0000
# 3 51.3611 9.2476 69.7714 0.0000 0.0000 0.0000
# 4 0.0000 0.0000 0.0000 22.0371 0.0000 0.0000
# 5 0.0000 0.0000 0.0000 0.0000 20.6978 0.0000
# 6 0.0000 0.0000 0.0000 0.0000 0.0000 26.2372
#
#
#
# Elastic Compliance Matrix: (Units=1/GPa)
#
#
# Indices 1 2 3 4 5 6 
#
# 1 0.009919 -0.003548 -0.006832 0.000000 0.000000 0.000000
# 2 -0.003548 0.013465 0.000827 0.000000 0.000000 0.000000
# 3 -0.006832 0.000827 0.019252 0.000000 0.000000 0.000000
# 4 0.000000 0.000000 0.000000 0.045378 0.000000 0.000000
# 5 0.000000 0.000000 0.000000 0.000000 0.048314 0.000000
# 6 0.000000 0.000000 0.000000 0.000000 0.000000 0.038114
#
#
# Mechanical properties :
#
#
# Convention : Reuss Voigt Hill
#
# Bulk Modulus (GPa) = 42.49732 55.06674 48.78203
# Shear Modulus (GPa) = 24.82738 27.48523 26.15630
#
# Velocity S-wave (km/s) = 3.43896 3.61835 3.52979
# Velocity P-wave (km/s) = 6.00100 6.60965 6.31266
#
# Compressibility (1/GPa) = 0.02353090
#
# Stress axis : x y z
#
# Youngs Moduli (GPa) = 100.81484 74.26806 51.94308
#
# Poissons Ratio (x) = 0.26351 0.35485
# Poissons Ratio (y) = 0.35770 -0.04297
# Poissons Ratio (z) = 0.68872 -0.06143
#
# Static dielectric constant tensor:
#      x y z
#    x 1.766480 0.000000 0.000000 
#    y 0.000000 1.737960 0.000000 
#    z 0.000000 0.000000 1.792080 
# 
# From -- ./inp_files/9447.got.cif
#   From: 2010.05.17/outbox.cif.g08.bks.cpg/sg36_5_cif.got.tgz:9447.got - 2010.06.03 17:41:39.
