data_PCOD9351430
_publ_section_title
;
Structure prediction by ZEFSAII (Michael W. Deem and Ramdas Pophale) SiO2 
 PCOD9351430
Probable space group: C M C 21
;
_chemical_formula_sum "Si O2"
_cell_formula_units_Z 64
_cell_length_a 14.957644
_cell_length_b 12.091767
_cell_length_c 15.676787
_cell_angle_alpha 90.000000
_cell_angle_beta 90.000000
_cell_angle_gamma 90.000000
_cell_volume 2835.371830
_symmetry_space_group_name_H-M "C M C 21"
_symmetry_group_IT_number 36
_symmetry_cell_setting 'orthorhombic'
loop_
_space_group_symop_operation_xyz
x,y,z
-x,-y,1/2+z
x,-y,1/2+z
-x,y,z
1/2+x,1/2+y,z
1/2-x,1/2-y,1/2+z
1/2+x,1/2-y,1/2+z
1/2-x,1/2+y,z
loop_
_atom_site_type_symbol
_atom_site_label
_atom_site_fract_x
_atom_site_fract_y
_atom_site_fract_z
Si Si1 0.646921 0.220535 0.250000
Si Si2 0.392851 0.438710 0.159681
Si Si3 0.600941 0.987084 0.645529
Si Si4 0.604622 0.870290 0.295218
Si Si5 0.390980 0.507470 0.967408
Si Si6 0.890064 0.497460 0.959837
Si Si7 0.100518 0.249255 0.938406
Si Si8 0.661792 0.621995 0.297531
O O1 0.655267 0.329431 0.193842
O O2 0.597821 0.125375 0.198192
O O3 0.597946 0.255750 0.336221
O O4 0.738619 0.163646 0.278813
O O5 0.500000 0.420975 0.166687
O O6 0.368650 0.541809 0.220780
O O7 0.372182 0.458543 0.060428
O O8 0.500000 0.026799 0.627250
O O9 0.644257 0.077697 0.708285
O O10 0.640219 0.962313 0.552701
O O11 0.500000 0.900964 0.292538
O O12 0.610402 0.739003 0.300305
O O13 0.642667 0.931076 0.379315
O O14 0.500000 0.508832 0.955799
O O15 0.357532 0.634593 0.967715
O O16 0.351770 0.441351 0.886986
O O17 0.860451 0.369536 0.957414
O O18 0.000000 0.500822 0.953839
O O19 0.000000 0.251071 0.974542
#
# Coordination Sequence:
#
# PCOD9351430 Si02
#       8
#     8   8   8   8   8   8   8   8
#     4  12  25  42  67  96 138 183 221 284 352 419
#     4  11  25  48  75 102 136 189 248 291 343 424
#     4  10  21  38  63  94 126 170 222 273 330 407
#     4  10  21  38  63  90 126 171 215 271 335 400
#     4  10  23  45  75 102 130 182 247 297 343 414
#     4   9  19  35  62  97 127 161 216 282 337 393
#     4  10  19  40  69  96 128 178 236 283 336 412
#     4  12  27  44  64  99 144 176 229 289 359 411
#
# _framework density 22.571995000000001
#
# number of rings (size 3 to 8) (size 9 to 14) (size 15 to 20)
#    0.000    1.500    2.500    2.250    5.250    0.000 
#    4.500    0.000    0.000    0.000    0.000    0.000 
#    0.000    0.000    0.000    0.000    0.000    0.000 
#
# Total GULP energy -178793.646927 kJ/mol
# GULP energy per Si atom -5587.301466 kJ/mol
# Density = 2.252062 g / cm^3
# Si number density = 22.571995 Si / 1000 Ang^3
#
#
#
# Elastic Constant Matrix: (Units=GPa)
#
#
# Indices 1 2 3 4 5 6 
#
# 1 66.1163 3.0255 24.2330 0.0000 0.0000 0.0000
# 2 3.0255 112.9214 38.7711 0.0000 0.0000 0.0000
# 3 24.2330 38.7711 131.0949 0.0000 0.0000 0.0000
# 4 0.0000 0.0000 0.0000 35.0155 0.0000 0.0000
# 5 0.0000 0.0000 0.0000 0.0000 -10.3401 0.0000
# 6 0.0000 0.0000 0.0000 0.0000 0.0000 18.2689
#
#
#
# Elastic Compliance Matrix: (Units=1/GPa)
#
#
# Indices 1 2 3 4 5 6 
#
# 1 0.016269 0.000664 -0.003204 0.000000 0.000000 0.000000
# 2 0.000664 0.009884 -0.003046 0.000000 0.000000 0.000000
# 3 -0.003204 -0.003046 0.009121 0.000000 0.000000 0.000000
# 4 0.000000 0.000000 0.000000 0.028559 0.000000 0.000000
# 5 0.000000 0.000000 0.000000 0.000000 -0.096711 0.000000
# 6 0.000000 0.000000 0.000000 0.000000 0.000000 0.054738
#
#
# Mechanical properties :
#
#
# Convention : Reuss Voigt Hill
#
# Bulk Modulus (GPa) = 41.48935 49.13241 45.31088
# Shear Modulus (GPa) = 121.76146 24.86242 73.31194
#
# Velocity S-wave (km/s) = 7.35260 3.32244 5.70523
# Velocity P-wave (km/s) = 9.51324 6.04420 7.96976
#
# Compressibility (1/GPa) = 0.02410257
#
# Stress axis : x y z
#
# Youngs Moduli (GPa) = 61.46781 101.17666 109.63624
#
# Poissons Ratio (x) = -0.06719 0.35124
# Poissons Ratio (y) = -0.04082 0.33394
# Poissons Ratio (z) = 0.19692 0.30817
#
# Static dielectric constant tensor:
#      x y z
#    x 2.386640 0.000000 0.000000 
#    y 0.000000 1.803960 0.000000 
#    z 0.000000 0.000000 1.828250 
# 
# From -- ./inp_files/12633.got.cif
#   From: 2010.05.17/outbox.cif.g08.bks.cpg/sg36_7_cif.got.tgz:12633.got - 2010.06.03 17:41:39.
