data_PCOD9351537
_publ_section_title
;
Structure prediction by ZEFSAII (Michael W. Deem and Ramdas Pophale) SiO2 
 PCOD9351537
Probable space group: C M C 21
;
_chemical_formula_sum "Si O2"
_cell_formula_units_Z 64
_cell_length_a 8.385424
_cell_length_b 29.296500
_cell_length_c 14.611905
_cell_angle_alpha 90.000000
_cell_angle_beta 90.000000
_cell_angle_gamma 90.000000
_cell_volume 3589.612808
_symmetry_space_group_name_H-M "C M C 21"
_symmetry_group_IT_number 36
_symmetry_cell_setting 'orthorhombic'
loop_
_space_group_symop_operation_xyz
x,y,z
-x,-y,1/2+z
x,-y,1/2+z
-x,y,z
1/2+x,1/2+y,z
1/2-x,1/2-y,1/2+z
1/2+x,1/2-y,1/2+z
1/2-x,1/2+y,z
loop_
_atom_site_type_symbol
_atom_site_label
_atom_site_fract_x
_atom_site_fract_y
_atom_site_fract_z
Si Si1 0.192727 0.801574 0.646580
Si Si2 0.194322 0.948350 0.143286
Si Si3 0.805624 0.874533 0.497928
Si Si4 0.307181 0.552376 0.145949
Si Si5 0.193219 0.126262 0.789021
Si Si6 0.310893 0.125310 0.288861
Si Si7 0.691331 0.197069 0.641764
Si Si8 0.308941 0.374658 0.995637
O O1 0.243607 0.830482 0.557220
O O2 0.248950 0.830295 0.734159
O O3 0.247610 0.749395 0.644348
O O4 0.000000 0.801583 0.647705
O O5 0.241946 0.918726 0.231875
O O6 0.000000 0.949411 0.142503
O O7 0.250719 0.000357 0.145005
O O8 0.243996 0.918948 0.054696
O O9 0.755710 0.918680 0.556812
O O10 0.750589 0.874218 0.393535
O O11 0.000000 0.874764 0.495946
O O12 0.500000 0.551652 0.145626
O O13 0.254856 0.581485 0.233821
O O14 0.253476 0.169340 0.731188
O O15 0.000000 0.127578 0.788667
O O16 0.500000 0.124717 0.284060
O O17 0.256729 0.125497 0.393598
O O18 0.500000 0.196846 0.637831
O O19 0.755686 0.169090 0.554699
O O20 0.500000 0.375265 0.992050
#
# Coordination Sequence:
#
# PCOD9351537 Si02
#       8
#     8   8   8   8   8   8   8   8
#     4   9  19  36  54  73 100 136 175 214 257 306
#     4   8  16  30  52  78 100 129 171 212 249 300
#     4   8  15  29  50  71  93 125 165 208 248 292
#     4   9  17  33  54  75 101 134 173 216 258 300
#     4   9  17  31  50  74 102 132 169 210 254 304
#     4  11  22  35  52  77 107 139 175 215 262 312
#     4  10  20  34  52  76 104 133 170 215 261 308
#     4  10  20  36  56  78 105 138 176 216 259 308
#
# _framework density 17.829222000000001
#
# number of rings (size 3 to 8) (size 9 to 14) (size 15 to 20)
#    0.000    2.750    0.000    3.375    0.000    3.000 
#    0.000   10.625    0.000    0.000    0.000    0.000 
#    0.000    0.000    0.000    0.000    0.000    0.000 
#
# Total GULP energy -178444.138805 kJ/mol
# GULP energy per Si atom -5576.379338 kJ/mol
# Density = 1.778864 g / cm^3
# Si number density = 17.829222 Si / 1000 Ang^3
#
#
#
# Elastic Constant Matrix: (Units=GPa)
#
#
# Indices 1 2 3 4 5 6 
#
# 1 19.4260 21.9252 15.3963 0.0000 0.0000 0.0000
# 2 21.9252 201.5660 102.9962 0.0000 0.0000 0.0000
# 3 15.3963 102.9962 186.1287 0.0000 0.0000 0.0000
# 4 0.0000 0.0000 0.0000 5.5365 0.0000 0.0000
# 5 0.0000 0.0000 0.0000 0.0000 16.3393 0.0000
# 6 0.0000 0.0000 0.0000 0.0000 0.0000 21.7903
#
#
#
# Elastic Compliance Matrix: (Units=1/GPa)
#
#
# Indices 1 2 3 4 5 6 
#
# 1 0.059139 -0.005484 -0.001857 0.000000 0.000000 0.000000
# 2 -0.005484 0.007425 -0.003655 0.000000 0.000000 0.000000
# 3 -0.001857 -0.003655 0.007549 0.000000 0.000000 0.000000
# 4 0.000000 0.000000 0.000000 0.180619 0.000000 0.000000
# 5 0.000000 0.000000 0.000000 0.000000 0.061202 0.000000
# 6 0.000000 0.000000 0.000000 0.000000 0.000000 0.045892
#
#
# Mechanical properties :
#
#
# Convention : Reuss Voigt Hill
#
# Bulk Modulus (GPa) = 19.18643 76.41738 47.80190
# Shear Modulus (GPa) = 12.46283 26.52008 19.49146
#
# Velocity S-wave (km/s) = 2.64675 3.86093 3.30999
# Velocity P-wave (km/s) = 4.48609 7.92651 6.44028
#
# Compressibility (1/GPa) = 0.05212017
#
# Stress axis : x y z
#
# Youngs Moduli (GPa) = 16.90943 134.67209 132.46804
#
# Poissons Ratio (x) = 0.73850 0.24605
# Poissons Ratio (y) = 0.09273 0.48422
# Poissons Ratio (z) = 0.03141 0.49227
#
# Static dielectric constant tensor:
#      x y z
#    x 1.615200 0.000000 0.000000 
#    y 0.000000 1.602480 0.000000 
#    z 0.000000 0.000000 1.587860 
# 
# From -- ./inp_files/11196.got.cif
#   From: 2010.05.17/outbox.cif.g08.bks.cpg/sg36_6_cif.got.tgz:11196.got - 2010.06.03 17:41:39.
