data_PCOD9351167
_publ_section_title
;
Structure prediction by ZEFSAII (Michael W. Deem and Ramdas Pophale) SiO2 
 PCOD9351167
Probable space group: C M C 21
;
_chemical_formula_sum "Si O2"
_cell_formula_units_Z 64
_cell_length_a 7.570135
_cell_length_b 24.743341
_cell_length_c 15.624860
_cell_angle_alpha 90.000000
_cell_angle_beta 90.000000
_cell_angle_gamma 90.000000
_cell_volume 2926.699272
_symmetry_space_group_name_H-M "C M C 21"
_symmetry_group_IT_number 36
_symmetry_cell_setting 'orthorhombic'
loop_
_space_group_symop_operation_xyz
x,y,z
-x,-y,1/2+z
x,-y,1/2+z
-x,y,z
1/2+x,1/2+y,z
1/2-x,1/2-y,1/2+z
1/2+x,1/2-y,1/2+z
1/2-x,1/2+y,z
loop_
_atom_site_type_symbol
_atom_site_label
_atom_site_fract_x
_atom_site_fract_y
_atom_site_fract_z
Si Si1 0.211205 0.748740 0.635470
Si Si2 0.216722 0.423211 0.723229
Si Si3 0.290851 0.860238 0.553667
Si Si4 0.205268 0.454620 0.219156
Si Si5 0.783613 0.357194 0.889815
Si Si6 0.704114 0.255641 0.329117
Si Si7 0.715975 0.870726 0.079040
Si Si8 0.796524 0.125714 0.862220
O O1 0.256018 0.796959 0.571000
O O2 0.289382 0.759973 0.729226
O O3 0.271626 0.689671 0.605568
O O4 0.000000 0.747330 0.644604
O O5 0.273635 0.392522 0.637116
O O6 0.278837 0.485116 0.724144
O O7 0.274204 0.391482 0.808102
O O8 0.000000 0.422171 0.724323
O O9 0.500000 0.868302 0.547545
O O10 0.212774 0.879506 0.464063
O O11 0.280652 0.414992 0.146459
O O12 0.212637 0.422428 0.308395
O O13 0.000000 0.461949 0.196250
O O14 0.721135 0.295213 0.880254
O O15 0.000000 0.355614 0.887769
O O16 0.731605 0.380822 0.981283
O O17 0.500000 0.261002 0.357162
O O18 0.783973 0.315244 0.339998
O O19 0.500000 0.870316 0.081981
O O20 0.000000 0.126209 0.834096
#
# Coordination Sequence:
#
# PCOD9351167 Si02
#       8
#     8   8   8   8   8   8   8   8
#     4  11  20  33  55  85 115 148 187 230 288 347
#     4   9  19  34  57  84 110 144 194 239 279 329
#     4  11  22  38  59  87 117 151 192 238 287 343
#     4  10  20  37  58  84 112 147 194 242 282 331
#     4   9  16  31  54  80 107 141 184 233 277 328
#     4  10  19  34  57  80 110 149 191 231 282 342
#     4   9  18  31  52  80 113 145 180 226 283 338
#     4  11  23  38  58  86 116 153 192 235 292 348
#
# _framework density 21.867639
#
# number of rings (size 3 to 8) (size 9 to 14) (size 15 to 20)
#    0.000    2.000    2.500    1.875    0.000    3.500 
#    0.000    5.000    0.000    0.750    0.000    0.000 
#    0.000    0.000    0.000    0.000    0.000    0.000 
#
# Total GULP energy -178819.800991 kJ/mol
# GULP energy per Si atom -5588.118781 kJ/mol
# Density = 2.181787 g / cm^3
# Si number density = 21.867639 Si / 1000 Ang^3
#
#
#
# Elastic Constant Matrix: (Units=GPa)
#
#
# Indices 1 2 3 4 5 6 
#
# 1 52.3575 1.4897 -9.4603 0.0000 0.0000 0.0000
# 2 1.4897 137.5723 39.8652 0.0000 0.0000 0.0000
# 3 -9.4603 39.8652 113.0414 0.0000 0.0000 0.0000
# 4 0.0000 0.0000 0.0000 6.3686 0.0000 0.0000
# 5 0.0000 0.0000 0.0000 0.0000 11.2138 0.0000
# 6 0.0000 0.0000 0.0000 0.0000 0.0000 6.2638
#
#
#
# Elastic Compliance Matrix: (Units=1/GPa)
#
#
# Indices 1 2 3 4 5 6 
#
# 1 0.019464 -0.000761 0.001897 0.000000 0.000000 0.000000
# 2 -0.000761 0.008126 -0.002929 0.000000 0.000000 0.000000
# 3 0.001897 -0.002929 0.010038 0.000000 0.000000 0.000000
# 4 0.000000 0.000000 0.000000 0.157020 0.000000 0.000000
# 5 0.000000 0.000000 0.000000 0.000000 0.089176 0.000000
# 6 0.000000 0.000000 0.000000 0.000000 0.000000 0.159648
#
#
# Mechanical properties :
#
#
# Convention : Reuss Voigt Hill
#
# Bulk Modulus (GPa) = 29.37503 40.75116 35.06309
# Shear Modulus (GPa) = 10.90740 22.84102 16.87421
#
# Velocity S-wave (km/s) = 2.23579 3.23540 2.78088
# Velocity P-wave (km/s) = 4.48634 5.71252 5.13615
#
# Compressibility (1/GPa) = 0.03404252
#
# Stress axis : x y z
#
# Youngs Moduli (GPa) = 51.37719 123.06183 99.61998
#
# Poissons Ratio (x) = 0.09359 -0.18899
# Poissons Ratio (y) = 0.03907 0.29182
# Poissons Ratio (z) = -0.09747 0.36049
#
# Static dielectric constant tensor:
#      x y z
#    x 1.856220 0.000000 0.000000 
#    y 0.000000 1.779640 0.000000 
#    z 0.000000 0.000000 1.768260 
# 
# From -- ./inp_files/11032.got.cif
#   From: 2010.05.17/outbox.cif.g08.bks.cpg/sg36_6_cif.got.tgz:11032.got - 2010.06.03 17:41:39.
