data_PCOD9351338
_publ_section_title
;
Structure prediction by ZEFSAII (Michael W. Deem and Ramdas Pophale) SiO2 
 PCOD9351338
Probable space group: C M C 21
;
_chemical_formula_sum "Si O2"
_cell_formula_units_Z 64
_cell_length_a 8.669725
_cell_length_b 29.658220
_cell_length_c 12.713846
_cell_angle_alpha 90.000000
_cell_angle_beta 90.000000
_cell_angle_gamma 90.000000
_cell_volume 3269.093567
_symmetry_space_group_name_H-M "C M C 21"
_symmetry_group_IT_number 36
_symmetry_cell_setting 'orthorhombic'
loop_
_space_group_symop_operation_xyz
x,y,z
-x,-y,1/2+z
x,-y,1/2+z
-x,y,z
1/2+x,1/2+y,z
1/2-x,1/2-y,1/2+z
1/2+x,1/2-y,1/2+z
1/2-x,1/2+y,z
loop_
_atom_site_type_symbol
_atom_site_label
_atom_site_fract_x
_atom_site_fract_y
_atom_site_fract_z
Si Si1 0.816023 0.224198 0.229190
Si Si2 0.688505 0.026198 0.504454
Si Si3 0.825766 0.318095 0.930313
Si Si4 0.185501 0.571520 0.942837
Si Si5 0.186738 0.413919 0.204182
Si Si6 0.176541 0.586182 0.312926
Si Si7 0.182997 0.133098 0.113275
Si Si8 0.179484 0.816750 0.149465
O O1 0.727263 0.213968 0.336836
O O2 0.769951 0.183702 0.148823
O O3 0.769497 0.273325 0.191237
O O4 0.000000 0.220629 0.244648
O O5 0.500000 0.028104 0.503264
O O6 0.738241 0.054110 0.607391
O O7 0.738403 0.049064 0.394203
O O8 0.735886 0.974172 0.501887
O O9 0.828207 0.368240 0.882173
O O10 0.000000 0.307605 0.967120
O O11 0.706840 0.316496 0.024656
O O12 0.232342 0.569729 0.820555
O O13 0.000000 0.572607 0.944872
O O14 0.245423 0.614668 0.005950
O O15 0.250726 0.363766 0.188995
O O16 0.000000 0.412414 0.199857
O O17 0.266310 0.599631 0.207965
O O18 0.000000 0.574058 0.282977
O O19 0.000000 0.132673 0.103993
O O20 0.000000 0.813569 0.176258
#
# Coordination Sequence:
#
# PCOD9351338 Si02
#       8
#     8   8   8   8   8   8   8   8
#     4  10  22  40  61  86 118 160 207 256 309 366
#     4   9  18  35  61  91 116 150 200 252 299 352
#     4  10  19  36  60  87 116 151 195 251 309 359
#     4  10  22  37  62  91 120 162 206 250 300 361
#     4  10  21  40  61  88 124 158 202 256 308 358
#     4   9  17  33  61  86 110 147 195 248 294 349
#     4  10  22  39  58  84 122 158 194 246 306 362
#     4  12  24  38  60  89 122 162 205 249 303 369
#
# _framework density 19.577290999999999
#
# number of rings (size 3 to 8) (size 9 to 14) (size 15 to 20)
#    0.000    2.000    1.250    2.250    1.750    3.500 
#    0.000    3.750    0.000    0.000    0.000    0.000 
#    0.000    0.000    0.000    0.000    0.000    0.000 
#
# Total GULP energy -178637.816788 kJ/mol
# GULP energy per Si atom -5582.431775 kJ/mol
# Density = 1.953273 g / cm^3
# Si number density = 19.577291 Si / 1000 Ang^3
#
#
#
# Elastic Constant Matrix: (Units=GPa)
#
#
# Indices 1 2 3 4 5 6 
#
# 1 19.9325 16.5559 8.4713 0.0000 0.0000 0.0000
# 2 16.5559 102.0835 44.8726 0.0000 0.0000 0.0000
# 3 8.4713 44.8726 68.6136 0.0000 0.0000 0.0000
# 4 0.0000 0.0000 0.0000 16.2345 0.0000 0.0000
# 5 0.0000 0.0000 0.0000 0.0000 22.2249 0.0000
# 6 0.0000 0.0000 0.0000 0.0000 0.0000 18.2453
#
#
#
# Elastic Compliance Matrix: (Units=1/GPa)
#
#
# Indices 1 2 3 4 5 6 
#
# 1 0.058078 -0.008796 -0.001418 0.000000 0.000000 0.000000
# 2 -0.008796 0.015080 -0.008776 0.000000 0.000000 0.000000
# 3 -0.001418 -0.008776 0.020489 0.000000 0.000000 0.000000
# 4 0.000000 0.000000 0.000000 0.061597 0.000000 0.000000
# 5 0.000000 0.000000 0.000000 0.000000 0.044995 0.000000
# 6 0.000000 0.000000 0.000000 0.000000 0.000000 0.054809
#
#
# Mechanical properties :
#
#
# Convention : Reuss Voigt Hill
#
# Bulk Modulus (GPa) = 17.96407 36.71435 27.33921
# Shear Modulus (GPa) = 16.04706 19.38958 17.71832
#
# Velocity S-wave (km/s) = 2.86611 3.15050 3.01166
# Velocity P-wave (km/s) = 4.48872 5.65937 5.10769
#
# Compressibility (1/GPa) = 0.05566669
#
# Stress axis : x y z
#
# Youngs Moduli (GPa) = 17.21827 66.31213 48.80641
#
# Poissons Ratio (x) = 0.58326 0.06922
# Poissons Ratio (y) = 0.15145 0.42834
# Poissons Ratio (z) = 0.02442 0.58198
#
# Static dielectric constant tensor:
#      x y z
#    x 1.667400 0.000000 0.000000 
#    y 0.000000 1.684530 0.000000 
#    z 0.000000 0.000000 1.689590 
# 
# From -- ./inp_files/7077.got.cif
#   From: 2010.05.17/outbox.cif.g08.bks.cpg/sg36_4_cif.got.tgz:7077.got - 2010.06.03 17:41:39.
