data_PCOD9351969
_publ_section_title
;
Structure prediction by ZEFSAII (Michael W. Deem and Ramdas Pophale) SiO2 
 PCOD9351969
Probable space group: C M C 21
;
_chemical_formula_sum "Si O2"
_cell_formula_units_Z 52
_cell_length_a 18.621611
_cell_length_b 5.033504
_cell_length_c 28.456317
_cell_angle_alpha 90.000000
_cell_angle_beta 90.000000
_cell_angle_gamma 90.000000
_cell_volume 2667.266181
_symmetry_space_group_name_H-M "C M C 21"
_symmetry_group_IT_number 36
_symmetry_cell_setting 'orthorhombic'
loop_
_space_group_symop_operation_xyz
x,y,z
-x,-y,1/2+z
x,-y,1/2+z
-x,y,z
1/2+x,1/2+y,z
1/2-x,1/2-y,1/2+z
1/2+x,1/2-y,1/2+z
1/2-x,1/2+y,z
loop_
_atom_site_type_symbol
_atom_site_label
_atom_site_fract_x
_atom_site_fract_y
_atom_site_fract_z
Si Si1 0.917569 0.295412 0.225840
Si Si2 0.795893 0.869999 0.653378
Si Si3 0.917472 0.211677 0.790263
Si Si4 0.608026 0.323932 0.566543
Si Si5 0.000000 0.674642 0.077586
Si Si6 0.299468 0.748448 0.977529
Si Si7 0.200979 0.186393 0.868971
O O1 0.862411 0.210015 0.186206
O O2 0.900949 0.578658 0.248938
O O3 0.000000 0.299863 0.207794
O O4 0.913743 0.079139 0.267389
O O5 0.731249 0.666079 0.662616
O O6 0.823058 0.835635 0.600434
O O7 0.862598 0.237767 0.832728
O O8 0.000000 0.262601 0.804877
O O9 0.562061 0.588983 0.575266
O O10 0.636592 0.306953 0.513275
O O11 0.562172 0.061276 0.577672
O O12 0.235200 0.537222 0.984686
O O13 0.322621 0.718091 0.923128
O O14 0.265115 0.396725 0.861676
#
# Coordination Sequence:
#
# PCOD9351969 Si02
#       7
#     8   8   8   8   4   8   8
#     4  10  23  40  60  84 119 165 198 242 307 366
#     4  12  25  40  62  96 122 156 208 254 299 350
#     4  10  21  40  59  84 120 158 200 245 304 357
#     4  11  22  42  61  88 128 157 206 242 305 351
#     4  10  24  38  60  88 116 164 208 240 292 368
#     4  10  20  37  63  87 120 161 198 245 306 361
#     4  10  21  36  61  91 116 156 201 243 300 354
#
# _framework density 19.495615000000001
#
# number of rings (size 3 to 8) (size 9 to 14) (size 15 to 20)
#    0.000    1.538    0.000    4.615    2.154    3.692 
#    5.538    0.000    3.385    0.000    0.000    0.000 
#    0.000    0.000    0.000    0.000    0.000    0.000 
#
# Total GULP energy -144799.287078 kJ/mol
# GULP energy per Si atom -5569.203349 kJ/mol
# Density = 1.945124 g / cm^3
# Si number density = 19.495615 Si / 1000 Ang^3
#
#
#
# Elastic Constant Matrix: (Units=GPa)
#
#
# Indices 1 2 3 4 5 6 
#
# 1 49.8163 0.0725 32.9453 0.0000 0.0000 0.0000
# 2 0.0725 88.1200 -7.3515 0.0000 0.0000 0.0000
# 3 32.9453 -7.3515 51.0584 0.0000 0.0000 0.0000
# 4 0.0000 0.0000 0.0000 8.3033 0.0000 0.0000
# 5 0.0000 0.0000 0.0000 0.0000 -37.1478 0.0000
# 6 0.0000 0.0000 0.0000 0.0000 0.0000 23.4520
#
#
#
# Elastic Compliance Matrix: (Units=1/GPa)
#
#
# Indices 1 2 3 4 5 6 
#
# 1 0.035346 -0.001955 -0.023088 0.000000 0.000000 0.000000
# 2 -0.001955 0.011594 0.002931 0.000000 0.000000 0.000000
# 3 -0.023088 0.002931 0.034905 0.000000 0.000000 0.000000
# 4 0.000000 0.000000 0.000000 0.120434 0.000000 0.000000
# 5 0.000000 0.000000 0.000000 0.000000 -0.026920 0.000000
# 6 0.000000 0.000000 0.000000 0.000000 0.000000 0.042640
#
#
# Mechanical properties :
#
#
# Convention : Reuss Voigt Hill
#
# Bulk Modulus (GPa) = 26.58156 26.70303 26.64230
# Shear Modulus (GPa) = 18.19737 9.81005 14.00371
#
# Velocity S-wave (km/s) = 3.05849 2.24563 2.68302
# Velocity P-wave (km/s) = 5.11241 4.52222 4.82634
#
# Compressibility (1/GPa) = 0.03762006
#
# Stress axis : x y z
#
# Youngs Moduli (GPa) = 28.29194 86.24932 28.64909
#
# Poissons Ratio (x) = 0.16864 0.66146
# Poissons Ratio (y) = 0.05532 -0.08397
# Poissons Ratio (z) = 0.65321 -0.25280
#
# Static dielectric constant tensor:
#      x y z
#    x 1.657080 0.000000 0.000000 
#    y 0.000000 1.659380 0.000000 
#    z 0.000000 0.000000 1.677570 
# 
# From -- ./inp_files/17240.got.cif
#   From: 2010.05.17/outbox.cif.g08.bks.cpg/sg36_9_cif.got.tgz:17240.got - 2010.06.03 17:41:39.
