data_PCOD9351214
_publ_section_title
;
Structure prediction by ZEFSAII (Michael W. Deem and Ramdas Pophale) SiO2 
 PCOD9351214
Probable space group: C M C 21
;
_chemical_formula_sum "Si O2"
_cell_formula_units_Z 64
_cell_length_a 7.758695
_cell_length_b 29.245110
_cell_length_c 13.078289
_cell_angle_alpha 90.000000
_cell_angle_beta 90.000000
_cell_angle_gamma 90.000000
_cell_volume 2967.514632
_symmetry_space_group_name_H-M "C M C 21"
_symmetry_group_IT_number 36
_symmetry_cell_setting 'orthorhombic'
loop_
_space_group_symop_operation_xyz
x,y,z
-x,-y,1/2+z
x,-y,1/2+z
-x,y,z
1/2+x,1/2+y,z
1/2-x,1/2-y,1/2+z
1/2+x,1/2-y,1/2+z
1/2-x,1/2+y,z
loop_
_atom_site_type_symbol
_atom_site_label
_atom_site_fract_x
_atom_site_fract_y
_atom_site_fract_z
Si Si1 0.801919 0.562120 0.881620
Si Si2 0.291027 0.722645 0.148201
Si Si3 0.206107 0.176917 0.573745
Si Si4 0.198183 0.032616 0.443044
Si Si5 0.291805 0.628571 0.047081
Si Si6 0.291000 0.580226 0.650990
Si Si7 0.803216 0.080253 0.245206
Si Si8 0.302015 0.320036 0.848329
O O1 0.698849 0.521786 0.937256
O O2 0.768496 0.562677 0.760805
O O3 0.000000 0.551884 0.900238
O O4 0.757917 0.609901 0.936542
O O5 0.500000 0.720460 0.150303
O O6 0.239950 0.773037 0.116291
O O7 0.234440 0.680021 0.076480
O O8 0.223520 0.712080 0.262107
O O9 0.267614 0.132799 0.635983
O O10 0.279645 0.176234 0.458883
O O11 0.000000 0.170118 0.567424
O O12 0.268251 0.052465 0.549671
O O13 0.278127 0.049409 0.334694
O O14 0.000000 0.049917 0.439383
O O15 0.500000 0.628509 0.055060
O O16 0.226904 0.592564 0.134177
O O17 0.500000 0.577678 0.653619
O O18 0.810602 0.130107 0.297843
O O19 0.000000 0.062957 0.227001
O O20 0.500000 0.304277 0.863728
#
# Coordination Sequence:
#
# PCOD9351214 Si02
#       8
#     8   8   8   8   8   8   8   8
#     4  12  27  41  56  84 127 165 194 240 308 367
#     4   9  19  34  56  85 118 154 194 240 294 352
#     4  10  19  34  59  87 115 148 193 244 290 345
#     4  10  20  38  65  90 110 144 201 252 294 351
#     4   9  19  38  61  85 115 154 204 247 285 348
#     4  10  22  41  64  89 117 154 204 250 289 353
#     4   8  14  30  60  87 103 132 187 247 290 332
#     4   8  14  30  53  79 107 139 183 236 288 334
#
# _framework density 21.566867999999999
#
# number of rings (size 3 to 8) (size 9 to 14) (size 15 to 20)
#    0.000    2.500    1.250    2.625    1.750    2.500 
#    0.000    3.125    0.000    1.500    0.000    0.000 
#    0.000    0.000    0.000    0.000    0.000    0.000 
#
# Total GULP energy -178412.748861 kJ/mol
# GULP energy per Si atom -5575.398402 kJ/mol
# Density = 2.151778 g / cm^3
# Si number density = 21.566868 Si / 1000 Ang^3
#
#
#
# Elastic Constant Matrix: (Units=GPa)
#
#
# Indices 1 2 3 4 5 6 
#
# 1 38.7168 -4.5303 5.6493 0.0000 0.0000 0.0000
# 2 -4.5303 87.0729 49.7731 0.0000 0.0000 0.0000
# 3 5.6493 49.7731 103.7418 0.0000 0.0000 0.0000
# 4 0.0000 0.0000 0.0000 25.6204 0.0000 0.0000
# 5 0.0000 0.0000 0.0000 0.0000 -5.7307 0.0000
# 6 0.0000 0.0000 0.0000 0.0000 0.0000 16.6154
#
#
#
# Elastic Compliance Matrix: (Units=1/GPa)
#
#
# Indices 1 2 3 4 5 6 
#
# 1 0.026610 0.003049 -0.002912 0.000000 0.000000 0.000000
# 2 0.003049 0.016174 -0.007926 0.000000 0.000000 0.000000
# 3 -0.002912 -0.007926 0.013601 0.000000 0.000000 0.000000
# 4 0.000000 0.000000 0.000000 0.039031 0.000000 0.000000
# 5 0.000000 0.000000 0.000000 0.000000 -0.174498 0.000000
# 6 0.000000 0.000000 0.000000 0.000000 0.000000 0.060185
#
#
# Mechanical properties :
#
#
# Convention : Reuss Voigt Hill
#
# Bulk Modulus (GPa) = 24.50555 36.81285 30.65920
# Shear Modulus (GPa) = 486.23045 19.21031 252.72038
#
# Velocity S-wave (km/s) = 15.03137 2.98775 10.83671
# Velocity P-wave (km/s) = 17.68172 5.38595 13.07003
#
# Compressibility (1/GPa) = 0.04080708
#
# Stress axis : x y z
#
# Youngs Moduli (GPa) = 37.57949 61.82786 73.52626
#
# Poissons Ratio (x) = -0.18851 0.21410
# Poissons Ratio (y) = -0.11458 0.58276
# Poissons Ratio (z) = 0.10943 0.49004
#
# Static dielectric constant tensor:
#      x y z
#    x 1.819600 0.000000 0.000000 
#    y 0.000000 1.771530 0.000000 
#    z 0.000000 0.000000 1.820820 
# 
# From -- ./inp_files/7140.got.cif
#   From: 2010.05.17/outbox.cif.g08.bks.cpg/sg36_4_cif.got.tgz:7140.got - 2010.06.03 17:41:39.
