data_PCOD9351225
_publ_section_title
;
Structure prediction by ZEFSAII (Michael W. Deem and Ramdas Pophale) SiO2 
 PCOD9351225
Probable space group: C M C 21
;
_chemical_formula_sum "Si O2"
_cell_formula_units_Z 48
_cell_length_a 22.275089
_cell_length_b 12.616708
_cell_length_c 7.557477
_cell_angle_alpha 90.000000
_cell_angle_beta 90.000000
_cell_angle_gamma 90.000000
_cell_volume 2123.940440
_symmetry_space_group_name_H-M "C M C 21"
_symmetry_group_IT_number 36
_symmetry_cell_setting 'orthorhombic'
loop_
_space_group_symop_operation_xyz
x,y,z
-x,-y,1/2+z
x,-y,1/2+z
-x,y,z
1/2+x,1/2+y,z
1/2-x,1/2-y,1/2+z
1/2+x,1/2-y,1/2+z
1/2-x,1/2+y,z
loop_
_atom_site_type_symbol
_atom_site_label
_atom_site_fract_x
_atom_site_fract_y
_atom_site_fract_z
Si Si1 0.500000 0.820853 0.786721
Si Si2 0.000000 0.822846 0.802449
Si Si3 0.500000 0.983467 0.459995
Si Si4 0.604185 0.648529 0.784992
Si Si5 0.500000 0.472665 0.458198
Si Si6 0.102575 0.352678 0.315618
Si Si7 0.182093 0.203987 0.478266
Si Si8 0.684174 0.256355 0.587485
O O1 0.500000 0.905505 0.627476
O O2 0.558216 0.747675 0.774328
O O3 0.500000 0.889724 0.967898
O O4 0.057134 0.747144 0.805377
O O5 0.000000 0.896395 0.628304
O O6 0.000000 0.900711 0.971489
O O7 0.560846 0.950957 0.356505
O O8 0.560575 0.555900 0.850954
O O9 0.640632 0.633331 0.603777
O O10 0.653729 0.679275 0.930890
O O11 0.149436 0.319953 0.469269
O O12 0.142273 0.344754 0.139103
O O13 0.249122 0.218232 0.546658
O O14 0.184053 0.176190 0.270327
#
# Coordination Sequence:
#
# PCOD9351225 Si02
#       8
#     4   4   4   8   4   8   8   8
#     4  11  24  34  60  87 114 152 189 231 293 344
#     4  11  22  36  57  88 115 152 187 237 290 337
#     4  11  22  36  57  88 115 152 187 237 290 337
#     4  11  21  40  56  88 115 151 190 230 286 343
#     4  11  24  34  60  87 114 152 189 231 293 344
#     4   9  21  38  56  82 123 143 186 244 276 335
#     4  10  19  34  61  84 110 151 192 232 280 336
#     4  10  19  34  61  84 110 151 192 232 280 336
#
# _framework density 22.599504
#
# number of rings (size 3 to 8) (size 9 to 14) (size 15 to 20)
#    1.000    0.667    5.000    0.000    4.667    0.000 
#    0.000    0.000    0.000   12.000    0.000    0.000 
#    0.000    0.000    0.000    0.000    0.000    0.000 
#
# Total GULP energy -134018.397765 kJ/mol
# GULP energy per Si atom -5584.099907 kJ/mol
# Density = 2.254807 g / cm^3
# Si number density = 22.599504 Si / 1000 Ang^3
#
#
#
# Elastic Constant Matrix: (Units=GPa)
#
#
# Indices 1 2 3 4 5 6 
#
# 1 163.1236 28.9573 31.8298 0.0000 0.0000 0.0000
# 2 28.9573 62.7799 9.7878 0.0000 0.0000 0.0000
# 3 31.8298 9.7878 106.3314 0.0000 0.0000 0.0000
# 4 0.0000 0.0000 0.0000 25.8677 0.0000 0.0000
# 5 0.0000 0.0000 0.0000 0.0000 50.8695 0.0000
# 6 0.0000 0.0000 0.0000 0.0000 0.0000 13.3077
#
#
#
# Elastic Compliance Matrix: (Units=1/GPa)
#
#
# Indices 1 2 3 4 5 6 
#
# 1 0.007010 -0.002949 -0.001827 0.000000 0.000000 0.000000
# 2 -0.002949 0.017401 -0.000719 0.000000 0.000000 0.000000
# 3 -0.001827 -0.000719 0.010018 0.000000 0.000000 0.000000
# 4 0.000000 0.000000 0.000000 0.038658 0.000000 0.000000
# 5 0.000000 0.000000 0.000000 0.000000 0.019658 0.000000
# 6 0.000000 0.000000 0.000000 0.000000 0.000000 0.075145
#
#
# Mechanical properties :
#
#
# Convention : Reuss Voigt Hill
#
# Bulk Modulus (GPa) = 42.66355 52.59827 47.63091
# Shear Modulus (GPa) = 26.78201 35.45297 31.11749
#
# Velocity S-wave (km/s) = 3.44622 3.96504 3.71470
# Velocity P-wave (km/s) = 5.89528 6.65482 6.28653
#
# Compressibility (1/GPa) = 0.02343921
#
# Stress axis : x y z
#
# Youngs Moduli (GPa) = 142.64793 57.46847 99.82360
#
# Poissons Ratio (x) = 0.16945 0.18238
# Poissons Ratio (y) = 0.42062 0.07178
# Poissons Ratio (z) = 0.26063 0.04132
#
# Static dielectric constant tensor:
#      x y z
#    x 1.824440 0.000000 0.000000 
#    y 0.000000 1.832490 0.000000 
#    z 0.000000 0.000000 1.996560 
# 
# From -- ./inp_files/5607.got.cif
#   From: 2010.05.17/outbox.cif.g08.bks.cpg/sg36_3_cif.got.tgz:5607.got - 2010.06.03 17:41:39.
