data_PCOD9351047
_publ_section_title
;
Structure prediction by ZEFSAII (Michael W. Deem and Ramdas Pophale) SiO2 
 PCOD9351047
Probable space group: C M C 21
;
_chemical_formula_sum "Si O2"
_cell_formula_units_Z 48
_cell_length_a 9.053603
_cell_length_b 18.800067
_cell_length_c 16.699369
_cell_angle_alpha 90.000000
_cell_angle_beta 90.000000
_cell_angle_gamma 90.000000
_cell_volume 2842.371926
_symmetry_space_group_name_H-M "C M C 21"
_symmetry_group_IT_number 36
_symmetry_cell_setting 'orthorhombic'
loop_
_space_group_symop_operation_xyz
x,y,z
-x,-y,1/2+z
x,-y,1/2+z
-x,y,z
1/2+x,1/2+y,z
1/2-x,1/2-y,1/2+z
1/2+x,1/2-y,1/2+z
1/2-x,1/2+y,z
loop_
_atom_site_type_symbol
_atom_site_label
_atom_site_fract_x
_atom_site_fract_y
_atom_site_fract_z
Si Si1 0.825153 0.176155 0.086510
Si Si2 0.174124 0.546766 0.645352
Si Si3 0.673689 0.409299 0.897409
Si Si4 0.326611 0.535813 0.003555
Si Si5 0.676116 0.908289 0.732847
Si Si6 0.675719 0.327659 0.064150
O O1 0.756937 0.138496 0.165189
O O2 0.748449 0.250784 0.070258
O O3 0.000000 0.185752 0.097808
O O4 0.804402 0.119749 0.013479
O O5 0.219060 0.500476 0.567609
O O6 0.212274 0.491822 0.716205
O O7 0.261434 0.619708 0.632539
O O8 0.000000 0.561097 0.646927
O O9 0.500000 0.399622 0.879289
O O10 0.696540 0.492142 0.922377
O O11 0.769461 0.389226 0.821134
O O12 0.707711 0.363970 0.977574
O O13 0.500000 0.521660 0.026369
O O14 0.500000 0.900166 0.724096
O O15 0.500000 0.322807 0.071639
#
# Coordination Sequence:
#
# PCOD9351047 Si02
#       6
#     8   8   8   8   8   8
#     4  10  19  33  54  76 101 135 171 208 253 304
#     4   9  17  30  49  72  96 126 165 204 242 291
#     4   9  18  33  52  73  99 132 169 209 253 299
#     4   8  16  31  50  72  96 125 162 201 243 293
#     4  10  20  33  51  76 103 131 167 210 254 300
#     4  10  20  34  52  75 103 135 170 208 251 301
#
# _framework density 16.887305000000001
#
# number of rings (size 3 to 8) (size 9 to 14) (size 15 to 20)
#    0.000    2.667    0.000    3.000    0.000    6.000 
#    0.000    1.667    0.000    8.000    0.000    0.000 
#    0.000    0.000    0.000    0.000    0.000    0.000 
#
# Total GULP energy -133634.529075 kJ/mol
# GULP energy per Si atom -5568.105378 kJ/mol
# Density = 1.684887 g / cm^3
# Si number density = 16.887305 Si / 1000 Ang^3
#
#
#
# Elastic Constant Matrix: (Units=GPa)
#
#
# Indices 1 2 3 4 5 6 
#
# 1 65.1166 61.3187 39.5439 0.0000 0.0000 0.0000
# 2 61.3187 139.0066 36.4885 0.0000 0.0000 0.0000
# 3 39.5439 36.4885 59.6447 0.0000 0.0000 0.0000
# 4 0.0000 0.0000 0.0000 12.8621 0.0000 0.0000
# 5 0.0000 0.0000 0.0000 0.0000 21.4613 0.0000
# 6 0.0000 0.0000 0.0000 0.0000 0.0000 30.4750
#
#
#
# Elastic Compliance Matrix: (Units=1/GPa)
#
#
# Indices 1 2 3 4 5 6 
#
# 1 0.036919 -0.011747 -0.017291 0.000000 0.000000 0.000000
# 2 -0.011747 0.012308 0.000259 0.000000 0.000000 0.000000
# 3 -0.017291 0.000259 0.028071 0.000000 0.000000 0.000000
# 4 0.000000 0.000000 0.000000 0.077748 0.000000 0.000000
# 5 0.000000 0.000000 0.000000 0.000000 0.046595 0.000000
# 6 0.000000 0.000000 0.000000 0.000000 0.000000 0.032814
#
#
# Mechanical properties :
#
#
# Convention : Reuss Voigt Hill
#
# Bulk Modulus (GPa) = 50.65799 59.83002 55.24401
# Shear Modulus (GPa) = 16.74516 21.38747 19.06631
#
# Velocity S-wave (km/s) = 3.15236 3.56263 3.36375
# Velocity P-wave (km/s) = 6.58123 7.24079 6.91887
#
# Compressibility (1/GPa) = 0.01974022
#
# Stress axis : x y z
#
# Youngs Moduli (GPa) = 27.08611 81.24855 35.62371
#
# Poissons Ratio (x) = 0.95444 0.61596
# Poissons Ratio (y) = 0.31818 -0.00922
# Poissons Ratio (z) = 0.46834 -0.02102
#
# Static dielectric constant tensor:
#      x y z
#    x 1.561650 0.000000 0.000000 
#    y 0.000000 1.589490 0.000000 
#    z 0.000000 0.000000 1.566330 
# 
# From -- ./inp_files/10382.got.cif
#   From: 2010.05.17/outbox.cif.g08.bks.cpg/sg36_6_cif.got.tgz:10382.got - 2010.06.03 17:41:39.
