data_PCOD9351793
_publ_section_title
;
Structure prediction by ZEFSAII (Michael W. Deem and Ramdas Pophale) SiO2 
 PCOD9351793
Probable space group: C M C 21
;
_chemical_formula_sum "Si O2"
_cell_formula_units_Z 44
_cell_length_a 10.709261
_cell_length_b 14.648981
_cell_length_c 16.869540
_cell_angle_alpha 90.000000
_cell_angle_beta 90.000000
_cell_angle_gamma 90.000000
_cell_volume 2646.489402
_symmetry_space_group_name_H-M "C M C 21"
_symmetry_group_IT_number 36
_symmetry_cell_setting 'orthorhombic'
loop_
_space_group_symop_operation_xyz
x,y,z
-x,-y,1/2+z
x,-y,1/2+z
-x,y,z
1/2+x,1/2+y,z
1/2-x,1/2-y,1/2+z
1/2+x,1/2-y,1/2+z
1/2-x,1/2+y,z
loop_
_atom_site_type_symbol
_atom_site_label
_atom_site_fract_x
_atom_site_fract_y
_atom_site_fract_z
Si Si1 0.208200 0.467103 0.893920
Si Si2 0.500000 0.919027 0.599111
Si Si3 0.246130 0.359503 0.504730
Si Si4 0.500000 0.893708 0.007953
Si Si5 0.139518 0.207826 0.394119
Si Si6 0.000000 0.494882 0.263689
Si Si7 0.500000 0.783348 0.253355
Si Si8 0.000000 0.804761 0.584815
O O1 0.314615 0.393833 0.875724
O O2 0.121889 0.493241 0.819332
O O3 0.249680 0.556653 0.942218
O O4 0.118532 0.411490 0.953062
O O5 0.624763 0.874641 0.561186
O O6 0.500000 0.023577 0.569549
O O7 0.500000 0.930298 0.693823
O O8 0.222706 0.268433 0.452755
O O9 0.373588 0.353256 0.554610
O O10 0.500000 0.795251 0.045371
O O11 0.116830 0.260858 0.311203
O O12 0.000000 0.203574 0.430174
O O13 0.000000 0.390242 0.233613
O O14 0.500000 0.717195 0.178192
#
# Coordination Sequence:
#
# PCOD9351793 Si02
#       8
#     8   4   8   4   8   4   4   4
#     4  10  20  36  57  87 110 147 209 242 286 350
#     4  10  21  36  58  86 115 154 198 241 294 352
#     4  11  22  39  60  89 118 158 204 244 298 361
#     4   9  18  33  55  79 104 144 196 241 268 341
#     4  10  20  37  60  80 116 159 199 233 296 371
#     4  11  20  36  65  85 113 155 206 257 279 359
#     4  10  22  38  54  87 118 158 192 243 313 356
#     4  12  23  35  58  91 124 147 194 260 306 344
#
# _framework density 16.625799000000001
#
# number of rings (size 3 to 8) (size 9 to 14) (size 15 to 20)
#    0.545    1.091    5.455    0.545    3.818    0.000 
#    0.000    0.000    0.000    0.000    7.091    0.000 
#    0.000    0.000    0.000    0.000    0.000    0.000 
#
# Total GULP energy -122472.622460 kJ/mol
# GULP energy per Si atom -5566.937385 kJ/mol
# Density = 1.658796 g / cm^3
# Si number density = 16.625799 Si / 1000 Ang^3
#
#
#
# Elastic Constant Matrix: (Units=GPa)
#
#
# Indices 1 2 3 4 5 6 
#
# 1 92.2942 40.2031 41.1618 0.0000 0.0000 0.0000
# 2 40.2031 83.7461 29.6492 0.0000 0.0000 0.0000
# 3 41.1618 29.6492 106.2979 0.0000 0.0000 0.0000
# 4 0.0000 0.0000 0.0000 26.3266 0.0000 0.0000
# 5 0.0000 0.0000 0.0000 0.0000 10.2953 0.0000
# 6 0.0000 0.0000 0.0000 0.0000 0.0000 31.7949
#
#
#
# Elastic Compliance Matrix: (Units=1/GPa)
#
#
# Indices 1 2 3 4 5 6 
#
# 1 0.015285 -0.005816 -0.004296 0.000000 0.000000 0.000000
# 2 -0.005816 0.015463 -0.002061 0.000000 0.000000 0.000000
# 3 -0.004296 -0.002061 0.011646 0.000000 0.000000 0.000000
# 4 0.000000 0.000000 0.000000 0.037984 0.000000 0.000000
# 5 0.000000 0.000000 0.000000 0.000000 0.097132 0.000000
# 6 0.000000 0.000000 0.000000 0.000000 0.000000 0.031452
#
#
# Mechanical properties :
#
#
# Convention : Reuss Voigt Hill
#
# Bulk Modulus (GPa) = 55.41266 56.04072 55.72669
# Shear Modulus (GPa) = 20.89223 25.10497 22.99860
#
# Velocity S-wave (km/s) = 3.54872 3.89009 3.72332
# Velocity P-wave (km/s) = 7.08470 7.34556 7.21631
#
# Compressibility (1/GPa) = 0.01804642
#
# Stress axis : x y z
#
# Youngs Moduli (GPa) = 65.42515 64.67198 85.86682
#
# Poissons Ratio (x) = 0.37616 0.36891
# Poissons Ratio (y) = 0.38054 0.17694
# Poissons Ratio (z) = 0.28109 0.13326
#
# Static dielectric constant tensor:
#      x y z
#    x 1.568450 0.000000 0.000000 
#    y 0.000000 1.540360 0.000000 
#    z 0.000000 0.000000 1.563190 
# 
# From -- ./inp_files/11515.got.cif
#   From: 2010.05.17/outbox.cif.g08.bks.cpg/sg36_6_cif.got.tgz:11515.got - 2010.06.03 17:41:39.
