data_PCOD9351027
_publ_section_title
;
Structure prediction by ZEFSAII (Michael W. Deem and Ramdas Pophale) SiO2 
 PCOD9351027
Probable space group: C M C 21
;
_chemical_formula_sum "Si O2"
_cell_formula_units_Z 64
_cell_length_a 8.624666
_cell_length_b 15.898708
_cell_length_c 19.149284
_cell_angle_alpha 90.000000
_cell_angle_beta 90.000000
_cell_angle_gamma 90.000000
_cell_volume 2625.769859
_symmetry_space_group_name_H-M "C M C 21"
_symmetry_group_IT_number 36
_symmetry_cell_setting 'orthorhombic'
loop_
_space_group_symop_operation_xyz
x,y,z
-x,-y,1/2+z
x,-y,1/2+z
-x,y,z
1/2+x,1/2+y,z
1/2-x,1/2-y,1/2+z
1/2+x,1/2-y,1/2+z
1/2-x,1/2+y,z
loop_
_atom_site_type_symbol
_atom_site_label
_atom_site_fract_x
_atom_site_fract_y
_atom_site_fract_z
Si Si1 0.179959 0.936364 0.026490
Si Si2 0.319881 0.743748 0.774060
Si Si3 0.818759 0.651279 0.647589
Si Si4 0.682408 0.916838 0.683013
Si Si5 0.819490 0.107138 0.936412
Si Si6 0.185483 0.307061 0.561723
Si Si7 0.184359 0.147700 0.387207
Si Si8 0.815483 0.485338 0.310769
O O1 0.275602 0.926662 0.097423
O O2 0.000000 0.928912 0.046655
O O3 0.213595 0.862630 0.969638
O O4 0.199022 0.020007 0.980387
O O5 0.500000 0.730520 0.789228
O O6 0.258374 0.671737 0.722175
O O7 0.306434 0.829529 0.727388
O O8 0.230775 0.769088 0.844762
O O9 0.767042 0.728399 0.597668
O O10 0.000000 0.651682 0.659858
O O11 0.500000 0.935514 0.675282
O O12 0.743213 0.887085 0.608287
O O13 0.746070 0.989583 0.733638
O O14 0.000000 0.129756 0.936870
O O15 0.765153 0.084675 0.858443
O O16 0.724007 0.173106 0.982032
O O17 0.000000 0.298043 0.570471
O O18 0.283292 0.072334 0.352619
O O19 0.000000 0.131619 0.377113
O O20 0.000000 0.469598 0.307854
#
# Coordination Sequence:
#
# PCOD9351027 Si02
#       8
#     8   8   8   8   8   8   8   8
#     4   9  19  34  50  70 101 135 163 200 249 295
#     4   9  16  28  46  68  96 127 160 200 246 292
#     4  11  21  32  50  75 101 129 166 208 246 291
#     4   7  13  25  43  67  91 118 155 195 234 282
#     4  10  20  33  49  73 102 130 164 205 245 289
#     4  10  19  33  52  73 100 132 163 199 248 300
#     4   9  16  27  45  70  97 124 159 204 247 286
#     4   9  15  26  45  68  94 125 160 199 245 291
#
# _framework density 24.373802999999999
#
# number of rings (size 3 to 8) (size 9 to 14) (size 15 to 20)
#    0.000    2.750    0.000    5.250    0.000    3.000 
#    0.000    1.875    0.000    1.500    0.000    5.250 
#    0.000    0.000    0.000    0.000    0.000    0.000 
#
# Total GULP energy -178858.598776 kJ/mol
# GULP energy per Si atom -5589.331212 kJ/mol
# Density = 2.431833 g / cm^3
# Si number density = 24.373803 Si / 1000 Ang^3
#
#
#
# Elastic Constant Matrix: (Units=GPa)
#
#
# Indices 1 2 3 4 5 6 
#
# 1 60.3816 6.4850 29.9842 0.0000 0.0000 0.0000
# 2 6.4850 90.1750 14.5308 0.0000 0.0000 0.0000
# 3 29.9842 14.5308 157.5367 0.0000 0.0000 0.0000
# 4 0.0000 0.0000 0.0000 49.5642 0.0000 0.0000
# 5 0.0000 0.0000 0.0000 0.0000 30.9072 0.0000
# 6 0.0000 0.0000 0.0000 0.0000 0.0000 7.4173
#
#
#
# Elastic Compliance Matrix: (Units=1/GPa)
#
#
# Indices 1 2 3 4 5 6 
#
# 1 0.018342 -0.000768 -0.003420 0.000000 0.000000 0.000000
# 2 -0.000768 0.011289 -0.000895 0.000000 0.000000 0.000000
# 3 -0.003420 -0.000895 0.007081 0.000000 0.000000 0.000000
# 4 0.000000 0.000000 0.000000 0.020176 0.000000 0.000000
# 5 0.000000 0.000000 0.000000 0.000000 0.032355 0.000000
# 6 0.000000 0.000000 0.000000 0.000000 0.000000 0.134819
#
#
# Mechanical properties :
#
#
# Convention : Reuss Voigt Hill
#
# Bulk Modulus (GPa) = 37.67061 45.56590 41.61826
# Shear Modulus (GPa) = 20.56953 34.71730 27.64342
#
# Velocity S-wave (km/s) = 2.90818 3.77818 3.37136
# Velocity P-wave (km/s) = 5.17355 6.14557 5.68039
#
# Compressibility (1/GPa) = 0.02654589
#
# Stress axis : x y z
#
# Youngs Moduli (GPa) = 54.51892 88.58168 141.21745
#
# Poissons Ratio (x) = 0.06803 0.48300
# Poissons Ratio (y) = 0.04187 0.12640
# Poissons Ratio (z) = 0.18647 0.07929
#
# Static dielectric constant tensor:
#      x y z
#    x 1.805770 0.000000 0.000000 
#    y 0.000000 2.101070 0.000000 
#    z 0.000000 0.000000 1.946480 
# 
# From -- ./inp_files/15749.got.cif
#   From: 2010.05.17/outbox.cif.g08.bks.cpg/sg36_8_cif.got.tgz:15749.got - 2010.06.03 17:41:39.
