data_PCOD9351968
_publ_section_title
;
Structure prediction by ZEFSAII (Michael W. Deem and Ramdas Pophale) SiO2 
 PCOD9351968
Probable space group: C M C 21
;
_chemical_formula_sum "Si O2"
_cell_formula_units_Z 64
_cell_length_a 24.211638
_cell_length_b 20.271545
_cell_length_c 5.403097
_cell_angle_alpha 90.000000
_cell_angle_beta 90.000000
_cell_angle_gamma 90.000000
_cell_volume 2651.879500
_symmetry_space_group_name_H-M "C M C 21"
_symmetry_group_IT_number 36
_symmetry_cell_setting 'orthorhombic'
loop_
_space_group_symop_operation_xyz
x,y,z
-x,-y,1/2+z
x,-y,1/2+z
-x,y,z
1/2+x,1/2+y,z
1/2-x,1/2-y,1/2+z
1/2+x,1/2-y,1/2+z
1/2-x,1/2+y,z
loop_
_atom_site_type_symbol
_atom_site_label
_atom_site_fract_x
_atom_site_fract_y
_atom_site_fract_z
Si Si1 0.379527 0.277841 0.335570
Si Si2 0.937245 0.974944 0.035126
Si Si3 0.739075 0.710380 0.649012
Si Si4 0.346949 0.155023 0.624070
Si Si5 0.198280 0.041695 0.279668
Si Si6 0.328735 0.039723 0.283218
Si Si7 0.936119 0.709739 0.950759
Si Si8 0.101944 0.853775 0.759898
O O1 0.326453 0.303028 0.181800
O O2 0.348597 0.230425 0.531289
O O3 0.408122 0.338646 0.470562
O O4 0.423627 0.224556 0.236438
O O5 0.934638 0.903097 0.919158
O O6 0.000000 0.997472 0.072471
O O7 0.912659 0.017018 0.807337
O O8 0.745260 0.738033 0.369362
O O9 0.782224 0.650453 0.702110
O O10 0.356603 0.104607 0.400840
O O11 0.393941 0.156719 0.833822
O O12 0.263655 0.055910 0.274999
O O13 0.160871 0.107687 0.261805
O O14 0.188968 0.994720 0.042010
O O15 0.340939 0.013677 0.005153
O O16 0.915514 0.782639 0.866690
O O17 0.000000 0.697677 0.896286
#
# Coordination Sequence:
#
# PCOD9351968 Si02
#       8
#     8   8   8   8   8   8   8   8
#     4  10  24  38  62 100 131 184 221 287 340 414
#     4  10  22  39  58  81 112 165 232 287 329 374
#     4  10  20  37  62  96 133 166 221 259 323 399
#     4  10  23  42  69  94 138 180 220 282 354 420
#     4  10  23  41  64  99 142 184 227 283 346 408
#     4  10  24  41  68 105 138 174 220 282 349 425
#     4  11  25  44  65  99 138 183 235 285 352 416
#     4  11  24  38  62  92 132 182 228 283 339 404
#
# _framework density 24.133825999999999
#
# number of rings (size 3 to 8) (size 9 to 14) (size 15 to 20)
#    0.000    1.750    1.250    1.125    7.000    6.500 
#    0.000    0.000    0.000    0.750    0.000    0.000 
#    0.000    0.000    0.000    0.000    0.000    0.000 
#
# Total GULP energy -178229.847470 kJ/mol
# GULP energy per Si atom -5569.682733 kJ/mol
# Density = 2.407890 g / cm^3
# Si number density = 24.133826 Si / 1000 Ang^3
#
#
#
# Elastic Constant Matrix: (Units=GPa)
#
#
# Indices 1 2 3 4 5 6 
#
# 1 77.4260 22.3869 28.1539 0.0000 0.0000 0.0000
# 2 22.3869 58.8035 30.1900 0.0000 0.0000 0.0000
# 3 28.1539 30.1900 74.9475 0.0000 0.0000 0.0000
# 4 0.0000 0.0000 0.0000 45.7729 0.0000 0.0000
# 5 0.0000 0.0000 0.0000 0.0000 25.1638 0.0000
# 6 0.0000 0.0000 0.0000 0.0000 0.0000 9.2644
#
#
#
# Elastic Compliance Matrix: (Units=1/GPa)
#
#
# Indices 1 2 3 4 5 6 
#
# 1 0.015568 -0.003687 -0.004363 0.000000 0.000000 0.000000
# 2 -0.003687 0.022313 -0.007603 0.000000 0.000000 0.000000
# 3 -0.004363 -0.007603 0.018044 0.000000 0.000000 0.000000
# 4 0.000000 0.000000 0.000000 0.021847 0.000000 0.000000
# 5 0.000000 0.000000 0.000000 0.000000 0.039740 0.000000
# 6 0.000000 0.000000 0.000000 0.000000 0.000000 0.107940
#
#
# Mechanical properties :
#
#
# Convention : Reuss Voigt Hill
#
# Bulk Modulus (GPa) = 40.61836 41.40429 41.01133
# Shear Modulus (GPa) = 18.87049 24.73664 21.80356
#
# Velocity S-wave (km/s) = 2.79930 3.20500 3.00900
# Velocity P-wave (km/s) = 5.22639 5.55782 5.39465
#
# Compressibility (1/GPa) = 0.02461941
#
# Stress axis : x y z
#
# Youngs Moduli (GPa) = 64.23404 44.81724 55.41940
#
# Poissons Ratio (x) = 0.16524 0.24179
# Poissons Ratio (y) = 0.23682 0.42135
# Poissons Ratio (z) = 0.28025 0.34074
#
# Static dielectric constant tensor:
#      x y z
#    x 1.988910 0.000000 0.000000 
#    y 0.000000 1.957560 0.000000 
#    z 0.000000 0.000000 2.541810 
# 
# From -- ./inp_files/1819.got.cif
#   From: 2010.05.17/outbox.cif.g08.bks.cpg/sg36_1_cif.got.tgz:1819.got - 2010.06.03 17:41:39.
