data_PCOD9352421
_publ_section_title
;
Structure prediction by ZEFSAII (Michael W. Deem and Ramdas Pophale) SiO2 
 PCOD9352421
Probable space group: C M C 21
;
_chemical_formula_sum "Si O2"
_cell_formula_units_Z 60
_cell_length_a 16.728584
_cell_length_b 7.999239
_cell_length_c 18.043695
_cell_angle_alpha 90.000000
_cell_angle_beta 90.000000
_cell_angle_gamma 90.000000
_cell_volume 2414.534035
_symmetry_space_group_name_H-M "C M C 21"
_symmetry_group_IT_number 36
_symmetry_cell_setting 'orthorhombic'
loop_
_space_group_symop_operation_xyz
x,y,z
-x,-y,1/2+z
x,-y,1/2+z
-x,y,z
1/2+x,1/2+y,z
1/2-x,1/2-y,1/2+z
1/2+x,1/2-y,1/2+z
1/2-x,1/2+y,z
loop_
_atom_site_type_symbol
_atom_site_label
_atom_site_fract_x
_atom_site_fract_y
_atom_site_fract_z
Si Si1 0.192615 0.086596 0.214820
Si Si2 0.586676 0.138479 0.334470
Si Si3 0.377075 0.111396 0.168002
Si Si4 0.409190 0.443386 0.081003
Si Si5 0.000000 0.242932 0.938913
Si Si6 0.796707 0.751458 0.986199
Si Si7 0.283792 0.136063 0.824646
Si Si8 0.138658 0.393625 0.041875
O O1 0.281329 0.119198 0.181247
O O2 0.134185 0.046546 0.146763
O O3 0.211024 0.937065 0.274788
O O4 0.171208 0.243470 0.266392
O O5 0.500000 0.071864 0.369613
O O6 0.583857 0.135330 0.247306
O O7 0.659479 0.017152 0.348221
O O8 0.573089 0.310464 0.376743
O O9 0.409406 0.260752 0.118560
O O10 0.389725 0.940079 0.124141
O O11 0.500000 0.495559 0.063045
O O12 0.356557 0.403632 0.007824
O O13 0.070855 0.304955 0.995878
O O14 0.770989 0.735870 0.900618
O O15 0.836368 0.574419 0.007773
O O16 0.719143 0.786613 0.036022
#
# Coordination Sequence:
#
# PCOD9352421 Si02
#       8
#     8   8   8   8   4   8   8   8
#     4  11  22  41  61  97 123 169 216 257 318 380
#     4   9  20  36  56  93 122 154 206 263 306 362
#     4  10  21  38  63  87 125 168 206 258 310 382
#     4  11  24  41  65  96 129 168 216 265 317 381
#     4  10  22  38  60 100 120 162 214 262 304 392
#     4  11  23  41  64  96 123 171 208 263 314 382
#     4  11  22  37  66  89 127 166 214 259 315 384
#     4  11  23  39  67  90 128 160 219 250 321 373
#
# _framework density 24.849515
#
# number of rings (size 3 to 8) (size 9 to 14) (size 15 to 20)
#    0.400    1.067    4.000    1.200    6.533    1.067 
#    0.000    0.000    1.467    0.000    0.000    0.000 
#    0.000    0.000    0.000    0.000    0.000    0.000 
#
# Total GULP energy -167062.439945 kJ/mol
# GULP energy per Si atom -5568.747998 kJ/mol
# Density = 2.479296 g / cm^3
# Si number density = 24.849515 Si / 1000 Ang^3
#
#
#
# Elastic Constant Matrix: (Units=GPa)
#
#
# Indices 1 2 3 4 5 6 
#
# 1 138.5048 21.8196 6.8890 0.0000 0.0000 0.0000
# 2 21.8196 80.5128 29.5597 0.0000 0.0000 0.0000
# 3 6.8890 29.5597 83.5835 0.0000 0.0000 0.0000
# 4 0.0000 0.0000 0.0000 30.2520 0.0000 0.0000
# 5 0.0000 0.0000 0.0000 0.0000 46.3230 0.0000
# 6 0.0000 0.0000 0.0000 0.0000 0.0000 -48.3581
#
#
#
# Elastic Compliance Matrix: (Units=1/GPa)
#
#
# Indices 1 2 3 4 5 6 
#
# 1 0.007543 -0.002087 0.000116 0.000000 0.000000 0.000000
# 2 -0.002087 0.014851 -0.005080 0.000000 0.000000 0.000000
# 3 0.000116 -0.005080 0.013751 0.000000 0.000000 0.000000
# 4 0.000000 0.000000 0.000000 0.033056 0.000000 0.000000
# 5 0.000000 0.000000 0.000000 0.000000 0.021588 0.000000
# 6 0.000000 0.000000 0.000000 0.000000 0.000000 -0.020679
#
#
# Mechanical properties :
#
#
# Convention : Reuss Voigt Hill
#
# Bulk Modulus (GPa) = 45.36440 46.57086 45.96763
# Shear Modulus (GPa) = 54.60974 21.93222 38.27098
#
# Velocity S-wave (km/s) = 4.69296 2.97408 3.92868
# Velocity P-wave (km/s) = 6.90366 5.52950 6.25443
#
# Compressibility (1/GPa) = 0.02204372
#
# Stress axis : x y z
#
# Youngs Moduli (GPa) = 132.57419 67.33501 72.72138
#
# Poissons Ratio (x) = 0.14052 -0.00846
# Poissons Ratio (y) = 0.27667 0.36944
# Poissons Ratio (z) = -0.01543 0.34207
#
# Static dielectric constant tensor:
#      x y z
#    x 1.999970 0.000000 0.000000 
#    y 0.000000 2.077830 0.000000 
#    z 0.000000 0.000000 2.068520 
# 
# From -- ./inp_files/14874.got.cif
#   From: 2010.05.17/outbox.cif.g08.bks.cpg/sg36_8_cif.got.tgz:14874.got - 2010.06.03 17:41:39.
