data_PCOD9352030
_publ_section_title
;
Structure prediction by ZEFSAII (Michael W. Deem and Ramdas Pophale) SiO2 
 PCOD9352030
Probable space group: C M C 21
;
_chemical_formula_sum "Si O2"
_cell_formula_units_Z 52
_cell_length_a 18.299973
_cell_length_b 16.743014
_cell_length_c 6.725086
_cell_angle_alpha 90.000000
_cell_angle_beta 90.000000
_cell_angle_gamma 90.000000
_cell_volume 2060.544185
_symmetry_space_group_name_H-M "C M C 21"
_symmetry_group_IT_number 36
_symmetry_cell_setting 'orthorhombic'
loop_
_space_group_symop_operation_xyz
x,y,z
-x,-y,1/2+z
x,-y,1/2+z
-x,y,z
1/2+x,1/2+y,z
1/2-x,1/2-y,1/2+z
1/2+x,1/2-y,1/2+z
1/2-x,1/2+y,z
loop_
_atom_site_type_symbol
_atom_site_label
_atom_site_fract_x
_atom_site_fract_y
_atom_site_fract_z
Si Si1 0.296126 0.105899 0.916000
Si Si2 0.159246 0.430176 0.966987
Si Si3 0.141600 0.925659 0.285659
Si Si4 0.183637 0.898717 0.831295
Si Si5 0.500000 0.934981 0.788286
Si Si6 0.614014 0.246263 0.915870
Si Si7 0.500000 0.669807 0.721060
Si Si8 0.500000 0.878023 0.338330
O O1 0.315975 0.103147 0.679787
O O2 0.209106 0.093348 0.932956
O O3 0.321277 0.190799 0.997944
O O4 0.338646 0.026815 0.988184
O O5 0.228352 0.409156 0.823037
O O6 0.077157 0.411003 0.892445
O O7 0.168632 0.898198 0.069718
O O8 0.065197 0.884043 0.326419
O O9 0.139824 0.021843 0.269569
O O10 0.146850 0.815033 0.776520
O O11 0.500000 0.894835 0.574002
O O12 0.500000 0.031756 0.755829
O O13 0.562977 0.282073 0.088009
O O14 0.566226 0.181382 0.797042
#
# Coordination Sequence:
#
# PCOD9352030 Si02
#       8
#     8   8   8   8   4   8   4   4
#     4  10  20  38  62  91 129 171 217 263 324 396
#     4  10  21  37  60  93 125 173 219 256 315 401
#     4   9  19  38  64  91 122 167 222 263 317 402
#     4   9  20  41  62  91 124 169 222 263 322 393
#     4  12  22  37  61  94 125 165 213 261 309 403
#     4  10  21  39  61  89 127 171 206 268 336 382
#     4   9  20  38  62  90 120 163 216 263 330 386
#     4  11  24  37  63  90 121 168 209 256 329 383
#
# _framework density 25.236053999999999
#
# number of rings (size 3 to 8) (size 9 to 14) (size 15 to 20)
#    0.000    2.154    1.538    0.923    0.000    3.692 
#   11.077    0.000    0.000    0.000    0.000    0.000 
#    0.000    0.000    0.000    0.000    0.000    0.000 
#
# Total GULP energy -144735.103675 kJ/mol
# GULP energy per Si atom -5566.734757 kJ/mol
# Density = 2.517862 g / cm^3
# Si number density = 25.236054 Si / 1000 Ang^3
#
#
#
# Elastic Constant Matrix: (Units=GPa)
#
#
# Indices 1 2 3 4 5 6 
#
# 1 184.1297 84.9558 30.6796 0.0000 0.0000 0.0000
# 2 84.9558 163.5662 15.3149 0.0000 0.0000 0.0000
# 3 30.6796 15.3149 37.4496 0.0000 0.0000 0.0000
# 4 0.0000 0.0000 0.0000 3.4093 0.0000 0.0000
# 5 0.0000 0.0000 0.0000 0.0000 29.7258 0.0000
# 6 0.0000 0.0000 0.0000 0.0000 0.0000 121.9369
#
#
#
# Elastic Compliance Matrix: (Units=1/GPa)
#
#
# Indices 1 2 3 4 5 6 
#
# 1 0.007958 -0.003663 -0.005021 0.000000 0.000000 0.000000
# 2 -0.003663 0.008043 -0.000288 0.000000 0.000000 0.000000
# 3 -0.005021 -0.000288 0.030934 0.000000 0.000000 0.000000
# 4 0.000000 0.000000 0.000000 0.293312 0.000000 0.000000
# 5 0.000000 0.000000 0.000000 0.000000 0.033641 0.000000
# 6 0.000000 0.000000 0.000000 0.000000 0.000000 0.008201
#
#
# Mechanical properties :
#
#
# Convention : Reuss Voigt Hill
#
# Bulk Modulus (GPa) = 34.49498 71.89400 53.19449
# Shear Modulus (GPa) = 12.20414 47.96076 30.08245
#
# Velocity S-wave (km/s) = 2.20148 4.36419 3.45634
# Velocity P-wave (km/s) = 4.49005 7.34474 6.08711
#
# Compressibility (1/GPa) = 0.02898973
#
# Stress axis : x y z
#
# Youngs Moduli (GPa) = 125.66487 124.32677 32.32696
#
# Poissons Ratio (x) = 0.45542 0.16232
# Poissons Ratio (y) = 0.46032 0.00932
# Poissons Ratio (z) = 0.63098 0.03586
#
# Static dielectric constant tensor:
#      x y z
#    x 2.109250 0.000000 0.000000 
#    y 0.000000 2.185660 0.000000 
#    z 0.000000 0.000000 2.106140 
# 
# From -- ./inp_files/4794.got.cif
#   From: 2010.05.17/outbox.cif.g08.bks.cpg/sg36_3_cif.got.tgz:4794.got - 2010.06.03 17:41:39.
