data_PCOD9352988
_publ_section_title
;
Structure prediction by ZEFSAII (Michael W. Deem and Ramdas Pophale) SiO2 
 PCOD9352988
Probable space group: C M C 21
;
_chemical_formula_sum "Si O2"
_cell_formula_units_Z 32
_cell_length_a 27.254740
_cell_length_b 4.827692
_cell_length_c 8.682190
_cell_angle_alpha 90.000000
_cell_angle_beta 90.000000
_cell_angle_gamma 90.000000
_cell_volume 1142.380770
_symmetry_space_group_name_H-M "C M C 21"
_symmetry_group_IT_number 36
_symmetry_cell_setting 'orthorhombic'
loop_
_space_group_symop_operation_xyz
x,y,z
-x,-y,1/2+z
x,-y,1/2+z
-x,y,z
1/2+x,1/2+y,z
1/2-x,1/2-y,1/2+z
1/2+x,1/2-y,1/2+z
1/2-x,1/2+y,z
loop_
_atom_site_type_symbol
_atom_site_label
_atom_site_fract_x
_atom_site_fract_y
_atom_site_fract_z
Si Si1 0.500000 0.393833 0.622700
Si Si2 0.500000 0.039685 0.862279
Si Si3 0.912579 0.276410 0.672885
Si Si4 0.783780 0.796226 0.710731
Si Si5 0.654272 0.092522 0.429406
O O1 0.500000 0.112921 0.523463
O O2 0.448074 0.547301 0.598099
O O3 0.500000 0.360233 0.811387
O O4 0.451019 0.947240 0.775176
O O5 0.871237 0.211405 0.800700
O O6 0.885883 0.449999 0.541060
O O7 0.734211 0.610275 0.719907
O O8 0.817896 0.654094 0.839401
O O9 0.809650 0.747209 0.546556
#
# Coordination Sequence:
#
# PCOD9352988 Si02
#       5
#     4   4   8   8   8
#     4  11  26  48  76 101 160 201 246 318 382 461
#     4  11  24  48  70 107 152 193 258 300 384 457
#     4  10  24  48  72 109 149 203 244 317 376 449
#     4  11  24  49  75 109 155 209 255 325 398 461
#     4  10  23  47  74 113 151 191 271 312 378 473
#
# _framework density 28.011675
#
# number of rings (size 3 to 8) (size 9 to 14) (size 15 to 20)
#    0.000    1.500    0.000    3.000    0.000   11.000 
#   45.000    5.000    0.000    0.000    0.000    0.000 
#    0.000    0.000    0.000    0.000    0.000    0.000 
#
# Total GULP energy -89703.364438 kJ/mol
# GULP energy per Si atom -5606.460277 kJ/mol
# Density = 2.794792 g / cm^3
# Si number density = 28.011675 Si / 1000 Ang^3
#
#
#
# Elastic Constant Matrix: (Units=GPa)
#
#
# Indices 1 2 3 4 5 6 
#
# 1 161.3247 18.7837 65.3971 0.0000 0.0000 0.0000
# 2 18.7837 74.9418 12.5381 0.0000 0.0000 0.0000
# 3 65.3971 12.5381 168.0357 0.0000 0.0000 0.0000
# 4 0.0000 0.0000 0.0000 34.9390 0.0000 0.0000
# 5 0.0000 0.0000 0.0000 0.0000 84.6503 0.0000
# 6 0.0000 0.0000 0.0000 0.0000 0.0000 33.3870
#
#
#
# Elastic Compliance Matrix: (Units=1/GPa)
#
#
# Indices 1 2 3 4 5 6 
#
# 1 0.007504 -0.001410 -0.002815 0.000000 0.000000 0.000000
# 2 -0.001410 0.013777 -0.000479 0.000000 0.000000 0.000000
# 3 -0.002815 -0.000479 0.007083 0.000000 0.000000 0.000000
# 4 0.000000 0.000000 0.000000 0.028621 0.000000 0.000000
# 5 0.000000 0.000000 0.000000 0.000000 0.011813 0.000000
# 6 0.000000 0.000000 0.000000 0.000000 0.000000 0.029952
#
#
# Mechanical properties :
#
#
# Convention : Reuss Voigt Hill
#
# Bulk Modulus (GPa) = 52.75651 66.41555 59.58603
# Shear Modulus (GPa) = 43.67672 51.10082 47.38877
#
# Velocity S-wave (km/s) = 3.95300 4.27578 4.11755
# Velocity P-wave (km/s) = 6.30155 6.93814 6.62749
#
# Compressibility (1/GPa) = 0.01895501
#
# Stress axis : x y z
#
# Youngs Moduli (GPa) = 133.26082 72.58346 141.19213
#
# Poissons Ratio (x) = 0.10233 0.39750
# Poissons Ratio (y) = 0.18788 0.06767
# Poissons Ratio (z) = 0.37517 0.03479
#
# Static dielectric constant tensor:
#      x y z
#    x 2.175130 0.000000 0.000000 
#    y 0.000000 2.227480 0.000000 
#    z 0.000000 0.000000 2.177350 
# 
# From -- ./inp_files/5900.got.cif
#   From: 2010.05.17/outbox.cif.g08.bks.cpg/sg36_3_cif.got.tgz:5900.got - 2010.06.03 17:41:39.
