data_PCOD9352122
_publ_section_title
;
Structure prediction by ZEFSAII (Michael W. Deem and Ramdas Pophale) SiO2 
 PCOD9352122
Probable space group: C M C 21
;
_chemical_formula_sum "Si O2"
_cell_formula_units_Z 60
_cell_length_a 12.234347
_cell_length_b 22.778558
_cell_length_c 11.797172
_cell_angle_alpha 90.000000
_cell_angle_beta 90.000000
_cell_angle_gamma 90.000000
_cell_volume 3287.645127
_symmetry_space_group_name_H-M "C M C 21"
_symmetry_group_IT_number 36
_symmetry_cell_setting 'orthorhombic'
loop_
_space_group_symop_operation_xyz
x,y,z
-x,-y,1/2+z
x,-y,1/2+z
-x,y,z
1/2+x,1/2+y,z
1/2-x,1/2-y,1/2+z
1/2+x,1/2-y,1/2+z
1/2-x,1/2+y,z
loop_
_atom_site_type_symbol
_atom_site_label
_atom_site_fract_x
_atom_site_fract_y
_atom_site_fract_z
Si Si1 0.625527 0.129498 0.836840
Si Si2 0.500000 0.649286 0.645761
Si Si3 0.665703 0.706123 0.818211
Si Si4 0.127484 0.554770 0.608564
Si Si5 0.128697 0.582437 0.089201
Si Si6 0.216768 0.144807 0.496238
Si Si7 0.246982 0.822869 0.738701
Si Si8 0.378634 0.750761 0.063517
O O1 0.500000 0.150425 0.837505
O O2 0.710885 0.182020 0.823919
O O3 0.638292 0.084879 0.731991
O O4 0.646508 0.097919 0.956959
O O5 0.594260 0.662920 0.743460
O O6 0.598158 0.641406 0.551541
O O7 0.665794 0.770346 0.760587
O O8 0.625518 0.714843 0.946053
O O9 0.152089 0.485744 0.612093
O O10 0.209965 0.588200 0.525735
O O11 0.000000 0.561388 0.572924
O O12 0.199172 0.625444 0.166574
O O13 0.000000 0.592272 0.112867
O O14 0.210960 0.155858 0.362139
O O15 0.286883 0.199070 0.549299
O O16 0.152681 0.792392 0.664992
O O17 0.500000 0.776513 0.078147
#
# Coordination Sequence:
#
# PCOD9352122 Si02
#       8
#     8   4   8   8   8   8   8   8
#     4  10  20  40  66  94 125 163 209 255 316 372
#     4  12  22  42  60  92 124 162 216 252 314 374
#     4  11  22  39  63  90 123 167 203 253 307 378
#     4  10  21  40  63  93 126 161 210 256 310 368
#     4  10  23  38  65  96 128 162 202 262 312 364
#     4  11  25  39  63  89 125 169 206 260 312 373
#     4  11  24  39  58  94 128 160 202 252 315 370
#     4  11  22  39  61  90 124 163 207 255 312 374
#
# _framework density 18.250145
#
# number of rings (size 3 to 8) (size 9 to 14) (size 15 to 20)
#    0.000    1.333    4.667    0.400    3.733    2.667 
#    6.000    0.000    1.467    1.600    0.000    0.000 
#    0.000    0.000    0.000    0.000    0.000    0.000 
#
# Total GULP energy -167025.213402 kJ/mol
# GULP energy per Si atom -5567.507113 kJ/mol
# Density = 1.820861 g / cm^3
# Si number density = 18.250145 Si / 1000 Ang^3
#
#
#
# Elastic Constant Matrix: (Units=GPa)
#
#
# Indices 1 2 3 4 5 6 
#
# 1 113.2578 49.3182 38.1561 0.0000 0.0000 0.0000
# 2 49.3182 83.5001 30.8672 0.0000 0.0000 0.0000
# 3 38.1561 30.8672 97.6741 0.0000 0.0000 0.0000
# 4 0.0000 0.0000 0.0000 21.1605 0.0000 0.0000
# 5 0.0000 0.0000 0.0000 0.0000 41.1943 0.0000
# 6 0.0000 0.0000 0.0000 0.0000 0.0000 13.3581
#
#
#
# Elastic Compliance Matrix: (Units=1/GPa)
#
#
# Indices 1 2 3 4 5 6 
#
# 1 0.012574 -0.006353 -0.002904 0.000000 0.000000 0.000000
# 2 -0.006353 0.016770 -0.002818 0.000000 0.000000 0.000000
# 3 -0.002904 -0.002818 0.012263 0.000000 0.000000 0.000000
# 4 0.000000 0.000000 0.000000 0.047258 0.000000 0.000000
# 5 0.000000 0.000000 0.000000 0.000000 0.024275 0.000000
# 6 0.000000 0.000000 0.000000 0.000000 0.000000 0.074861
#
#
# Mechanical properties :
#
#
# Convention : Reuss Voigt Hill
#
# Bulk Modulus (GPa) = 57.28429 59.01277 58.14853
# Shear Modulus (GPa) = 22.93873 26.88195 24.91034
#
# Velocity S-wave (km/s) = 3.54913 3.84210 3.69852
# Velocity P-wave (km/s) = 6.94634 7.21720 7.08307
#
# Compressibility (1/GPa) = 0.01745679
#
# Stress axis : x y z
#
# Youngs Moduli (GPa) = 79.52657 59.62974 81.54464
#
# Poissons Ratio (x) = 0.37884 0.23684
# Poissons Ratio (y) = 0.50525 0.22978
# Poissons Ratio (z) = 0.23098 0.16803
#
# Static dielectric constant tensor:
#      x y z
#    x 1.626340 0.000000 0.000000 
#    y 0.000000 1.617300 0.000000 
#    z 0.000000 0.000000 1.638860 
# 
# From -- ./inp_files/7920.got.cif
#   From: 2010.05.17/outbox.cif.g08.bks.cpg/sg36_4_cif.got.tgz:7920.got - 2010.06.03 17:41:39.
