data_PCOD9352758
_publ_section_title
;
Structure prediction by ZEFSAII (Michael W. Deem and Ramdas Pophale) SiO2 
 PCOD9352758
Probable space group: C M C 21
;
_chemical_formula_sum "Si O2"
_cell_formula_units_Z 56
_cell_length_a 17.485826
_cell_length_b 12.929205
_cell_length_c 10.096962
_cell_angle_alpha 90.000000
_cell_angle_beta 90.000000
_cell_angle_gamma 90.000000
_cell_volume 2282.699248
_symmetry_space_group_name_H-M "C M C 21"
_symmetry_group_IT_number 36
_symmetry_cell_setting 'orthorhombic'
loop_
_space_group_symop_operation_xyz
x,y,z
-x,-y,1/2+z
x,-y,1/2+z
-x,y,z
1/2+x,1/2+y,z
1/2-x,1/2-y,1/2+z
1/2+x,1/2-y,1/2+z
1/2-x,1/2+y,z
loop_
_atom_site_type_symbol
_atom_site_label
_atom_site_fract_x
_atom_site_fract_y
_atom_site_fract_z
Si Si1 0.688060 0.037868 0.504550
Si Si2 0.198159 0.879440 0.573822
Si Si3 0.199128 0.788679 0.125398
Si Si4 0.918282 0.051161 0.256976
Si Si5 0.415366 0.228558 0.896845
Si Si6 0.412560 0.661773 0.866953
Si Si7 0.910098 0.495143 0.263004
O O1 0.742477 0.126020 0.566594
O O2 0.629953 0.000971 0.620217
O O3 0.746383 0.942730 0.476982
O O4 0.638042 0.058466 0.373446
O O5 0.246896 0.806049 0.668229
O O6 0.152135 0.960830 0.660611
O O7 0.136002 0.811201 0.495893
O O8 0.138825 0.813942 0.239736
O O9 0.149175 0.746500 0.003985
O O10 0.915856 0.167143 0.310207
O O11 0.000000 0.035538 0.186544
O O12 0.915591 0.964066 0.368332
O O13 0.500000 0.221234 0.960516
O O14 0.405500 0.124505 0.812403
O O15 0.500000 0.699688 0.862513
O O16 0.000000 0.523896 0.258369
#
# Coordination Sequence:
#
# PCOD9352758 Si02
#       7
#     8   8   8   8   8   8   8
#     4  12  25  44  71 105 141 180 236 293 355 408
#     4  12  25  41  67  98 140 170 224 283 350 403
#     4  12  25  41  69  99 137 174 230 286 349 403
#     4  10  22  40  67  96 132 177 219 275 345 414
#     4  10  22  42  68  96 134 183 230 277 343 417
#     4  11  25  46  68 100 139 180 228 284 353 428
#     4  11  25  48  71 100 141 192 241 286 346 423
#
# _framework density 24.532359
#
# number of rings (size 3 to 8) (size 9 to 14) (size 15 to 20)
#    0.000    0.857    2.857    3.857    4.000    0.000 
#    0.000    3.571    0.000    0.000    0.000    0.000 
#    0.000    0.000    0.000    0.000    0.000    0.000 
#
# Total GULP energy -156670.563697 kJ/mol
# GULP energy per Si atom -5595.377275 kJ/mol
# Density = 2.447652 g / cm^3
# Si number density = 24.532359 Si / 1000 Ang^3
#
#
#
# Elastic Constant Matrix: (Units=GPa)
#
#
# Indices 1 2 3 4 5 6 
#
# 1 189.4879 38.6928 55.7066 0.0000 0.0000 0.0000
# 2 38.6928 42.6915 4.3281 0.0000 0.0000 0.0000
# 3 55.7066 4.3281 84.2950 0.0000 0.0000 0.0000
# 4 0.0000 0.0000 0.0000 23.9220 0.0000 0.0000
# 5 0.0000 0.0000 0.0000 0.0000 53.6671 0.0000
# 6 0.0000 0.0000 0.0000 0.0000 0.0000 28.7142
#
#
#
# Elastic Compliance Matrix: (Units=1/GPa)
#
#
# Indices 1 2 3 4 5 6 
#
# 1 0.008167 -0.006891 -0.005044 0.000000 0.000000 0.000000
# 2 -0.006891 0.029360 0.003046 0.000000 0.000000 0.000000
# 3 -0.005044 0.003046 0.015040 0.000000 0.000000 0.000000
# 4 0.000000 0.000000 0.000000 0.041802 0.000000 0.000000
# 5 0.000000 0.000000 0.000000 0.000000 0.018633 0.000000
# 6 0.000000 0.000000 0.000000 0.000000 0.000000 0.034826
#
#
# Mechanical properties :
#
#
# Convention : Reuss Voigt Hill
#
# Bulk Modulus (GPa) = 28.74281 57.10326 42.92303
# Shear Modulus (GPa) = 28.21633 35.77713 31.99673
#
# Velocity S-wave (km/s) = 3.39509 3.82300 3.61538
# Velocity P-wave (km/s) = 5.20678 6.54327 5.91291
#
# Compressibility (1/GPa) = 0.03479131
#
# Stress axis : x y z
#
# Youngs Moduli (GPa) = 122.44101 34.05941 66.49064
#
# Poissons Ratio (x) = 0.23470 0.33535
# Poissons Ratio (y) = 0.84373 -0.20256
# Poissons Ratio (z) = 0.61753 -0.10376
#
# Static dielectric constant tensor:
#      x y z
#    x 1.982220 0.000000 0.000000 
#    y 0.000000 1.984550 0.000000 
#    z 0.000000 0.000000 1.918570 
# 
# From -- ./inp_files/8491.got.cif
#   From: 2010.05.17/outbox.cif.g08.bks.cpg/sg36_5_cif.got.tgz:8491.got - 2010.06.03 17:41:39.
