data_PCOD9352850
_publ_section_title
;
Structure prediction by ZEFSAII (Michael W. Deem and Ramdas Pophale) SiO2 
 PCOD9352850
Probable space group: C M C 21
;
_chemical_formula_sum "Si O2"
_cell_formula_units_Z 32
_cell_length_a 18.243511
_cell_length_b 5.379064
_cell_length_c 13.448708
_cell_angle_alpha 90.000000
_cell_angle_beta 90.000000
_cell_angle_gamma 90.000000
_cell_volume 1319.762240
_symmetry_space_group_name_H-M "C M C 21"
_symmetry_group_IT_number 36
_symmetry_cell_setting 'orthorhombic'
loop_
_space_group_symop_operation_xyz
x,y,z
-x,-y,1/2+z
x,-y,1/2+z
-x,y,z
1/2+x,1/2+y,z
1/2-x,1/2-y,1/2+z
1/2+x,1/2-y,1/2+z
1/2-x,1/2+y,z
loop_
_atom_site_type_symbol
_atom_site_label
_atom_site_fract_x
_atom_site_fract_y
_atom_site_fract_z
Si Si1 0.912607 0.663962 0.149910
Si Si2 0.728684 0.828746 0.391168
Si Si3 0.142526 0.834638 0.549291
Si Si4 0.420742 0.063932 0.379217
O O1 0.872301 0.409466 0.116155
O O2 0.909520 0.665958 0.269103
O O3 0.000000 0.652576 0.122984
O O4 0.875930 0.912017 0.105587
O O5 0.743859 0.574407 0.335878
O O6 0.779053 0.829377 0.491311
O O7 0.643440 0.872540 0.406706
O O8 0.087395 0.786261 0.457278
O O9 0.500000 0.944967 0.384594
#
# Coordination Sequence:
#
# PCOD9352850 Si02
#       4
#     8   8   8   8
#     4  11  24  42  71 108 141 186 240 290 353 416
#     4  10  22  43  65  94 134 175 222 274 337 404
#     4  11  23  44  69 100 145 185 232 291 348 420
#     4  10  23  45  73 104 142 184 234 295 352 416
#
# _framework density 24.246791000000002
#
# number of rings (size 3 to 8) (size 9 to 14) (size 15 to 20)
#    0.000    1.500    0.000    5.250    0.000    6.000 
#    0.000   43.750    0.000    0.000    0.000    0.000 
#    0.000    0.000    0.000    0.000    0.000    0.000 
#
# Total GULP energy -89452.767985 kJ/mol
# GULP energy per Si atom -5590.797999 kJ/mol
# Density = 2.419160 g / cm^3
# Si number density = 24.246791 Si / 1000 Ang^3
#
#
#
# Elastic Constant Matrix: (Units=GPa)
#
#
# Indices 1 2 3 4 5 6 
#
# 1 155.3513 29.7305 6.4849 0.0000 0.0000 0.0000
# 2 29.7305 186.0443 30.1562 0.0000 0.0000 0.0000
# 3 6.4849 30.1562 126.8654 0.0000 0.0000 0.0000
# 4 0.0000 0.0000 0.0000 15.4710 0.0000 0.0000
# 5 0.0000 0.0000 0.0000 0.0000 37.2447 0.0000
# 6 0.0000 0.0000 0.0000 0.0000 0.0000 34.1391
#
#
#
# Elastic Compliance Matrix: (Units=1/GPa)
#
#
# Indices 1 2 3 4 5 6 
#
# 1 0.006641 -0.001047 -0.000091 0.000000 0.000000 0.000000
# 2 -0.001047 0.005755 -0.001315 0.000000 0.000000 0.000000
# 3 -0.000091 -0.001315 0.008199 0.000000 0.000000 0.000000
# 4 0.000000 0.000000 0.000000 0.064637 0.000000 0.000000
# 5 0.000000 0.000000 0.000000 0.000000 0.026849 0.000000
# 6 0.000000 0.000000 0.000000 0.000000 0.000000 0.029292
#
#
# Mechanical properties :
#
#
# Convention : Reuss Voigt Hill
#
# Bulk Modulus (GPa) = 63.72552 66.77822 65.25187
# Shear Modulus (GPa) = 33.00133 44.16358 38.58245
#
# Velocity S-wave (km/s) = 3.69326 4.27244 3.99336
# Velocity P-wave (km/s) = 6.67278 7.20688 6.94497
#
# Compressibility (1/GPa) = 0.01569230
#
# Stress axis : x y z
#
# Youngs Moduli (GPa) = 150.57748 173.75018 121.95888
#
# Poissons Ratio (x) = 0.18184 0.01106
# Poissons Ratio (y) = 0.15759 0.16032
# Poissons Ratio (z) = 0.01366 0.22841
#
# Static dielectric constant tensor:
#      x y z
#    x 1.982190 0.000000 0.000000 
#    y 0.000000 1.982950 0.000000 
#    z 0.000000 0.000000 1.921480 
# 
# From -- ./inp_files/12379.got.cif
#   From: 2010.05.17/outbox.cif.g08.bks.cpg/sg36_7_cif.got.tgz:12379.got - 2010.06.03 17:41:39.
