data_PCOD9352197
_publ_section_title
;
Structure prediction by ZEFSAII (Michael W. Deem and Ramdas Pophale) SiO2 
 PCOD9352197
Probable space group: C M C 21
;
_chemical_formula_sum "Si O2"
_cell_formula_units_Z 56
_cell_length_a 21.280123
_cell_length_b 11.823218
_cell_length_c 11.604987
_cell_angle_alpha 90.000000
_cell_angle_beta 90.000000
_cell_angle_gamma 90.000000
_cell_volume 2919.809313
_symmetry_space_group_name_H-M "C M C 21"
_symmetry_group_IT_number 36
_symmetry_cell_setting 'orthorhombic'
loop_
_space_group_symop_operation_xyz
x,y,z
-x,-y,1/2+z
x,-y,1/2+z
-x,y,z
1/2+x,1/2+y,z
1/2-x,1/2-y,1/2+z
1/2+x,1/2-y,1/2+z
1/2-x,1/2+y,z
loop_
_atom_site_type_symbol
_atom_site_label
_atom_site_fract_x
_atom_site_fract_y
_atom_site_fract_z
Si Si1 0.748433 0.780348 0.239400
Si Si2 0.151298 0.201490 0.925199
Si Si3 0.572321 0.691537 0.694863
Si Si4 0.292306 0.078485 0.535278
Si Si5 0.829727 0.137867 0.388143
Si Si6 0.923604 0.998770 0.509090
Si Si7 0.346960 0.165892 0.062241
O O1 0.782801 0.822076 0.356792
O O2 0.722096 0.884069 0.166274
O O3 0.699204 0.681252 0.269379
O O4 0.797993 0.720944 0.153378
O O5 0.104593 0.201009 0.817441
O O6 0.164972 0.321853 0.982308
O O7 0.118268 0.114810 0.013201
O O8 0.500000 0.676024 0.713826
O O9 0.592221 0.584761 0.614414
O O10 0.587504 0.805609 0.623837
O O11 0.227190 0.080491 0.461836
O O12 0.327065 0.959832 0.534867
O O13 0.845421 0.255720 0.450769
O O14 0.891567 0.060957 0.397775
O O15 0.000000 0.985101 0.501937
#
# Coordination Sequence:
#
# PCOD9352197 Si02
#       7
#     8   8   8   8   8   8   8
#     4   9  20  33  52  85 111 149 181 238 297 347
#     4  10  21  36  56  88 113 151 191 237 297 345
#     4   9  19  39  59  79 112 155 195 235 289 349
#     4  10  21  34  55  82 116 145 191 245 288 348
#     4   9  20  33  53  79 111 151 186 233 287 344
#     4  10  21  36  58  84 115 153 197 241 281 348
#     4   9  19  35  53  81 109 144 193 233 287 341
#
# _framework density 19.179334999999998
#
# number of rings (size 3 to 8) (size 9 to 14) (size 15 to 20)
#    0.000    2.571    0.000    1.286    8.000    3.429 
#    0.000    1.429    0.000    5.143    0.000    0.000 
#    0.000    0.000    0.000    0.000    0.000    0.000 
#
# Total GULP energy -155960.097489 kJ/mol
# GULP energy per Si atom -5570.003482 kJ/mol
# Density = 1.913568 g / cm^3
# Si number density = 19.179335 Si / 1000 Ang^3
#
#
#
# Elastic Constant Matrix: (Units=GPa)
#
#
# Indices 1 2 3 4 5 6 
#
# 1 65.1008 37.6125 13.2199 0.0000 0.0000 0.0000
# 2 37.6125 128.2198 16.0222 0.0000 0.0000 0.0000
# 3 13.2199 16.0222 27.9194 0.0000 0.0000 0.0000
# 4 0.0000 0.0000 0.0000 16.6551 0.0000 0.0000
# 5 0.0000 0.0000 0.0000 0.0000 22.3179 0.0000
# 6 0.0000 0.0000 0.0000 0.0000 0.0000 21.5802
#
#
#
# Elastic Compliance Matrix: (Units=1/GPa)
#
#
# Indices 1 2 3 4 5 6 
#
# 1 0.019506 -0.004921 -0.006412 0.000000 0.000000 0.000000
# 2 -0.004921 0.009643 -0.003204 0.000000 0.000000 0.000000
# 3 -0.006412 -0.003204 0.040692 0.000000 0.000000 0.000000
# 4 0.000000 0.000000 0.000000 0.060042 0.000000 0.000000
# 5 0.000000 0.000000 0.000000 0.000000 0.044807 0.000000
# 6 0.000000 0.000000 0.000000 0.000000 0.000000 0.046339
#
#
# Mechanical properties :
#
#
# Convention : Reuss Voigt Hill
#
# Bulk Modulus (GPa) = 24.52934 39.43880 31.98407
# Shear Modulus (GPa) = 18.96157 22.40299 20.68228
#
# Velocity S-wave (km/s) = 3.14769 3.42143 3.28741
# Velocity P-wave (km/s) = 5.10174 6.01797 5.57870
#
# Compressibility (1/GPa) = 0.04076750
#
# Stress axis : x y z
#
# Youngs Moduli (GPa) = 51.26666 103.70318 24.57472
#
# Poissons Ratio (x) = 0.51029 0.15758
# Poissons Ratio (y) = 0.25227 0.07873
# Poissons Ratio (z) = 0.32873 0.33225
#
# Static dielectric constant tensor:
#      x y z
#    x 1.721520 0.000000 0.000000 
#    y 0.000000 1.684070 0.000000 
#    z 0.000000 0.000000 1.727000 
# 
# From -- ./inp_files/9222.got.cif
#   From: 2010.05.17/outbox.cif.g08.bks.cpg/sg36_5_cif.got.tgz:9222.got - 2010.06.03 17:41:39.
