data_PCOD9352292
_publ_section_title
;
Structure prediction by ZEFSAII (Michael W. Deem and Ramdas Pophale) SiO2 
 PCOD9352292
Probable space group: C M C 21
;
_chemical_formula_sum "Si O2"
_cell_formula_units_Z 64
_cell_length_a 7.776701
_cell_length_b 26.046715
_cell_length_c 12.929658
_cell_angle_alpha 90.000000
_cell_angle_beta 90.000000
_cell_angle_gamma 90.000000
_cell_volume 2618.999389
_symmetry_space_group_name_H-M "C M C 21"
_symmetry_group_IT_number 36
_symmetry_cell_setting 'orthorhombic'
loop_
_space_group_symop_operation_xyz
x,y,z
-x,-y,1/2+z
x,-y,1/2+z
-x,y,z
1/2+x,1/2+y,z
1/2-x,1/2-y,1/2+z
1/2+x,1/2-y,1/2+z
1/2-x,1/2+y,z
loop_
_atom_site_type_symbol
_atom_site_label
_atom_site_fract_x
_atom_site_fract_y
_atom_site_fract_z
Si Si1 0.307075 0.046181 0.240850
Si Si2 0.804178 0.069759 0.018999
Si Si3 0.702708 0.434042 0.194311
Si Si4 0.792372 0.324230 0.217990
Si Si5 0.794777 0.787877 0.774760
Si Si6 0.205718 0.290110 0.995105
Si Si7 0.711274 0.677697 0.052437
Si Si8 0.792120 0.042557 0.466617
O O1 0.500000 0.060964 0.214030
O O2 0.290096 0.984176 0.241227
O O3 0.264241 0.063926 0.356365
O O4 0.193048 0.064363 0.144471
O O5 0.724149 0.125496 0.001055
O O6 0.000000 0.070727 0.979522
O O7 0.727840 0.016532 0.978698
O O8 0.500000 0.444965 0.194047
O O9 0.732323 0.380307 0.251028
O O10 0.762483 0.430735 0.073846
O O11 0.730661 0.271470 0.270983
O O12 0.000000 0.324497 0.221459
O O13 0.731953 0.317354 0.098686
O O14 0.753861 0.812077 0.884618
O O15 0.733880 0.817104 0.672496
O O16 0.000000 0.785233 0.764849
O O17 0.000000 0.289157 0.002255
O O18 0.266796 0.230942 0.001302
O O19 0.500000 0.675842 0.049913
O O20 0.000000 0.042004 0.466060
#
# Coordination Sequence:
#
# PCOD9352292 Si02
#       8
#     8   8   8   8   8   8   8   8
#     4  11  22  35  53  77 107 138 166 206 262 315
#     4   9  18  35  57  77 100 133 175 218 253 295
#     4  10  21  37  57  78 101 134 177 219 256 305
#     4   9  19  35  52  74 108 141 169 211 265 311
#     4   9  18  33  52  75 104 137 171 207 251 302
#     4   9  18  33  52  75 104 137 172 209 251 300
#     4   8  16  33  54  73  98 134 169 204 250 298
#     4   9  19  35  53  75 102 132 171 216 256 300
#
# _framework density 24.436812
#
# number of rings (size 3 to 8) (size 9 to 14) (size 15 to 20)
#    0.000    2.750    0.000    3.750    0.000    5.500 
#    0.000    8.125    0.000    0.000    0.000    0.000 
#    0.000    0.000    0.000    0.000    0.000    0.000 
#
# Total GULP energy -178750.321714 kJ/mol
# GULP energy per Si atom -5585.947554 kJ/mol
# Density = 2.438119 g / cm^3
# Si number density = 24.436812 Si / 1000 Ang^3
#
#
#
# Elastic Constant Matrix: (Units=GPa)
#
#
# Indices 1 2 3 4 5 6 
#
# 1 47.4125 -7.7567 -8.1360 0.0000 0.0000 0.0000
# 2 -7.7567 105.6650 -14.5981 0.0000 0.0000 0.0000
# 3 -8.1360 -14.5981 117.4752 0.0000 0.0000 0.0000
# 4 0.0000 0.0000 0.0000 -13.3606 0.0000 0.0000
# 5 0.0000 0.0000 0.0000 0.0000 10.3157 0.0000
# 6 0.0000 0.0000 0.0000 0.0000 0.0000 39.0719
#
#
#
# Elastic Compliance Matrix: (Units=1/GPa)
#
#
# Indices 1 2 3 4 5 6 
#
# 1 0.021688 0.001831 0.001730 0.000000 0.000000 0.000000
# 2 0.001831 0.009784 0.001343 0.000000 0.000000 0.000000
# 3 0.001730 0.001343 0.008799 0.000000 0.000000 0.000000
# 4 0.000000 0.000000 0.000000 -0.074847 0.000000 0.000000
# 5 0.000000 0.000000 0.000000 0.000000 0.096940 0.000000
# 6 0.000000 0.000000 0.000000 0.000000 0.000000 0.025594
#
#
# Mechanical properties :
#
#
# Convention : Reuss Voigt Hill
#
# Bulk Modulus (GPa) = 19.96924 23.28568 21.62746
# Shear Modulus (GPa) = 52.71826 27.27495 39.99661
#
# Velocity S-wave (km/s) = 4.64975 3.34450 4.05005
# Velocity P-wave (km/s) = 6.08411 4.94609 5.54438
#
# Compressibility (1/GPa) = 0.05007701
#
# Stress axis : x y z
#
# Youngs Moduli (GPa) = 46.10881 102.21004 113.64856
#
# Poissons Ratio (x) = -0.18715 -0.19656
# Poissons Ratio (y) = -0.08443 -0.15258
# Poissons Ratio (z) = -0.07975 -0.13723
#
# Static dielectric constant tensor:
#      x y z
#    x 1.907450 0.000000 0.000000 
#    y 0.000000 1.952190 0.000000 
#    z 0.000000 0.000000 1.945190 
# 
# From -- ./inp_files/7096.got.cif
#   From: 2010.05.17/outbox.cif.g08.bks.cpg/sg36_4_cif.got.tgz:7096.got - 2010.06.03 17:41:39.
