data_PCOD9352699
_publ_section_title
;
Structure prediction by ZEFSAII (Michael W. Deem and Ramdas Pophale) SiO2 
 PCOD9352699
Probable space group: C M C 21
;
_chemical_formula_sum "Si O2"
_cell_formula_units_Z 48
_cell_length_a 15.734253
_cell_length_b 27.758415
_cell_length_c 5.045000
_cell_angle_alpha 90.000000
_cell_angle_beta 90.000000
_cell_angle_gamma 90.000000
_cell_volume 2203.443729
_symmetry_space_group_name_H-M "C M C 21"
_symmetry_group_IT_number 36
_symmetry_cell_setting 'orthorhombic'
loop_
_space_group_symop_operation_xyz
x,y,z
-x,-y,1/2+z
x,-y,1/2+z
-x,y,z
1/2+x,1/2+y,z
1/2-x,1/2-y,1/2+z
1/2+x,1/2-y,1/2+z
1/2-x,1/2+y,z
loop_
_atom_site_type_symbol
_atom_site_label
_atom_site_fract_x
_atom_site_fract_y
_atom_site_fract_z
Si Si1 0.847469 0.221135 0.813120
Si Si2 0.242151 0.600738 0.393166
Si Si3 0.098643 0.840296 0.811865
Si Si4 0.909034 0.383723 0.484044
Si Si5 0.371674 0.968008 0.115715
Si Si6 0.665496 0.194825 0.670950
O O1 0.881184 0.201050 0.533641
O O2 0.744353 0.221962 0.807968
O O3 0.878247 0.182678 0.029681
O O4 0.873538 0.272196 0.941309
O O5 0.339134 0.613824 0.338886
O O6 0.223857 0.552229 0.558410
O O7 0.211064 0.648254 0.547211
O O8 0.175097 0.600879 0.147545
O O9 0.000000 0.852406 0.829852
O O10 0.897037 0.329280 0.381161
O O11 0.000000 0.388445 0.626778
O O12 0.912006 0.419414 0.230914
O O13 0.392790 0.992807 0.838627
#
# Coordination Sequence:
#
# PCOD9352699 Si02
#       6
#     8   8   8   8   8   8
#     4  11  22  39  65  92 129 179 225 273 324 377
#     4  10  22  42  68  92 129 172 214 266 335 389
#     4  11  24  41  64  98 133 172 225 274 324 384
#     4  11  24  41  63  95 134 173 215 268 326 393
#     4  11  23  44  68  94 121 162 209 263 323 397
#     4  10  22  39  61  91 130 178 221 272 325 382
#
# _framework density 21.784082999999999
#
# number of rings (size 3 to 8) (size 9 to 14) (size 15 to 20)
#    0.000    1.333    3.333    2.500    2.333    4.667 
#    0.000    0.000    0.000    1.000    0.000    0.000 
#    0.000    0.000    0.000    0.000    0.000    0.000 
#
# Total GULP energy -133840.423002 kJ/mol
# GULP energy per Si atom -5576.684292 kJ/mol
# Density = 2.173450 g / cm^3
# Si number density = 21.784083 Si / 1000 Ang^3
#
#
#
# Elastic Constant Matrix: (Units=GPa)
#
#
# Indices 1 2 3 4 5 6 
#
# 1 152.5183 21.6442 40.0040 0.0000 0.0000 0.0000
# 2 21.6442 50.5064 24.8808 0.0000 0.0000 0.0000
# 3 40.0040 24.8808 104.8228 0.0000 0.0000 0.0000
# 4 0.0000 0.0000 0.0000 32.7843 0.0000 0.0000
# 5 0.0000 0.0000 0.0000 0.0000 2.9238 0.0000
# 6 0.0000 0.0000 0.0000 0.0000 0.0000 -3.1702
#
#
#
# Elastic Compliance Matrix: (Units=1/GPa)
#
#
# Indices 1 2 3 4 5 6 
#
# 1 0.007466 -0.002034 -0.002367 0.000000 0.000000 0.000000
# 2 -0.002034 0.022975 -0.004677 0.000000 0.000000 0.000000
# 3 -0.002367 -0.004677 0.011553 0.000000 0.000000 0.000000
# 4 0.000000 0.000000 0.000000 0.030502 0.000000 0.000000
# 5 0.000000 0.000000 0.000000 0.000000 0.342018 0.000000
# 6 0.000000 0.000000 0.000000 0.000000 0.000000 -0.315437
#
#
# Mechanical properties :
#
#
# Convention : Reuss Voigt Hill
#
# Bulk Modulus (GPa) = 41.94742 53.43395 47.69069
# Shear Modulus (GPa) = 39.94296 21.26214 30.60255
#
# Velocity S-wave (km/s) = 4.28668 3.12755 3.75215
# Velocity P-wave (km/s) = 6.61806 6.13386 6.38055
#
# Compressibility (1/GPa) = 0.02383937
#
# Stress axis : x y z
#
# Youngs Moduli (GPa) = 133.94214 43.52530 86.55560
#
# Poissons Ratio (x) = 0.08851 0.20484
# Poissons Ratio (y) = 0.27239 0.40485
# Poissons Ratio (z) = 0.31698 0.20358
#
# Static dielectric constant tensor:
#      x y z
#    x 1.860560 0.000000 0.000000 
#    y 0.000000 1.824270 0.000000 
#    z 0.000000 0.000000 1.899550 
# 
# From -- ./inp_files/1152.got.cif
#   From: 2010.05.17/outbox.cif.g08.bks.cpg/sg36_1_cif.got.tgz:1152.got - 2010.06.03 17:41:39.
