data_PCOD9352050
_publ_section_title
;
Structure prediction by ZEFSAII (Michael W. Deem and Ramdas Pophale) SiO2 
 PCOD9352050
Probable space group: C M C 21
;
_chemical_formula_sum "Si O2"
_cell_formula_units_Z 64
_cell_length_a 12.780732
_cell_length_b 21.246162
_cell_length_c 9.797029
_cell_angle_alpha 90.000000
_cell_angle_beta 90.000000
_cell_angle_gamma 90.000000
_cell_volume 2660.299975
_symmetry_space_group_name_H-M "C M C 21"
_symmetry_group_IT_number 36
_symmetry_cell_setting 'orthorhombic'
loop_
_space_group_symop_operation_xyz
x,y,z
-x,-y,1/2+z
x,-y,1/2+z
-x,y,z
1/2+x,1/2+y,z
1/2-x,1/2-y,1/2+z
1/2+x,1/2-y,1/2+z
1/2-x,1/2+y,z
loop_
_atom_site_type_symbol
_atom_site_label
_atom_site_fract_x
_atom_site_fract_y
_atom_site_fract_z
Si Si1 0.379816 0.006691 0.094350
Si Si2 0.112619 0.292188 0.903194
Si Si3 0.672935 0.669366 0.334928
Si Si4 0.886638 0.702268 0.953424
Si Si5 0.831745 0.633226 0.677658
Si Si6 0.381355 0.416144 0.282728
Si Si7 0.254658 0.534939 0.335360
Si Si8 0.158979 0.161816 0.031355
O O1 0.500000 0.024160 0.066699
O O2 0.376099 0.937176 0.163485
O O3 0.322703 0.049344 0.208011
O O4 0.312690 0.997884 0.955768
O O5 0.140134 0.331261 0.039356
O O6 0.111890 0.220362 0.949123
O O7 0.000000 0.311892 0.850516
O O8 0.211185 0.302365 0.808594
O O9 0.623644 0.722192 0.431901
O O10 0.691419 0.598676 0.387700
O O11 0.622498 0.663072 0.186497
O O12 0.880278 0.671774 0.802197
O O13 0.000000 0.687827 0.014058
O O14 0.783899 0.673465 0.022054
O O15 0.707753 0.625442 0.708181
O O16 0.500000 0.407547 0.235436
O O17 0.340587 0.487464 0.275685
O O18 0.372468 0.398094 0.442887
#
# Coordination Sequence:
#
# PCOD9352050 Si02
#       8
#     8   8   8   8   8   8   8   8
#     4  11  22  40  66  94 128 168 211 271 336 385
#     4  11  21  37  64  92 124 165 201 255 331 387
#     4  11  23  38  61  91 130 161 211 267 305 385
#     4  10  21  38  62  90 127 166 202 256 325 379
#     4  10  20  38  64  93 119 156 213 262 308 394
#     4  10  23  44  65  86 123 175 215 261 320 373
#     4  11  24  41  63  94 128 170 226 271 311 392
#     4  10  22  40  61  94 127 161 213 265 312 387
#
# _framework density 24.057435999999999
#
# number of rings (size 3 to 8) (size 9 to 14) (size 15 to 20)
#    0.000    1.500    2.500    2.625    0.000    2.000 
#    0.000   11.875    0.000    0.000    0.000    0.000 
#    0.000    0.000    0.000    0.000    0.000    0.000 
#
# Total GULP energy -178984.585292 kJ/mol
# GULP energy per Si atom -5593.268290 kJ/mol
# Density = 2.400268 g / cm^3
# Si number density = 24.057436 Si / 1000 Ang^3
#
#
#
# Elastic Constant Matrix: (Units=GPa)
#
#
# Indices 1 2 3 4 5 6 
#
# 1 180.5441 13.7095 -1.5771 0.0000 0.0000 0.0000
# 2 13.7095 71.3842 -9.4698 0.0000 0.0000 0.0000
# 3 -1.5771 -9.4698 75.1277 0.0000 0.0000 0.0000
# 4 0.0000 0.0000 0.0000 17.4539 0.0000 0.0000
# 5 0.0000 0.0000 0.0000 0.0000 132.5534 0.0000
# 6 0.0000 0.0000 0.0000 0.0000 0.0000 4.4849
#
#
#
# Elastic Compliance Matrix: (Units=1/GPa)
#
#
# Indices 1 2 3 4 5 6 
#
# 1 0.005621 -0.001082 -0.000018 0.000000 0.000000 0.000000
# 2 -0.001082 0.014455 0.001799 0.000000 0.000000 0.000000
# 3 -0.000018 0.001799 0.013537 0.000000 0.000000 0.000000
# 4 0.000000 0.000000 0.000000 0.057294 0.000000 0.000000
# 5 0.000000 0.000000 0.000000 0.000000 0.007544 0.000000
# 6 0.000000 0.000000 0.000000 0.000000 0.000000 0.222970
#
#
# Mechanical properties :
#
#
# Convention : Reuss Voigt Hill
#
# Bulk Modulus (GPa) = 28.56230 36.93125 32.74678
# Shear Modulus (GPa) = 15.07418 52.52466 33.79942
#
# Velocity S-wave (km/s) = 2.50590 4.67765 3.75233
# Velocity P-wave (km/s) = 4.50233 6.67522 5.69340
#
# Compressibility (1/GPa) = 0.03501118
#
# Stress axis : x y z
#
# Youngs Moduli (GPa) = 177.91040 69.17928 73.87108
#
# Poissons Ratio (x) = 0.07485 0.00136
# Poissons Ratio (y) = 0.19249 -0.13292
# Poissons Ratio (z) = 0.00327 -0.12448
#
# Static dielectric constant tensor:
#      x y z
#    x 1.934140 0.000000 0.000000 
#    y 0.000000 1.936150 0.000000 
#    z 0.000000 0.000000 1.916290 
# 
# From -- ./inp_files/8015.got.cif
#   From: 2010.05.17/outbox.cif.g08.bks.cpg/sg36_5_cif.got.tgz:8015.got - 2010.06.03 17:41:39.
