data_PCOD9352690
_publ_section_title
;
Structure prediction by ZEFSAII (Michael W. Deem and Ramdas Pophale) SiO2 
 PCOD9352690
Probable space group: C M C 21
;
_chemical_formula_sum "Si O2"
_cell_formula_units_Z 64
_cell_length_a 23.148133
_cell_length_b 14.720348
_cell_length_c 10.048287
_cell_angle_alpha 90.000000
_cell_angle_beta 90.000000
_cell_angle_gamma 90.000000
_cell_volume 3423.939459
_symmetry_space_group_name_H-M "C M C 21"
_symmetry_group_IT_number 36
_symmetry_cell_setting 'orthorhombic'
loop_
_space_group_symop_operation_xyz
x,y,z
-x,-y,1/2+z
x,-y,1/2+z
-x,y,z
1/2+x,1/2+y,z
1/2-x,1/2-y,1/2+z
1/2+x,1/2-y,1/2+z
1/2-x,1/2+y,z
loop_
_atom_site_type_symbol
_atom_site_label
_atom_site_fract_x
_atom_site_fract_y
_atom_site_fract_z
Si Si1 0.774341 0.697108 0.505860
Si Si2 0.142992 0.223423 0.425661
Si Si3 0.173405 0.406159 0.752094
Si Si4 0.432652 0.412784 0.256132
Si Si5 0.932683 0.712807 0.165183
Si Si6 0.372676 0.474204 0.981624
Si Si7 0.769668 0.895899 0.520643
Si Si8 0.810642 0.388929 0.272508
O O1 0.705386 0.715348 0.499633
O O2 0.796678 0.652389 0.369525
O O3 0.799492 0.797371 0.537650
O O4 0.790220 0.629960 0.624060
O O5 0.092178 0.256503 0.522151
O O6 0.132151 0.118047 0.393741
O O7 0.151719 0.302033 0.317507
O O8 0.112570 0.361256 0.715555
O O9 0.218434 0.404666 0.628520
O O10 0.162912 0.511300 0.788063
O O11 0.500000 0.436384 0.253211
O O12 0.427269 0.303772 0.253589
O O13 0.404274 0.448693 0.119074
O O14 0.404189 0.454535 0.386671
O O15 0.000000 0.686179 0.160320
O O16 0.312210 0.519228 0.023454
O O17 0.743228 0.890866 0.372989
#
# Coordination Sequence:
#
# PCOD9352690 Si02
#       8
#     8   8   8   8   8   8   8   8
#     4  11  23  35  62  92 133 152 200 253 320 365
#     4  10  22  39  59  90 123 165 202 246 304 378
#     4  12  22  40  61  92 123 164 204 258 311 370
#     4  10  23  41  63  90 122 164 213 254 307 378
#     4  10  22  43  66  85 118 171 217 250 297 376
#     4  11  23  36  64  91 126 161 204 255 315 372
#     4  11  23  37  60  93 127 161 198 249 316 380
#     4  11  23  37  60  89 128 160 196 253 308 369
#
# _framework density 18.69192
#
# number of rings (size 3 to 8) (size 9 to 14) (size 15 to 20)
#    0.000    1.250    2.500    4.875    8.750    0.500 
#    0.000    0.625    0.000    0.750    0.000    0.000 
#    0.000    0.000    0.000    0.000    0.000    0.000 
#
# Total GULP energy -178617.602892 kJ/mol
# GULP energy per Si atom -5581.800090 kJ/mol
# Density = 1.864938 g / cm^3
# Si number density = 18.691920 Si / 1000 Ang^3
#
#
#
# Elastic Constant Matrix: (Units=GPa)
#
#
# Indices 1 2 3 4 5 6 
#
# 1 112.0776 60.1666 35.4499 0.0000 0.0000 0.0000
# 2 60.1666 120.7141 32.1073 0.0000 0.0000 0.0000
# 3 35.4499 32.1073 53.6398 0.0000 0.0000 0.0000
# 4 0.0000 0.0000 0.0000 24.7738 0.0000 0.0000
# 5 0.0000 0.0000 0.0000 0.0000 17.1056 0.0000
# 6 0.0000 0.0000 0.0000 0.0000 0.0000 18.0263
#
#
#
# Elastic Compliance Matrix: (Units=1/GPa)
#
#
# Indices 1 2 3 4 5 6 
#
# 1 0.013568 -0.005206 -0.005850 0.000000 0.000000 0.000000
# 2 -0.005206 0.011851 -0.003653 0.000000 0.000000 0.000000
# 3 -0.005850 -0.003653 0.024696 0.000000 0.000000 0.000000
# 4 0.000000 0.000000 0.000000 0.040365 0.000000 0.000000
# 5 0.000000 0.000000 0.000000 0.000000 0.058460 0.000000
# 6 0.000000 0.000000 0.000000 0.000000 0.000000 0.055474
#
#
# Mechanical properties :
#
#
# Convention : Reuss Voigt Hill
#
# Bulk Modulus (GPa) = 48.32018 60.20879 54.26448
# Shear Modulus (GPa) = 20.77007 22.56167 21.66587
#
# Velocity S-wave (km/s) = 3.33705 3.47800 3.40825
# Velocity P-wave (km/s) = 6.38395 6.95771 6.67700
#
# Compressibility (1/GPa) = 0.02069529
#
# Stress axis : x y z
#
# Youngs Moduli (GPa) = 73.70378 84.38444 40.49298
#
# Poissons Ratio (x) = 0.43934 0.23690
# Poissons Ratio (y) = 0.38373 0.14790
# Poissons Ratio (z) = 0.43120 0.30822
#
# Static dielectric constant tensor:
#      x y z
#    x 1.632100 0.000000 0.000000 
#    y 0.000000 1.712010 0.000000 
#    z 0.000000 0.000000 1.643320 
# 
# From -- ./inp_files/5681.got.cif
#   From: 2010.05.17/outbox.cif.g08.bks.cpg/sg36_3_cif.got.tgz:5681.got - 2010.06.03 17:41:39.
