data_PCOD9352446
_publ_section_title
;
Structure prediction by ZEFSAII (Michael W. Deem and Ramdas Pophale) SiO2 
 PCOD9352446
Probable space group: C M C 21
;
_chemical_formula_sum "Si O2"
_cell_formula_units_Z 48
_cell_length_a 9.128554
_cell_length_b 30.803846
_cell_length_c 6.983283
_cell_angle_alpha 90.000000
_cell_angle_beta 90.000000
_cell_angle_gamma 90.000000
_cell_volume 1963.661272
_symmetry_space_group_name_H-M "C M C 21"
_symmetry_group_IT_number 36
_symmetry_cell_setting 'orthorhombic'
loop_
_space_group_symop_operation_xyz
x,y,z
-x,-y,1/2+z
x,-y,1/2+z
-x,y,z
1/2+x,1/2+y,z
1/2-x,1/2-y,1/2+z
1/2+x,1/2-y,1/2+z
1/2-x,1/2+y,z
loop_
_atom_site_type_symbol
_atom_site_label
_atom_site_fract_x
_atom_site_fract_y
_atom_site_fract_z
Si Si1 0.335887 0.695437 0.711660
Si Si2 0.708552 0.885272 0.077492
Si Si3 0.000000 0.071703 0.474075
Si Si4 0.169978 0.551943 0.915827
Si Si5 0.500000 0.484882 0.356336
Si Si6 0.842157 0.639302 0.154946
Si Si7 0.162432 0.781889 0.765943
O O1 0.500000 0.686845 0.783998
O O2 0.229653 0.654089 0.726569
O O3 0.268676 0.740727 0.776551
O O4 0.347102 0.701187 0.482019
O O5 0.660823 0.926588 0.202942
O O6 0.863651 0.898241 0.990661
O O7 0.637782 0.869840 0.882001
O O8 0.000000 0.041275 0.659892
O O9 0.000000 0.036176 0.310149
O O10 0.327612 0.525673 0.928590
O O11 0.190468 0.592864 0.058990
O O12 0.000000 0.533965 0.953001
O O13 0.726636 0.678463 0.141507
O O14 0.000000 0.654698 0.079715
O O15 0.000000 0.768797 0.701196
#
# Coordination Sequence:
#
# PCOD9352446 Si02
#       7
#     8   8   4   8   4   8   8
#     4  10  21  39  58  85 122 160 209 265 314 384
#     4  10  21  40  67  90 126 169 213 260 329 384
#     4  10  22  42  68 102 126 172 214 265 331 404
#     4  10  23  42  65  98 131 165 213 271 319 398
#     4  10  24  42  68 102 130 168 220 259 345 392
#     4  10  22  39  63  92 123 167 214 260 328 384
#     4  10  23  37  56  87 119 163 211 262 319 377
#
# _framework density 24.444133999999998
#
# number of rings (size 3 to 8) (size 9 to 14) (size 15 to 20)
#    0.000    2.000    0.833    1.000    7.000    4.000 
#    0.000    4.167    0.000    0.000    0.000    0.000 
#    0.000    0.000    0.000    0.000    0.000    0.000 
#
# Total GULP energy -133757.266444 kJ/mol
# GULP energy per Si atom -5573.219435 kJ/mol
# Density = 2.438850 g / cm^3
# Si number density = 24.444134 Si / 1000 Ang^3
#
#
#
# Elastic Constant Matrix: (Units=GPa)
#
#
# Indices 1 2 3 4 5 6 
#
# 1 143.5216 13.6572 24.1655 0.0000 0.0000 0.0000
# 2 13.6572 48.7464 11.6429 0.0000 0.0000 0.0000
# 3 24.1655 11.6429 41.1207 0.0000 0.0000 0.0000
# 4 0.0000 0.0000 0.0000 22.5416 0.0000 0.0000
# 5 0.0000 0.0000 0.0000 0.0000 8.9022 0.0000
# 6 0.0000 0.0000 0.0000 0.0000 0.0000 4.5467
#
#
#
# Elastic Compliance Matrix: (Units=1/GPa)
#
#
# Indices 1 2 3 4 5 6 
#
# 1 0.007794 -0.001169 -0.004250 0.000000 0.000000 0.000000
# 2 -0.001169 0.022178 -0.005593 0.000000 0.000000 0.000000
# 3 -0.004250 -0.005593 0.028400 0.000000 0.000000 0.000000
# 4 0.000000 0.000000 0.000000 0.044362 0.000000 0.000000
# 5 0.000000 0.000000 0.000000 0.000000 0.112332 0.000000
# 6 0.000000 0.000000 0.000000 0.000000 0.000000 0.219937
#
#
# Mechanical properties :
#
#
# Convention : Reuss Voigt Hill
#
# Bulk Modulus (GPa) = 27.51057 36.92443 32.21750
# Shear Modulus (GPa) = 10.65777 19.45965 15.05871
#
# Velocity S-wave (km/s) = 2.09034 2.82456 2.48472
# Velocity P-wave (km/s) = 4.13581 5.07700 4.63038
#
# Compressibility (1/GPa) = 0.03634967
#
# Stress axis : x y z
#
# Youngs Moduli (GPa) = 128.29839 45.09071 35.21188
#
# Poissons Ratio (x) = 0.05270 0.14964
# Poissons Ratio (y) = 0.14994 0.19692
# Poissons Ratio (z) = 0.54522 0.25217
#
# Static dielectric constant tensor:
#      x y z
#    x 2.014190 0.000000 0.000000 
#    y 0.000000 2.536720 0.000000 
#    z 0.000000 0.000000 2.022060 
# 
# From -- ./inp_files/2749.got.cif
#   From: 2010.05.17/outbox.cif.g08.bks.cpg/sg36_2_cif.got.tgz:2749.got - 2010.06.03 17:41:39.
