data_PCOD9352983
_publ_section_title
;
Structure prediction by ZEFSAII (Michael W. Deem and Ramdas Pophale) SiO2 
 PCOD9352983
Probable space group: C M C 21
;
_chemical_formula_sum "Si O2"
_cell_formula_units_Z 48
_cell_length_a 15.944482
_cell_length_b 12.110317
_cell_length_c 12.019290
_cell_angle_alpha 90.000000
_cell_angle_beta 90.000000
_cell_angle_gamma 90.000000
_cell_volume 2320.837536
_symmetry_space_group_name_H-M "C M C 21"
_symmetry_group_IT_number 36
_symmetry_cell_setting 'orthorhombic'
loop_
_space_group_symop_operation_xyz
x,y,z
-x,-y,1/2+z
x,-y,1/2+z
-x,y,z
1/2+x,1/2+y,z
1/2-x,1/2-y,1/2+z
1/2+x,1/2-y,1/2+z
1/2-x,1/2+y,z
loop_
_atom_site_type_symbol
_atom_site_label
_atom_site_fract_x
_atom_site_fract_y
_atom_site_fract_z
Si Si1 0.904124 0.430756 0.748660
Si Si2 0.400814 0.567145 0.670583
Si Si3 0.599702 0.716901 0.868743
Si Si4 0.099786 0.324967 0.285298
Si Si5 0.828396 0.163868 0.103511
Si Si6 0.863758 0.291282 0.543757
O O1 0.864297 0.333264 0.823315
O O2 0.866965 0.552214 0.756475
O O3 0.905252 0.382429 0.624405
O O4 0.000000 0.444966 0.788340
O O5 0.500000 0.536088 0.675925
O O6 0.371661 0.616596 0.789671
O O7 0.347034 0.463147 0.632398
O O8 0.391177 0.671094 0.587740
O O9 0.500000 0.722118 0.848353
O O10 0.616659 0.697211 0.996701
O O11 0.146518 0.236483 0.209463
O O12 0.113644 0.305203 0.415721
O O13 0.000000 0.317635 0.260632
O O14 0.734261 0.189705 0.066222
#
# Coordination Sequence:
#
# PCOD9352983 Si02
#       6
#     8   8   8   8   8   8
#     4   9  21  42  69  91 125 176 221 270 335 406
#     4  10  23  46  70  92 132 184 225 268 340 417
#     4   9  20  41  66  94 129 175 224 269 336 407
#     4  11  25  44  70 100 133 176 230 275 332 416
#     4  12  27  39  68 103 134 171 225 289 329 388
#     4  11  26  42  67  96 139 174 219 281 344 396
#
# _framework density 20.682188
#
# number of rings (size 3 to 8) (size 9 to 14) (size 15 to 20)
#    0.000    1.667    0.000    4.000   11.667    0.000 
#    0.000    0.000    0.000    0.000    0.000    0.000 
#    0.000    0.000    0.000    0.000    0.000    0.000 
#
# Total GULP energy -134106.440538 kJ/mol
# GULP energy per Si atom -5587.768356 kJ/mol
# Density = 2.063511 g / cm^3
# Si number density = 20.682188 Si / 1000 Ang^3
#
#
#
# Elastic Constant Matrix: (Units=GPa)
#
#
# Indices 1 2 3 4 5 6 
#
# 1 44.8187 3.9838 -23.5387 0.0000 0.0000 0.0000
# 2 3.9838 107.3880 50.4344 0.0000 0.0000 0.0000
# 3 -23.5387 50.4344 105.2218 0.0000 0.0000 0.0000
# 4 0.0000 0.0000 0.0000 12.0311 0.0000 0.0000
# 5 0.0000 0.0000 0.0000 0.0000 33.2219 0.0000
# 6 0.0000 0.0000 0.0000 0.0000 0.0000 -12.0727
#
#
#
# Elastic Compliance Matrix: (Units=1/GPa)
#
#
# Indices 1 2 3 4 5 6 
#
# 1 0.027209 -0.004992 0.008479 0.000000 0.000000 0.000000
# 2 -0.004992 0.012933 -0.007316 0.000000 0.000000 0.000000
# 3 0.008479 -0.007316 0.014907 0.000000 0.000000 0.000000
# 4 0.000000 0.000000 0.000000 0.083118 0.000000 0.000000
# 5 0.000000 0.000000 0.000000 0.000000 0.030101 0.000000
# 6 0.000000 0.000000 0.000000 0.000000 0.000000 -0.082832
#
#
# Mechanical properties :
#
#
# Convention : Reuss Voigt Hill
#
# Bulk Modulus (GPa) = 21.09996 35.46530 28.28263
# Shear Modulus (GPa) = 45.91789 21.73933 33.82861
#
# Velocity S-wave (km/s) = 4.71698 3.24561 4.04869
# Velocity P-wave (km/s) = 6.31590 5.58840 5.96326
#
# Compressibility (1/GPa) = 0.04739345
#
# Stress axis : x y z
#
# Youngs Moduli (GPa) = 36.75227 77.32172 67.08194
#
# Poissons Ratio (x) = 0.38597 -0.56882
# Poissons Ratio (y) = 0.18346 0.49075
# Poissons Ratio (z) = -0.31164 0.56566
#
# Static dielectric constant tensor:
#      x y z
#    x 1.783760 0.000000 0.000000 
#    y 0.000000 1.738700 0.000000 
#    z 0.000000 0.000000 1.694610 
# 
# From -- ./inp_files/8879.got.cif
#   From: 2010.05.17/outbox.cif.g08.bks.cpg/sg36_5_cif.got.tgz:8879.got - 2010.06.03 17:41:39.
