data_PCOD9352214
_publ_section_title
;
Structure prediction by ZEFSAII (Michael W. Deem and Ramdas Pophale) SiO2 
 PCOD9352214
Probable space group: C M C 21
;
_chemical_formula_sum "Si O2"
_cell_formula_units_Z 44
_cell_length_a 23.797490
_cell_length_b 17.243168
_cell_length_c 5.176721
_cell_angle_alpha 90.000000
_cell_angle_beta 90.000000
_cell_angle_gamma 90.000000
_cell_volume 2124.237013
_symmetry_space_group_name_H-M "C M C 21"
_symmetry_group_IT_number 36
_symmetry_cell_setting 'orthorhombic'
loop_
_space_group_symop_operation_xyz
x,y,z
-x,-y,1/2+z
x,-y,1/2+z
-x,y,z
1/2+x,1/2+y,z
1/2-x,1/2-y,1/2+z
1/2+x,1/2-y,1/2+z
1/2-x,1/2+y,z
loop_
_atom_site_type_symbol
_atom_site_label
_atom_site_fract_x
_atom_site_fract_y
_atom_site_fract_z
Si Si1 0.151680 0.461303 0.013950
Si Si2 0.000000 0.047814 0.798085
Si Si3 0.672305 0.702112 0.330742
Si Si4 0.650098 0.214357 0.337329
Si Si5 0.562396 0.678576 0.052896
Si Si6 0.714492 0.539786 0.517858
O O1 0.128691 0.480123 0.296982
O O2 0.144985 0.374543 0.911791
O O3 0.218794 0.473424 0.038542
O O4 0.947443 0.101284 0.884366
O O5 0.000000 0.976396 0.000505
O O6 0.671594 0.766667 0.553044
O O7 0.608669 0.671490 0.275745
O O8 0.705740 0.627315 0.423846
O O9 0.687459 0.740934 0.055643
O O10 0.589621 0.255287 0.374607
O O11 0.500000 0.698514 0.149060
O O12 0.690989 0.518017 0.798359
#
# Coordination Sequence:
#
# PCOD9352214 Si02
#       6
#     8   4   8   8   8   8
#     4  10  21  38  60  84 111 146 186 233 296 343
#     4  10  22  34  54  80 110 146 188 222 258 322
#     4  10  21  35  56  84 108 153 190 224 281 329
#     4  10  21  37  58  83 111 148 189 237 276 348
#     4   8  22  38  56  81 113 148 194 218 289 311
#     4  10  21  36  54  81 118 153 186 234 279 329
#
# _framework density 20.713318999999998
#
# number of rings (size 3 to 8) (size 9 to 14) (size 15 to 20)
#    1.636    0.727    0.000    2.182    2.545    3.636 
#    0.000    0.000    0.000    1.091    0.000    0.000 
#    0.000    0.000    0.000    0.000    0.000    0.000 
#
# Total GULP energy -122572.944167 kJ/mol
# GULP energy per Si atom -5571.497462 kJ/mol
# Density = 2.066617 g / cm^3
# Si number density = 20.713319 Si / 1000 Ang^3
#
#
#
# Elastic Constant Matrix: (Units=GPa)
#
#
# Indices 1 2 3 4 5 6 
#
# 1 23.0274 -12.1277 17.7742 0.0000 0.0000 0.0000
# 2 -12.1277 31.4502 -14.2637 0.0000 0.0000 0.0000
# 3 17.7742 -14.2637 41.8262 0.0000 0.0000 0.0000
# 4 0.0000 0.0000 0.0000 36.7908 0.0000 0.0000
# 5 0.0000 0.0000 0.0000 0.0000 -7.8437 0.0000
# 6 0.0000 0.0000 0.0000 0.0000 0.0000 27.3209
#
#
#
# Elastic Compliance Matrix: (Units=1/GPa)
#
#
# Indices 1 2 3 4 5 6 
#
# 1 0.070973 0.016194 -0.024637 0.000000 0.000000 0.000000
# 2 0.016194 0.041309 0.007206 0.000000 0.000000 0.000000
# 3 -0.024637 0.007206 0.036835 0.000000 0.000000 0.000000
# 4 0.000000 0.000000 0.000000 0.027181 0.000000 0.000000
# 5 0.000000 0.000000 0.000000 0.000000 -0.127491 0.000000
# 6 0.000000 0.000000 0.000000 0.000000 0.000000 0.036602
#
#
# Mechanical properties :
#
#
# Convention : Reuss Voigt Hill
#
# Bulk Modulus (GPa) = 6.81933 8.78547 7.80240
# Shear Modulus (GPa) = 36.55931 18.24834 27.40382
#
# Velocity S-wave (km/s) = 4.20577 2.97138 3.64126
# Velocity P-wave (km/s) = 5.18498 4.00285 4.63178
#
# Compressibility (1/GPa) = 0.14664205
#
# Stress axis : x y z
#
# Youngs Moduli (GPa) = 14.08996 24.20775 27.14775
#
# Poissons Ratio (x) = -0.39203 0.66885
# Poissons Ratio (y) = -0.22818 -0.19561
# Poissons Ratio (z) = 0.34714 -0.17443
#
# Static dielectric constant tensor:
#      x y z
#    x 1.746810 0.000000 0.000000 
#    y 0.000000 1.729570 0.000000 
#    z 0.000000 0.000000 1.794640 
# 
# From -- ./inp_files/1557.got.cif
#   From: 2010.05.17/outbox.cif.g08.bks.cpg/sg36_1_cif.got.tgz:1557.got - 2010.06.03 17:41:39.
