data_PCOD9352982
_publ_section_title
;
Structure prediction by ZEFSAII (Michael W. Deem and Ramdas Pophale) SiO2 
 PCOD9352982
Probable space group: C M C 21
;
_chemical_formula_sum "Si O2"
_cell_formula_units_Z 64
_cell_length_a 30.721430
_cell_length_b 9.046373
_cell_length_c 10.686227
_cell_angle_alpha 90.000000
_cell_angle_beta 90.000000
_cell_angle_gamma 90.000000
_cell_volume 2969.889651
_symmetry_space_group_name_H-M "C M C 21"
_symmetry_group_IT_number 36
_symmetry_cell_setting 'orthorhombic'
loop_
_space_group_symop_operation_xyz
x,y,z
-x,-y,1/2+z
x,-y,1/2+z
-x,y,z
1/2+x,1/2+y,z
1/2-x,1/2-y,1/2+z
1/2+x,1/2-y,1/2+z
1/2-x,1/2+y,z
loop_
_atom_site_type_symbol
_atom_site_label
_atom_site_fract_x
_atom_site_fract_y
_atom_site_fract_z
Si Si1 0.798738 0.509077 0.915050
Si Si2 0.393535 0.899781 0.399447
Si Si3 0.092920 0.933820 0.278462
Si Si4 0.549567 0.725958 0.205018
Si Si5 0.362374 0.593222 0.510859
Si Si6 0.449261 0.177872 0.423391
Si Si7 0.274247 0.513550 0.602901
Si Si8 0.244307 0.765345 0.769795
O O1 0.784647 0.667418 0.860537
O O2 0.774753 0.380943 0.839115
O O3 0.849887 0.501516 0.895818
O O4 0.774873 0.499078 0.048963
O O5 0.414087 0.825254 0.275032
O O6 0.378088 0.760298 0.482522
O O7 0.429921 0.014636 0.443749
O O8 0.122276 0.936724 0.153261
O O9 0.074531 0.773325 0.315801
O O10 0.056225 0.057389 0.249663
O O11 0.116788 0.993727 0.402405
O O12 0.500000 0.774305 0.235148
O O13 0.555229 0.738409 0.056174
O O14 0.311107 0.554578 0.504401
O O15 0.500000 0.168524 0.392286
O O16 0.273908 0.647335 0.699008
O O17 0.283571 0.359056 0.670615
#
# Coordination Sequence:
#
# PCOD9352982 Si02
#       8
#     8   8   8   8   8   8   8   8
#     4  11  24  43  64  96 133 183 233 290 345 425
#     4  11  26  43  69 102 144 183 237 292 370 432
#     4  11  24  46  71 107 136 187 238 290 352 433
#     4  10  23  46  69 100 140 182 237 298 356 427
#     4  11  26  43  73 104 143 186 240 295 354 423
#     4  11  25  45  72 103 138 185 236 298 368 431
#     4  11  24  42  64  98 137 184 234 288 346 414
#     4  10  24  40  66  92 131 182 231 287 347 403
#
# _framework density 21.549620000000001
#
# number of rings (size 3 to 8) (size 9 to 14) (size 15 to 20)
#    0.000    1.250    1.250    3.000   10.500    3.000 
#    0.000    1.250    0.000    0.000    0.000    0.000 
#    0.000    0.000    0.000    0.000    0.000    0.000 
#
# Total GULP energy -178726.004613 kJ/mol
# GULP energy per Si atom -5585.187644 kJ/mol
# Density = 2.150057 g / cm^3
# Si number density = 21.549620 Si / 1000 Ang^3
#
#
#
# Elastic Constant Matrix: (Units=GPa)
#
#
# Indices 1 2 3 4 5 6 
#
# 1 83.1081 5.7730 24.2325 0.0000 0.0000 0.0000
# 2 5.7730 82.8591 12.4078 0.0000 0.0000 0.0000
# 3 24.2325 12.4078 69.7991 0.0000 0.0000 0.0000
# 4 0.0000 0.0000 0.0000 32.0101 0.0000 0.0000
# 5 0.0000 0.0000 0.0000 0.0000 41.0066 0.0000
# 6 0.0000 0.0000 0.0000 0.0000 0.0000 23.8039
#
#
#
# Elastic Compliance Matrix: (Units=1/GPa)
#
#
# Indices 1 2 3 4 5 6 
#
# 1 0.013393 -0.000243 -0.004606 0.000000 0.000000 0.000000
# 2 -0.000243 0.012403 -0.002120 0.000000 0.000000 0.000000
# 3 -0.004606 -0.002120 0.016303 0.000000 0.000000 0.000000
# 4 0.000000 0.000000 0.000000 0.031240 0.000000 0.000000
# 5 0.000000 0.000000 0.000000 0.000000 0.024386 0.000000
# 6 0.000000 0.000000 0.000000 0.000000 0.000000 0.042010
#
#
# Mechanical properties :
#
#
# Convention : Reuss Voigt Hill
#
# Bulk Modulus (GPa) = 35.51306 35.62144 35.56725
# Shear Modulus (GPa) = 30.66332 32.25431 31.45882
#
# Velocity S-wave (km/s) = 3.77625 3.87298 3.82492
# Velocity P-wave (km/s) = 5.96061 6.04697 6.00394
#
# Compressibility (1/GPa) = 0.02815866
#
# Stress axis : x y z
#
# Youngs Moduli (GPa) = 74.66855 80.62463 61.33853
#
# Poissons Ratio (x) = 0.01962 0.28254
# Poissons Ratio (y) = 0.01817 0.13006
# Poissons Ratio (z) = 0.34395 0.17095
#
# Static dielectric constant tensor:
#      x y z
#    x 1.794570 0.000000 0.000000 
#    y 0.000000 1.775220 0.000000 
#    z 0.000000 0.000000 1.793730 
# 
# From -- ./inp_files/9750.got.cif
#   From: 2010.05.17/outbox.cif.g08.bks.cpg/sg36_5_cif.got.tgz:9750.got - 2010.06.03 17:41:39.
