data_PCOD9352866
_publ_section_title
;
Structure prediction by ZEFSAII (Michael W. Deem and Ramdas Pophale) SiO2 
 PCOD9352866
Probable space group: C M C 21
;
_chemical_formula_sum "Si O2"
_cell_formula_units_Z 48
_cell_length_a 25.624630
_cell_length_b 7.406389
_cell_length_c 11.329795
_cell_angle_alpha 90.000000
_cell_angle_beta 90.000000
_cell_angle_gamma 90.000000
_cell_volume 2150.236222
_symmetry_space_group_name_H-M "C M C 21"
_symmetry_group_IT_number 36
_symmetry_cell_setting 'orthorhombic'
loop_
_space_group_symop_operation_xyz
x,y,z
-x,-y,1/2+z
x,-y,1/2+z
-x,y,z
1/2+x,1/2+y,z
1/2-x,1/2-y,1/2+z
1/2+x,1/2-y,1/2+z
1/2-x,1/2+y,z
loop_
_atom_site_type_symbol
_atom_site_label
_atom_site_fract_x
_atom_site_fract_y
_atom_site_fract_z
Si Si1 0.597369 0.048938 0.762580
Si Si2 0.184354 0.660938 0.598883
Si Si3 0.135177 0.209796 0.859501
Si Si4 0.000000 0.907533 0.997709
Si Si5 0.802196 0.930013 0.148140
Si Si6 0.888327 0.825727 0.963790
Si Si7 0.500000 0.304974 0.716273
O O1 0.642176 0.041942 0.665328
O O2 0.618479 0.165584 0.872506
O O3 0.549504 0.169497 0.717096
O O4 0.591629 0.844795 0.807648
O O5 0.163730 0.695941 0.468491
O O6 0.242430 0.586682 0.610489
O O7 0.184333 0.859059 0.658236
O O8 0.181200 0.164418 0.768324
O O9 0.110248 0.021090 0.899293
O O10 0.945289 0.807019 0.023120
O O11 0.000000 0.905604 0.848277
O O12 0.000000 0.072316 0.096022
O O13 0.840010 0.844714 0.050533
#
# Coordination Sequence:
#
# PCOD9352866 Si02
#       7
#     8   8   8   4   8   8   4
#     4  11  24  44  68  97 143 172 236 283 342 412
#     4  11  25  42  66 102 135 181 230 283 347 420
#     4  11  25  42  68  98 134 183 225 289 348 410
#     4  10  22  43  75  95 148 181 235 288 353 405
#     4  11  24  42  67  96 137 178 230 282 347 409
#     4  10  24  44  67  99 133 182 232 282 344 417
#     4  10  22  45  71 109 136 197 233 300 343 429
#
# _framework density 22.323129000000002
#
# number of rings (size 3 to 8) (size 9 to 14) (size 15 to 20)
#    0.000    1.333    1.667    3.000    9.333    2.000 
#    0.000    1.667    0.000    0.000    0.000    0.000 
#    0.000    0.000    0.000    0.000    0.000    0.000 
#
# Total GULP energy -134073.934431 kJ/mol
# GULP energy per Si atom -5586.413935 kJ/mol
# Density = 2.227232 g / cm^3
# Si number density = 22.323129 Si / 1000 Ang^3
#
#
#
# Elastic Constant Matrix: (Units=GPa)
#
#
# Indices 1 2 3 4 5 6 
#
# 1 119.5322 5.1411 28.0319 0.0000 0.0000 0.0000
# 2 5.1411 91.1430 46.9994 0.0000 0.0000 0.0000
# 3 28.0319 46.9994 70.4422 0.0000 0.0000 0.0000
# 4 0.0000 0.0000 0.0000 11.6454 0.0000 0.0000
# 5 0.0000 0.0000 0.0000 0.0000 -55.7373 0.0000
# 6 0.0000 0.0000 0.0000 0.0000 0.0000 2.8514
#
#
#
# Elastic Compliance Matrix: (Units=1/GPa)
#
#
# Indices 1 2 3 4 5 6 
#
# 1 0.009497 0.002154 -0.005216 0.000000 0.000000 0.000000
# 2 0.002154 0.017215 -0.012343 0.000000 0.000000 0.000000
# 3 -0.005216 -0.012343 0.024508 0.000000 0.000000 0.000000
# 4 0.000000 0.000000 0.000000 0.085871 0.000000 0.000000
# 5 0.000000 0.000000 0.000000 0.000000 -0.017941 0.000000
# 6 0.000000 0.000000 0.000000 0.000000 0.000000 0.350706
#
#
# Mechanical properties :
#
#
# Convention : Reuss Voigt Hill
#
# Bulk Modulus (GPa) = 48.99986 49.05136 49.02561
# Shear Modulus (GPa) = 9.85281 5.14822 7.50052
#
# Velocity S-wave (km/s) = 2.10316 1.52027 1.83501
# Velocity P-wave (km/s) = 5.28163 5.01026 5.14773
#
# Compressibility (1/GPa) = 0.02040822
#
# Stress axis : x y z
#
# Youngs Moduli (GPa) = 105.30065 58.08765 40.80383
#
# Poissons Ratio (x) = -0.12514 0.21285
# Poissons Ratio (y) = -0.22685 0.50366
# Poissons Ratio (z) = 0.54929 0.71700
#
# Static dielectric constant tensor:
#      x y z
#    x 1.798480 0.000000 0.000000 
#    y 0.000000 1.815770 0.000000 
#    z 0.000000 0.000000 1.890640 
# 
# From -- ./inp_files/9442.got.cif
#   From: 2010.05.17/outbox.cif.g08.bks.cpg/sg36_5_cif.got.tgz:9442.got - 2010.06.03 17:41:39.
