data_PCOD9352648
_publ_section_title
;
Structure prediction by ZEFSAII (Michael W. Deem and Ramdas Pophale) SiO2 
 PCOD9352648
Probable space group: C M C 21
;
_chemical_formula_sum "Si O2"
_cell_formula_units_Z 60
_cell_length_a 21.628403
_cell_length_b 8.979100
_cell_length_c 17.458046
_cell_angle_alpha 90.000000
_cell_angle_beta 90.000000
_cell_angle_gamma 90.000000
_cell_volume 3390.415267
_symmetry_space_group_name_H-M "C M C 21"
_symmetry_group_IT_number 36
_symmetry_cell_setting 'orthorhombic'
loop_
_space_group_symop_operation_xyz
x,y,z
-x,-y,1/2+z
x,-y,1/2+z
-x,y,z
1/2+x,1/2+y,z
1/2-x,1/2-y,1/2+z
1/2+x,1/2-y,1/2+z
1/2-x,1/2+y,z
loop_
_atom_site_type_symbol
_atom_site_label
_atom_site_fract_x
_atom_site_fract_y
_atom_site_fract_z
Si Si1 0.813586 0.954936 0.788840
Si Si2 0.182497 0.968929 0.466097
Si Si3 0.433172 0.499513 0.193174
Si Si4 0.281206 0.229698 0.051259
Si Si5 0.573285 0.690261 0.040824
Si Si6 0.616223 0.002404 0.603010
Si Si7 0.500000 0.203287 0.143917
Si Si8 0.286092 0.841087 0.205216
O O1 0.808887 0.988191 0.878172
O O2 0.879959 0.001458 0.755218
O O3 0.762145 0.046822 0.742884
O O4 0.804024 0.783407 0.766579
O O5 0.231478 0.846001 0.494942
O O6 0.114766 0.900961 0.481371
O O7 0.193832 0.115605 0.517446
O O8 0.500000 0.551525 0.224923
O O9 0.416629 0.607952 0.122752
O O10 0.447142 0.335448 0.160278
O O11 0.246476 0.264595 0.131320
O O12 0.336384 0.112618 0.063703
O O13 0.500000 0.686040 0.024862
O O14 0.597636 0.858338 0.049259
O O15 0.654225 0.072375 0.673839
O O16 0.554587 0.918833 0.627925
#
# Coordination Sequence:
#
# PCOD9352648 Si02
#       8
#     8   8   8   8   8   8   4   8
#     4  12  24  39  61  94 129 165 204 261 328 379
#     4  12  24  40  61  92 133 164 203 263 332 380
#     4   9  21  39  63  89 121 161 218 256 305 371
#     4  12  22  41  63  94 123 167 212 258 312 380
#     4  11  21  40  64  91 121 165 215 260 310 375
#     4  12  21  36  68  93 123 151 215 270 304 351
#     4  10  22  36  62  98 112 156 208 278 296 364
#     4  12  22  38  65  92 122 165 214 257 307 378
#
# _framework density 17.696947000000002
#
# number of rings (size 3 to 8) (size 9 to 14) (size 15 to 20)
#    0.400    0.267    6.000    3.200    0.000    0.533 
#    0.000    0.000    0.000    0.000    0.000    0.000 
#    0.000    0.000    0.000    0.000    0.000    0.000 
#
# Total GULP energy -167029.918192 kJ/mol
# GULP energy per Si atom -5567.663940 kJ/mol
# Density = 1.765667 g / cm^3
# Si number density = 17.696947 Si / 1000 Ang^3
#
#
#
# Elastic Constant Matrix: (Units=GPa)
#
#
# Indices 1 2 3 4 5 6 
#
# 1 101.2991 23.8247 17.7982 0.0000 0.0000 0.0000
# 2 23.8247 87.2335 -2.2681 0.0000 0.0000 0.0000
# 3 17.7982 -2.2681 28.5771 0.0000 0.0000 0.0000
# 4 0.0000 0.0000 0.0000 21.0849 0.0000 0.0000
# 5 0.0000 0.0000 0.0000 0.0000 18.4543 0.0000
# 6 0.0000 0.0000 0.0000 0.0000 0.0000 2.2703
#
#
#
# Elastic Compliance Matrix: (Units=1/GPa)
#
#
# Indices 1 2 3 4 5 6 
#
# 1 0.012063 -0.003497 -0.007791 0.000000 0.000000 0.000000
# 2 -0.003497 0.012501 0.003170 0.000000 0.000000 0.000000
# 3 -0.007791 0.003170 0.040097 0.000000 0.000000 0.000000
# 4 0.000000 0.000000 0.000000 0.047427 0.000000 0.000000
# 5 0.000000 0.000000 0.000000 0.000000 0.054188 0.000000
# 6 0.000000 0.000000 0.000000 0.000000 0.000000 0.440465
#
#
# Mechanical properties :
#
#
# Convention : Reuss Voigt Hill
#
# Bulk Modulus (GPa) = 20.65014 32.86880 26.75947
# Shear Modulus (GPa) = 7.82329 20.21224 14.01776
#
# Velocity S-wave (km/s) = 2.10483 3.38321 2.81748
# Velocity P-wave (km/s) = 4.19537 5.82022 5.07327
#
# Compressibility (1/GPa) = 0.04842581
#
# Stress axis : x y z
#
# Youngs Moduli (GPa) = 82.89777 79.99335 24.93972
#
# Poissons Ratio (x) = 0.27975 0.19429
# Poissons Ratio (y) = 0.28991 -0.07906
# Poissons Ratio (z) = 0.64582 -0.25360
#
# Static dielectric constant tensor:
#      x y z
#    x 1.613090 0.000000 0.000000 
#    y 0.000000 1.610020 0.000000 
#    z 0.000000 0.000000 1.576570 
# 
# From -- ./inp_files/12961.got.cif
#   From: 2010.05.17/outbox.cif.g08.bks.cpg/sg36_7_cif.got.tgz:12961.got - 2010.06.03 17:41:39.
