data_PCOD9352659
_publ_section_title
;
Structure prediction by ZEFSAII (Michael W. Deem and Ramdas Pophale) SiO2 
 PCOD9352659
Probable space group: C M C 21
;
_chemical_formula_sum "Si O2"
_cell_formula_units_Z 56
_cell_length_a 20.138547
_cell_length_b 14.557563
_cell_length_c 9.195214
_cell_angle_alpha 90.000000
_cell_angle_beta 90.000000
_cell_angle_gamma 90.000000
_cell_volume 2695.744031
_symmetry_space_group_name_H-M "C M C 21"
_symmetry_group_IT_number 36
_symmetry_cell_setting 'orthorhombic'
loop_
_space_group_symop_operation_xyz
x,y,z
-x,-y,1/2+z
x,-y,1/2+z
-x,y,z
1/2+x,1/2+y,z
1/2-x,1/2-y,1/2+z
1/2+x,1/2-y,1/2+z
1/2-x,1/2+y,z
loop_
_atom_site_type_symbol
_atom_site_label
_atom_site_fract_x
_atom_site_fract_y
_atom_site_fract_z
Si Si1 0.423403 0.575655 0.869650
Si Si2 0.179662 0.528380 0.936727
Si Si3 0.429191 0.277036 0.617753
Si Si4 0.337645 0.884382 0.159269
Si Si5 0.185845 0.178040 0.671870
Si Si6 0.125268 0.130737 0.368057
Si Si7 0.261339 0.119467 0.207670
O O1 0.500000 0.578408 0.811599
O O2 0.367680 0.624579 0.770100
O O3 0.402066 0.470918 0.895963
O O4 0.423729 0.633284 0.018184
O O5 0.142952 0.596610 0.826552
O O6 0.210444 0.453614 0.825176
O O7 0.141405 0.468371 0.056139
O O8 0.229758 0.584177 0.041824
O O9 0.500000 0.232377 0.582018
O O10 0.370118 0.206170 0.595571
O O11 0.427508 0.308153 0.784543
O O12 0.257467 0.872861 0.163258
O O13 0.154952 0.175769 0.511536
O O14 0.202370 0.282042 0.720830
O O15 0.185323 0.126732 0.252213
#
# Coordination Sequence:
#
# PCOD9352659 Si02
#       7
#     8   8   8   8   8   8   8
#     4  11  26  44  66  97 137 181 221 264 331 408
#     4  10  22  37  61  92 128 161 204 279 322 391
#     4  11  25  43  65  90 129 173 218 272 328 397
#     4  11  22  41  64  95 128 163 221 268 338 382
#     4  12  25  39  67  96 134 174 219 276 324 394
#     4  12  24  39  63  96 131 176 216 269 325 401
#     4  11  23  37  61 100 127 168 217 272 337 375
#
# _framework density 20.773486999999999
#
# number of rings (size 3 to 8) (size 9 to 14) (size 15 to 20)
#    0.000    0.857    2.857    4.714    4.000    2.286 
#    0.000    0.714    0.000    3.429    0.000    0.000 
#    0.000    0.000    0.000    0.000    0.000    0.000 
#
# Total GULP energy -156365.375817 kJ/mol
# GULP energy per Si atom -5584.477708 kJ/mol
# Density = 2.072621 g / cm^3
# Si number density = 20.773487 Si / 1000 Ang^3
#
#
#
# Elastic Constant Matrix: (Units=GPa)
#
#
# Indices 1 2 3 4 5 6 
#
# 1 95.2896 30.9166 14.7031 0.0000 0.0000 0.0000
# 2 30.9166 33.4633 -9.6265 0.0000 0.0000 0.0000
# 3 14.7031 -9.6265 83.8150 0.0000 0.0000 0.0000
# 4 0.0000 0.0000 0.0000 36.4678 0.0000 0.0000
# 5 0.0000 0.0000 0.0000 0.0000 15.2483 0.0000
# 6 0.0000 0.0000 0.0000 0.0000 0.0000 7.0991
#
#
#
# Elastic Compliance Matrix: (Units=1/GPa)
#
#
# Indices 1 2 3 4 5 6 
#
# 1 0.016707 -0.016835 -0.004864 0.000000 0.000000 0.000000
# 2 -0.016835 0.047868 0.008451 0.000000 0.000000 0.000000
# 3 -0.004864 0.008451 0.013755 0.000000 0.000000 0.000000
# 4 0.000000 0.000000 0.000000 0.027421 0.000000 0.000000
# 5 0.000000 0.000000 0.000000 0.000000 0.065581 0.000000
# 6 0.000000 0.000000 0.000000 0.000000 0.000000 0.140863
#
#
# Mechanical properties :
#
#
# Convention : Reuss Voigt Hill
#
# Bulk Modulus (GPa) = 19.29230 31.61713 25.45471
# Shear Modulus (GPa) = 14.04616 23.53470 18.79043
#
# Velocity S-wave (km/s) = 2.60312 3.36954 3.01082
# Velocity P-wave (km/s) = 4.28277 5.51284 4.93627
#
# Compressibility (1/GPa) = 0.05183416
#
# Stress axis : x y z
#
# Youngs Moduli (GPa) = 59.85540 20.89065 72.70075
#
# Poissons Ratio (x) = 0.35169 0.35364
# Poissons Ratio (y) = 1.00765 -0.61440
# Poissons Ratio (z) = 0.29116 -0.17655
#
# Static dielectric constant tensor:
#      x y z
#    x 1.763710 0.000000 0.000000 
#    y 0.000000 1.765500 0.000000 
#    z 0.000000 0.000000 1.762600 
# 
# From -- ./inp_files/5224.got.cif
#   From: 2010.05.17/outbox.cif.g08.bks.cpg/sg36_3_cif.got.tgz:5224.got - 2010.06.03 17:41:39.
