data_PCOD9352348
_publ_section_title
;
Structure prediction by ZEFSAII (Michael W. Deem and Ramdas Pophale) SiO2 
 PCOD9352348
Probable space group: C M C 21
;
_chemical_formula_sum "Si O2"
_cell_formula_units_Z 48
_cell_length_a 18.840451
_cell_length_b 5.300662
_cell_length_c 18.774793
_cell_angle_alpha 90.000000
_cell_angle_beta 90.000000
_cell_angle_gamma 90.000000
_cell_volume 1874.979674
_symmetry_space_group_name_H-M "C M C 21"
_symmetry_group_IT_number 36
_symmetry_cell_setting 'orthorhombic'
loop_
_space_group_symop_operation_xyz
x,y,z
-x,-y,1/2+z
x,-y,1/2+z
-x,y,z
1/2+x,1/2+y,z
1/2-x,1/2-y,1/2+z
1/2+x,1/2-y,1/2+z
1/2-x,1/2+y,z
loop_
_atom_site_type_symbol
_atom_site_label
_atom_site_fract_x
_atom_site_fract_y
_atom_site_fract_z
Si Si1 0.084740 0.407495 0.974200
Si Si2 0.419063 0.401073 0.617233
Si Si3 0.783385 0.777933 0.106273
Si Si4 0.584740 0.407495 0.906001
Si Si5 0.580937 0.098926 0.762968
Si Si6 0.783385 0.277932 0.773929
O O1 0.000000 0.434837 0.959045
O O2 0.114378 0.182650 0.924348
O O3 0.089461 0.296459 0.053103
O O4 0.237825 0.509131 0.074584
O O5 0.500000 0.495929 0.616741
O O6 0.406262 0.249999 0.690101
O O7 0.237825 0.009130 0.805618
O O8 0.763358 0.750000 0.190101
O O9 0.863830 0.874070 0.107539
O O10 0.885622 0.682650 0.955853
O O11 0.500000 0.434837 0.921156
O O12 0.589461 0.296459 0.827098
O O13 0.500000 0.004070 0.763461
O O14 0.636170 0.874069 0.772662
#
# Coordination Sequence:
#
# PCOD9352348 Si02
#       6
#     8   8   8   8   8   8
#     4   9  19  36  56  80 116 159 194 232 298 372
#     4  10  21  37  62  95 122 149 201 265 303 337
#     4  10  21  38  58  83 120 162 195 231 295 368
#     4   9  19  36  56  80 116 159 194 232 298 372
#     4  10  21  37  62  95 122 149 201 265 303 337
#     4  10  21  38  58  83 120 162 195 231 295 368
#
# _framework density 25.600280000000001
#
# number of rings (size 3 to 8) (size 9 to 14) (size 15 to 20)
#    0.000    2.333    0.000    3.000    0.000    6.000 
#    0.000   11.667    0.000    7.000    0.000    0.000 
#    0.000    0.000    0.000    0.000    0.000    0.000 
#
# Total GULP energy -134416.861035 kJ/mol
# GULP energy per Si atom -5600.702543 kJ/mol
# Density = 2.554201 g / cm^3
# Si number density = 25.600280 Si / 1000 Ang^3
#
#
#
# Elastic Constant Matrix: (Units=GPa)
#
#
# Indices 1 2 3 4 5 6 
#
# 1 175.4580 73.6766 4.4357 0.0000 0.0000 0.0000
# 2 73.6766 169.5625 21.1589 0.0000 0.0000 0.0000
# 3 4.4357 21.1589 90.5640 0.0000 0.0000 0.0000
# 4 0.0000 0.0000 0.0000 30.2946 0.0000 0.0000
# 5 0.0000 0.0000 0.0000 0.0000 6.8660 0.0000
# 6 0.0000 0.0000 0.0000 0.0000 0.0000 25.3912
#
#
#
# Elastic Compliance Matrix: (Units=1/GPa)
#
#
# Indices 1 2 3 4 5 6 
#
# 1 0.006984 -0.003082 0.000378 0.000000 0.000000 0.000000
# 2 -0.003082 0.007434 -0.001586 0.000000 0.000000 0.000000
# 3 0.000378 -0.001586 0.011394 0.000000 0.000000 0.000000
# 4 0.000000 0.000000 0.000000 0.033009 0.000000 0.000000
# 5 0.000000 0.000000 0.000000 0.000000 0.145645 0.000000
# 6 0.000000 0.000000 0.000000 0.000000 0.000000 0.039384
#
#
# Mechanical properties :
#
#
# Convention : Reuss Voigt Hill
#
# Bulk Modulus (GPa) = 58.02922 70.45855 64.24389
# Shear Modulus (GPa) = 19.36679 34.93125 27.14902
#
# Velocity S-wave (km/s) = 2.75345 3.69790 3.26006
# Velocity P-wave (km/s) = 5.72934 6.76868 6.27058
#
# Compressibility (1/GPa) = 0.01723270
#
# Stress axis : x y z
#
# Youngs Moduli (GPa) = 143.18722 134.50842 87.76589
#
# Poissons Ratio (x) = 0.41452 -0.03317
# Poissons Ratio (y) = 0.44126 0.13920
# Poissons Ratio (z) = -0.05412 0.21333
#
# Static dielectric constant tensor:
#      x y z
#    x 2.046010 0.000000 0.000000 
#    y 0.000000 2.033660 0.000000 
#    z 0.000000 0.000000 2.035120 
# 
# From -- ./inp_files/14820.got.cif
#   From: 2010.05.17/outbox.cif.g08.bks.cpg/sg36_8_cif.got.tgz:14820.got - 2010.06.03 17:41:39.
