data_PCOD9352941
_publ_section_title
;
Structure prediction by ZEFSAII (Michael W. Deem and Ramdas Pophale) SiO2 
 PCOD9352941
Probable space group: C M C 21
;
_chemical_formula_sum "Si O2"
_cell_formula_units_Z 56
_cell_length_a 15.536568
_cell_length_b 19.247493
_cell_length_c 8.828780
_cell_angle_alpha 90.000000
_cell_angle_beta 90.000000
_cell_angle_gamma 90.000000
_cell_volume 2640.158228
_symmetry_space_group_name_H-M "C M C 21"
_symmetry_group_IT_number 36
_symmetry_cell_setting 'orthorhombic'
loop_
_space_group_symop_operation_xyz
x,y,z
-x,-y,1/2+z
x,-y,1/2+z
-x,y,z
1/2+x,1/2+y,z
1/2-x,1/2-y,1/2+z
1/2+x,1/2-y,1/2+z
1/2-x,1/2+y,z
loop_
_atom_site_type_symbol
_atom_site_label
_atom_site_fract_x
_atom_site_fract_y
_atom_site_fract_z
Si Si1 0.904518 0.099983 0.701820
Si Si2 0.598308 0.150491 0.971703
Si Si3 0.275810 0.946591 0.668820
Si Si4 0.402971 0.077487 0.653386
Si Si5 0.188240 0.658693 0.411811
Si Si6 0.687587 0.265636 0.133721
Si Si7 0.098558 0.022950 0.008877
O O1 0.842077 0.163279 0.709399
O O2 0.891840 0.044770 0.835376
O O3 0.000000 0.128820 0.718292
O O4 0.898222 0.058630 0.545316
O O5 0.500000 0.139918 0.023146
O O6 0.603154 0.128825 0.796820
O O7 0.662762 0.100143 0.061974
O O8 0.626196 0.229237 0.008663
O O9 0.269119 0.909658 0.832848
O O10 0.180997 0.947729 0.596590
O O11 0.326565 0.020427 0.672079
O O12 0.500000 0.046163 0.655023
O O13 0.390217 0.121987 0.500232
O O14 0.231024 0.707524 0.539442
O O15 0.185423 0.710116 0.268608
O O16 0.000000 0.044463 0.055512
#
# Coordination Sequence:
#
# PCOD9352941 Si02
#       7
#     8   8   8   8   8   8   8
#     4  10  23  42  65  90 126 166 215 275 334 400
#     4  10  23  43  67  98 138 179 230 282 338 416
#     4  11  24  40  70 100 134 184 225 290 348 411
#     4  11  24  43  68 103 143 182 230 289 348 409
#     4  11  26  41  67 100 135 183 236 283 334 421
#     4  11  24  43  67  92 135 178 230 272 348 396
#     4  10  24  42  65  99 129 168 223 283 343 409
#
# _framework density 21.210850000000001
#
# number of rings (size 3 to 8) (size 9 to 14) (size 15 to 20)
#    0.000    1.429    0.000    3.429   12.000    4.571 
#    0.000    0.714    0.000    0.000    0.000    0.000 
#    0.000    0.000    0.000    0.000    0.000    0.000 
#
# Total GULP energy -156022.443327 kJ/mol
# GULP energy per Si atom -5572.230119 kJ/mol
# Density = 2.116257 g / cm^3
# Si number density = 21.210850 Si / 1000 Ang^3
#
#
#
# Elastic Constant Matrix: (Units=GPa)
#
#
# Indices 1 2 3 4 5 6 
#
# 1 -71.7671 78.4388 -102.4998 0.0000 0.0000 0.0000
# 2 78.4388 72.1209 65.2274 0.0000 0.0000 0.0000
# 3 -102.4998 65.2274 -25.8733 0.0000 0.0000 0.0000
# 4 0.0000 0.0000 0.0000 32.0798 0.0000 0.0000
# 5 0.0000 0.0000 0.0000 0.0000 29.2884 0.0000
# 6 0.0000 0.0000 0.0000 0.0000 0.0000 -268.8679
#
#
#
# Elastic Compliance Matrix: (Units=1/GPa)
#
#
# Indices 1 2 3 4 5 6 
#
# 1 0.005066 0.003854 -0.010354 0.000000 0.000000 0.000000
# 2 0.003854 0.007159 0.002780 0.000000 0.000000 0.000000
# 3 -0.010354 0.002780 0.009377 0.000000 0.000000 0.000000
# 4 0.000000 0.000000 0.000000 0.031172 0.000000 0.000000
# 5 0.000000 0.000000 0.000000 0.000000 0.034143 0.000000
# 6 0.000000 0.000000 0.000000 0.000000 0.000000 -0.003719
#
#
# Mechanical properties :
#
#
# Convention : Reuss Voigt Hill
#
# Bulk Modulus (GPa) = 70.60377 6.31259 38.45818
# Shear Modulus (GPa) = 52.43343 -45.94567 3.24388
#
# Velocity S-wave (km/s) = 4.97732 -4.65923 1.23801
# Velocity P-wave (km/s) = 8.14804 5.09529 4.49603
#
# Compressibility (1/GPa) = 0.01416355
#
# Stress axis : x y z
#
# Youngs Moduli (GPa) = 197.38533 139.67744 106.64385
#
# Poissons Ratio (x) = -0.53834 1.10418
# Poissons Ratio (y) = -0.76076 -0.29649
# Poissons Ratio (z) = 2.04370 -0.38833
#
# Static dielectric constant tensor:
#      x y z
#    x 1.821970 0.000000 0.000000 
#    y 0.000000 1.780160 0.000000 
#    z 0.000000 0.000000 2.554090 
# 
# From -- ./inp_files/4209.got.cif
#   From: 2010.05.17/outbox.cif.g08.bks.cpg/sg36_3_cif.got.tgz:4209.got - 2010.06.03 17:41:39.
