data_PCOD9352262
_publ_section_title
;
Structure prediction by ZEFSAII (Michael W. Deem and Ramdas Pophale) SiO2 
 PCOD9352262
Probable space group: C M C 21
;
_chemical_formula_sum "Si O2"
_cell_formula_units_Z 48
_cell_length_a 8.268779
_cell_length_b 20.795079
_cell_length_c 14.493989
_cell_angle_alpha 90.000000
_cell_angle_beta 90.000000
_cell_angle_gamma 90.000000
_cell_volume 2492.240141
_symmetry_space_group_name_H-M "C M C 21"
_symmetry_group_IT_number 36
_symmetry_cell_setting 'orthorhombic'
loop_
_space_group_symop_operation_xyz
x,y,z
-x,-y,1/2+z
x,-y,1/2+z
-x,y,z
1/2+x,1/2+y,z
1/2-x,1/2-y,1/2+z
1/2+x,1/2-y,1/2+z
1/2-x,1/2+y,z
loop_
_atom_site_type_symbol
_atom_site_label
_atom_site_fract_x
_atom_site_fract_y
_atom_site_fract_z
Si Si1 0.695535 0.308510 0.117110
Si Si2 0.302356 0.177872 0.216464
Si Si3 0.194495 0.063013 0.715241
Si Si4 0.306540 0.859593 0.921085
Si Si5 0.193722 0.444497 0.596286
Si Si6 0.193729 0.992618 0.409138
O O1 0.500000 0.308144 0.118885
O O2 0.751159 0.242061 0.163397
O O3 0.753868 0.368274 0.179580
O O4 0.744931 0.322622 0.011729
O O5 0.500000 0.178282 0.217742
O O6 0.249554 0.169921 0.322918
O O7 0.250959 0.115748 0.157475
O O8 0.255078 0.037368 0.813363
O O9 0.000000 0.066925 0.721054
O O10 0.240713 0.009421 0.641478
O O11 0.500000 0.856862 0.922178
O O12 0.257016 0.934794 0.923406
O O13 0.253909 0.446416 0.491981
O O14 0.000000 0.445498 0.597441
O O15 0.000000 0.996631 0.406753
#
# Coordination Sequence:
#
# PCOD9352262 Si02
#       6
#     8   8   8   8   8   8
#     4  10  21  40  61  84 118 157 193 237 294 351
#     4   9  21  39  59  84 119 157 191 235 295 350
#     4  10  21  36  58  85 114 152 197 240 287 343
#     4  11  21  37  60  87 115 153 198 242 294 349
#     4  11  21  36  59  86 116 152 196 243 288 341
#     4  11  22  36  57  88 120 155 197 243 294 348
#
# _framework density 19.259781
#
# number of rings (size 3 to 8) (size 9 to 14) (size 15 to 20)
#    0.000    1.667    3.333    1.500    0.000    2.000 
#    0.000    5.000    0.000    0.000    0.000    0.000 
#    0.000    0.000    0.000    0.000    0.000    0.000 
#
# Total GULP energy -134015.495159 kJ/mol
# GULP energy per Si atom -5583.978965 kJ/mol
# Density = 1.921594 g / cm^3
# Si number density = 19.259781 Si / 1000 Ang^3
#
#
#
# Elastic Constant Matrix: (Units=GPa)
#
#
# Indices 1 2 3 4 5 6 
#
# 1 56.6900 1.8574 5.4088 0.0000 0.0000 0.0000
# 2 1.8574 120.8611 43.8701 0.0000 0.0000 0.0000
# 3 5.4088 43.8701 139.2357 0.0000 0.0000 0.0000
# 4 0.0000 0.0000 0.0000 35.4753 0.0000 0.0000
# 5 0.0000 0.0000 0.0000 0.0000 27.5032 0.0000
# 6 0.0000 0.0000 0.0000 0.0000 0.0000 14.2668
#
#
#
# Elastic Compliance Matrix: (Units=1/GPa)
#
#
# Indices 1 2 3 4 5 6 
#
# 1 0.017706 -0.000025 -0.000680 0.000000 0.000000 0.000000
# 2 -0.000025 0.009342 -0.002943 0.000000 0.000000 0.000000
# 3 -0.000680 -0.002943 0.008136 0.000000 0.000000 0.000000
# 4 0.000000 0.000000 0.000000 0.028189 0.000000 0.000000
# 5 0.000000 0.000000 0.000000 0.000000 0.036359 0.000000
# 6 0.000000 0.000000 0.000000 0.000000 0.000000 0.070093
#
#
# Mechanical properties :
#
#
# Convention : Reuss Voigt Hill
#
# Bulk Modulus (GPa) = 35.85767 46.56216 41.20992
# Shear Modulus (GPa) = 26.82172 33.15909 29.99040
#
# Velocity S-wave (km/s) = 3.73584 4.15381 3.95036
# Velocity P-wave (km/s) = 6.10467 6.87269 6.50003
#
# Compressibility (1/GPa) = 0.02788804
#
# Stress axis : x y z
#
# Youngs Moduli (GPa) = 56.47962 107.03823 122.91620
#
# Poissons Ratio (x) = 0.00271 0.08356
# Poissons Ratio (y) = 0.00143 0.36169
# Poissons Ratio (z) = 0.03840 0.31497
#
# Static dielectric constant tensor:
#      x y z
#    x 1.675230 0.000000 0.000000 
#    y 0.000000 1.640460 0.000000 
#    z 0.000000 0.000000 1.670010 
# 
# From -- ./inp_files/10340.got.cif
#   From: 2010.05.17/outbox.cif.g08.bks.cpg/sg36_6_cif.got.tgz:10340.got - 2010.06.03 17:41:39.
