data_PCOD9352087
_publ_section_title
;
Structure prediction by ZEFSAII (Michael W. Deem and Ramdas Pophale) SiO2 
 PCOD9352087
Probable space group: C M C 21
;
_chemical_formula_sum "Si O2"
_cell_formula_units_Z 64
_cell_length_a 23.388534
_cell_length_b 14.699004
_cell_length_c 8.278556
_cell_angle_alpha 90.000000
_cell_angle_beta 90.000000
_cell_angle_gamma 90.000000
_cell_volume 2846.069492
_symmetry_space_group_name_H-M "C M C 21"
_symmetry_group_IT_number 36
_symmetry_cell_setting 'orthorhombic'
loop_
_space_group_symop_operation_xyz
x,y,z
-x,-y,1/2+z
x,-y,1/2+z
-x,y,z
1/2+x,1/2+y,z
1/2-x,1/2-y,1/2+z
1/2+x,1/2-y,1/2+z
1/2-x,1/2+y,z
loop_
_atom_site_type_symbol
_atom_site_label
_atom_site_fract_x
_atom_site_fract_y
_atom_site_fract_z
Si Si1 0.110761 0.956403 0.871080
Si Si2 0.850042 0.634086 0.877751
Si Si3 0.268443 0.611084 0.309116
Si Si4 0.107947 0.276600 0.885876
Si Si5 0.934088 0.117528 0.697178
Si Si6 0.144533 0.547038 0.228373
Si Si7 0.065463 0.776193 0.736341
Si Si8 0.235273 0.221098 0.974882
O O1 0.177001 0.952309 0.824319
O O2 0.078382 0.882781 0.759303
O O3 0.083178 0.054413 0.847977
O O4 0.103095 0.919552 0.050648
O O5 0.867678 0.558989 0.746053
O O6 0.888675 0.722138 0.845551
O O7 0.782990 0.660973 0.882931
O O8 0.861296 0.586890 0.049702
O O9 0.210378 0.556693 0.284298
O O10 0.262270 0.677592 0.463721
O O11 0.272985 0.676690 0.150972
O O12 0.078008 0.220634 0.743957
O O13 0.110914 0.382778 0.843098
O O14 0.172931 0.236929 0.897855
O O15 0.077317 0.254731 0.053660
O O16 0.000000 0.104784 0.655208
O O17 0.000000 0.757525 0.782111
#
# Coordination Sequence:
#
# PCOD9352087 Si02
#       8
#     8   8   8   8   8   8   8   8
#     4  12  25  44  65  97 132 174 229 273 337 400
#     4  11  22  42  65  99 136 175 222 275 341 393
#     4  10  22  38  65 101 130 175 212 271 342 406
#     4  11  23  43  68  99 130 176 226 277 342 396
#     4  12  27  44  65  93 135 183 230 281 330 396
#     4  10  24  40  67  96 139 169 218 279 340 404
#     4  12  24  44  71  97 134 180 226 276 333 401
#     4  10  20  39  64  98 134 168 216 276 331 408
#
# _framework density 22.487154
#
# number of rings (size 3 to 8) (size 9 to 14) (size 15 to 20)
#    0.000    1.000    2.500    3.750    5.250    2.000 
#    0.000    3.750    0.000    0.000    0.000    0.000 
#    0.000    0.000    0.000    0.000    0.000    0.000 
#
# Total GULP energy -179071.116593 kJ/mol
# GULP energy per Si atom -5595.972394 kJ/mol
# Density = 2.243597 g / cm^3
# Si number density = 22.487154 Si / 1000 Ang^3
#
#
#
# Elastic Constant Matrix: (Units=GPa)
#
#
# Indices 1 2 3 4 5 6 
#
# 1 73.9752 13.8167 -2.1464 0.0000 0.0000 0.0000
# 2 13.8167 65.2426 -6.8032 0.0000 0.0000 0.0000
# 3 -2.1464 -6.8032 51.6706 0.0000 0.0000 0.0000
# 4 0.0000 0.0000 0.0000 29.1052 0.0000 0.0000
# 5 0.0000 0.0000 0.0000 0.0000 15.4817 0.0000
# 6 0.0000 0.0000 0.0000 0.0000 0.0000 19.2111
#
#
#
# Elastic Compliance Matrix: (Units=1/GPa)
#
#
# Indices 1 2 3 4 5 6 
#
# 1 0.014077 -0.002961 0.000195 0.000000 0.000000 0.000000
# 2 -0.002961 0.016164 0.002005 0.000000 0.000000 0.000000
# 3 0.000195 0.002005 0.019625 0.000000 0.000000 0.000000
# 4 0.000000 0.000000 0.000000 0.034358 0.000000 0.000000
# 5 0.000000 0.000000 0.000000 0.000000 0.064592 0.000000
# 6 0.000000 0.000000 0.000000 0.000000 0.000000 0.052053
#
#
# Mechanical properties :
#
#
# Convention : Reuss Voigt Hill
#
# Bulk Modulus (GPa) = 20.68493 22.29140 21.48816
# Shear Modulus (GPa) = 22.88274 25.16104 24.02189
#
# Velocity S-wave (km/s) = 3.19343 3.34864 3.27195
# Velocity P-wave (km/s) = 4.77660 4.98855 4.88372
#
# Compressibility (1/GPa) = 0.04834438
#
# Stress axis : x y z
#
# Youngs Moduli (GPa) = 71.03945 61.86769 50.95415
#
# Poissons Ratio (x) = 0.18318 -0.00993
# Poissons Ratio (y) = 0.21033 -0.10217
# Poissons Ratio (z) = -0.01385 -0.12406
#
# Static dielectric constant tensor:
#      x y z
#    x 1.796190 0.000000 0.000000 
#    y 0.000000 1.828890 0.000000 
#    z 0.000000 0.000000 1.875080 
# 
# From -- ./inp_files/5670.got.cif
#   From: 2010.05.17/outbox.cif.g08.bks.cpg/sg36_3_cif.got.tgz:5670.got - 2010.06.03 17:41:39.
