data_PCOD9352069
_publ_section_title
;
Structure prediction by ZEFSAII (Michael W. Deem and Ramdas Pophale) SiO2 
 PCOD9352069
Probable space group: C M C 21
;
_chemical_formula_sum "Si O2"
_cell_formula_units_Z 48
_cell_length_a 16.681371
_cell_length_b 15.693086
_cell_length_c 9.034586
_cell_angle_alpha 90.000000
_cell_angle_beta 90.000000
_cell_angle_gamma 90.000000
_cell_volume 2365.093706
_symmetry_space_group_name_H-M "C M C 21"
_symmetry_group_IT_number 36
_symmetry_cell_setting 'orthorhombic'
loop_
_space_group_symop_operation_xyz
x,y,z
-x,-y,1/2+z
x,-y,1/2+z
-x,y,z
1/2+x,1/2+y,z
1/2-x,1/2-y,1/2+z
1/2+x,1/2-y,1/2+z
1/2-x,1/2+y,z
loop_
_atom_site_type_symbol
_atom_site_label
_atom_site_fract_x
_atom_site_fract_y
_atom_site_fract_z
Si Si1 0.696918 0.510854 0.436690
Si Si2 0.410129 0.901680 0.284191
Si Si3 0.353297 0.240780 0.282498
Si Si4 0.371151 0.077489 0.437438
Si Si5 0.727698 0.167815 0.989242
Si Si6 0.591770 0.421820 0.187961
O O1 0.775540 0.567258 0.409259
O O2 0.732680 0.425451 0.515256
O O3 0.650231 0.474240 0.296247
O O4 0.632745 0.562846 0.530618
O O5 0.500000 0.866002 0.292207
O O6 0.344283 0.846938 0.371738
O O7 0.408335 0.992851 0.366956
O O8 0.386663 0.915257 0.112606
O O9 0.399706 0.161218 0.351989
O O10 0.292976 0.273587 0.409615
O O11 0.403214 0.323265 0.234548
O O12 0.305624 0.207839 0.138821
O O13 0.500000 0.451120 0.192765
#
# Coordination Sequence:
#
# PCOD9352069 Si02
#       6
#     8   8   8   8   8   8
#     4  10  20  39  61  80 108 151 199 233 273 348
#     4  11  23  38  60  89 121 157 196 244 303 363
#     4  11  22  37  60  87 118 152 198 250 297 354
#     4  11  21  39  63  86 115 157 202 244 292 357
#     4  10  21  38  61  87 115 157 202 243 292 353
#     4  11  23  37  57  85 115 148 187 240 297 341
#
# _framework density 20.295179000000001
#
# number of rings (size 3 to 8) (size 9 to 14) (size 15 to 20)
#    0.000    1.333    0.000    9.000    0.000    2.000 
#    0.000    0.000    0.000    7.000    0.000    0.000 
#    0.000    0.000    0.000    0.000    0.000    0.000 
#
# Total GULP energy -134134.646462 kJ/mol
# GULP energy per Si atom -5588.943603 kJ/mol
# Density = 2.024899 g / cm^3
# Si number density = 20.295179 Si / 1000 Ang^3
#
#
#
# Elastic Constant Matrix: (Units=GPa)
#
#
# Indices 1 2 3 4 5 6 
#
# 1 87.3798 -5.5971 -11.9849 0.0000 0.0000 0.0000
# 2 -5.5971 41.6696 0.5618 0.0000 0.0000 0.0000
# 3 -11.9849 0.5618 74.8738 0.0000 0.0000 0.0000
# 4 0.0000 0.0000 0.0000 29.6178 0.0000 0.0000
# 5 0.0000 0.0000 0.0000 0.0000 5.4687 0.0000
# 6 0.0000 0.0000 0.0000 0.0000 0.0000 6.0919
#
#
#
# Elastic Compliance Matrix: (Units=1/GPa)
#
#
# Indices 1 2 3 4 5 6 
#
# 1 0.011802 0.001560 0.001877 0.000000 0.000000 0.000000
# 2 0.001560 0.024207 0.000068 0.000000 0.000000 0.000000
# 3 0.001877 0.000068 0.013656 0.000000 0.000000 0.000000
# 4 0.000000 0.000000 0.000000 0.033764 0.000000 0.000000
# 5 0.000000 0.000000 0.000000 0.000000 0.182859 0.000000
# 6 0.000000 0.000000 0.000000 0.000000 0.000000 0.164152
#
#
# Mechanical properties :
#
#
# Convention : Reuss Voigt Hill
#
# Bulk Modulus (GPa) = 17.64443 18.87586 18.26014
# Shear Modulus (GPa) = 11.30403 22.96524 17.13463
#
# Velocity S-wave (km/s) = 2.36261 3.36752 2.90879
# Velocity P-wave (km/s) = 4.01937 4.94379 4.50535
#
# Compressibility (1/GPa) = 0.05667512
#
# Stress axis : x y z
#
# Youngs Moduli (GPa) = 84.73351 41.31047 73.22889
#
# Poissons Ratio (x) = -0.06444 -0.13748
# Poissons Ratio (y) = -0.13218 -0.00498
# Poissons Ratio (z) = -0.15908 -0.00281
#
# Static dielectric constant tensor:
#      x y z
#    x 1.698610 0.000000 0.000000 
#    y 0.000000 1.714370 0.000000 
#    z 0.000000 0.000000 1.687290 
# 
# From -- ./inp_files/3984.got.cif
#   From: 2010.05.17/outbox.cif.g08.bks.cpg/sg36_2_cif.got.tgz:3984.got - 2010.06.03 17:41:39.
