data_PCOD9352195
_publ_section_title
;
Structure prediction by ZEFSAII (Michael W. Deem and Ramdas Pophale) SiO2 
 PCOD9352195
Probable space group: C M C 21
;
_chemical_formula_sum "Si O2"
_cell_formula_units_Z 64
_cell_length_a 7.617971
_cell_length_b 32.972272
_cell_length_c 10.992020
_cell_angle_alpha 90.000000
_cell_angle_beta 90.000000
_cell_angle_gamma 90.000000
_cell_volume 2760.995500
_symmetry_space_group_name_H-M "C M C 21"
_symmetry_group_IT_number 36
_symmetry_cell_setting 'orthorhombic'
loop_
_space_group_symop_operation_xyz
x,y,z
-x,-y,1/2+z
x,-y,1/2+z
-x,y,z
1/2+x,1/2+y,z
1/2-x,1/2-y,1/2+z
1/2+x,1/2-y,1/2+z
1/2-x,1/2+y,z
loop_
_atom_site_type_symbol
_atom_site_label
_atom_site_fract_x
_atom_site_fract_y
_atom_site_fract_z
Si Si1 0.211733 0.243560 0.548240
Si Si2 0.706091 0.629580 0.944765
Si Si3 0.291617 0.089088 0.590928
Si Si4 0.710230 0.291047 0.792331
Si Si5 0.789997 0.452768 0.851934
Si Si6 0.711955 0.375277 0.712502
Si Si7 0.799431 0.829025 0.210426
Si Si8 0.207693 0.543701 0.834335
O O1 0.254029 0.277072 0.652453
O O2 0.273956 0.237317 0.406451
O O3 0.280046 0.204170 0.622298
O O4 0.000000 0.243789 0.539568
O O5 0.500000 0.639745 0.950443
O O6 0.783867 0.658502 0.839723
O O7 0.717531 0.582492 0.904923
O O8 0.781466 0.634058 0.077900
O O9 0.500000 0.098147 0.580840
O O10 0.220448 0.072049 0.466411
O O11 0.199357 0.129058 0.637620
O O12 0.272600 0.054849 0.693091
O O13 0.500000 0.291243 0.803716
O O14 0.771093 0.338280 0.800067
O O15 0.760414 0.421457 0.743180
O O16 0.720460 0.498511 0.851434
O O17 0.000000 0.456825 0.865742
O O18 0.500000 0.374090 0.711319
O O19 0.000000 0.815725 0.232483
O O20 0.000000 0.543755 0.863020
#
# Coordination Sequence:
#
# PCOD9352195 Si02
#       8
#     8   8   8   8   8   8   8   8
#     4  10  22  39  62  91 119 153 198 241 293 358
#     4   9  19  35  56  83 112 145 187 231 281 340
#     4   9  18  33  51  76 106 137 180 225 271 333
#     4  10  23  41  61  89 123 157 198 245 298 358
#     4  10  21  34  54  79 107 146 187 228 280 338
#     4  10  22  39  58  82 115 151 190 238 291 344
#     4   9  18  35  59  82 107 142 184 229 281 339
#     4   9  19  34  53  78 109 145 182 227 279 332
#
# _framework density 23.180043000000001
#
# number of rings (size 3 to 8) (size 9 to 14) (size 15 to 20)
#    0.000    2.500    0.000    0.750    3.500    4.000 
#    0.000    0.000    0.000    0.000    0.000    0.000 
#    0.000    0.000    0.000    0.000    0.000    0.000 
#
# Total GULP energy -178388.879002 kJ/mol
# GULP energy per Si atom -5574.652469 kJ/mol
# Density = 2.312728 g / cm^3
# Si number density = 23.180043 Si / 1000 Ang^3
#
#
#
# Elastic Constant Matrix: (Units=GPa)
#
#
# Indices 1 2 3 4 5 6 
#
# 1 41.8612 -5.3232 6.8257 0.0000 0.0000 0.0000
# 2 -5.3232 67.9697 9.5536 0.0000 0.0000 0.0000
# 3 6.8257 9.5536 82.6419 0.0000 0.0000 0.0000
# 4 0.0000 0.0000 0.0000 -16.8813 0.0000 0.0000
# 5 0.0000 0.0000 0.0000 0.0000 42.4050 0.0000
# 6 0.0000 0.0000 0.0000 0.0000 0.0000 10.2328
#
#
#
# Elastic Compliance Matrix: (Units=1/GPa)
#
#
# Indices 1 2 3 4 5 6 
#
# 1 0.024547 0.002244 -0.002287 0.000000 0.000000 0.000000
# 2 0.002244 0.015161 -0.001938 0.000000 0.000000 0.000000
# 3 -0.002287 -0.001938 0.012513 0.000000 0.000000 0.000000
# 4 0.000000 0.000000 0.000000 -0.059237 0.000000 0.000000
# 5 0.000000 0.000000 0.000000 0.000000 0.023582 0.000000
# 6 0.000000 0.000000 0.000000 0.000000 0.000000 0.097724
#
#
# Mechanical properties :
#
#
# Convention : Reuss Voigt Hill
#
# Bulk Modulus (GPa) = 20.72161 23.84278 22.28219
# Shear Modulus (GPa) = 37.21960 19.24577 28.23268
#
# Velocity S-wave (km/s) = 4.01143 2.88457 3.49373
# Velocity P-wave (km/s) = 5.51492 4.62629 5.09003
#
# Compressibility (1/GPa) = 0.04825881
#
# Stress axis : x y z
#
# Youngs Moduli (GPa) = 40.73874 65.96059 79.91496
#
# Poissons Ratio (x) = -0.14801 0.18275
# Poissons Ratio (y) = -0.09141 0.15487
# Poissons Ratio (z) = 0.09316 0.12783
#
# Static dielectric constant tensor:
#      x y z
#    x 1.882030 0.000000 0.000000 
#    y 0.000000 1.904570 0.000000 
#    z 0.000000 0.000000 1.911790 
# 
# From -- ./inp_files/7094.got.cif
#   From: 2010.05.17/outbox.cif.g08.bks.cpg/sg36_4_cif.got.tgz:7094.got - 2010.06.03 17:41:39.
