data_PCOD9352434
_publ_section_title
;
Structure prediction by ZEFSAII (Michael W. Deem and Ramdas Pophale) SiO2 
 PCOD9352434
Probable space group: C M C 21
;
_chemical_formula_sum "Si O2"
_cell_formula_units_Z 36
_cell_length_a 24.193926
_cell_length_b 12.919184
_cell_length_c 4.895647
_cell_angle_alpha 90.000000
_cell_angle_beta 90.000000
_cell_angle_gamma 90.000000
_cell_volume 1530.211731
_symmetry_space_group_name_H-M "C M C 21"
_symmetry_group_IT_number 36
_symmetry_cell_setting 'orthorhombic'
loop_
_space_group_symop_operation_xyz
x,y,z
-x,-y,1/2+z
x,-y,1/2+z
-x,y,z
1/2+x,1/2+y,z
1/2-x,1/2-y,1/2+z
1/2+x,1/2-y,1/2+z
1/2-x,1/2+y,z
loop_
_atom_site_type_symbol
_atom_site_label
_atom_site_fract_x
_atom_site_fract_y
_atom_site_fract_z
Si Si1 0.279896 0.718194 0.961130
Si Si2 0.433778 0.060218 0.732626
Si Si3 0.596944 0.719855 0.982802
Si Si4 0.337546 0.435361 0.811243
Si Si5 0.500000 0.419941 0.259590
O O1 0.243268 0.703666 0.692643
O O2 0.285611 0.619098 0.163066
O O3 0.341950 0.744299 0.862540
O O4 0.500000 0.052296 0.750448
O O5 0.412561 0.029803 0.030157
O O6 0.422813 0.173114 0.613329
O O7 0.612872 0.639476 0.224109
O O8 0.551913 0.658210 0.805877
O O9 0.341177 0.461569 0.126900
O O10 0.500000 0.512444 0.484906
#
# Coordination Sequence:
#
# PCOD9352434 Si02
#       5
#     8   8   8   8   4
#     4  10  23  41  64  89 132 171 216 265 322 379
#     4  10  22  41  62  89 123 166 212 259 319 372
#     4  10  24  42  71  94 139 168 222 277 333 387
#     4  10  21  38  65  95 128 168 204 259 335 393
#     4  12  26  42  68 108 140 176 222 266 348 434
#
# _framework density 23.526154999999999
#
# number of rings (size 3 to 8) (size 9 to 14) (size 15 to 20)
#    1.333    0.444    1.111    2.667    0.000    7.111 
#    0.000    6.667    0.000    0.000    0.000    0.000 
#    0.000    0.000    0.000    0.000    0.000    0.000 
#
# Total GULP energy -100312.993009 kJ/mol
# GULP energy per Si atom -5572.944056 kJ/mol
# Density = 2.347261 g / cm^3
# Si number density = 23.526155 Si / 1000 Ang^3
#
#
#
# Elastic Constant Matrix: (Units=GPa)
#
#
# Indices 1 2 3 4 5 6 
#
# 1 93.2605 15.0552 31.5288 0.0000 0.0000 0.0000
# 2 15.0552 66.1941 12.7385 0.0000 0.0000 0.0000
# 3 31.5288 12.7385 107.2840 0.0000 0.0000 0.0000
# 4 0.0000 0.0000 0.0000 15.0447 0.0000 0.0000
# 5 0.0000 0.0000 0.0000 0.0000 11.1032 0.0000
# 6 0.0000 0.0000 0.0000 0.0000 0.0000 35.7057
#
#
#
# Elastic Compliance Matrix: (Units=1/GPa)
#
#
# Indices 1 2 3 4 5 6 
#
# 1 0.012193 -0.002132 -0.003330 0.000000 0.000000 0.000000
# 2 -0.002132 0.015833 -0.001253 0.000000 0.000000 0.000000
# 3 -0.003330 -0.001253 0.010449 0.000000 0.000000 0.000000
# 4 0.000000 0.000000 0.000000 0.066469 0.000000 0.000000
# 5 0.000000 0.000000 0.000000 0.000000 0.090064 0.000000
# 6 0.000000 0.000000 0.000000 0.000000 0.000000 0.028007
#
#
# Mechanical properties :
#
#
# Convention : Reuss Voigt Hill
#
# Bulk Modulus (GPa) = 39.93108 42.82039 41.37573
# Shear Modulus (GPa) = 20.42543 26.19845 23.31194
#
# Velocity S-wave (km/s) = 2.94972 3.34067 3.15126
# Velocity P-wave (km/s) = 5.34893 5.75507 5.55571
#
# Compressibility (1/GPa) = 0.02504315
#
# Stress axis : x y z
#
# Youngs Moduli (GPa) = 82.01658 63.15820 95.70750
#
# Poissons Ratio (x) = 0.13467 0.31871
# Poissons Ratio (y) = 0.17488 0.11996
# Poissons Ratio (z) = 0.27312 0.07916
#
# Static dielectric constant tensor:
#      x y z
#    x 1.994000 0.000000 0.000000 
#    y 0.000000 1.993770 0.000000 
#    z 0.000000 0.000000 1.880760 
# 
# From -- ./inp_files/1527.got.cif
#   From: 2010.05.17/outbox.cif.g08.bks.cpg/sg36_1_cif.got.tgz:1527.got - 2010.06.03 17:41:39.
