data_PCOD9352491
_publ_section_title
;
Structure prediction by ZEFSAII (Michael W. Deem and Ramdas Pophale) SiO2 
 PCOD9352491
Probable space group: C M C 21
;
_chemical_formula_sum "Si O2"
_cell_formula_units_Z 60
_cell_length_a 27.985522
_cell_length_b 11.881561
_cell_length_c 7.645505
_cell_angle_alpha 90.000000
_cell_angle_beta 90.000000
_cell_angle_gamma 90.000000
_cell_volume 2542.219764
_symmetry_space_group_name_H-M "C M C 21"
_symmetry_group_IT_number 36
_symmetry_cell_setting 'orthorhombic'
loop_
_space_group_symop_operation_xyz
x,y,z
-x,-y,1/2+z
x,-y,1/2+z
-x,y,z
1/2+x,1/2+y,z
1/2-x,1/2-y,1/2+z
1/2+x,1/2-y,1/2+z
1/2-x,1/2+y,z
loop_
_atom_site_type_symbol
_atom_site_label
_atom_site_fract_x
_atom_site_fract_y
_atom_site_fract_z
Si Si1 0.812480 0.917379 0.379660
Si Si2 0.074883 0.738844 0.688500
Si Si3 0.921279 0.898477 0.353221
Si Si4 0.769123 0.138232 0.516434
Si Si5 0.558440 0.816104 0.661178
Si Si6 0.000000 0.097550 0.337757
Si Si7 0.687795 0.756581 0.194253
Si Si8 0.944382 0.526465 0.853574
O O1 0.868530 0.947932 0.372724
O O2 0.800197 0.859953 0.194809
O O3 0.806114 0.843470 0.553073
O O4 0.780188 0.025523 0.410628
O O5 0.066351 0.818082 0.518315
O O6 0.041572 0.804378 0.826166
O O7 0.131425 0.735144 0.720630
O O8 0.058381 0.608978 0.683686
O O9 0.923314 0.809117 0.194982
O O10 0.958938 0.997508 0.336392
O O11 0.715308 0.145483 0.589308
O O12 0.785553 0.233020 0.377591
O O13 0.500000 0.810118 0.665543
O O14 0.576158 0.888010 0.496099
O O15 0.575278 0.903586 0.812494
O O16 0.000000 0.512585 0.894181
#
# Coordination Sequence:
#
# PCOD9352491 Si02
#       8
#     8   8   8   8   8   4   8   8
#     4  11  25  44  73 108 149 190 247 318 392 454
#     4  11  25  44  65 106 145 192 257 303 370 458
#     4  11  25  42  65 103 145 195 245 306 372 458
#     4  12  23  47  74 105 144 193 245 317 394 453
#     4  10  21  39  63  93 131 188 253 291 359 428
#     4  12  24  40  68 102 154 200 238 300 374 452
#     4  11  25  45  74 108 143 194 251 318 386 464
#     4  10  21  39  65  91 135 196 240 307 360 424
#
# _framework density 23.601420999999998
#
# number of rings (size 3 to 8) (size 9 to 14) (size 15 to 20)
#    0.000    1.067    4.000    2.000    3.733    3.200 
#    0.000    5.333    0.000    0.000    0.000    0.000 
#    0.000    0.000    0.000    0.000    0.000    0.000 
#
# Total GULP energy -167096.955355 kJ/mol
# GULP energy per Si atom -5569.898512 kJ/mol
# Density = 2.354770 g / cm^3
# Si number density = 23.601421 Si / 1000 Ang^3
#
#
#
# Elastic Constant Matrix: (Units=GPa)
#
#
# Indices 1 2 3 4 5 6 
#
# 1 120.8283 47.4707 29.0903 0.0000 0.0000 0.0000
# 2 47.4707 107.3778 1.9808 0.0000 0.0000 0.0000
# 3 29.0903 1.9808 121.1671 0.0000 0.0000 0.0000
# 4 0.0000 0.0000 0.0000 25.0399 0.0000 0.0000
# 5 0.0000 0.0000 0.0000 0.0000 7.2620 0.0000
# 6 0.0000 0.0000 0.0000 0.0000 0.0000 20.3539
#
#
#
# Elastic Compliance Matrix: (Units=1/GPa)
#
#
# Indices 1 2 3 4 5 6 
#
# 1 0.010722 -0.004694 -0.002497 0.000000 0.000000 0.000000
# 2 -0.004694 0.011371 0.000941 0.000000 0.000000 0.000000
# 3 -0.002497 0.000941 0.008837 0.000000 0.000000 0.000000
# 4 0.000000 0.000000 0.000000 0.039936 0.000000 0.000000
# 5 0.000000 0.000000 0.000000 0.000000 0.137703 0.000000
# 6 0.000000 0.000000 0.000000 0.000000 0.000000 0.049131
#
#
# Mechanical properties :
#
#
# Convention : Reuss Voigt Hill
#
# Bulk Modulus (GPa) = 54.26177 56.27298 55.26738
# Shear Modulus (GPa) = 18.09345 28.58657 23.34001
#
# Velocity S-wave (km/s) = 2.77180 3.48404 3.14813
# Velocity P-wave (km/s) = 5.76929 6.33084 6.05657
#
# Compressibility (1/GPa) = 0.01842918
#
# Stress axis : x y z
#
# Youngs Moduli (GPa) = 93.26997 87.94564 113.15731
#
# Poissons Ratio (x) = 0.41280 0.28259
# Poissons Ratio (y) = 0.43779 -0.10649
# Poissons Ratio (z) = 0.23293 -0.08276
#
# Static dielectric constant tensor:
#      x y z
#    x 1.814660 0.000000 0.000000 
#    y 0.000000 1.901510 0.000000 
#    z 0.000000 0.000000 2.147780 
# 
# From -- ./inp_files/5801.got.cif
#   From: 2010.05.17/outbox.cif.g08.bks.cpg/sg36_3_cif.got.tgz:5801.got - 2010.06.03 17:41:39.
