data_PCOD9352585
_publ_section_title
;
Structure prediction by ZEFSAII (Michael W. Deem and Ramdas Pophale) SiO2 
 PCOD9352585
Probable space group: C M C 21
;
_chemical_formula_sum "Si O2"
_cell_formula_units_Z 48
_cell_length_a 10.379343
_cell_length_b 25.244032
_cell_length_c 7.843333
_cell_angle_alpha 90.000000
_cell_angle_beta 90.000000
_cell_angle_gamma 90.000000
_cell_volume 2055.082401
_symmetry_space_group_name_H-M "C M C 21"
_symmetry_group_IT_number 36
_symmetry_cell_setting 'orthorhombic'
loop_
_space_group_symop_operation_xyz
x,y,z
-x,-y,1/2+z
x,-y,1/2+z
-x,y,z
1/2+x,1/2+y,z
1/2-x,1/2-y,1/2+z
1/2+x,1/2-y,1/2+z
1/2-x,1/2+y,z
loop_
_atom_site_type_symbol
_atom_site_label
_atom_site_fract_x
_atom_site_fract_y
_atom_site_fract_z
Si Si1 0.000000 0.414888 0.423331
Si Si2 0.736223 0.138023 0.076478
Si Si3 0.847988 0.320170 0.127730
Si Si4 0.850740 0.742174 0.269398
Si Si5 0.500000 0.018378 0.578300
Si Si6 0.000000 0.913099 0.495355
Si Si7 0.261211 0.076731 0.436397
Si Si8 0.000000 0.976534 0.854135
O O1 0.872052 0.381177 0.446332
O O2 0.000000 0.450252 0.254959
O O3 0.000000 0.455635 0.582421
O O4 0.700445 0.196164 0.142992
O O5 0.875786 0.124593 0.001022
O O6 0.728726 0.102507 0.249320
O O7 0.850217 0.284134 0.955672
O O8 0.785007 0.375302 0.067597
O O9 0.000000 0.325838 0.174049
O O10 0.751297 0.289575 0.252992
O O11 0.000000 0.756306 0.227524
O O12 0.373957 0.035894 0.475880
O O13 0.000000 0.949125 0.667985
O O14 0.000000 0.959540 0.354286
O O15 0.127041 0.046032 0.445708
#
# Coordination Sequence:
#
# PCOD9352585 Si02
#       8
#     4   8   8   8   4   4   8   4
#     4  12  24  38  61  90 119 157 200 247 301 358
#     4  10  21  41  63  86 120 159 200 246 300 357
#     4  10  22  40  63  90 121 157 199 250 302 358
#     4  10  22  40  63  90 121 157 199 250 302 358
#     4  12  24  38  61  90 119 157 200 247 301 358
#     4  10  22  38  61  88 117 157 198 241 295 354
#     4  10  21  41  63  86 120 159 200 246 300 357
#     4  10  22  38  61  88 117 157 198 241 295 354
#
# _framework density 23.356728
#
# number of rings (size 3 to 8) (size 9 to 14) (size 15 to 20)
#    0.000    1.667    1.667    2.500    2.333    6.000 
#    0.000    0.000    0.000    0.000    0.000    0.000 
#    0.000    0.000    0.000    0.000    0.000    0.000 
#
# Total GULP energy -134388.479587 kJ/mol
# GULP energy per Si atom -5599.519983 kJ/mol
# Density = 2.330357 g / cm^3
# Si number density = 23.356728 Si / 1000 Ang^3
#
#
#
# Elastic Constant Matrix: (Units=GPa)
#
#
# Indices 1 2 3 4 5 6 
#
# 1 186.3619 48.0166 43.3979 0.0000 0.0000 0.0000
# 2 48.0166 68.4129 13.2251 0.0000 0.0000 0.0000
# 3 43.3979 13.2251 78.9466 0.0000 0.0000 0.0000
# 4 0.0000 0.0000 0.0000 44.2073 0.0000 0.0000
# 5 0.0000 0.0000 0.0000 0.0000 26.6001 0.0000
# 6 0.0000 0.0000 0.0000 0.0000 0.0000 86.1833
#
#
#
# Elastic Compliance Matrix: (Units=1/GPa)
#
#
# Indices 1 2 3 4 5 6 
#
# 1 0.007277 -0.004479 -0.003250 0.000000 0.000000 0.000000
# 2 -0.004479 0.017863 -0.000530 0.000000 0.000000 0.000000
# 3 -0.003250 -0.000530 0.014542 0.000000 0.000000 0.000000
# 4 0.000000 0.000000 0.000000 0.022621 0.000000 0.000000
# 5 0.000000 0.000000 0.000000 0.000000 0.037594 0.000000
# 6 0.000000 0.000000 0.000000 0.000000 0.000000 0.011603
#
#
# Mechanical properties :
#
#
# Convention : Reuss Voigt Hill
#
# Bulk Modulus (GPa) = 43.17055 60.33340 51.75197
# Shear Modulus (GPa) = 36.83533 46.67026 41.75280
#
# Velocity S-wave (km/s) = 3.97555 4.47492 4.23260
# Velocity P-wave (km/s) = 6.29258 7.25170 6.78910
#
# Compressibility (1/GPa) = 0.02316394
#
# Stress axis : x y z
#
# Youngs Moduli (GPa) = 137.42459 55.98059 68.76600
#
# Poissons Ratio (x) = 0.25074 0.22347
# Poissons Ratio (y) = 0.61553 0.03646
# Poissons Ratio (z) = 0.44660 0.02968
#
# Static dielectric constant tensor:
#      x y z
#    x 1.850310 0.000000 0.000000 
#    y 0.000000 1.851650 0.000000 
#    z 0.000000 0.000000 1.948240 
# 
# From -- ./inp_files/2777.got.cif
#   From: 2010.05.17/outbox.cif.g08.bks.cpg/sg36_2_cif.got.tgz:2777.got - 2010.06.03 17:41:39.
