data_PCOD9352608
_publ_section_title
;
Structure prediction by ZEFSAII (Michael W. Deem and Ramdas Pophale) SiO2 
 PCOD9352608
Probable space group: C M C 21
;
_chemical_formula_sum "Si O2"
_cell_formula_units_Z 64
_cell_length_a 18.269667
_cell_length_b 12.889137
_cell_length_c 13.206251
_cell_angle_alpha 90.000000
_cell_angle_beta 90.000000
_cell_angle_gamma 90.000000
_cell_volume 3109.811167
_symmetry_space_group_name_H-M "C M C 21"
_symmetry_group_IT_number 36
_symmetry_cell_setting 'orthorhombic'
loop_
_space_group_symop_operation_xyz
x,y,z
-x,-y,1/2+z
x,-y,1/2+z
-x,y,z
1/2+x,1/2+y,z
1/2-x,1/2-y,1/2+z
1/2+x,1/2-y,1/2+z
1/2-x,1/2+y,z
loop_
_atom_site_type_symbol
_atom_site_label
_atom_site_fract_x
_atom_site_fract_y
_atom_site_fract_z
Si Si1 0.583601 0.771636 0.695920
Si Si2 0.917972 0.500662 0.625246
Si Si3 0.242087 0.484858 0.113372
Si Si4 0.580876 0.766733 0.126177
Si Si5 0.316441 0.397322 0.291797
Si Si6 0.212018 0.823601 0.510045
Si Si7 0.584302 0.592897 0.297465
Si Si8 0.653397 0.676439 0.502116
O O1 0.500000 0.747390 0.727539
O O2 0.645746 0.710987 0.758840
O O3 0.597932 0.727942 0.582461
O O4 0.591036 0.896869 0.692672
O O5 0.839978 0.508744 0.567816
O O6 0.919251 0.616767 0.670701
O O7 0.000000 0.488325 0.577179
O O8 0.246215 0.430650 0.224176
O O9 0.268934 0.602788 0.104937
O O10 0.301252 0.416772 0.053593
O O11 0.500000 0.751504 0.079104
O O12 0.644689 0.747752 0.044973
O O13 0.589570 0.681989 0.213295
O O14 0.305270 0.391130 0.411312
O O15 0.372371 0.489931 0.267394
O O16 0.283266 0.759164 0.481163
O O17 0.500000 0.564806 0.310187
O O18 0.615096 0.637385 0.401883
#
# Coordination Sequence:
#
# PCOD9352608 Si02
#       8
#     8   8   8   8   8   8   8   8
#     4  10  22  42  63  90 127 168 210 261 322 377
#     4  10  21  41  67  90 124 171 215 263 318 383
#     4  11  22  42  63  92 129 166 214 265 321 382
#     4  10  23  42  65  91 127 174 214 265 327 383
#     4  11  25  39  66 100 128 168 215 271 326 381
#     4  12  23  41  65  96 129 167 220 269 320 389
#     4  11  23  41  63  95 133 167 214 264 325 393
#     4  11  23  38  64  94 125 167 212 260 319 382
#
# _framework density 20.580027999999999
#
# number of rings (size 3 to 8) (size 9 to 14) (size 15 to 20)
#    0.000    1.250    5.000    0.750    1.750    2.000 
#    0.000    1.250    0.000    5.250    0.000    0.000 
#    0.000    0.000    0.000    0.000    0.000    0.000 
#
# Total GULP energy -178323.330470 kJ/mol
# GULP energy per Si atom -5572.604077 kJ/mol
# Density = 2.053319 g / cm^3
# Si number density = 20.580028 Si / 1000 Ang^3
#
#
#
# Elastic Constant Matrix: (Units=GPa)
#
#
# Indices 1 2 3 4 5 6 
#
# 1 76.6336 -7.4689 11.2730 0.0000 0.0000 0.0000
# 2 -7.4689 79.6089 -1.0759 0.0000 0.0000 0.0000
# 3 11.2730 -1.0759 43.2217 0.0000 0.0000 0.0000
# 4 0.0000 0.0000 0.0000 -8.8034 0.0000 0.0000
# 5 0.0000 0.0000 0.0000 0.0000 14.8547 0.0000
# 6 0.0000 0.0000 0.0000 0.0000 0.0000 33.1822
#
#
#
# Elastic Compliance Matrix: (Units=1/GPa)
#
#
# Indices 1 2 3 4 5 6 
#
# 1 0.013690 0.001237 -0.003540 0.000000 0.000000 0.000000
# 2 0.001237 0.012677 -0.000007 0.000000 0.000000 0.000000
# 3 -0.003540 -0.000007 0.024060 0.000000 0.000000 0.000000
# 4 0.000000 0.000000 0.000000 -0.113593 0.000000 0.000000
# 5 0.000000 0.000000 0.000000 0.000000 0.067319 0.000000
# 6 0.000000 0.000000 0.000000 0.000000 0.000000 0.030137
#
#
# Mechanical properties :
#
#
# Convention : Reuss Voigt Hill
#
# Bulk Modulus (GPa) = 21.83084 22.76895 22.29989
# Shear Modulus (GPa) = 92.28607 20.96243 56.62425
#
# Velocity S-wave (km/s) = 6.70372 3.19498 5.25109
# Velocity P-wave (km/s) = 8.39944 4.96973 6.90105
#
# Compressibility (1/GPa) = 0.04580677
#
# Stress axis : x y z
#
# Youngs Moduli (GPa) = 73.04414 78.88093 41.56342
#
# Poissons Ratio (x) = -0.09754 0.14713
# Poissons Ratio (y) = -0.09033 0.00029
# Poissons Ratio (z) = 0.25857 0.00055
#
# Static dielectric constant tensor:
#      x y z
#    x 1.772210 0.000000 0.000000 
#    y 0.000000 1.757800 0.000000 
#    z 0.000000 0.000000 1.721000 
# 
# From -- ./inp_files/12636.got.cif
#   From: 2010.05.17/outbox.cif.g08.bks.cpg/sg36_7_cif.got.tgz:12636.got - 2010.06.03 17:41:39.
