data_PCOD9352991
_publ_section_title
;
Structure prediction by ZEFSAII (Michael W. Deem and Ramdas Pophale) SiO2 
 PCOD9352991
Probable space group: C M C 21
;
_chemical_formula_sum "Si O2"
_cell_formula_units_Z 32
_cell_length_a 21.931802
_cell_length_b 5.438874
_cell_length_c 9.094634
_cell_angle_alpha 90.000000
_cell_angle_beta 90.000000
_cell_angle_gamma 90.000000
_cell_volume 1084.847120
_symmetry_space_group_name_H-M "C M C 21"
_symmetry_group_IT_number 36
_symmetry_cell_setting 'orthorhombic'
loop_
_space_group_symop_operation_xyz
x,y,z
-x,-y,1/2+z
x,-y,1/2+z
-x,y,z
1/2+x,1/2+y,z
1/2-x,1/2-y,1/2+z
1/2+x,1/2-y,1/2+z
1/2-x,1/2+y,z
loop_
_atom_site_type_symbol
_atom_site_label
_atom_site_fract_x
_atom_site_fract_y
_atom_site_fract_z
Si Si1 0.000000 0.393126 0.219420
Si Si2 0.625566 0.509084 0.906673
Si Si3 0.753773 0.970996 0.806140
Si Si4 0.634967 0.988705 0.594451
Si Si5 0.000000 0.817666 0.419770
O O1 0.070624 0.489100 0.181003
O O2 0.000000 0.527245 0.380787
O O3 0.000000 0.174862 0.095978
O O4 0.630396 0.262065 0.001295
O O5 0.635498 0.768659 0.990822
O O6 0.673946 0.485197 0.773122
O O7 0.556739 0.533166 0.856511
O O8 0.748278 0.220838 0.894718
O O9 0.698947 0.981496 0.689217
#
# Coordination Sequence:
#
# PCOD9352991 Si02
#       5
#     4   8   8   8   4
#     4  10  23  48  79 116 156 204 264 330 396 470
#     4  11  25  47  75 108 150 202 258 323 395 469
#     4  12  26  44  68 105 146 193 251 311 384 465
#     4  11  25  47  74 108 150 201 258 323 395 468
#     4  10  23  48  81 118 160 208 266 332 400 474
#
# _framework density 29.497243999999998
#
# number of rings (size 3 to 8) (size 9 to 14) (size 15 to 20)
#    0.000    1.000    0.000    5.250    0.000    8.000 
#    0.000   18.750    0.000    0.000    0.000    0.000 
#    0.000    0.000    0.000    0.000    0.000    0.000 
#
# Total GULP energy -89201.838718 kJ/mol
# GULP energy per Si atom -5575.114920 kJ/mol
# Density = 2.943011 g / cm^3
# Si number density = 29.497244 Si / 1000 Ang^3
#
#
#
# Elastic Constant Matrix: (Units=GPa)
#
#
# Indices 1 2 3 4 5 6 
#
# 1 269.3365 0.4481 50.0389 0.0000 0.0000 0.0000
# 2 0.4481 223.8685 41.5431 0.0000 0.0000 0.0000
# 3 50.0389 41.5431 96.5656 0.0000 0.0000 0.0000
# 4 0.0000 0.0000 0.0000 33.8903 0.0000 0.0000
# 5 0.0000 0.0000 0.0000 0.0000 70.7414 0.0000
# 6 0.0000 0.0000 0.0000 0.0000 0.0000 20.6919
#
#
#
# Elastic Compliance Matrix: (Units=1/GPa)
#
#
# Indices 1 2 3 4 5 6 
#
# 1 0.004145 0.000424 -0.002330 0.000000 0.000000 0.000000
# 2 0.000424 0.004898 -0.002327 0.000000 0.000000 0.000000
# 3 -0.002330 -0.002327 0.012564 0.000000 0.000000 0.000000
# 4 0.000000 0.000000 0.000000 0.029507 0.000000 0.000000
# 5 0.000000 0.000000 0.000000 0.000000 0.014136 0.000000
# 6 0.000000 0.000000 0.000000 0.000000 0.000000 0.048328
#
#
# Mechanical properties :
#
#
# Convention : Reuss Voigt Hill
#
# Bulk Modulus (GPa) = 76.09789 85.98118 81.03953
# Shear Modulus (GPa) = 39.54923 58.24743 48.89833
#
# Velocity S-wave (km/s) = 3.66563 4.44855 4.07593
# Velocity P-wave (km/s) = 6.61590 7.45643 7.04870
#
# Compressibility (1/GPa) = 0.01314097
#
# Stress axis : x y z
#
# Youngs Moduli (GPa) = 241.25015 204.17096 79.59081
#
# Poissons Ratio (x) = -0.08660 0.18548
# Poissons Ratio (y) = -0.10233 0.18520
# Poissons Ratio (z) = 0.56221 0.47508
#
# Static dielectric constant tensor:
#      x y z
#    x 2.464350 0.000000 0.000000 
#    y 0.000000 2.423160 0.000000 
#    z 0.000000 0.000000 2.238860 
# 
# From -- ./inp_files/9127.got.cif
#   From: 2010.05.17/outbox.cif.g08.bks.cpg/sg36_5_cif.got.tgz:9127.got - 2010.06.03 17:41:39.
