data_PCOD9352523
_publ_section_title
;
Structure prediction by ZEFSAII (Michael W. Deem and Ramdas Pophale) SiO2 
 PCOD9352523
Probable space group: C M C 21
;
_chemical_formula_sum "Si O2"
_cell_formula_units_Z 32
_cell_length_a 22.203993
_cell_length_b 5.297549
_cell_length_c 10.431992
_cell_angle_alpha 90.000000
_cell_angle_beta 90.000000
_cell_angle_gamma 90.000000
_cell_volume 1227.081220
_symmetry_space_group_name_H-M "C M C 21"
_symmetry_group_IT_number 36
_symmetry_cell_setting 'orthorhombic'
loop_
_space_group_symop_operation_xyz
x,y,z
-x,-y,1/2+z
x,-y,1/2+z
-x,y,z
1/2+x,1/2+y,z
1/2-x,1/2-y,1/2+z
1/2+x,1/2-y,1/2+z
1/2-x,1/2+y,z
loop_
_atom_site_type_symbol
_atom_site_label
_atom_site_fract_x
_atom_site_fract_y
_atom_site_fract_z
Si Si1 0.566928 0.003670 0.130560
Si Si2 0.839362 0.699374 0.932160
Si Si3 0.768084 0.358473 0.784024
Si Si4 0.564941 0.497640 0.800116
O O1 0.500000 0.007819 0.063783
O O2 0.564779 0.237410 0.229136
O O3 0.569972 0.731275 0.197754
O O4 0.625271 0.059754 0.043758
O O5 0.830269 0.484129 0.822362
O O6 0.881375 0.934305 0.896020
O O7 0.771174 0.802325 0.913892
O O8 0.731982 0.588198 0.716189
O O9 0.500000 0.471170 0.866324
#
# Coordination Sequence:
#
# PCOD9352523 Si02
#       4
#     8   8   8   8
#     4  10  23  38  58  88 112 145 194 229 276 343
#     4  10  21  40  62  76 123 150 176 242 286 310
#     4   8  20  34  56  84 108 146 196 218 268 352
#     4  10  23  38  58  88 112 145 194 229 276 343
#
# _framework density 26.078144000000002
#
# number of rings (size 3 to 8) (size 9 to 14) (size 15 to 20)
#    1.500    1.000    0.000    0.750    7.000    0.000 
#    0.000   15.000    0.000    0.000    0.000    0.000 
#    0.000    0.000    0.000    0.000    0.000    0.000 
#
# Total GULP energy -89115.030564 kJ/mol
# GULP energy per Si atom -5569.689410 kJ/mol
# Density = 2.601879 g / cm^3
# Si number density = 26.078144 Si / 1000 Ang^3
#
#
#
# Elastic Constant Matrix: (Units=GPa)
#
#
# Indices 1 2 3 4 5 6 
#
# 1 106.5894 5.1653 4.9843 0.0000 0.0000 0.0000
# 2 5.1653 162.3825 0.1808 0.0000 0.0000 0.0000
# 3 4.9843 0.1808 31.5669 0.0000 0.0000 0.0000
# 4 0.0000 0.0000 0.0000 25.2228 0.0000 0.0000
# 5 0.0000 0.0000 0.0000 0.0000 65.2601 0.0000
# 6 0.0000 0.0000 0.0000 0.0000 0.0000 8.5895
#
#
#
# Elastic Compliance Matrix: (Units=1/GPa)
#
#
# Indices 1 2 3 4 5 6 
#
# 1 0.009466 -0.000299 -0.001493 0.000000 0.000000 0.000000
# 2 -0.000299 0.006168 0.000012 0.000000 0.000000 0.000000
# 3 -0.001493 0.000012 0.031914 0.000000 0.000000 0.000000
# 4 0.000000 0.000000 0.000000 0.039647 0.000000 0.000000
# 5 0.000000 0.000000 0.000000 0.000000 0.015323 0.000000
# 6 0.000000 0.000000 0.000000 0.000000 0.000000 0.116421
#
#
# Mechanical properties :
#
#
# Convention : Reuss Voigt Hill
#
# Bulk Modulus (GPa) = 22.73374 35.68886 29.21130
# Shear Modulus (GPa) = 21.08261 39.16171 30.12216
#
# Velocity S-wave (km/s) = 2.84639 3.87939 3.40232
# Velocity P-wave (km/s) = 4.42030 5.81217 5.16335
#
# Compressibility (1/GPa) = 0.04398748
#
# Stress axis : x y z
#
# Youngs Moduli (GPa) = 105.63986 162.13210 31.33376
#
# Poissons Ratio (x) = 0.04855 0.04678
# Poissons Ratio (y) = 0.03163 -0.00037
# Poissons Ratio (z) = 0.15772 -0.00194
#
# Static dielectric constant tensor:
#      x y z
#    x 1.991090 0.000000 0.000000 
#    y 0.000000 2.134940 0.000000 
#    z 0.000000 0.000000 2.097790 
# 
# From -- ./inp_files/9360.got.cif
#   From: 2010.05.17/outbox.cif.g08.bks.cpg/sg36_5_cif.got.tgz:9360.got - 2010.06.03 17:41:39.
