data_PCOD9352957
_publ_section_title
;
Structure prediction by ZEFSAII (Michael W. Deem and Ramdas Pophale) SiO2 
 PCOD9352957
Probable space group: C M C 21
;
_chemical_formula_sum "Si O2"
_cell_formula_units_Z 36
_cell_length_a 10.959676
_cell_length_b 24.813157
_cell_length_c 5.246584
_cell_angle_alpha 90.000000
_cell_angle_beta 90.000000
_cell_angle_gamma 90.000000
_cell_volume 1426.777885
_symmetry_space_group_name_H-M "C M C 21"
_symmetry_group_IT_number 36
_symmetry_cell_setting 'orthorhombic'
loop_
_space_group_symop_operation_xyz
x,y,z
-x,-y,1/2+z
x,-y,1/2+z
-x,y,z
1/2+x,1/2+y,z
1/2-x,1/2-y,1/2+z
1/2+x,1/2-y,1/2+z
1/2-x,1/2+y,z
loop_
_atom_site_type_symbol
_atom_site_label
_atom_site_fract_x
_atom_site_fract_y
_atom_site_fract_z
Si Si1 0.859736 0.464626 0.414260
Si Si2 0.789129 0.110691 0.238988
Si Si3 0.000000 0.963697 0.947914
Si Si4 0.133267 0.321363 0.069957
Si Si5 0.130499 0.199599 0.896851
O O1 0.844951 0.509146 0.637984
O O2 0.758809 0.421088 0.490734
O O3 0.000000 0.445110 0.433218
O O4 0.881491 0.073045 0.392922
O O5 0.856703 0.165800 0.157489
O O6 0.668417 0.129374 0.388196
O O7 0.000000 0.990260 0.226886
O O8 0.129350 0.263739 0.928625
O O9 0.000000 0.328648 0.189724
O O10 0.247837 0.315238 0.251632
O O11 0.000000 0.183610 0.778495
#
# Coordination Sequence:
#
# PCOD9352957 Si02
#       5
#     8   8   4   8   8
#     4  10  23  43  66  96 138 186 245 313 381 454
#     4  12  25  44  72 104 145 199 252 323 400 457
#     4  12  30  50  78 116 156 210 282 336 400 488
#     4  11  26  45  71 109 153 202 261 321 401 489
#     4  11  25  45  70 107 151 203 254 322 396 486
#
# _framework density 25.231674999999999
#
# number of rings (size 3 to 8) (size 9 to 14) (size 15 to 20)
#    0.000    0.889    3.333    2.000    7.778    2.667 
#    0.000    0.000    0.000    0.000    0.000    0.000 
#    0.000    0.000    0.000    0.000    0.000    0.000 
#
# Total GULP energy -100847.957286 kJ/mol
# GULP energy per Si atom -5602.664294 kJ/mol
# Density = 2.517425 g / cm^3
# Si number density = 25.231675 Si / 1000 Ang^3
#
#
#
# Elastic Constant Matrix: (Units=GPa)
#
#
# Indices 1 2 3 4 5 6 
#
# 1 203.2640 36.8902 32.5296 0.0000 0.0000 0.0000
# 2 36.8902 115.9514 26.3685 0.0000 0.0000 0.0000
# 3 32.5296 26.3685 64.4480 0.0000 0.0000 0.0000
# 4 0.0000 0.0000 0.0000 38.6509 0.0000 0.0000
# 5 0.0000 0.0000 0.0000 0.0000 16.6923 0.0000
# 6 0.0000 0.0000 0.0000 0.0000 0.0000 -4.6224
#
#
#
# Elastic Compliance Matrix: (Units=1/GPa)
#
#
# Indices 1 2 3 4 5 6 
#
# 1 0.005508 -0.001235 -0.002275 0.000000 0.000000 0.000000
# 2 -0.001235 0.009786 -0.003380 0.000000 0.000000 0.000000
# 3 -0.002275 -0.003380 0.018048 0.000000 0.000000 0.000000
# 4 0.000000 0.000000 0.000000 0.025873 0.000000 0.000000
# 5 0.000000 0.000000 0.000000 0.000000 0.059908 0.000000
# 6 0.000000 0.000000 0.000000 0.000000 0.000000 -0.216340
#
#
# Mechanical properties :
#
#
# Convention : Reuss Voigt Hill
#
# Bulk Modulus (GPa) = 51.12225 63.91555 57.51890
# Shear Modulus (GPa) = -65.00534 29.33584 -17.83475
#
# Velocity S-wave (km/s) = -5.08127 3.41348 -2.66153
# Velocity P-wave (km/s) = 3.75774 6.39705 3.66071
#
# Compressibility (1/GPa) = 0.01956095
#
# Stress axis : x y z
#
# Youngs Moduli (GPa) = 181.55738 102.18682 55.40888
#
# Poissons Ratio (x) = 0.12621 0.12604
# Poissons Ratio (y) = 0.22423 0.18731
# Poissons Ratio (z) = 0.41300 0.34544
#
# Static dielectric constant tensor:
#      x y z
#    x 1.995030 0.000000 0.000000 
#    y 0.000000 2.008900 0.000000 
#    z 0.000000 0.000000 2.022010 
# 
# From -- ./inp_files/462.got.cif
#   From: 2010.05.17/outbox.cif.g08.bks.cpg/sg36_1_cif.got.tgz:462.got - 2010.06.03 17:41:39.
