data_PCOD9352778
_publ_section_title
;
Structure prediction by ZEFSAII (Michael W. Deem and Ramdas Pophale) SiO2 
 PCOD9352778
Probable space group: C M C 21
;
_chemical_formula_sum "Si O2"
_cell_formula_units_Z 64
_cell_length_a 8.759613
_cell_length_b 15.730903
_cell_length_c 24.159106
_cell_angle_alpha 90.000000
_cell_angle_beta 90.000000
_cell_angle_gamma 90.000000
_cell_volume 3329.043207
_symmetry_space_group_name_H-M "C M C 21"
_symmetry_group_IT_number 36
_symmetry_cell_setting 'orthorhombic'
loop_
_space_group_symop_operation_xyz
x,y,z
-x,-y,1/2+z
x,-y,1/2+z
-x,y,z
1/2+x,1/2+y,z
1/2-x,1/2-y,1/2+z
1/2+x,1/2-y,1/2+z
1/2-x,1/2+y,z
loop_
_atom_site_type_symbol
_atom_site_label
_atom_site_fract_x
_atom_site_fract_y
_atom_site_fract_z
Si Si1 0.682209 0.344055 0.565580
Si Si2 0.815974 0.998328 0.646659
Si Si3 0.182978 0.166964 0.581030
Si Si4 0.182157 0.154169 0.834831
Si Si5 0.818106 0.090451 0.460519
Si Si6 0.816263 0.655108 0.348617
Si Si7 0.318470 0.902532 0.451626
Si Si8 0.317390 0.999306 0.767997
O O1 0.500000 0.347275 0.557757
O O2 0.727551 0.423220 0.604380
O O3 0.732354 0.254958 0.591812
O O4 0.762570 0.353977 0.506258
O O5 0.745667 0.985806 0.706731
O O6 0.000000 0.997310 0.650748
O O7 0.771872 0.089384 0.620849
O O8 0.215497 0.137081 0.518187
O O9 0.000000 0.179274 0.585693
O O10 0.219386 0.252701 0.823459
O O11 0.240454 0.132908 0.896398
O O12 0.000000 0.143996 0.832806
O O13 0.256561 0.087224 0.793282
O O14 0.764472 0.143694 0.407601
O O15 0.000000 0.075233 0.458309
O O16 0.732893 0.000326 0.458295
O O17 0.770394 0.577627 0.308810
O O18 0.000000 0.650742 0.356905
O O19 0.500000 0.896774 0.446060
O O20 0.000000 0.500856 0.766966
#
# Coordination Sequence:
#
# PCOD9352778 Si02
#       8
#     8   8   8   8   8   8   8   8
#     4  11  23  41  64  93 125 161 206 253 305 366
#     4  10  23  44  64  85 121 164 207 255 306 362
#     4  10  22  41  63  91 125 160 202 251 306 364
#     4  11  23  41  65  92 123 164 205 249 309 367
#     4  11  21  37  63  92 124 163 201 246 305 368
#     4  10  23  41  61  90 126 160 199 251 305 365
#     4  12  23  37  61  93 128 163 200 249 307 366
#     4  11  24  42  63  90 122 159 208 260 307 360
#
# _framework density 19.224744000000001
#
# number of rings (size 3 to 8) (size 9 to 14) (size 15 to 20)
#    0.000    1.250    2.500    3.375    0.000    7.000 
#    0.000    3.750    0.000    0.000    0.000    0.000 
#    0.000    0.000    0.000    0.000    0.000    0.000 
#
# Total GULP energy -178969.168612 kJ/mol
# GULP energy per Si atom -5592.786519 kJ/mol
# Density = 1.918099 g / cm^3
# Si number density = 19.224744 Si / 1000 Ang^3
#
#
#
# Elastic Constant Matrix: (Units=GPa)
#
#
# Indices 1 2 3 4 5 6 
#
# 1 22.0365 12.8475 9.6835 0.0000 0.0000 0.0000
# 2 12.8475 75.5882 -11.4352 0.0000 0.0000 0.0000
# 3 9.6835 -11.4352 60.9154 0.0000 0.0000 0.0000
# 4 0.0000 0.0000 0.0000 5.0608 0.0000 0.0000
# 5 0.0000 0.0000 0.0000 0.0000 28.7288 0.0000
# 6 0.0000 0.0000 0.0000 0.0000 0.0000 30.4479
#
#
#
# Elastic Compliance Matrix: (Units=1/GPa)
#
#
# Indices 1 2 3 4 5 6 
#
# 1 0.056920 -0.011366 -0.011182 0.000000 0.000000 0.000000
# 2 -0.011366 0.015886 0.004789 0.000000 0.000000 0.000000
# 3 -0.011182 0.004789 0.019093 0.000000 0.000000 0.000000
# 4 0.000000 0.000000 0.000000 0.197598 0.000000 0.000000
# 5 0.000000 0.000000 0.000000 0.000000 0.034808 0.000000
# 6 0.000000 0.000000 0.000000 0.000000 0.000000 0.032843
#
#
# Mechanical properties :
#
#
# Convention : Reuss Voigt Hill
#
# Bulk Modulus (GPa) = 17.73677 20.08131 18.90904
# Shear Modulus (GPa) = 12.15187 22.67710 17.41448
#
# Velocity S-wave (km/s) = 2.51688 3.43823 3.01298
# Velocity P-wave (km/s) = 4.20622 5.12153 4.68628
#
# Compressibility (1/GPa) = 0.05638004
#
# Stress axis : x y z
#
# Youngs Moduli (GPa) = 17.56861 62.94871 52.37578
#
# Poissons Ratio (x) = 0.71549 0.58567
# Poissons Ratio (y) = 0.19969 -0.25083
# Poissons Ratio (z) = 0.19645 -0.30146
#
# Static dielectric constant tensor:
#      x y z
#    x 1.645630 0.000000 0.000000 
#    y 0.000000 1.677690 0.000000 
#    z 0.000000 0.000000 1.635900 
# 
# From -- ./inp_files/16550.got.cif
#   From: 2010.05.17/outbox.cif.g08.bks.cpg/sg36_9_cif.got.tgz:16550.got - 2010.06.03 17:41:39.
