data_PCOD9352688
_publ_section_title
;
Structure prediction by ZEFSAII (Michael W. Deem and Ramdas Pophale) SiO2 
 PCOD9352688
Probable space group: C M C 21
;
_chemical_formula_sum "Si O2"
_cell_formula_units_Z 64
_cell_length_a 8.585827
_cell_length_b 18.908392
_cell_length_c 21.001900
_cell_angle_alpha 90.000000
_cell_angle_beta 90.000000
_cell_angle_gamma 90.000000
_cell_volume 3409.536288
_symmetry_space_group_name_H-M "C M C 21"
_symmetry_group_IT_number 36
_symmetry_cell_setting 'orthorhombic'
loop_
_space_group_symop_operation_xyz
x,y,z
-x,-y,1/2+z
x,-y,1/2+z
-x,y,z
1/2+x,1/2+y,z
1/2-x,1/2-y,1/2+z
1/2+x,1/2-y,1/2+z
1/2-x,1/2+y,z
loop_
_atom_site_type_symbol
_atom_site_label
_atom_site_fract_x
_atom_site_fract_y
_atom_site_fract_z
Si Si1 0.813280 0.541765 0.058890
Si Si2 0.188295 0.462593 0.802583
Si Si3 0.688883 0.199838 0.289745
Si Si4 0.188496 0.706559 0.433052
Si Si5 0.313163 0.699938 0.051462
Si Si6 0.811584 0.551811 0.680540
Si Si7 0.814540 0.951074 0.941915
Si Si8 0.687282 0.709729 0.668926
O O1 0.752134 0.621498 0.059439
O O2 0.765042 0.499480 0.122517
O O3 0.000000 0.542869 0.057415
O O4 0.751675 0.500248 0.997385
O O5 0.233531 0.382506 0.782483
O O6 0.235462 0.516989 0.747740
O O7 0.258287 0.475914 0.872102
O O8 0.000000 0.463623 0.807933
O O9 0.500000 0.201689 0.288707
O O10 0.738236 0.222976 0.360598
O O11 0.742774 0.249010 0.232422
O O12 0.236353 0.764414 0.484653
O O13 0.252421 0.629035 0.450107
O O14 0.000000 0.701906 0.433578
O O15 0.500000 0.697411 0.052474
O O16 0.254113 0.749916 0.107977
O O17 0.741981 0.629096 0.671089
O O18 0.000000 0.556614 0.679983
O O19 0.000000 0.951071 0.944262
O O20 0.500000 0.712556 0.666640
#
# Coordination Sequence:
#
# PCOD9352688 Si02
#       8
#     8   8   8   8   8   8   8   8
#     4  11  23  40  60  81 111 151 191 233 285 340
#     4   9  18  37  61  81 108 149 191 230 280 338
#     4   8  16  34  58  80 104 142 188 225 267 328
#     4   9  19  38  60  80 109 149 186 223 274 332
#     4  11  23  38  58  84 113 145 186 237 286 336
#     4  10  22  39  59  83 112 149 192 236 282 334
#     4  11  22  36  57  87 118 147 186 232 276 330
#     4  11  22  36  57  84 115 150 186 230 284 340
#
# _framework density 18.770879999999998
#
# number of rings (size 3 to 8) (size 9 to 14) (size 15 to 20)
#    0.000    2.000    0.000    4.500    0.000    8.500 
#    0.000    8.750    0.000    0.000    0.000    0.000 
#    0.000    0.000    0.000    0.000    0.000    0.000 
#
# Total GULP energy -178760.388762 kJ/mol
# GULP energy per Si atom -5586.262149 kJ/mol
# Density = 1.872816 g / cm^3
# Si number density = 18.770880 Si / 1000 Ang^3
#
#
#
# Elastic Constant Matrix: (Units=GPa)
#
#
# Indices 1 2 3 4 5 6 
#
# 1 23.4422 -14.4942 -4.9934 0.0000 0.0000 0.0000
# 2 -14.4942 -47.7884 -58.8770 0.0000 0.0000 0.0000
# 3 -4.9934 -58.8770 -0.0634 0.0000 0.0000 0.0000
# 4 0.0000 0.0000 0.0000 43.4378 0.0000 0.0000
# 5 0.0000 0.0000 0.0000 0.0000 7.1207 0.0000
# 6 0.0000 0.0000 0.0000 0.0000 0.0000 30.7254
#
#
#
# Elastic Compliance Matrix: (Units=1/GPa)
#
#
# Indices 1 2 3 4 5 6 
#
# 1 0.039131 -0.003311 -0.006946 0.000000 0.000000 0.000000
# 2 -0.003311 0.000298 -0.016412 0.000000 0.000000 0.000000
# 3 -0.006946 -0.016412 0.015031 0.000000 0.000000 0.000000
# 4 0.000000 0.000000 0.000000 0.023021 0.000000 0.000000
# 5 0.000000 0.000000 0.000000 0.000000 0.140435 0.000000
# 6 0.000000 0.000000 0.000000 0.000000 0.000000 0.032546
#
#
# Mechanical properties :
#
#
# Convention : Reuss Voigt Hill
#
# Bulk Modulus (GPa) = 890.24747 -20.12654 435.06047
# Shear Modulus (GPa) = 16.43790 19.85377 18.14584
#
# Velocity S-wave (km/s) = 2.96246 3.25574 3.11256
# Velocity P-wave (km/s) = 22.06811 1.84056 15.65869
#
# Compressibility (1/GPa) = 0.00112328
#
# Stress axis : x y z
#
# Youngs Moduli (GPa) = 25.55500 3350.13547 66.53089
#
# Poissons Ratio (x) = 11.09319 0.46210
# Poissons Ratio (y) = 0.08462 1.09188
# Poissons Ratio (z) = 0.17750 54.98130
#
# Static dielectric constant tensor:
#      x y z
#    x 1.641090 0.000000 0.000000 
#    y 0.000000 1.610910 0.000000 
#    z 0.000000 0.000000 1.645660 
# 
# From -- ./inp_files/15666.got.cif
#   From: 2010.05.17/outbox.cif.g08.bks.cpg/sg36_8_cif.got.tgz:15666.got - 2010.06.03 17:41:39.
