data_PCOD9352325
_publ_section_title
;
Structure prediction by ZEFSAII (Michael W. Deem and Ramdas Pophale) SiO2 
 PCOD9352325
Probable space group: C M C 21
;
_chemical_formula_sum "Si O2"
_cell_formula_units_Z 40
_cell_length_a 11.225425
_cell_length_b 18.947970
_cell_length_c 10.406169
_cell_angle_alpha 90.000000
_cell_angle_beta 90.000000
_cell_angle_gamma 90.000000
_cell_volume 2213.381908
_symmetry_space_group_name_H-M "C M C 21"
_symmetry_group_IT_number 36
_symmetry_cell_setting 'orthorhombic'
loop_
_space_group_symop_operation_xyz
x,y,z
-x,-y,1/2+z
x,-y,1/2+z
-x,y,z
1/2+x,1/2+y,z
1/2-x,1/2-y,1/2+z
1/2+x,1/2-y,1/2+z
1/2-x,1/2+y,z
loop_
_atom_site_type_symbol
_atom_site_label
_atom_site_fract_x
_atom_site_fract_y
_atom_site_fract_z
Si Si1 0.254484 0.015660 0.219450
Si Si2 0.863760 0.354620 0.859105
Si Si3 0.365075 0.554145 0.957350
Si Si4 0.633708 0.125366 0.662805
Si Si5 0.641025 0.690765 0.807395
O O1 0.289021 0.091288 0.275204
O O2 0.160552 0.983757 0.321476
O O3 0.354499 0.954582 0.215397
O O4 0.213333 0.025682 0.073394
O O5 0.837403 0.272022 0.841749
O O6 0.000000 0.364706 0.818202
O O7 0.855705 0.373796 0.009031
O O8 0.500000 0.541535 0.995908
O O9 0.348603 0.637278 0.927963
O O10 0.500000 0.152918 0.695593
O O11 0.750606 0.166169 0.715419
O O12 0.500000 0.683586 0.763575
#
# Coordination Sequence:
#
# PCOD9352325 Si02
#       5
#     8   8   8   8   8
#     4  11  20  38  59  88 116 154 201 244 293 351
#     4  10  21  38  59  85 118 154 194 246 300 347
#     4  10  21  37  59  85 119 157 196 243 296 353
#     4  10  21  39  61  86 118 154 199 246 293 349
#     4   9  21  40  60  84 120 157 193 243 299 350
#
# _framework density 18.071892999999999
#
# number of rings (size 3 to 8) (size 9 to 14) (size 15 to 20)
#    0.000    2.000    2.000    1.200    2.800    0.800 
#    0.000    3.000    0.000    0.000    0.000    0.000 
#    0.000    0.000    0.000    0.000    0.000    0.000 
#
# Total GULP energy -111340.010453 kJ/mol
# GULP energy per Si atom -5567.000523 kJ/mol
# Density = 1.803076 g / cm^3
# Si number density = 18.071893 Si / 1000 Ang^3
#
#
#
# Elastic Constant Matrix: (Units=GPa)
#
#
# Indices 1 2 3 4 5 6 
#
# 1 83.4426 35.0800 19.5617 0.0000 0.0000 0.0000
# 2 35.0800 111.1157 14.7195 0.0000 0.0000 0.0000
# 3 19.5617 14.7195 44.2859 0.0000 0.0000 0.0000
# 4 0.0000 0.0000 0.0000 21.9401 0.0000 0.0000
# 5 0.0000 0.0000 0.0000 0.0000 19.9387 0.0000
# 6 0.0000 0.0000 0.0000 0.0000 0.0000 20.0401
#
#
#
# Elastic Compliance Matrix: (Units=1/GPa)
#
#
# Indices 1 2 3 4 5 6 
#
# 1 0.014900 -0.004009 -0.005249 0.000000 0.000000 0.000000
# 2 -0.004009 0.010493 -0.001717 0.000000 0.000000 0.000000
# 3 -0.005249 -0.001717 0.025470 0.000000 0.000000 0.000000
# 4 0.000000 0.000000 0.000000 0.045579 0.000000 0.000000
# 5 0.000000 0.000000 0.000000 0.000000 0.050154 0.000000
# 6 0.000000 0.000000 0.000000 0.000000 0.000000 0.049900
#
#
# Mechanical properties :
#
#
# Convention : Reuss Voigt Hill
#
# Bulk Modulus (GPa) = 34.58627 41.95182 38.26905
# Shear Modulus (GPa) = 21.92193 23.68265 22.80229
#
# Velocity S-wave (km/s) = 3.48665 3.62397 3.55597
# Velocity P-wave (km/s) = 5.94884 6.38554 6.17105
#
# Compressibility (1/GPa) = 0.02891320
#
# Stress axis : x y z
#
# Youngs Moduli (GPa) = 67.11327 95.30504 39.26218
#
# Poissons Ratio (x) = 0.38205 0.20610
# Poissons Ratio (y) = 0.26904 0.06740
# Poissons Ratio (z) = 0.35229 0.16362
#
# Static dielectric constant tensor:
#      x y z
#    x 1.641960 0.000000 0.000000 
#    y 0.000000 1.629740 0.000000 
#    z 0.000000 0.000000 1.591020 
# 
# From -- ./inp_files/3049.got.cif
#   From: 2010.05.17/outbox.cif.g08.bks.cpg/sg36_2_cif.got.tgz:3049.got - 2010.06.03 17:41:39.
