data_PCOD9352419
_publ_section_title
;
Structure prediction by ZEFSAII (Michael W. Deem and Ramdas Pophale) SiO2 
 PCOD9352419
Probable space group: C M C 21
;
_chemical_formula_sum "Si O2"
_cell_formula_units_Z 52
_cell_length_a 7.477370
_cell_length_b 19.986445
_cell_length_c 15.702508
_cell_angle_alpha 90.000000
_cell_angle_beta 90.000000
_cell_angle_gamma 90.000000
_cell_volume 2346.677705
_symmetry_space_group_name_H-M "C M C 21"
_symmetry_group_IT_number 36
_symmetry_cell_setting 'orthorhombic'
loop_
_space_group_symop_operation_xyz
x,y,z
-x,-y,1/2+z
x,-y,1/2+z
-x,y,z
1/2+x,1/2+y,z
1/2-x,1/2-y,1/2+z
1/2+x,1/2-y,1/2+z
1/2-x,1/2+y,z
loop_
_atom_site_type_symbol
_atom_site_label
_atom_site_fract_x
_atom_site_fract_y
_atom_site_fract_z
Si Si1 0.798381 0.914538 0.132590
Si Si2 0.500000 0.927680 0.271342
Si Si3 0.210716 0.088603 0.891624
Si Si4 0.281215 0.204561 0.157776
Si Si5 0.713956 0.302753 0.005959
Si Si6 0.207644 0.765395 0.334304
Si Si7 0.714287 0.063605 0.089398
O O1 0.656830 0.901011 0.205593
O O2 0.746054 0.874507 0.047165
O O3 0.000000 0.891974 0.155435
O O4 0.795983 0.993528 0.116813
O O5 0.658929 0.956126 0.335427
O O6 0.282036 0.163746 0.867820
O O7 0.000000 0.081056 0.873799
O O8 0.241110 0.078093 0.991370
O O9 0.500000 0.205022 0.158192
O O10 0.224666 0.248397 0.076234
O O11 0.217606 0.236279 0.246515
O O12 0.226930 0.127950 0.143486
O O13 0.500000 0.296782 0.999794
O O14 0.782338 0.286038 0.912529
O O15 0.000000 0.779082 0.317899
O O16 0.500000 0.056373 0.099474
#
# Coordination Sequence:
#
# PCOD9352419 Si02
#       7
#     8   4   8   8   8   8   8
#     4  11  25  45  67  97 138 180 229 280 345 416
#     4  12  24  42  70  96 130 180 226 286 328 410
#     4  11  23  41  68 103 135 175 229 283 340 415
#     4   9  19  38  66  93 128 171 221 280 338 403
#     4  10  21  41  65  92 130 174 217 282 341 396
#     4  10  21  38  63 100 134 168 223 286 346 409
#     4  11  21  43  70  95 134 186 227 276 350 415
#
# _framework density 22.158987
#
# number of rings (size 3 to 8) (size 9 to 14) (size 15 to 20)
#    0.000    1.538    3.077    1.846    2.154    2.462 
#    2.769    1.538    0.000    0.000    0.000    0.000 
#    0.000    0.000    0.000    0.000    0.000    0.000 
#
# Total GULP energy -144825.303836 kJ/mol
# GULP energy per Si atom -5570.203994 kJ/mol
# Density = 2.210855 g / cm^3
# Si number density = 22.158987 Si / 1000 Ang^3
#
#
#
# Elastic Constant Matrix: (Units=GPa)
#
#
# Indices 1 2 3 4 5 6 
#
# 1 110.9973 1.9384 8.0714 0.0000 0.0000 0.0000
# 2 1.9384 86.1446 8.2212 0.0000 0.0000 0.0000
# 3 8.0714 8.2212 103.2271 0.0000 0.0000 0.0000
# 4 0.0000 0.0000 0.0000 13.0384 0.0000 0.0000
# 5 0.0000 0.0000 0.0000 0.0000 -2.1305 0.0000
# 6 0.0000 0.0000 0.0000 0.0000 0.0000 602.7285
#
#
#
# Elastic Compliance Matrix: (Units=1/GPa)
#
#
# Indices 1 2 3 4 5 6 
#
# 1 0.009062 -0.000137 -0.000698 0.000000 0.000000 0.000000
# 2 -0.000137 0.011699 -0.000921 0.000000 0.000000 0.000000
# 3 -0.000698 -0.000921 0.009815 0.000000 0.000000 0.000000
# 4 0.000000 0.000000 0.000000 0.076697 0.000000 0.000000
# 5 0.000000 0.000000 0.000000 0.000000 -0.469373 0.000000
# 6 0.000000 0.000000 0.000000 0.000000 0.000000 0.001659
#
#
# Mechanical properties :
#
#
# Convention : Reuss Voigt Hill
#
# Bulk Modulus (GPa) = 36.94812 37.42568 37.18690
# Shear Modulus (GPa) = -14.37167 141.53648 63.58240
#
# Velocity S-wave (km/s) = -2.54947 8.00074 5.36246
# Velocity P-wave (km/s) = 2.83618 10.11313 7.42695
#
# Compressibility (1/GPa) = 0.02706498
#
# Stress axis : x y z
#
# Youngs Moduli (GPa) = 110.34653 85.47460 101.88198
#
# Poissons Ratio (x) = 0.01174 0.07108
# Poissons Ratio (y) = 0.01516 0.09384
# Poissons Ratio (z) = 0.07698 0.07872
#
# Static dielectric constant tensor:
#      x y z
#    x 1.846270 0.000000 0.000000 
#    y 0.000000 1.846910 0.000000 
#    z 0.000000 0.000000 1.821650 
# 
# From -- ./inp_files/10508.got.cif
#   From: 2010.05.17/outbox.cif.g08.bks.cpg/sg36_6_cif.got.tgz:10508.got - 2010.06.03 17:41:39.
