data_PCOD9352441
_publ_section_title
;
Structure prediction by ZEFSAII (Michael W. Deem and Ramdas Pophale) SiO2 
 PCOD9352441
Probable space group: C M C 21
;
_chemical_formula_sum "Si O2"
_cell_formula_units_Z 64
_cell_length_a 19.170657
_cell_length_b 7.113428
_cell_length_c 19.456205
_cell_angle_alpha 90.000000
_cell_angle_beta 90.000000
_cell_angle_gamma 90.000000
_cell_volume 2653.224937
_symmetry_space_group_name_H-M "C M C 21"
_symmetry_group_IT_number 36
_symmetry_cell_setting 'orthorhombic'
loop_
_space_group_symop_operation_xyz
x,y,z
-x,-y,1/2+z
x,-y,1/2+z
-x,y,z
1/2+x,1/2+y,z
1/2-x,1/2-y,1/2+z
1/2+x,1/2-y,1/2+z
1/2-x,1/2+y,z
loop_
_atom_site_type_symbol
_atom_site_label
_atom_site_fract_x
_atom_site_fract_y
_atom_site_fract_z
Si Si1 0.876635 0.754969 0.578410
Si Si2 0.577124 0.846700 0.585655
Si Si3 0.308260 0.798897 0.943305
Si Si4 0.852153 0.733744 0.951160
Si Si5 0.635351 0.803106 0.796849
Si Si6 0.205645 0.475534 0.670430
Si Si7 0.579193 0.199838 0.809906
Si Si8 0.131601 0.967087 0.699195
O O1 0.925371 0.573099 0.570808
O O2 0.845425 0.812472 0.505221
O O3 0.902826 0.241413 0.515634
O O4 0.905998 0.918137 0.627161
O O5 0.500000 0.797937 0.612920
O O6 0.647096 0.839336 0.632892
O O7 0.621212 0.279254 0.745107
O O8 0.225782 0.813188 0.955314
O O9 0.328227 0.732894 0.866845
O O10 0.337215 0.009647 0.949031
O O11 0.888161 0.780354 0.879420
O O12 0.608007 0.631080 0.751071
O O13 0.582197 0.972366 0.812887
O O14 0.689751 0.916815 0.749180
O O15 0.186181 0.658165 0.623539
O O16 0.288432 0.494499 0.677142
O O17 0.500000 0.259946 0.801622
#
# Coordination Sequence:
#
# PCOD9352441 Si02
#       8
#     8   8   8   8   8   8   8   8
#     4   9  21  39  62  99 137 188 227 293 350 415
#     4   9  19  39  66  96 134 186 232 280 354 425
#     4  10  22  39  62 101 140 175 230 294 362 400
#     4  10  21  38  66  96 134 182 229 295 350 420
#     4  11  25  40  68 101 141 183 228 300 349 422
#     4  10  21  39  62 101 136 177 231 292 344 411
#     4  11  25  45  66  99 142 189 239 292 365 437
#     4  12  23  41  68  99 141 182 236 294 357 408
#
# _framework density 24.121590999999999
#
# number of rings (size 3 to 8) (size 9 to 14) (size 15 to 20)
#    0.750    1.000    1.250    2.625    5.250    2.500 
#    0.000    0.000    0.000    0.000    0.000    0.000 
#    0.000    0.000    0.000    0.000    0.000    0.000 
#
# Total GULP energy -178292.538215 kJ/mol
# GULP energy per Si atom -5571.641819 kJ/mol
# Density = 2.406669 g / cm^3
# Si number density = 24.121591 Si / 1000 Ang^3
#
#
#
# Elastic Constant Matrix: (Units=GPa)
#
#
# Indices 1 2 3 4 5 6 
#
# 1 124.4484 19.0323 35.8271 0.0000 0.0000 0.0000
# 2 19.0323 73.9271 31.7806 0.0000 0.0000 0.0000
# 3 35.8271 31.7806 162.0880 0.0000 0.0000 0.0000
# 4 0.0000 0.0000 0.0000 28.5393 0.0000 0.0000
# 5 0.0000 0.0000 0.0000 0.0000 -8.7880 0.0000
# 6 0.0000 0.0000 0.0000 0.0000 0.0000 7.8381
#
#
#
# Elastic Compliance Matrix: (Units=1/GPa)
#
#
# Indices 1 2 3 4 5 6 
#
# 1 0.008741 -0.001551 -0.001628 0.000000 0.000000 0.000000
# 2 -0.001551 0.015047 -0.002608 0.000000 0.000000 0.000000
# 3 -0.001628 -0.002608 0.007041 0.000000 0.000000 0.000000
# 4 0.000000 0.000000 0.000000 0.035039 0.000000 0.000000
# 5 0.000000 0.000000 0.000000 0.000000 -0.113791 0.000000
# 6 0.000000 0.000000 0.000000 0.000000 0.000000 0.127582
#
#
# Mechanical properties :
#
#
# Convention : Reuss Voigt Hill
#
# Bulk Modulus (GPa) = 51.93037 59.30481 55.61759
# Shear Modulus (GPa) = 51.20324 23.77278 37.48801
#
# Velocity S-wave (km/s) = 4.61229 3.14274 3.94652
# Velocity P-wave (km/s) = 7.06680 6.14884 6.62374
#
# Compressibility (1/GPa) = 0.01925655
#
# Stress axis : x y z
#
# Youngs Moduli (GPa) = 114.39945 66.45855 142.03289
#
# Poissons Ratio (x) = 0.10304 0.23125
# Poissons Ratio (y) = 0.17738 0.37036
# Poissons Ratio (z) = 0.18626 0.17329
#
# Static dielectric constant tensor:
#      x y z
#    x 1.895310 0.000000 0.000000 
#    y 0.000000 2.168950 0.000000 
#    z 0.000000 0.000000 1.936960 
# 
# From -- ./inp_files/16255.got.cif
#   From: 2010.05.17/outbox.cif.g08.bks.cpg/sg36_9_cif.got.tgz:16255.got - 2010.06.03 17:41:39.
