data_PCOD9352729
_publ_section_title
;
Structure prediction by ZEFSAII (Michael W. Deem and Ramdas Pophale) SiO2 
 PCOD9352729
Probable space group: C M C 21
;
_chemical_formula_sum "Si O2"
_cell_formula_units_Z 48
_cell_length_a 10.219450
_cell_length_b 31.426363
_cell_length_c 7.930478
_cell_angle_alpha 90.000000
_cell_angle_beta 90.000000
_cell_angle_gamma 90.000000
_cell_volume 2546.953467
_symmetry_space_group_name_H-M "C M C 21"
_symmetry_group_IT_number 36
_symmetry_cell_setting 'orthorhombic'
loop_
_space_group_symop_operation_xyz
x,y,z
-x,-y,1/2+z
x,-y,1/2+z
-x,y,z
1/2+x,1/2+y,z
1/2-x,1/2-y,1/2+z
1/2+x,1/2-y,1/2+z
1/2-x,1/2+y,z
loop_
_atom_site_type_symbol
_atom_site_label
_atom_site_fract_x
_atom_site_fract_y
_atom_site_fract_z
Si Si1 0.000000 0.614930 0.807200
Si Si2 0.500000 0.803910 0.522390
Si Si3 0.653018 0.470560 0.946480
Si Si4 0.000000 0.233737 0.240040
Si Si5 0.741968 0.442598 0.317035
Si Si6 0.227799 0.683944 0.258611
Si Si7 0.352899 0.401244 0.651090
Si Si8 0.000000 0.311764 0.022506
O O1 0.875282 0.583925 0.801191
O O2 0.000000 0.650232 0.659442
O O3 0.000000 0.646371 0.969133
O O4 0.500000 0.772934 0.367146
O O5 0.369112 0.794298 0.625524
O O6 0.500000 0.484965 0.950134
O O7 0.745229 0.510511 0.902260
O O8 0.666183 0.438273 0.789685
O O9 0.684061 0.449932 0.128910
O O10 0.867157 0.207284 0.267611
O O11 0.000000 0.261371 0.068845
O O12 0.661201 0.416895 0.459120
O O13 0.255948 0.636570 0.193905
O O14 0.136103 0.681842 0.422303
O O15 0.500000 0.385167 0.675246
#
# Coordination Sequence:
#
# PCOD9352729 Si02
#       8
#     4   4   8   4   8   8   8   4
#     4  11  24  42  60  87 128 167 213 253 311 393
#     4  10  22  40  62  88 128 164 197 256 329 375
#     4  11  23  40  63  92 128 165 215 280 325 366
#     4  11  22  40  68  98 123 162 219 261 311 402
#     4  12  23  40  62  91 124 173 217 259 326 386
#     4  11  21  41  66  93 127 170 209 263 325 387
#     4  11  22  39  66  94 127 166 222 273 320 379
#     4  10  24  42  66  93 135 173 203 266 333 382
#
# _framework density 18.846045
#
# number of rings (size 3 to 8) (size 9 to 14) (size 15 to 20)
#    0.000    1.000    4.167    3.500    0.000    0.667 
#    0.000    1.667    0.000    0.000    0.000    0.000 
#    0.000    0.000    0.000    0.000    0.000    0.000 
#
# Total GULP energy -133757.953535 kJ/mol
# GULP energy per Si atom -5573.248064 kJ/mol
# Density = 1.880315 g / cm^3
# Si number density = 18.846045 Si / 1000 Ang^3
#
#
#
# Elastic Constant Matrix: (Units=GPa)
#
#
# Indices 1 2 3 4 5 6 
#
# 1 133.8408 59.9349 46.0283 0.0000 0.0000 0.0000
# 2 59.9349 85.0591 30.5277 0.0000 0.0000 0.0000
# 3 46.0283 30.5277 92.8082 0.0000 0.0000 0.0000
# 4 0.0000 0.0000 0.0000 27.7366 0.0000 0.0000
# 5 0.0000 0.0000 0.0000 0.0000 14.8501 0.0000
# 6 0.0000 0.0000 0.0000 0.0000 0.0000 75.5124
#
#
#
# Elastic Compliance Matrix: (Units=1/GPa)
#
#
# Indices 1 2 3 4 5 6 
#
# 1 0.011867 -0.007086 -0.003555 0.000000 0.000000 0.000000
# 2 -0.007086 0.017562 -0.002262 0.000000 0.000000 0.000000
# 3 -0.003555 -0.002262 0.013282 0.000000 0.000000 0.000000
# 4 0.000000 0.000000 0.000000 0.036053 0.000000 0.000000
# 5 0.000000 0.000000 0.000000 0.000000 0.067339 0.000000
# 6 0.000000 0.000000 0.000000 0.000000 0.000000 0.013243
#
#
# Mechanical properties :
#
#
# Convention : Reuss Voigt Hill
#
# Bulk Modulus (GPa) = 59.15533 64.96555 62.06044
# Shear Modulus (GPa) = 26.20714 35.30097 30.75406
#
# Velocity S-wave (km/s) = 3.73311 4.33266 4.04401
# Velocity P-wave (km/s) = 7.07378 7.71853 7.40318
#
# Compressibility (1/GPa) = 0.01690465
#
# Stress axis : x y z
#
# Youngs Moduli (GPa) = 84.26508 56.94254 75.29006
#
# Poissons Ratio (x) = 0.40351 0.26763
# Poissons Ratio (y) = 0.59712 0.17032
# Poissons Ratio (z) = 0.29954 0.12881
#
# Static dielectric constant tensor:
#      x y z
#    x 1.630040 0.000000 0.000000 
#    y 0.000000 1.656400 0.000000 
#    z 0.000000 0.000000 1.714210 
# 
# From -- ./inp_files/2783.got.cif
#   From: 2010.05.17/outbox.cif.g08.bks.cpg/sg36_2_cif.got.tgz:2783.got - 2010.06.03 17:41:39.
