data_PCOD9352701
_publ_section_title
;
Structure prediction by ZEFSAII (Michael W. Deem and Ramdas Pophale) SiO2 
 PCOD9352701
Probable space group: C M C 21
;
_chemical_formula_sum "Si O2"
_cell_formula_units_Z 32
_cell_length_a 22.000853
_cell_length_b 11.922126
_cell_length_c 4.945334
_cell_angle_alpha 90.000000
_cell_angle_beta 90.000000
_cell_angle_gamma 90.000000
_cell_volume 1297.145983
_symmetry_space_group_name_H-M "C M C 21"
_symmetry_group_IT_number 36
_symmetry_cell_setting 'orthorhombic'
loop_
_space_group_symop_operation_xyz
x,y,z
-x,-y,1/2+z
x,-y,1/2+z
-x,y,z
1/2+x,1/2+y,z
1/2-x,1/2-y,1/2+z
1/2+x,1/2-y,1/2+z
1/2-x,1/2+y,z
loop_
_atom_site_type_symbol
_atom_site_label
_atom_site_fract_x
_atom_site_fract_y
_atom_site_fract_z
Si Si1 0.000000 0.916086 0.776340
Si Si2 0.599632 0.751541 0.500310
Si Si3 0.500000 0.923315 0.707387
Si Si4 0.664786 0.567032 0.853532
Si Si5 0.724426 0.808759 0.243799
O O1 0.944660 0.831269 0.835624
O O2 0.000000 0.979431 0.489154
O O3 0.558458 0.847476 0.635434
O O4 0.630884 0.673836 0.730170
O O5 0.654117 0.802858 0.319482
O O6 0.500000 0.967841 0.012587
O O7 0.649250 0.465509 0.654817
O O8 0.737078 0.584112 0.831195
O O9 0.757420 0.715334 0.435415
#
# Coordination Sequence:
#
# PCOD9352701 Si02
#       5
#     4   8   4   8   8
#     4  11  24  41  66 100 132 173 220 275 336 394
#     4  10  24  44  68  95 136 175 218 276 332 389
#     4  11  28  47  68  94 126 177 236 277 318 382
#     4  11  22  38  64 100 132 165 208 262 329 400
#     4  10  22  39  61  92 131 175 212 257 320 390
#
# _framework density 24.669542
#
# number of rings (size 3 to 8) (size 9 to 14) (size 15 to 20)
#    0.000    1.500    0.000    4.500    0.000   16.000 
#    0.000    0.000    0.000    0.000    0.000    0.000 
#    0.000    0.000    0.000    0.000    0.000    0.000 
#
# Total GULP energy -89601.541088 kJ/mol
# GULP energy per Si atom -5600.096318 kJ/mol
# Density = 2.461339 g / cm^3
# Si number density = 24.669542 Si / 1000 Ang^3
#
#
#
# Elastic Constant Matrix: (Units=GPa)
#
#
# Indices 1 2 3 4 5 6 
#
# 1 177.2699 43.7873 16.6509 0.0000 0.0000 0.0000
# 2 43.7873 72.8622 8.0338 0.0000 0.0000 0.0000
# 3 16.6509 8.0338 75.4311 0.0000 0.0000 0.0000
# 4 0.0000 0.0000 0.0000 30.0874 0.0000 0.0000
# 5 0.0000 0.0000 0.0000 0.0000 30.5850 0.0000
# 6 0.0000 0.0000 0.0000 0.0000 0.0000 59.3222
#
#
#
# Elastic Compliance Matrix: (Units=1/GPa)
#
#
# Indices 1 2 3 4 5 6 
#
# 1 0.006708 -0.003914 -0.001064 0.000000 0.000000 0.000000
# 2 -0.003914 0.016171 -0.000858 0.000000 0.000000 0.000000
# 3 -0.001064 -0.000858 0.013583 0.000000 0.000000 0.000000
# 4 0.000000 0.000000 0.000000 0.033237 0.000000 0.000000
# 5 0.000000 0.000000 0.000000 0.000000 0.032696 0.000000
# 6 0.000000 0.000000 0.000000 0.000000 0.000000 0.016857
#
#
# Mechanical properties :
#
#
# Convention : Reuss Voigt Hill
#
# Bulk Modulus (GPa) = 40.33831 51.38969 45.86400
# Shear Modulus (GPa) = 35.92279 41.13832 38.53055
#
# Velocity S-wave (km/s) = 3.82011 4.08803 3.95633
# Velocity P-wave (km/s) = 5.98703 6.56956 6.28505
#
# Compressibility (1/GPa) = 0.02479033
#
# Stress axis : x y z
#
# Youngs Moduli (GPa) = 149.08031 61.83816 73.61928
#
# Poissons Ratio (x) = 0.24202 0.07832
# Poissons Ratio (y) = 0.58347 0.06319
# Poissons Ratio (z) = 0.15860 0.05308
#
# Static dielectric constant tensor:
#      x y z
#    x 2.014550 0.000000 0.000000 
#    y 0.000000 1.959850 0.000000 
#    z 0.000000 0.000000 1.924170 
# 
# From -- ./inp_files/1265.got.cif
#   From: 2010.05.17/outbox.cif.g08.bks.cpg/sg36_1_cif.got.tgz:1265.got - 2010.06.03 17:41:39.
