data_PCOD9352028
_publ_section_title
;
Structure prediction by ZEFSAII (Michael W. Deem and Ramdas Pophale) SiO2 
 PCOD9352028
Probable space group: C M C 21
;
_chemical_formula_sum "Si O2"
_cell_formula_units_Z 48
_cell_length_a 8.893517
_cell_length_b 20.357004
_cell_length_c 14.266704
_cell_angle_alpha 90.000000
_cell_angle_beta 90.000000
_cell_angle_gamma 90.000000
_cell_volume 2582.920578
_symmetry_space_group_name_H-M "C M C 21"
_symmetry_group_IT_number 36
_symmetry_cell_setting 'orthorhombic'
loop_
_space_group_symop_operation_xyz
x,y,z
-x,-y,1/2+z
x,-y,1/2+z
-x,y,z
1/2+x,1/2+y,z
1/2-x,1/2-y,1/2+z
1/2+x,1/2-y,1/2+z
1/2-x,1/2+y,z
loop_
_atom_site_type_symbol
_atom_site_label
_atom_site_fract_x
_atom_site_fract_y
_atom_site_fract_z
Si Si1 0.825549 0.305347 0.637790
Si Si2 0.178768 0.754562 0.817848
Si Si3 0.821265 0.559205 0.619658
Si Si4 0.680835 0.927735 0.506496
Si Si5 0.674990 0.676263 0.510701
Si Si6 0.179441 0.890908 0.311102
O O1 0.723324 0.297675 0.728420
O O2 0.781354 0.362859 0.566562
O O3 0.818808 0.236533 0.583190
O O4 0.000000 0.316782 0.665376
O O5 0.222635 0.793855 0.911292
O O6 0.259212 0.684028 0.811280
O O7 0.000000 0.742695 0.822100
O O8 0.780720 0.491030 0.568923
O O9 0.774162 0.617627 0.549878
O O10 0.740574 0.572813 0.718444
O O11 0.000000 0.559832 0.635453
O O12 0.500000 0.927341 0.490982
O O13 0.761040 0.924422 0.406304
O O14 0.500000 0.655053 0.504082
O O15 0.000000 0.889713 0.309035
#
# Coordination Sequence:
#
# PCOD9352028 Si02
#       6
#     8   8   8   8   8   8
#     4  10  20  38  62  89 121 156 201 253 302 354
#     4  11  22  38  62  91 124 161 206 254 303 362
#     4  11  24  41  65  92 124 164 204 249 302 367
#     4  10  23  44  65  88 123 164 205 251 302 362
#     4  10  21  38  61  89 123 159 198 254 305 352
#     4  12  24  39  63  91 123 162 202 251 308 365
#
# _framework density 18.583615000000002
#
# number of rings (size 3 to 8) (size 9 to 14) (size 15 to 20)
#    0.000    1.333    3.333    2.500    0.000    4.667 
#    0.000    5.000    0.000    0.000    0.000    0.000 
#    0.000    0.000    0.000    0.000    0.000    0.000 
#
# Total GULP energy -134135.616579 kJ/mol
# GULP energy per Si atom -5588.984024 kJ/mol
# Density = 1.854132 g / cm^3
# Si number density = 18.583615 Si / 1000 Ang^3
#
#
#
# Elastic Constant Matrix: (Units=GPa)
#
#
# Indices 1 2 3 4 5 6 
#
# 1 61.8600 33.5634 44.8998 0.0000 0.0000 0.0000
# 2 33.5634 77.3622 19.9611 0.0000 0.0000 0.0000
# 3 44.8998 19.9611 114.7955 0.0000 0.0000 0.0000
# 4 0.0000 0.0000 0.0000 24.7589 0.0000 0.0000
# 5 0.0000 0.0000 0.0000 0.0000 34.5551 0.0000
# 6 0.0000 0.0000 0.0000 0.0000 0.0000 27.2389
#
#
#
# Elastic Compliance Matrix: (Units=1/GPa)
#
#
# Indices 1 2 3 4 5 6 
#
# 1 0.028312 -0.009869 -0.009358 0.000000 0.000000 0.000000
# 2 -0.009869 0.016973 0.000909 0.000000 0.000000 0.000000
# 3 -0.009358 0.000909 0.012213 0.000000 0.000000 0.000000
# 4 0.000000 0.000000 0.000000 0.040390 0.000000 0.000000
# 5 0.000000 0.000000 0.000000 0.000000 0.028939 0.000000
# 6 0.000000 0.000000 0.000000 0.000000 0.000000 0.036712
#
#
# Mechanical properties :
#
#
# Convention : Reuss Voigt Hill
#
# Bulk Modulus (GPa) = 47.93175 50.09626 49.01401
# Shear Modulus (GPa) = 24.13949 27.68346 25.91148
#
# Velocity S-wave (km/s) = 3.60803 3.86381 3.73811
# Velocity P-wave (km/s) = 6.57310 6.84990 6.71293
#
# Compressibility (1/GPa) = 0.02086300
#
# Stress axis : x y z
#
# Youngs Moduli (GPa) = 35.32064 58.91610 81.87853
#
# Poissons Ratio (x) = 0.58142 0.76619
# Poissons Ratio (y) = 0.34857 -0.07439
# Poissons Ratio (z) = 0.33052 -0.05353
#
# Static dielectric constant tensor:
#      x y z
#    x 1.634120 0.000000 0.000000 
#    y 0.000000 1.615920 0.000000 
#    z 0.000000 0.000000 1.630300 
# 
# From -- ./inp_files/10385.got.cif
#   From: 2010.05.17/outbox.cif.g08.bks.cpg/sg36_6_cif.got.tgz:10385.got - 2010.06.03 17:41:39.
