data_PCOD9352707
_publ_section_title
;
Structure prediction by ZEFSAII (Michael W. Deem and Ramdas Pophale) SiO2 
 PCOD9352707
Probable space group: C M C 21
;
_chemical_formula_sum "Si O2"
_cell_formula_units_Z 64
_cell_length_a 8.743668
_cell_length_b 20.206340
_cell_length_c 18.785275
_cell_angle_alpha 90.000000
_cell_angle_beta 90.000000
_cell_angle_gamma 90.000000
_cell_volume 3318.935958
_symmetry_space_group_name_H-M "C M C 21"
_symmetry_group_IT_number 36
_symmetry_cell_setting 'orthorhombic'
loop_
_space_group_symop_operation_xyz
x,y,z
-x,-y,1/2+z
x,-y,1/2+z
-x,y,z
1/2+x,1/2+y,z
1/2-x,1/2-y,1/2+z
1/2+x,1/2-y,1/2+z
1/2-x,1/2+y,z
loop_
_atom_site_type_symbol
_atom_site_label
_atom_site_fract_x
_atom_site_fract_y
_atom_site_fract_z
Si Si1 0.315553 0.867351 0.763310
Si Si2 0.183214 0.168884 0.994533
Si Si3 0.818288 0.947352 0.035137
Si Si4 0.183499 0.430750 0.612364
Si Si5 0.684238 0.225885 0.730562
Si Si6 0.815680 0.695477 0.568593
Si Si7 0.684286 0.880234 0.345833
Si Si8 0.815348 0.527518 0.380184
O O1 0.500000 0.863661 0.764243
O O2 0.270787 0.904479 0.690192
O O3 0.249754 0.793807 0.761540
O O4 0.267558 0.911233 0.830777
O O5 0.254203 0.119917 0.053140
O O6 0.222483 0.244024 0.016233
O O7 0.000000 0.162112 0.996760
O O8 0.244678 0.149692 0.917375
O O9 0.758854 0.969771 0.957638
O O10 0.000000 0.951471 0.037508
O O11 0.761985 0.872954 0.048027
O O12 0.747594 0.997327 0.092931
O O13 0.000000 0.432536 0.608855
O O14 0.500000 0.229765 0.731835
O O15 0.730215 0.216551 0.648500
O O16 0.732088 0.163400 0.778346
O O17 0.000000 0.686567 0.567478
O O18 0.500000 0.876177 0.351234
O O19 0.723526 0.957807 0.342895
O O20 0.000000 0.529962 0.388502
#
# Coordination Sequence:
#
# PCOD9352707 Si02
#       8
#     8   8   8   8   8   8   8   8
#     4  10  23  40  64  92 122 161 204 249 304 369
#     4  11  22  39  64  91 121 159 205 252 302 361
#     4  12  26  41  62  93 124 159 209 260 306 362
#     4  11  22  40  66  91 120 160 203 251 309 368
#     4  10  22  41  64  91 123 161 204 251 305 364
#     4  10  23  42  64  89 124 164 202 253 313 366
#     4  10  22  39  63  89 120 164 207 249 302 364
#     4  10  22  42  63  88 122 164 206 247 303 366
#
# _framework density 19.283289
#
# number of rings (size 3 to 8) (size 9 to 14) (size 15 to 20)
#    0.000    1.500    2.500    1.875    3.500    3.000 
#    0.000    0.000    0.000    0.000    0.000    0.000 
#    0.000    0.000    0.000    0.000    0.000    0.000 
#
# Total GULP energy -178891.825939 kJ/mol
# GULP energy per Si atom -5590.369561 kJ/mol
# Density = 1.923940 g / cm^3
# Si number density = 19.283289 Si / 1000 Ang^3
#
#
#
# Elastic Constant Matrix: (Units=GPa)
#
#
# Indices 1 2 3 4 5 6 
#
# 1 18.5222 26.9998 2.8054 0.0000 0.0000 0.0000
# 2 26.9998 120.0960 5.4920 0.0000 0.0000 0.0000
# 3 2.8054 5.4920 30.2614 0.0000 0.0000 0.0000
# 4 0.0000 0.0000 0.0000 41.5412 0.0000 0.0000
# 5 0.0000 0.0000 0.0000 0.0000 10.2047 0.0000
# 6 0.0000 0.0000 0.0000 0.0000 0.0000 30.9456
#
#
#
# Elastic Compliance Matrix: (Units=1/GPa)
#
#
# Indices 1 2 3 4 5 6 
#
# 1 0.080841 -0.017981 -0.004231 0.000000 0.000000 0.000000
# 2 -0.017981 0.012396 -0.000583 0.000000 0.000000 0.000000
# 3 -0.004231 -0.000583 0.033543 0.000000 0.000000 0.000000
# 4 0.000000 0.000000 0.000000 0.024072 0.000000 0.000000
# 5 0.000000 0.000000 0.000000 0.000000 0.097994 0.000000
# 6 0.000000 0.000000 0.000000 0.000000 0.000000 0.032315
#
#
# Mechanical properties :
#
#
# Convention : Reuss Voigt Hill
#
# Bulk Modulus (GPa) = 12.31675 26.60822 19.46248
# Shear Modulus (GPa) = 14.13169 25.44379 19.78774
#
# Velocity S-wave (km/s) = 2.71005 3.63640 3.20685
# Velocity P-wave (km/s) = 4.02413 5.60890 4.88126
#
# Compressibility (1/GPa) = 0.08119027
#
# Stress axis : x y z
#
# Youngs Moduli (GPa) = 12.36997 80.67253 29.81210
#
# Poissons Ratio (x) = 1.45058 0.12614
# Poissons Ratio (y) = 0.22243 0.01737
# Poissons Ratio (z) = 0.05234 0.04701
#
# Static dielectric constant tensor:
#      x y z
#    x 1.650530 0.000000 0.000000 
#    y 0.000000 1.654750 0.000000 
#    z 0.000000 0.000000 1.647180 
# 
# From -- ./inp_files/13969.got.cif
#   From: 2010.05.17/outbox.cif.g08.bks.cpg/sg36_7_cif.got.tgz:13969.got - 2010.06.03 17:41:39.
