data_PCOD9352194
_publ_section_title
;
Structure prediction by ZEFSAII (Michael W. Deem and Ramdas Pophale) SiO2 
 PCOD9352194
Probable space group: C M C 21
;
_chemical_formula_sum "Si O2"
_cell_formula_units_Z 64
_cell_length_a 26.854705
_cell_length_b 5.343476
_cell_length_c 22.713856
_cell_angle_alpha 90.000000
_cell_angle_beta 90.000000
_cell_angle_gamma 90.000000
_cell_volume 3259.380908
_symmetry_space_group_name_H-M "C M C 21"
_symmetry_group_IT_number 36
_symmetry_cell_setting 'orthorhombic'
loop_
_space_group_symop_operation_xyz
x,y,z
-x,-y,1/2+z
x,-y,1/2+z
-x,y,z
1/2+x,1/2+y,z
1/2-x,1/2-y,1/2+z
1/2+x,1/2-y,1/2+z
1/2-x,1/2+y,z
loop_
_atom_site_type_symbol
_atom_site_label
_atom_site_fract_x
_atom_site_fract_y
_atom_site_fract_z
Si Si1 0.879714 0.453995 0.837980
Si Si2 0.945689 0.072599 0.816065
Si Si3 0.719462 0.874531 0.281062
Si Si4 0.940735 0.070730 0.550817
Si Si5 0.393782 0.926164 0.104200
Si Si6 0.943077 0.664386 0.728960
Si Si7 0.282280 0.097477 0.641494
Si Si8 0.554048 0.195655 0.924637
O O1 0.889424 0.162386 0.829863
O O2 0.827309 0.565623 0.822149
O O3 0.917470 0.529615 0.784440
O O4 0.902431 0.516037 0.901751
O O5 0.000000 0.211336 0.820524
O O6 0.944186 0.950094 0.751679
O O7 0.951081 0.871946 0.868155
O O8 0.741043 0.598285 0.290985
O O9 0.705463 0.898031 0.211777
O O10 0.914738 0.304045 0.584170
O O11 0.935493 0.143259 0.482205
O O12 0.000000 0.061421 0.564787
O O13 0.916367 0.803767 0.566337
O O14 0.412769 0.876896 0.170344
O O15 0.333910 0.917977 0.106243
O O16 0.000000 0.586071 0.719760
O O17 0.251548 0.352417 0.630018
O O18 0.500000 0.067361 0.934710
#
# Coordination Sequence:
#
# PCOD9352194 Si02
#       8
#     8   8   8   8   8   8   8   8
#     4  11  20  35  63  85 119 160 203 253 307 365
#     4   9  19  33  57  87 120 159 201 246 298 367
#     4  10  23  38  59  89 123 155 198 252 312 372
#     4  11  25  42  62  91 130 172 213 252 302 375
#     4  12  24  41  64  92 126 169 206 258 319 372
#     4  10  21  34  52  91 129 155 190 241 311 381
#     4  10  21  40  64  90 120 159 210 262 307 372
#     4   9  21  39  59  89 121 163 215 250 290 366
#
# _framework density 19.635631
#
# number of rings (size 3 to 8) (size 9 to 14) (size 15 to 20)
#    0.000    1.750    1.250    3.750    7.000    1.000 
#    0.000    0.000    0.000    4.500    0.000    0.000 
#    0.000    0.000    0.000    0.000    0.000    0.000 
#
# Total GULP energy -178235.124800 kJ/mol
# GULP energy per Si atom -5569.847650 kJ/mol
# Density = 1.959094 g / cm^3
# Si number density = 19.635631 Si / 1000 Ang^3
#
#
#
# Elastic Constant Matrix: (Units=GPa)
#
#
# Indices 1 2 3 4 5 6 
#
# 1 93.3827 13.6327 11.0052 0.0000 0.0000 0.0000
# 2 13.6327 50.2209 -8.7173 0.0000 0.0000 0.0000
# 3 11.0052 -8.7173 36.2856 0.0000 0.0000 0.0000
# 4 0.0000 0.0000 0.0000 15.1603 0.0000 0.0000
# 5 0.0000 0.0000 0.0000 0.0000 23.2701 0.0000
# 6 0.0000 0.0000 0.0000 0.0000 0.0000 18.3867
#
#
#
# Elastic Compliance Matrix: (Units=1/GPa)
#
#
# Indices 1 2 3 4 5 6 
#
# 1 0.011829 -0.004001 -0.004549 0.000000 0.000000 0.000000
# 2 -0.004001 0.022132 0.006530 0.000000 0.000000 0.000000
# 3 -0.004549 0.006530 0.030508 0.000000 0.000000 0.000000
# 4 0.000000 0.000000 0.000000 0.065962 0.000000 0.000000
# 5 0.000000 0.000000 0.000000 0.000000 0.042974 0.000000
# 6 0.000000 0.000000 0.000000 0.000000 0.000000 0.054387
#
#
# Mechanical properties :
#
#
# Convention : Reuss Voigt Hill
#
# Bulk Modulus (GPa) = 16.54810 23.52560 20.03685
# Shear Modulus (GPa) = 19.84353 22.29466 21.06910
#
# Velocity S-wave (km/s) = 3.18242 3.37325 3.27923
# Velocity P-wave (km/s) = 4.68504 5.21334 4.95623
#
# Compressibility (1/GPa) = 0.06042990
#
# Stress axis : x y z
#
# Youngs Moduli (GPa) = 84.54006 45.18445 32.77871
#
# Poissons Ratio (x) = 0.18076 0.14910
# Poissons Ratio (y) = 0.33820 -0.21405
# Poissons Ratio (z) = 0.38455 -0.29507
#
# Static dielectric constant tensor:
#      x y z
#    x 1.697800 0.000000 0.000000 
#    y 0.000000 1.945840 0.000000 
#    z 0.000000 0.000000 1.652810 
# 
# From -- ./inp_files/16365.got.cif
#   From: 2010.05.17/outbox.cif.g08.bks.cpg/sg36_9_cif.got.tgz:16365.got - 2010.06.03 17:41:39.
