data_PCOD9352612
_publ_section_title
;
Structure prediction by ZEFSAII (Michael W. Deem and Ramdas Pophale) SiO2 
 PCOD9352612
Probable space group: C M C 21
;
_chemical_formula_sum "Si O2"
_cell_formula_units_Z 64
_cell_length_a 27.641696
_cell_length_b 11.785045
_cell_length_c 8.620567
_cell_angle_alpha 90.000000
_cell_angle_beta 90.000000
_cell_angle_gamma 90.000000
_cell_volume 2808.224106
_symmetry_space_group_name_H-M "C M C 21"
_symmetry_group_IT_number 36
_symmetry_cell_setting 'orthorhombic'
loop_
_space_group_symop_operation_xyz
x,y,z
-x,-y,1/2+z
x,-y,1/2+z
-x,y,z
1/2+x,1/2+y,z
1/2-x,1/2-y,1/2+z
1/2+x,1/2-y,1/2+z
1/2-x,1/2+y,z
loop_
_atom_site_type_symbol
_atom_site_label
_atom_site_fract_x
_atom_site_fract_y
_atom_site_fract_z
Si Si1 0.198120 0.964509 0.454600
Si Si2 0.124078 0.940899 0.706070
Si Si3 0.877286 0.659648 0.214538
Si Si4 0.869078 0.572484 0.559759
Si Si5 0.443565 0.734121 0.122690
Si Si6 0.704933 0.705771 0.572444
Si Si7 0.283295 0.167885 0.770814
Si Si8 0.444325 0.648356 0.770759
O O1 0.162027 0.022363 0.333597
O O2 0.216124 0.073157 0.552227
O O3 0.159199 0.901211 0.564789
O O4 0.242676 0.904922 0.367300
O O5 0.087204 0.840194 0.743020
O O6 0.089382 0.051894 0.693814
O O7 0.863129 0.603543 0.379177
O O8 0.876209 0.560530 0.088606
O O9 0.838380 0.758070 0.182284
O O10 0.927506 0.726826 0.217176
O O11 0.915797 0.646860 0.607470
O O12 0.823323 0.606994 0.666518
O O13 0.500000 0.746394 0.157663
O O14 0.439537 0.662901 0.959150
O O15 0.693830 0.759787 0.408017
O O16 0.752896 0.750217 0.657213
O O17 0.500000 0.623992 0.735568
#
# Coordination Sequence:
#
# PCOD9352612 Si02
#       8
#     8   8   8   8   8   8   8   8
#     4  12  26  43  66 101 140 184 232 287 351 422
#     4  12  22  43  70 100 145 184 229 292 355 421
#     4  11  24  46  68  99 136 185 231 293 350 420
#     4  11  26  45  73  98 143 183 237 293 352 418
#     4  10  23  44  72 104 139 184 237 294 357 423
#     4  12  27  44  68  96 139 184 236 285 348 422
#     4  12  28  42  67 101 137 190 233 291 346 430
#     4  10  21  41  69 101 136 180 230 291 361 422
#
# _framework density 22.790203999999999
#
# number of rings (size 3 to 8) (size 9 to 14) (size 15 to 20)
#    0.000    0.750    3.750    2.625   10.500    0.500 
#    0.000    0.000    0.000    0.000    0.000    0.000 
#    0.000    0.000    0.000    0.000    0.000    0.000 
#
# Total GULP energy -178732.041232 kJ/mol
# GULP energy per Si atom -5585.376289 kJ/mol
# Density = 2.273833 g / cm^3
# Si number density = 22.790204 Si / 1000 Ang^3
#
#
#
# Elastic Constant Matrix: (Units=GPa)
#
#
# Indices 1 2 3 4 5 6 
#
# 1 142.1615 36.9629 18.3503 0.0000 0.0000 0.0000
# 2 36.9629 76.8086 4.9103 0.0000 0.0000 0.0000
# 3 18.3503 4.9103 49.7208 0.0000 0.0000 0.0000
# 4 0.0000 0.0000 0.0000 29.7474 0.0000 0.0000
# 5 0.0000 0.0000 0.0000 0.0000 20.8523 0.0000
# 6 0.0000 0.0000 0.0000 0.0000 0.0000 33.1092
#
#
#
# Elastic Compliance Matrix: (Units=1/GPa)
#
#
# Indices 1 2 3 4 5 6 
#
# 1 0.008389 -0.003864 -0.002715 0.000000 0.000000 0.000000
# 2 -0.003864 0.014881 -0.000044 0.000000 0.000000 0.000000
# 3 -0.002715 -0.000044 0.021119 0.000000 0.000000 0.000000
# 4 0.000000 0.000000 0.000000 0.033616 0.000000 0.000000
# 5 0.000000 0.000000 0.000000 0.000000 0.047956 0.000000
# 6 0.000000 0.000000 0.000000 0.000000 0.000000 0.030203
#
#
# Mechanical properties :
#
#
# Convention : Reuss Voigt Hill
#
# Bulk Modulus (GPa) = 32.10761 43.23755 37.67258
# Shear Modulus (GPa) = 27.81009 30.63959 29.22484
#
# Velocity S-wave (km/s) = 3.49702 3.67061 3.58487
# Velocity P-wave (km/s) = 5.51584 6.08093 5.80526
#
# Compressibility (1/GPa) = 0.03114527
#
# Stress axis : x y z
#
# Youngs Moduli (GPa) = 119.20047 67.19762 47.35181
#
# Poissons Ratio (x) = 0.25963 0.12854
# Poissons Ratio (y) = 0.46055 0.00207
# Poissons Ratio (z) = 0.32359 0.00294
#
# Static dielectric constant tensor:
#      x y z
#    x 1.816150 0.000000 0.000000 
#    y 0.000000 1.891730 0.000000 
#    z 0.000000 0.000000 1.944390 
# 
# From -- ./inp_files/6079.got.cif
#   From: 2010.05.17/outbox.cif.g08.bks.cpg/sg36_4_cif.got.tgz:6079.got - 2010.06.03 17:41:39.
