data_PCOD9352845
_publ_section_title
;
Structure prediction by ZEFSAII (Michael W. Deem and Ramdas Pophale) SiO2 
 PCOD9352845
Probable space group: C M C 21
;
_chemical_formula_sum "Si O2"
_cell_formula_units_Z 48
_cell_length_a 13.896459
_cell_length_b 23.575849
_cell_length_c 5.982130
_cell_angle_alpha 90.000000
_cell_angle_beta 90.000000
_cell_angle_gamma 90.000000
_cell_volume 1959.870330
_symmetry_space_group_name_H-M "C M C 21"
_symmetry_group_IT_number 36
_symmetry_cell_setting 'orthorhombic'
loop_
_space_group_symop_operation_xyz
x,y,z
-x,-y,1/2+z
x,-y,1/2+z
-x,y,z
1/2+x,1/2+y,z
1/2-x,1/2-y,1/2+z
1/2+x,1/2-y,1/2+z
1/2-x,1/2+y,z
loop_
_atom_site_type_symbol
_atom_site_label
_atom_site_fract_x
_atom_site_fract_y
_atom_site_fract_z
Si Si1 0.611367 0.740749 0.586310
Si Si2 0.891965 0.932624 0.175989
Si Si3 0.231451 0.143579 0.379227
Si Si4 0.707687 0.024630 0.859719
Si Si5 0.887641 0.630049 0.060953
Si Si6 0.897284 0.822558 0.485350
O O1 0.500000 0.722309 0.539895
O O2 0.696717 0.698427 0.516907
O O3 0.620751 0.803731 0.495328
O O4 0.614922 0.736204 0.855426
O O5 0.823885 0.970526 0.333484
O O6 0.903033 0.873629 0.310156
O O7 0.000000 0.953782 0.126108
O O8 0.827462 0.910520 0.969067
O O9 0.338529 0.126743 0.308146
O O10 0.187725 0.161697 0.143040
O O11 0.680116 0.000790 0.609041
O O12 0.665347 0.088139 0.889167
O O13 0.000000 0.615562 0.072048
O O14 0.000000 0.821993 0.605459
#
# Coordination Sequence:
#
# PCOD9352845 Si02
#       6
#     8   8   8   8   8   8
#     4   9  21  39  63 106 155 198 253 313 390 485
#     4  10  22  42  72 111 153 193 239 308 400 494
#     4  11  20  38  71 107 157 204 245 307 393 484
#     4  12  28  53  79 107 144 198 266 337 405 458
#     4  11  26  48  71 104 148 205 277 337 389 462
#     4   9  17  34  64 103 147 192 234 290 377 481
#
# _framework density 24.491413999999999
#
# number of rings (size 3 to 8) (size 9 to 14) (size 15 to 20)
#    0.000    1.667    1.667    3.500    2.333    1.333 
#    3.000    2.500    0.000    0.000    0.000    0.000 
#    0.000    0.000    0.000    0.000    0.000    0.000 
#
# Total GULP energy -133750.048479 kJ/mol
# GULP energy per Si atom -5572.918687 kJ/mol
# Density = 2.443567 g / cm^3
# Si number density = 24.491414 Si / 1000 Ang^3
#
#
#
# Elastic Constant Matrix: (Units=GPa)
#
#
# Indices 1 2 3 4 5 6 
#
# 1 133.5350 14.9691 23.9105 0.0000 0.0000 0.0000
# 2 14.9691 102.9094 40.7533 0.0000 0.0000 0.0000
# 3 23.9105 40.7533 96.8603 0.0000 0.0000 0.0000
# 4 0.0000 0.0000 0.0000 30.0993 0.0000 0.0000
# 5 0.0000 0.0000 0.0000 0.0000 49.1991 0.0000
# 6 0.0000 0.0000 0.0000 0.0000 0.0000 28.4969
#
#
#
# Elastic Compliance Matrix: (Units=1/GPa)
#
#
# Indices 1 2 3 4 5 6 
#
# 1 0.007852 -0.000449 -0.001749 0.000000 0.000000 0.000000
# 2 -0.000449 0.011686 -0.004806 0.000000 0.000000 0.000000
# 3 -0.001749 -0.004806 0.012778 0.000000 0.000000 0.000000
# 4 0.000000 0.000000 0.000000 0.033223 0.000000 0.000000
# 5 0.000000 0.000000 0.000000 0.000000 0.020326 0.000000
# 6 0.000000 0.000000 0.000000 0.000000 0.000000 0.035092
#
#
# Mechanical properties :
#
#
# Convention : Reuss Voigt Hill
#
# Bulk Modulus (GPa) = 54.62381 54.73009 54.67695
# Shear Modulus (GPa) = 35.44395 38.47053 36.95724
#
# Velocity S-wave (km/s) = 3.80833 3.96760 3.88878
# Velocity P-wave (km/s) = 6.45674 6.58668 6.52203
#
# Compressibility (1/GPa) = 0.01830704
#
# Stress axis : x y z
#
# Youngs Moduli (GPa) = 127.35154 85.57394 78.25977
#
# Poissons Ratio (x) = 0.03846 0.13690
# Poissons Ratio (y) = 0.05724 0.37610
# Poissons Ratio (z) = 0.22277 0.41125
#
# Static dielectric constant tensor:
#      x y z
#    x 1.285740 0.000000 0.000000 
#    y 0.000000 2.008690 0.000000 
#    z 0.000000 0.000000 2.060230 
# 
# From -- ./inp_files/822.got.cif
#   From: 2010.05.17/outbox.cif.g08.bks.cpg/sg36_1_cif.got.tgz:822.got - 2010.06.03 17:41:39.
