data_PCOD9352203
_publ_section_title
;
Structure prediction by ZEFSAII (Michael W. Deem and Ramdas Pophale) SiO2 
 PCOD9352203
Probable space group: C M C 21
;
_chemical_formula_sum "Si O2"
_cell_formula_units_Z 64
_cell_length_a 8.982841
_cell_length_b 29.230592
_cell_length_c 14.231350
_cell_angle_alpha 90.000000
_cell_angle_beta 90.000000
_cell_angle_gamma 90.000000
_cell_volume 3736.779083
_symmetry_space_group_name_H-M "C M C 21"
_symmetry_group_IT_number 36
_symmetry_cell_setting 'orthorhombic'
loop_
_space_group_symop_operation_xyz
x,y,z
-x,-y,1/2+z
x,-y,1/2+z
-x,y,z
1/2+x,1/2+y,z
1/2-x,1/2-y,1/2+z
1/2+x,1/2-y,1/2+z
1/2-x,1/2+y,z
loop_
_atom_site_type_symbol
_atom_site_label
_atom_site_fract_x
_atom_site_fract_y
_atom_site_fract_z
Si Si1 0.821448 0.761337 0.422380
Si Si2 0.177945 0.579791 0.104266
Si Si3 0.179267 0.237996 0.709109
Si Si4 0.820684 0.178887 0.530975
Si Si5 0.173051 0.964848 0.780559
Si Si6 0.174445 0.078857 0.471381
Si Si7 0.821783 0.821059 0.601357
Si Si8 0.823089 0.488374 0.443210
O O1 0.778900 0.772934 0.315960
O O2 0.747402 0.714326 0.456755
O O3 0.782667 0.799910 0.498966
O O4 0.000000 0.755728 0.425699
O O5 0.236948 0.548251 0.188850
O O6 0.252530 0.629158 0.112455
O O7 0.000000 0.583696 0.109811
O O8 0.216578 0.555230 0.005708
O O9 0.219280 0.198857 0.633513
O O10 0.255863 0.284685 0.675021
O O11 0.000000 0.243732 0.704716
O O12 0.772897 0.126933 0.511787
O O13 0.000000 0.179654 0.522399
O O14 0.182676 0.923257 0.857165
O O15 0.000000 0.972715 0.759430
O O16 0.241066 0.006058 0.843030
O O17 0.000000 0.072009 0.495643
O O18 0.268652 0.034145 0.498387
O O19 0.000000 0.823152 0.609990
O O20 0.000000 0.490032 0.430070
#
# Coordination Sequence:
#
# PCOD9352203 Si02
#       8
#     8   8   8   8   8   8   8   8
#     4   9  19  34  50  73 104 136 171 214 261 310
#     4  11  22  36  56  79 107 143 180 219 265 317
#     4   9  18  33  52  73 101 137 175 212 258 316
#     4   9  17  31  51  73 100 133 168 209 256 308
#     4   9  19  34  54  79 105 132 170 216 262 311
#     4   8  17  32  50  75 102 129 167 213 260 309
#     4  10  21  35  52  77 108 139 177 221 264 313
#     4   9  19  35  53  75 105 137 170 216 266 314
#
# _framework density 17.127050000000001
#
# number of rings (size 3 to 8) (size 9 to 14) (size 15 to 20)
#    0.750    2.000    0.000    1.125    1.750    3.500 
#    0.000    1.250    0.000    1.500    0.000    0.000 
#    0.000    0.000    0.000    0.000    0.000    0.000 
#
# Total GULP energy -178157.026628 kJ/mol
# GULP energy per Si atom -5567.407082 kJ/mol
# Density = 1.708807 g / cm^3
# Si number density = 17.127050 Si / 1000 Ang^3
#
#
#
# Elastic Constant Matrix: (Units=GPa)
#
#
# Indices 1 2 3 4 5 6 
#
# 1 28.9065 8.9460 16.4924 0.0000 0.0000 0.0000
# 2 8.9460 21.4955 -2.6260 0.0000 0.0000 0.0000
# 3 16.4924 -2.6260 66.4439 0.0000 0.0000 0.0000
# 4 0.0000 0.0000 0.0000 9.7641 0.0000 0.0000
# 5 0.0000 0.0000 0.0000 0.0000 22.1859 0.0000
# 6 0.0000 0.0000 0.0000 0.0000 0.0000 23.3746
#
#
#
# Elastic Compliance Matrix: (Units=1/GPa)
#
#
# Indices 1 2 3 4 5 6 
#
# 1 0.048765 -0.021879 -0.012969 0.000000 0.000000 0.000000
# 2 -0.021879 0.056564 0.007666 0.000000 0.000000 0.000000
# 3 -0.012969 0.007666 0.018572 0.000000 0.000000 0.000000
# 4 0.000000 0.000000 0.000000 0.102416 0.000000 0.000000
# 5 0.000000 0.000000 0.000000 0.000000 0.045074 0.000000
# 6 0.000000 0.000000 0.000000 0.000000 0.000000 0.042782
#
#
# Mechanical properties :
#
#
# Convention : Reuss Voigt Hill
#
# Bulk Modulus (GPa) = 14.38084 18.05230 16.21657
# Shear Modulus (GPa) = 12.76437 17.33380 15.04909
#
# Velocity S-wave (km/s) = 2.73294 3.18476 2.96746
# Velocity P-wave (km/s) = 4.28642 4.90782 4.60761
#
# Compressibility (1/GPa) = 0.06953697
#
# Stress axis : x y z
#
# Youngs Moduli (GPa) = 20.50656 17.67923 53.84341
#
# Poissons Ratio (x) = 0.38681 0.69829
# Poissons Ratio (y) = 0.44867 -0.41278
# Poissons Ratio (z) = 0.26595 -0.13553
#
# Static dielectric constant tensor:
#      x y z
#    x 1.569970 0.000000 0.000000 
#    y 0.000000 1.561190 0.000000 
#    z 0.000000 0.000000 1.592340 
# 
# From -- ./inp_files/11209.got.cif
#   From: 2010.05.17/outbox.cif.g08.bks.cpg/sg36_6_cif.got.tgz:11209.got - 2010.06.03 17:41:39.
