data_PCOD9352439
_publ_section_title
;
Structure prediction by ZEFSAII (Michael W. Deem and Ramdas Pophale) SiO2 
 PCOD9352439
Probable space group: C M C 21
;
_chemical_formula_sum "Si O2"
_cell_formula_units_Z 40
_cell_length_a 14.955282
_cell_length_b 10.101205
_cell_length_c 11.874420
_cell_angle_alpha 90.000000
_cell_angle_beta 90.000000
_cell_angle_gamma 90.000000
_cell_volume 1793.825517
_symmetry_space_group_name_H-M "C M C 21"
_symmetry_group_IT_number 36
_symmetry_cell_setting 'orthorhombic'
loop_
_space_group_symop_operation_xyz
x,y,z
-x,-y,1/2+z
x,-y,1/2+z
-x,y,z
1/2+x,1/2+y,z
1/2-x,1/2-y,1/2+z
1/2+x,1/2-y,1/2+z
1/2-x,1/2+y,z
loop_
_atom_site_type_symbol
_atom_site_label
_atom_site_fract_x
_atom_site_fract_y
_atom_site_fract_z
Si Si1 0.000000 0.498116 0.595371
Si Si2 0.698659 0.488040 0.869911
Si Si3 0.500000 0.534880 0.407664
Si Si4 0.345239 0.094511 0.709178
Si Si5 0.000000 0.755769 0.477933
Si Si6 0.500000 0.825947 0.379183
Si Si7 0.804685 0.257043 0.981472
O O1 0.907188 0.476350 0.657790
O O2 0.000000 0.659048 0.584223
O O3 0.000000 0.439376 0.472365
O O4 0.593493 0.482519 0.843095
O O5 0.758449 0.534410 0.766691
O O6 0.734783 0.350750 0.919249
O O7 0.714365 0.602703 0.964104
O O8 0.500000 0.413737 0.496854
O O9 0.500000 0.686610 0.444573
O O10 0.411514 0.158313 0.802512
O O11 0.315448 0.194197 0.609778
O O12 0.903813 0.723481 0.424597
#
# Coordination Sequence:
#
# PCOD9352439 Si02
#       7
#     4   8   4   8   4   4   8
#     4   9  19  38  68  97 121 161 218 266 317 386
#     4  11  23  41  64  90 128 170 213 265 318 380
#     4  10  23  40  59  88 126 166 204 256 321 376
#     4  10  21  38  66  94 126 167 210 264 328 383
#     4   8  17  38  61  83 121 159 192 251 324 376
#     4  11  21  40  68  96 124 162 212 267 318 386
#     4  10  22  40  63  92 123 163 211 261 320 387
#
# _framework density 22.298711999999998
#
# number of rings (size 3 to 8) (size 9 to 14) (size 15 to 20)
#    0.000    2.000    0.000    4.200    0.000    4.000 
#    0.000    1.000    0.000   28.800    0.000    0.000 
#    0.000    0.000    0.000    0.000    0.000    0.000 
#
# Total GULP energy -111496.189217 kJ/mol
# GULP energy per Si atom -5574.809461 kJ/mol
# Density = 2.224796 g / cm^3
# Si number density = 22.298712 Si / 1000 Ang^3
#
#
#
# Elastic Constant Matrix: (Units=GPa)
#
#
# Indices 1 2 3 4 5 6 
#
# 1 145.4469 35.3483 28.6247 0.0000 0.0000 0.0000
# 2 35.3483 90.4005 25.6929 0.0000 0.0000 0.0000
# 3 28.6247 25.6929 69.4042 0.0000 0.0000 0.0000
# 4 0.0000 0.0000 0.0000 -5.5459 0.0000 0.0000
# 5 0.0000 0.0000 0.0000 0.0000 27.8333 0.0000
# 6 0.0000 0.0000 0.0000 0.0000 0.0000 24.6193
#
#
#
# Elastic Compliance Matrix: (Units=1/GPa)
#
#
# Indices 1 2 3 4 5 6 
#
# 1 0.007932 -0.002427 -0.002373 0.000000 0.000000 0.000000
# 2 -0.002427 0.013105 -0.003850 0.000000 0.000000 0.000000
# 3 -0.002373 -0.003850 0.016812 0.000000 0.000000 0.000000
# 4 0.000000 0.000000 0.000000 -0.180313 0.000000 0.000000
# 5 0.000000 0.000000 0.000000 0.000000 0.035928 0.000000
# 6 0.000000 0.000000 0.000000 0.000000 0.000000 0.040618
#
#
# Mechanical properties :
#
#
# Convention : Reuss Voigt Hill
#
# Bulk Modulus (GPa) = 48.66479 53.84262 51.25370
# Shear Modulus (GPa) = -119.71705 23.75371 -47.98167
#
# Velocity S-wave (km/s) = -7.33515 3.26736 -4.64375
# Velocity P-wave (km/s) = 7.06172 6.19941 2.39115
#
# Compressibility (1/GPa) = 0.02054874
#
# Stress axis : x y z
#
# Youngs Moduli (GPa) = 126.06712 76.30489 59.47968
#
# Poissons Ratio (x) = 0.18521 0.14115
# Poissons Ratio (y) = 0.30599 0.22902
# Poissons Ratio (z) = 0.29916 0.29381
#
# Static dielectric constant tensor:
#      x y z
#    x 1.909580 0.000000 0.000000 
#    y 0.000000 1.848890 0.000000 
#    z 0.000000 0.000000 1.807480 
# 
# From -- ./inp_files/11980.got.cif
#   From: 2010.05.17/outbox.cif.g08.bks.cpg/sg36_6_cif.got.tgz:11980.got - 2010.06.03 17:41:39.
