data_PCOD9352039
_publ_section_title
;
Structure prediction by ZEFSAII (Michael W. Deem and Ramdas Pophale) SiO2 
 PCOD9352039
Probable space group: C M C 21
;
_chemical_formula_sum "Si O2"
_cell_formula_units_Z 64
_cell_length_a 28.527757
_cell_length_b 10.521639
_cell_length_c 9.552736
_cell_angle_alpha 90.000000
_cell_angle_beta 90.000000
_cell_angle_gamma 90.000000
_cell_volume 2867.337398
_symmetry_space_group_name_H-M "C M C 21"
_symmetry_group_IT_number 36
_symmetry_cell_setting 'orthorhombic'
loop_
_space_group_symop_operation_xyz
x,y,z
-x,-y,1/2+z
x,-y,1/2+z
-x,y,z
1/2+x,1/2+y,z
1/2-x,1/2-y,1/2+z
1/2+x,1/2-y,1/2+z
1/2-x,1/2+y,z
loop_
_atom_site_type_symbol
_atom_site_label
_atom_site_fract_x
_atom_site_fract_y
_atom_site_fract_z
Si Si1 0.161346 0.487637 0.669380
Si Si2 0.947460 0.354369 0.412304
Si Si3 0.380340 0.463281 0.784057
Si Si4 0.623897 0.336981 0.065277
Si Si5 0.225364 0.710288 0.042632
Si Si6 0.196959 0.744403 0.750597
Si Si7 0.945844 0.781464 0.620891
Si Si8 0.896213 0.395246 0.918027
O O1 0.209482 0.418736 0.622806
O O2 0.166079 0.617456 0.756904
O O3 0.139040 0.537174 0.526424
O O4 0.129261 0.396970 0.767149
O O5 0.910813 0.272358 0.505369
O O6 0.943247 0.321335 0.247481
O O7 0.938671 0.504142 0.418901
O O8 0.000000 0.320736 0.457680
O O9 0.378820 0.601983 0.718033
O O10 0.335311 0.370280 0.752947
O O11 0.423701 0.399804 0.702488
O O12 0.384422 0.449332 0.950660
O O13 0.677294 0.290051 0.053352
O O14 0.272087 0.758269 0.113070
O O15 0.232839 0.719811 0.877247
O O16 0.915048 0.731861 0.491204
O O17 0.000000 0.800642 0.581813
#
# Coordination Sequence:
#
# PCOD9352039 Si02
#       8
#     8   8   8   8   8   8   8   8
#     4  12  23  42  68  92 132 166 207 265 323 383
#     4  10  20  38  63  91 127 167 207 262 321 379
#     4  10  22  42  62  85 124 166 208 259 311 374
#     4  10  22  42  61  87 123 165 210 257 312 375
#     4  11  26  43  65  94 126 167 214 263 323 384
#     4  11  25  43  63  94 126 166 215 263 322 383
#     4  10  21  38  63  94 126 165 210 260 320 381
#     4  12  20  40  66  93 128 166 206 259 327 383
#
# _framework density 22.320357999999999
#
# number of rings (size 3 to 8) (size 9 to 14) (size 15 to 20)
#    0.000    1.250    5.000    1.125    3.500    2.500 
#    0.000    0.000    0.000    0.000    0.000    0.000 
#    0.000    0.000    0.000    0.000    0.000    0.000 
#
# Total GULP energy -178523.253002 kJ/mol
# GULP energy per Si atom -5578.851656 kJ/mol
# Density = 2.226956 g / cm^3
# Si number density = 22.320358 Si / 1000 Ang^3
#
#
#
# Elastic Constant Matrix: (Units=GPa)
#
#
# Indices 1 2 3 4 5 6 
#
# 1 60.0768 -3.5429 9.3402 0.0000 0.0000 0.0000
# 2 -3.5429 45.0767 1.7148 0.0000 0.0000 0.0000
# 3 9.3402 1.7148 90.4450 0.0000 0.0000 0.0000
# 4 0.0000 0.0000 0.0000 34.4471 0.0000 0.0000
# 5 0.0000 0.0000 0.0000 0.0000 31.5081 0.0000
# 6 0.0000 0.0000 0.0000 0.0000 0.0000 5.4344
#
#
#
# Elastic Compliance Matrix: (Units=1/GPa)
#
#
# Indices 1 2 3 4 5 6 
#
# 1 0.017005 0.001404 -0.001783 0.000000 0.000000 0.000000
# 2 0.001404 0.022316 -0.000568 0.000000 0.000000 0.000000
# 3 -0.001783 -0.000568 0.011251 0.000000 0.000000 0.000000
# 4 0.000000 0.000000 0.000000 0.029030 0.000000 0.000000
# 5 0.000000 0.000000 0.000000 0.000000 0.031738 0.000000
# 6 0.000000 0.000000 0.000000 0.000000 0.000000 0.184014
#
#
# Mechanical properties :
#
#
# Convention : Reuss Voigt Hill
#
# Bulk Modulus (GPa) = 20.54228 23.40252 21.97240
# Shear Modulus (GPa) = 15.95025 26.81702 21.38364
#
# Velocity S-wave (km/s) = 2.67611 3.46997 3.09857
# Velocity P-wave (km/s) = 4.33268 5.15382 4.76099
#
# Compressibility (1/GPa) = 0.04868008
#
# Stress axis : x y z
#
# Youngs Moduli (GPa) = 58.80500 44.81010 88.87850
#
# Poissons Ratio (x) = -0.06293 0.15845
# Poissons Ratio (y) = -0.08259 0.05050
# Poissons Ratio (z) = 0.10484 0.02546
#
# Static dielectric constant tensor:
#      x y z
#    x 1.801770 0.000000 0.000000 
#    y 0.000000 1.871640 0.000000 
#    z 0.000000 0.000000 1.858160 
# 
# From -- ./inp_files/6092.got.cif
#   From: 2010.05.17/outbox.cif.g08.bks.cpg/sg36_4_cif.got.tgz:6092.got - 2010.06.03 17:41:39.
