data_PCOD9352103
_publ_section_title
;
Structure prediction by ZEFSAII (Michael W. Deem and Ramdas Pophale) SiO2 
 PCOD9352103
Probable space group: C M C 21
;
_chemical_formula_sum "Si O2"
_cell_formula_units_Z 40
_cell_length_a 17.981510
_cell_length_b 7.521966
_cell_length_c 12.551707
_cell_angle_alpha 90.000000
_cell_angle_beta 90.000000
_cell_angle_gamma 90.000000
_cell_volume 1697.697533
_symmetry_space_group_name_H-M "C M C 21"
_symmetry_group_IT_number 36
_symmetry_cell_setting 'orthorhombic'
loop_
_space_group_symop_operation_xyz
x,y,z
-x,-y,1/2+z
x,-y,1/2+z
-x,y,z
1/2+x,1/2+y,z
1/2-x,1/2-y,1/2+z
1/2+x,1/2-y,1/2+z
1/2-x,1/2+y,z
loop_
_atom_site_type_symbol
_atom_site_label
_atom_site_fract_x
_atom_site_fract_y
_atom_site_fract_z
Si Si1 0.500000 0.045057 0.743420
Si Si2 0.150014 0.739234 0.783921
Si Si3 0.817064 0.148834 0.739366
Si Si4 0.349986 0.239233 0.464375
Si Si5 0.682936 0.351166 0.008931
Si Si6 0.000000 0.545057 0.504876
O O1 0.576180 0.156020 0.739490
O O2 0.500000 0.945014 0.624148
O O3 0.500000 1.000000 0.874148
O O4 0.227635 0.650029 0.750421
O O5 0.149922 0.738373 0.912657
O O6 0.156960 0.946096 0.751737
O O7 0.850078 0.261628 0.835639
O O8 0.837289 0.219965 0.624148
O O9 0.343040 0.446095 0.496559
O O10 0.272365 0.150028 0.497875
O O11 0.423820 0.156019 0.508806
#
# Coordination Sequence:
#
# PCOD9352103 Si02
#       6
#     4   8   8   8   8   4
#     4  12  28  47  66  96 138 178 218 276 341 395
#     4  10  24  41  65  97 131 173 219 270 330 390
#     4  10  20  39  68  97 128 170 222 272 321 389
#     4  10  24  41  65  97 131 173 219 270 330 390
#     4  10  20  39  68  97 128 170 222 272 321 389
#     4  12  28  47  66  96 138 178 218 276 341 395
#
# _framework density 23.561321
#
# number of rings (size 3 to 8) (size 9 to 14) (size 15 to 20)
#    0.000    1.600    0.000    3.600   11.200    4.800 
#    0.000    2.000    0.000    0.000    0.000    0.000 
#    0.000    0.000    0.000    0.000    0.000    0.000 
#
# Total GULP energy -111720.400083 kJ/mol
# GULP energy per Si atom -5586.020004 kJ/mol
# Density = 2.350769 g / cm^3
# Si number density = 23.561321 Si / 1000 Ang^3
#
#
#
# Elastic Constant Matrix: (Units=GPa)
#
#
# Indices 1 2 3 4 5 6 
#
# 1 119.8033 26.4748 29.6544 0.0000 0.0000 0.0000
# 2 26.4748 39.1077 16.4996 0.0000 0.0000 0.0000
# 3 29.6544 16.4996 263.8752 0.0000 0.0000 0.0000
# 4 0.0000 0.0000 0.0000 10.0874 0.0000 0.0000
# 5 0.0000 0.0000 0.0000 0.0000 -30.5122 0.0000
# 6 0.0000 0.0000 0.0000 0.0000 0.0000 -20.8145
#
#
#
# Elastic Compliance Matrix: (Units=1/GPa)
#
#
# Indices 1 2 3 4 5 6 
#
# 1 0.009945 -0.006431 -0.000716 0.000000 0.000000 0.000000
# 2 -0.006431 0.030421 -0.001179 0.000000 0.000000 0.000000
# 3 -0.000716 -0.001179 0.003944 0.000000 0.000000 0.000000
# 4 0.000000 0.000000 0.000000 0.099134 0.000000 0.000000
# 5 0.000000 0.000000 0.000000 0.000000 -0.032774 0.000000
# 6 0.000000 0.000000 0.000000 0.000000 0.000000 -0.048043
#
#
# Mechanical properties :
#
#
# Convention : Reuss Voigt Hill
#
# Bulk Modulus (GPa) = 36.15469 63.11598 49.63534
# Shear Modulus (GPa) = 56.49830 15.09597 35.79714
#
# Velocity S-wave (km/s) = 4.90217 2.53397 3.90207
# Velocity P-wave (km/s) = 6.88622 5.95042 6.43535
#
# Compressibility (1/GPa) = 0.02765893
#
# Stress axis : x y z
#
# Youngs Moduli (GPa) = 100.55069 32.87154 253.56029
#
# Poissons Ratio (x) = 0.21139 0.18143
# Poissons Ratio (y) = 0.64662 0.29907
# Poissons Ratio (z) = 0.07195 0.03877
#
# Static dielectric constant tensor:
#      x y z
#    x 1.791130 0.000000 0.000000 
#    y 0.000000 1.884290 0.000000 
#    z 0.000000 0.000000 2.038130 
# 
# From -- ./inp_files/8793.got.cif
#   From: 2010.05.17/outbox.cif.g08.bks.cpg/sg36_5_cif.got.tgz:8793.got - 2010.06.03 17:41:39.
