data_PCOD9352296
_publ_section_title
;
Structure prediction by ZEFSAII (Michael W. Deem and Ramdas Pophale) SiO2 
 PCOD9352296
Probable space group: C M C 21
;
_chemical_formula_sum "Si O2"
_cell_formula_units_Z 48
_cell_length_a 13.703039
_cell_length_b 33.248207
_cell_length_c 4.873913
_cell_angle_alpha 90.000000
_cell_angle_beta 90.000000
_cell_angle_gamma 90.000000
_cell_volume 2220.561963
_symmetry_space_group_name_H-M "C M C 21"
_symmetry_group_IT_number 36
_symmetry_cell_setting 'orthorhombic'
loop_
_space_group_symop_operation_xyz
x,y,z
-x,-y,1/2+z
x,-y,1/2+z
-x,y,z
1/2+x,1/2+y,z
1/2-x,1/2-y,1/2+z
1/2+x,1/2-y,1/2+z
1/2-x,1/2+y,z
loop_
_atom_site_type_symbol
_atom_site_label
_atom_site_fract_x
_atom_site_fract_y
_atom_site_fract_z
Si Si1 0.115970 0.474760 0.047300
Si Si2 0.500000 0.759606 0.540120
Si Si3 0.203456 0.644800 0.366691
Si Si4 0.000000 0.316590 0.041767
Si Si5 0.205225 0.228573 0.358120
Si Si6 0.239198 0.407841 0.351343
Si Si7 0.115845 0.026713 0.078139
O O1 0.140511 0.513595 0.236581
O O2 0.168140 0.437451 0.183966
O O3 0.000000 0.468812 0.063975
O O4 0.500000 0.777210 0.845733
O O5 0.596520 0.734570 0.469820
O O6 0.500000 0.799562 0.349228
O O7 0.262346 0.684223 0.272010
O O8 0.263012 0.624881 0.617783
O O9 0.097342 0.658202 0.476403
O O10 0.192989 0.614810 0.111058
O O11 0.276502 0.242040 0.603695
O O12 0.326162 0.434990 0.470866
O O13 0.000000 0.033912 0.057367
O O14 0.138680 0.988254 0.884072
#
# Coordination Sequence:
#
# PCOD9352296 Si02
#       7
#     8   4   8   4   8   8   8
#     4  10  21  37  57  83 115 156 202 240 283 353
#     4  12  22  44  74  90 120 171 216 277 308 382
#     4  12  26  40  63  94 131 160 204 263 314 385
#     4  12  24  42  68  94 120 173 220 249 320 380
#     4  12  23  45  67  96 126 165 221 260 319 381
#     4  12  24  40  61  92 129 165 194 258 322 365
#     4  10  21  41  69  93 119 165 221 263 306 377
#
# _framework density 21.616150000000001
#
# number of rings (size 3 to 8) (size 9 to 14) (size 15 to 20)
#    0.000    0.667    3.333    5.000    2.333    0.000 
#    3.000    0.000    0.000    0.000    0.000    0.000 
#    0.000    0.000    0.000    0.000    0.000    0.000 
#
# Total GULP energy -134381.395924 kJ/mol
# GULP energy per Si atom -5599.224830 kJ/mol
# Density = 2.156695 g / cm^3
# Si number density = 21.616150 Si / 1000 Ang^3
#
#
#
# Elastic Constant Matrix: (Units=GPa)
#
#
# Indices 1 2 3 4 5 6 
#
# 1 70.7671 22.9511 -14.0916 0.0000 0.0000 0.0000
# 2 22.9511 69.7886 -4.1159 0.0000 0.0000 0.0000
# 3 -14.0916 -4.1159 77.1481 0.0000 0.0000 0.0000
# 4 0.0000 0.0000 0.0000 32.9313 0.0000 0.0000
# 5 0.0000 0.0000 0.0000 0.0000 24.8069 0.0000
# 6 0.0000 0.0000 0.0000 0.0000 0.0000 15.1899
#
#
#
# Elastic Compliance Matrix: (Units=1/GPa)
#
#
# Indices 1 2 3 4 5 6 
#
# 1 0.016364 -0.005222 0.002710 0.000000 0.000000 0.000000
# 2 -0.005222 0.016040 -0.000098 0.000000 0.000000 0.000000
# 3 0.002710 -0.000098 0.013452 0.000000 0.000000 0.000000
# 4 0.000000 0.000000 0.000000 0.030366 0.000000 0.000000
# 5 0.000000 0.000000 0.000000 0.000000 0.040311 0.000000
# 6 0.000000 0.000000 0.000000 0.000000 0.000000 0.065833
#
#
# Mechanical properties :
#
#
# Convention : Reuss Voigt Hill
#
# Bulk Modulus (GPa) = 24.60765 25.24346 24.92555
# Shear Modulus (GPa) = 24.85929 28.78296 26.82112
#
# Velocity S-wave (km/s) = 3.39489 3.65300 3.52631
# Velocity P-wave (km/s) = 5.17452 5.43102 5.30432
#
# Compressibility (1/GPa) = 0.04063777
#
# Stress axis : x y z
#
# Youngs Moduli (GPa) = 61.10945 62.34231 74.33883
#
# Poissons Ratio (x) = 0.32554 -0.20149
# Poissons Ratio (y) = 0.31910 0.00729
# Poissons Ratio (z) = -0.16563 0.00611
#
# Static dielectric constant tensor:
#      x y z
#    x 1.774510 0.000000 0.000000 
#    y 0.000000 1.784190 0.000000 
#    z 0.000000 0.000000 1.765290 
# 
# From -- ./inp_files/846.got.cif
#   From: 2010.05.17/outbox.cif.g08.bks.cpg/sg36_1_cif.got.tgz:846.got - 2010.06.03 17:41:39.
