data_PCOD9352063
_publ_section_title
;
Structure prediction by ZEFSAII (Michael W. Deem and Ramdas Pophale) SiO2 
 PCOD9352063
Probable space group: C M C 21
;
_chemical_formula_sum "Si O2"
_cell_formula_units_Z 56
_cell_length_a 14.361733
_cell_length_b 11.162583
_cell_length_c 14.400437
_cell_angle_alpha 90.000000
_cell_angle_beta 90.000000
_cell_angle_gamma 90.000000
_cell_volume 2308.592185
_symmetry_space_group_name_H-M "C M C 21"
_symmetry_group_IT_number 36
_symmetry_cell_setting 'orthorhombic'
loop_
_space_group_symop_operation_xyz
x,y,z
-x,-y,1/2+z
x,-y,1/2+z
-x,y,z
1/2+x,1/2+y,z
1/2-x,1/2-y,1/2+z
1/2+x,1/2-y,1/2+z
1/2-x,1/2+y,z
loop_
_atom_site_type_symbol
_atom_site_label
_atom_site_fract_x
_atom_site_fract_y
_atom_site_fract_z
Si Si1 0.757554 0.498886 0.964850
Si Si2 0.845433 0.114556 0.301714
Si Si3 0.891335 0.052468 0.626160
Si Si4 0.226632 0.287981 0.658893
Si Si5 0.901483 0.501687 0.712254
Si Si6 0.893424 0.311922 0.046913
Si Si7 0.599190 0.841943 0.399001
O O1 0.705476 0.478503 0.868058
O O2 0.815547 0.622247 0.963850
O O3 0.678398 0.483339 0.042574
O O4 0.838031 0.396104 0.974472
O O5 0.776490 0.214346 0.258879
O O6 0.903375 0.204519 0.366404
O O7 0.885767 0.039326 0.214640
O O8 0.847835 0.182006 0.651422
O O9 0.000000 0.059001 0.598864
O O10 0.176507 0.415256 0.672058
O O11 0.312446 0.274512 0.586583
O O12 0.906809 0.605348 0.636738
O O13 0.892238 0.568855 0.810429
O O14 0.000000 0.434253 0.715768
O O15 0.000000 0.270747 0.020846
O O16 0.500000 0.869584 0.445879
#
# Coordination Sequence:
#
# PCOD9352063 Si02
#       7
#     8   8   8   8   8   8   8
#     4  11  25  44  71 106 146 184 238 299 368 426
#     4  12  24  44  71 103 141 192 238 301 356 431
#     4  11  27  48  72 106 147 192 238 295 370 440
#     4  11  20  40  70  98 135 183 230 288 350 416
#     4  10  20  38  68  99 131 180 235 286 346 418
#     4  10  22  41  66 101 139 178 231 292 353 422
#     4  11  23  43  71 103 137 183 239 297 356 421
#
# _framework density 24.257209
#
# number of rings (size 3 to 8) (size 9 to 14) (size 15 to 20)
#    0.000    1.143    2.857    3.857    0.000    6.286 
#    0.000    0.000    0.000    0.857    0.000    0.000 
#    0.000    0.000    0.000    0.000    0.000    0.000 
#
# Total GULP energy -156249.239051 kJ/mol
# GULP energy per Si atom -5580.329966 kJ/mol
# Density = 2.420200 g / cm^3
# Si number density = 24.257209 Si / 1000 Ang^3
#
#
#
# Elastic Constant Matrix: (Units=GPa)
#
#
# Indices 1 2 3 4 5 6 
#
# 1 221.1028 57.6858 39.1642 0.0000 0.0000 0.0000
# 2 57.6858 88.8972 -1.3556 0.0000 0.0000 0.0000
# 3 39.1642 -1.3556 54.5465 0.0000 0.0000 0.0000
# 4 0.0000 0.0000 0.0000 35.0040 0.0000 0.0000
# 5 0.0000 0.0000 0.0000 0.0000 17.9969 0.0000
# 6 0.0000 0.0000 0.0000 0.0000 0.0000 35.8010
#
#
#
# Elastic Compliance Matrix: (Units=1/GPa)
#
#
# Indices 1 2 3 4 5 6 
#
# 1 0.006482 -0.004279 -0.004761 0.000000 0.000000 0.000000
# 2 -0.004279 0.014078 0.003422 0.000000 0.000000 0.000000
# 3 -0.004761 0.003422 0.021836 0.000000 0.000000 0.000000
# 4 0.000000 0.000000 0.000000 0.028568 0.000000 0.000000
# 5 0.000000 0.000000 0.000000 0.000000 0.055565 0.000000
# 6 0.000000 0.000000 0.000000 0.000000 0.000000 0.027932
#
#
# Mechanical properties :
#
#
# Convention : Reuss Voigt Hill
#
# Bulk Modulus (GPa) = 32.09098 61.72612 46.90855
# Shear Modulus (GPa) = 28.39545 35.69718 32.04631
#
# Velocity S-wave (km/s) = 3.42511 3.84032 3.63864
# Velocity P-wave (km/s) = 5.37588 6.72055 6.08547
#
# Compressibility (1/GPa) = 0.03116141
#
# Stress axis : x y z
#
# Youngs Moduli (GPa) = 154.26198 71.03352 45.79540
#
# Poissons Ratio (x) = 0.30396 0.21802
# Poissons Ratio (y) = 0.66010 -0.15672
# Poissons Ratio (z) = 0.73440 -0.24310
#
# Static dielectric constant tensor:
#      x y z
#    x 2.111290 0.000000 0.000000 
#    y 0.000000 1.964230 0.000000 
#    z 0.000000 0.000000 1.938400 
# 
# From -- ./inp_files/12144.got.cif
#   From: 2010.05.17/outbox.cif.g08.bks.cpg/sg36_7_cif.got.tgz:12144.got - 2010.06.03 17:41:39.
