data_PCOD9352357
_publ_section_title
;
Structure prediction by ZEFSAII (Michael W. Deem and Ramdas Pophale) SiO2 
 PCOD9352357
Probable space group: C M C 21
;
_chemical_formula_sum "Si O2"
_cell_formula_units_Z 48
_cell_length_a 22.435724
_cell_length_b 9.512019
_cell_length_c 8.352252
_cell_angle_alpha 90.000000
_cell_angle_beta 90.000000
_cell_angle_gamma 90.000000
_cell_volume 1782.446022
_symmetry_space_group_name_H-M "C M C 21"
_symmetry_group_IT_number 36
_symmetry_cell_setting 'orthorhombic'
loop_
_space_group_symop_operation_xyz
x,y,z
-x,-y,1/2+z
x,-y,1/2+z
-x,y,z
1/2+x,1/2+y,z
1/2-x,1/2-y,1/2+z
1/2+x,1/2-y,1/2+z
1/2-x,1/2+y,z
loop_
_atom_site_type_symbol
_atom_site_label
_atom_site_fract_x
_atom_site_fract_y
_atom_site_fract_z
Si Si1 0.241160 0.462667 0.205890
Si Si2 0.777964 0.208394 0.397654
Si Si3 0.067515 0.023923 0.253510
Si Si4 0.101472 0.526289 0.655054
Si Si5 0.913800 0.714304 0.947516
Si Si6 0.926876 0.784457 0.460583
O O1 0.255639 0.348108 0.343121
O O2 0.276702 0.603304 0.245954
O O3 0.170368 0.495302 0.203310
O O4 0.253340 0.383553 0.041232
O O5 0.843032 0.261685 0.443650
O O6 0.064188 0.130506 0.405700
O O7 0.092630 0.117773 0.111173
O O8 0.000000 0.991764 0.208346
O O9 0.094601 0.876413 0.309164
O O10 0.072106 0.379919 0.601644
O O11 0.070599 0.615392 0.795167
O O12 0.098631 0.631681 0.501077
O O13 0.000000 0.775238 0.459249
#
# Coordination Sequence:
#
# PCOD9352357 Si02
#       6
#     8   8   8   8   8   8
#     4  11  22  39  57  82 114 150 189 237 289 342
#     4  11  23  38  59  84 114 149 191 236 287 343
#     4   9  19  36  56  83 116 146 184 232 280 333
#     4  10  21  38  56  80 113 147 188 233 281 336
#     4  10  22  37  56  82 110 148 188 233 284 338
#     4   9  19  36  58  83 113 148 186 231 281 334
#
# _framework density 26.929285
#
# number of rings (size 3 to 8) (size 9 to 14) (size 15 to 20)
#    0.000    2.000    0.000    4.000    0.000    7.333 
#    0.000    0.000    0.000    0.000    0.000    0.000 
#    0.000    0.000    0.000    0.000    0.000    0.000 
#
# Total GULP energy -134339.742384 kJ/mol
# GULP energy per Si atom -5597.489266 kJ/mol
# Density = 2.686799 g / cm^3
# Si number density = 26.929285 Si / 1000 Ang^3
#
#
#
# Elastic Constant Matrix: (Units=GPa)
#
#
# Indices 1 2 3 4 5 6 
#
# 1 81.1355 3.2764 4.8258 0.0000 0.0000 0.0000
# 2 3.2764 173.9447 50.8600 0.0000 0.0000 0.0000
# 3 4.8258 50.8600 64.0034 0.0000 0.0000 0.0000
# 4 0.0000 0.0000 0.0000 75.9438 0.0000 0.0000
# 5 0.0000 0.0000 0.0000 0.0000 17.2124 0.0000
# 6 0.0000 0.0000 0.0000 0.0000 0.0000 165.9453
#
#
#
# Elastic Compliance Matrix: (Units=1/GPa)
#
#
# Indices 1 2 3 4 5 6 
#
# 1 0.012381 0.000052 -0.000975 0.000000 0.000000 0.000000
# 2 0.000052 0.007489 -0.005955 0.000000 0.000000 0.000000
# 3 -0.000975 -0.005955 0.020430 0.000000 0.000000 0.000000
# 4 0.000000 0.000000 0.000000 0.013168 0.000000 0.000000
# 5 0.000000 0.000000 0.000000 0.000000 0.058098 0.000000
# 6 0.000000 0.000000 0.000000 0.000000 0.000000 0.006026
#
#
# Mechanical properties :
#
#
# Convention : Reuss Voigt Hill
#
# Bulk Modulus (GPa) = 37.67337 48.55645 43.11491
# Shear Modulus (GPa) = 35.66450 69.16173 52.41312
#
# Velocity S-wave (km/s) = 3.64315 5.07331 4.41650
# Velocity P-wave (km/s) = 5.63177 7.23797 6.48479
#
# Compressibility (1/GPa) = 0.02654395
#
# Stress axis : x y z
#
# Youngs Moduli (GPa) = 80.76933 133.52525 48.94786
#
# Poissons Ratio (x) = -0.00691 0.04771
# Poissons Ratio (y) = -0.00418 0.29149
# Poissons Ratio (z) = 0.07872 0.79517
#
# Static dielectric constant tensor:
#      x y z
#    x 2.022970 0.000000 0.000000 
#    y 0.000000 2.045650 0.000000 
#    z 0.000000 0.000000 2.205090 
# 
# From -- ./inp_files/5960.got.cif
#   From: 2010.05.17/outbox.cif.g08.bks.cpg/sg36_3_cif.got.tgz:5960.got - 2010.06.03 17:41:39.
