data_PCOD9352931
_publ_section_title
;
Structure prediction by ZEFSAII (Michael W. Deem and Ramdas Pophale) SiO2 
 PCOD9352931
Probable space group: C M C 21
;
_chemical_formula_sum "Si O2"
_cell_formula_units_Z 32
_cell_length_a 15.573543
_cell_length_b 9.562283
_cell_length_c 7.469246
_cell_angle_alpha 90.000000
_cell_angle_beta 90.000000
_cell_angle_gamma 90.000000
_cell_volume 1112.309848
_symmetry_space_group_name_H-M "C M C 21"
_symmetry_group_IT_number 36
_symmetry_cell_setting 'orthorhombic'
loop_
_space_group_symop_operation_xyz
x,y,z
-x,-y,1/2+z
x,-y,1/2+z
-x,y,z
1/2+x,1/2+y,z
1/2-x,1/2-y,1/2+z
1/2+x,1/2-y,1/2+z
1/2-x,1/2+y,z
loop_
_atom_site_type_symbol
_atom_site_label
_atom_site_fract_x
_atom_site_fract_y
_atom_site_fract_z
Si Si1 0.274410 0.611873 0.060830
Si Si2 0.902282 0.511923 0.224913
Si Si3 0.091817 0.164318 0.786473
Si Si4 0.137023 0.218364 0.399863
O O1 0.191995 0.520311 0.125299
O O2 0.343171 0.648301 0.212190
O O3 0.227333 0.753028 0.997546
O O4 0.331365 0.585439 0.885479
O O5 0.901296 0.666692 0.316537
O O6 0.898234 0.371776 0.344262
O O7 0.000000 0.505742 0.142834
O O8 0.090367 0.152903 0.570521
O O9 0.000000 0.116865 0.857204
#
# Coordination Sequence:
#
# PCOD9352931 Si02
#       4
#     8   8   8   8
#     4  11  23  42  68 103 150 196 229 298 376 440
#     4  10  23  41  69 108 142 181 239 304 363 424
#     4  10  23  42  68 103 141 186 241 294 358 435
#     4  11  22  41  66 102 149 189 232 302 370 431
#
# _framework density 28.768961999999998
#
# number of rings (size 3 to 8) (size 9 to 14) (size 15 to 20)
#    0.000    1.500    5.000    0.750    7.000    3.000 
#    0.000    0.000    0.000    4.500    0.000    0.000 
#    0.000    0.000    0.000    0.000    0.000    0.000 
#
# Total GULP energy -89270.291701 kJ/mol
# GULP energy per Si atom -5579.393231 kJ/mol
# Density = 2.870348 g / cm^3
# Si number density = 28.768962 Si / 1000 Ang^3
#
#
#
# Elastic Constant Matrix: (Units=GPa)
#
#
# Indices 1 2 3 4 5 6 
#
# 1 241.6040 36.6255 84.6030 0.0000 0.0000 0.0000
# 2 36.6255 90.0651 58.5511 0.0000 0.0000 0.0000
# 3 84.6030 58.5511 158.2853 0.0000 0.0000 0.0000
# 4 0.0000 0.0000 0.0000 39.9368 0.0000 0.0000
# 5 0.0000 0.0000 0.0000 0.0000 44.5851 0.0000
# 6 0.0000 0.0000 0.0000 0.0000 0.0000 24.5292
#
#
#
# Elastic Compliance Matrix: (Units=1/GPa)
#
#
# Indices 1 2 3 4 5 6 
#
# 1 0.005103 -0.000398 -0.002580 0.000000 0.000000 0.000000
# 2 -0.000398 0.014649 -0.005206 0.000000 0.000000 0.000000
# 3 -0.002580 -0.005206 0.009623 0.000000 0.000000 0.000000
# 4 0.000000 0.000000 0.000000 0.025040 0.000000 0.000000
# 5 0.000000 0.000000 0.000000 0.000000 0.022429 0.000000
# 6 0.000000 0.000000 0.000000 0.000000 0.000000 0.040768
#
#
# Mechanical properties :
#
#
# Convention : Reuss Voigt Hill
#
# Bulk Modulus (GPa) = 76.88597 94.39040 85.63819
# Shear Modulus (GPa) = 36.14919 42.48855 39.31887
#
# Velocity S-wave (km/s) = 3.54861 3.84720 3.70092
# Velocity P-wave (km/s) = 6.60102 7.25366 6.93502
#
# Compressibility (1/GPa) = 0.01300627
#
# Stress axis : x y z
#
# Youngs Moduli (GPa) = 195.96862 68.26195 103.91971
#
# Poissons Ratio (x) = 0.02714 0.26815
# Poissons Ratio (y) = 0.07792 0.54105
# Poissons Ratio (z) = 0.50567 0.35540
#
# Static dielectric constant tensor:
#      x y z
#    x 2.354420 0.000000 0.000000 
#    y 0.000000 2.335650 0.000000 
#    z 0.000000 0.000000 2.357970 
# 
# From -- ./inp_files/7374.got.cif
#   From: 2010.05.17/outbox.cif.g08.bks.cpg/sg36_4_cif.got.tgz:7374.got - 2010.06.03 17:41:39.
