data_PCOD9352763
_publ_section_title
;
Structure prediction by ZEFSAII (Michael W. Deem and Ramdas Pophale) SiO2 
 PCOD9352763
Probable space group: C M C 21
;
_chemical_formula_sum "Si O2"
_cell_formula_units_Z 48
_cell_length_a 25.449024
_cell_length_b 15.526497
_cell_length_c 5.393885
_cell_angle_alpha 90.000000
_cell_angle_beta 90.000000
_cell_angle_gamma 90.000000
_cell_volume 2131.308406
_symmetry_space_group_name_H-M "C M C 21"
_symmetry_group_IT_number 36
_symmetry_cell_setting 'orthorhombic'
loop_
_space_group_symop_operation_xyz
x,y,z
-x,-y,1/2+z
x,-y,1/2+z
-x,y,z
1/2+x,1/2+y,z
1/2-x,1/2-y,1/2+z
1/2+x,1/2-y,1/2+z
1/2-x,1/2+y,z
loop_
_atom_site_type_symbol
_atom_site_label
_atom_site_fract_x
_atom_site_fract_y
_atom_site_fract_z
Si Si1 0.759397 0.867010 0.206640
Si Si2 0.183272 0.473620 0.680394
Si Si3 0.443317 0.625923 0.989542
Si Si4 0.057899 0.238847 0.488926
Si Si5 0.824042 0.709727 0.006879
Si Si6 0.332094 0.454243 0.572578
O O1 0.798269 0.801330 0.070580
O O2 0.705532 0.816193 0.255524
O O3 0.734633 0.962560 0.145143
O O4 0.793048 0.883888 0.458438
O O5 0.154795 0.492954 0.422591
O O6 0.191567 0.371080 0.685570
O O7 0.500000 0.580102 0.995058
O O8 0.442309 0.690113 0.224913
O O9 0.392343 0.569386 0.025871
O O10 0.439488 0.674878 0.726422
O O11 0.113247 0.288092 0.496993
O O12 0.000000 0.282519 0.509260
O O13 0.325528 0.469835 0.865157
#
# Coordination Sequence:
#
# PCOD9352763 Si02
#       6
#     8   8   8   8   8   8
#     4  11  24  39  63 100 137 175 225 275 341 409
#     4  10  22  41  59  91 133 171 214 274 326 401
#     4  10  22  42  63  92 129 170 229 283 327 392
#     4  10  22  42  68  96 129 171 229 288 329 395
#     4  11  23  40  70  98 133 184 224 273 350 411
#     4  12  25  40  62  91 134 179 219 275 339 400
#
# _framework density 22.521377000000001
#
# number of rings (size 3 to 8) (size 9 to 14) (size 15 to 20)
#    0.000    1.333    1.667    4.000    2.333    3.333 
#    0.000    0.000    0.000    4.000    0.000    0.000 
#    0.000    0.000    0.000    0.000    0.000    0.000 
#
# Total GULP energy -133682.764834 kJ/mol
# GULP energy per Si atom -5570.115201 kJ/mol
# Density = 2.247012 g / cm^3
# Si number density = 22.521377 Si / 1000 Ang^3
#
#
#
# Elastic Constant Matrix: (Units=GPa)
#
#
# Indices 1 2 3 4 5 6 
#
# 1 143.0921 46.9198 6.4308 0.0000 0.0000 0.0000
# 2 46.9198 114.3031 33.1051 0.0000 0.0000 0.0000
# 3 6.4308 33.1051 94.5329 0.0000 0.0000 0.0000
# 4 0.0000 0.0000 0.0000 43.5929 0.0000 0.0000
# 5 0.0000 0.0000 0.0000 0.0000 27.4088 0.0000
# 6 0.0000 0.0000 0.0000 0.0000 0.0000 29.2446
#
#
#
# Elastic Compliance Matrix: (Units=1/GPa)
#
#
# Indices 1 2 3 4 5 6 
#
# 1 0.008115 -0.003529 0.000684 0.000000 0.000000 0.000000
# 2 -0.003529 0.011271 -0.003707 0.000000 0.000000 0.000000
# 3 0.000684 -0.003707 0.011830 0.000000 0.000000 0.000000
# 4 0.000000 0.000000 0.000000 0.022940 0.000000 0.000000
# 5 0.000000 0.000000 0.000000 0.000000 0.036485 0.000000
# 6 0.000000 0.000000 0.000000 0.000000 0.000000 0.034194
#
#
# Mechanical properties :
#
#
# Convention : Reuss Voigt Hill
#
# Bulk Modulus (GPa) = 55.21387 58.31551 56.76469
# Shear Modulus (GPa) = 34.72799 37.74742 36.23770
#
# Velocity S-wave (km/s) = 3.93109 4.09843 4.01563
# Velocity P-wave (km/s) = 6.72117 6.95311 6.83812
#
# Compressibility (1/GPa) = 0.01811139
#
# Stress axis : x y z
#
# Youngs Moduli (GPa) = 123.22898 88.72355 84.53097
#
# Poissons Ratio (x) = 0.31312 -0.05781
# Poissons Ratio (y) = 0.43489 0.31335
# Poissons Ratio (z) = -0.08427 0.32890
#
# Static dielectric constant tensor:
#      x y z
#    x 1.848430 0.000000 0.000000 
#    y 0.000000 1.927330 0.000000 
#    z 0.000000 0.000000 1.927930 
# 
# From -- ./inp_files/1736.got.cif
#   From: 2010.05.17/outbox.cif.g08.bks.cpg/sg36_1_cif.got.tgz:1736.got - 2010.06.03 17:41:39.
