data_PCOD9352961
_publ_section_title
;
Structure prediction by ZEFSAII (Michael W. Deem and Ramdas Pophale) SiO2 
 PCOD9352961
Probable space group: C M C 21
;
_chemical_formula_sum "Si O2"
_cell_formula_units_Z 52
_cell_length_a 19.137824
_cell_length_b 22.832762
_cell_length_c 4.731084
_cell_angle_alpha 90.000000
_cell_angle_beta 90.000000
_cell_angle_gamma 90.000000
_cell_volume 2067.338845
_symmetry_space_group_name_H-M "C M C 21"
_symmetry_group_IT_number 36
_symmetry_cell_setting 'orthorhombic'
loop_
_space_group_symop_operation_xyz
x,y,z
-x,-y,1/2+z
x,-y,1/2+z
-x,y,z
1/2+x,1/2+y,z
1/2-x,1/2-y,1/2+z
1/2+x,1/2-y,1/2+z
1/2-x,1/2+y,z
loop_
_atom_site_type_symbol
_atom_site_label
_atom_site_fract_x
_atom_site_fract_y
_atom_site_fract_z
Si Si1 0.500000 0.965060 0.436240
Si Si2 0.883259 0.872824 0.355534
Si Si3 0.771900 0.957439 0.546421
Si Si4 0.387781 0.184532 0.484398
Si Si5 0.000000 0.043592 0.596992
Si Si6 0.000000 0.781424 0.586154
Si Si7 0.371014 0.107156 0.990922
Si Si8 0.292409 0.268398 0.123349
O O1 0.571685 0.934589 0.354691
O O2 0.500000 0.974889 0.768318
O O3 0.836234 0.912516 0.562498
O O4 0.937989 0.829809 0.513111
O O5 0.827697 0.831551 0.183031
O O6 0.932531 0.915981 0.168356
O O7 0.698891 0.924415 0.596611
O O8 0.775359 0.015271 0.735005
O O9 0.441201 0.229241 0.624801
O O10 0.350106 0.149321 0.732311
O O11 0.345150 0.223583 0.264724
O O12 0.411659 0.137122 0.251834
O O13 0.000000 0.015647 0.286966
O O14 0.223786 0.247211 0.300622
#
# Coordination Sequence:
#
# PCOD9352961 Si02
#       8
#     4   8   8   8   4   4   8   8
#     4  12  24  41  62  90 124 165 210 262 318 376
#     4  10  23  43  67  94 131 173 213 267 322 373
#     4  12  25  43  65  96 131 171 218 266 316 378
#     4  11  22  41  64  92 124 161 204 259 316 379
#     4  11  24  44  66  94 126 170 224 269 314 374
#     4   9  22  43  66  98 130 167 218 263 318 390
#     4  12  24  42  67  94 127 167 211 263 321 380
#     4  11  23  40  63  93 126 161 206 255 316 385
#
# _framework density 25.153109000000001
#
# number of rings (size 3 to 8) (size 9 to 14) (size 15 to 20)
#    0.000    0.923    0.000    7.385    0.000    2.462 
#    0.000   13.846    0.000    0.000    0.000    0.000 
#    0.000    0.000    0.000    0.000    0.000    0.000 
#
# Total GULP energy -144810.001513 kJ/mol
# GULP energy per Si atom -5569.615443 kJ/mol
# Density = 2.509586 g / cm^3
# Si number density = 25.153109 Si / 1000 Ang^3
#
#
#
# Elastic Constant Matrix: (Units=GPa)
#
#
# Indices 1 2 3 4 5 6 
#
# 1 144.9370 50.7543 -8.6903 0.0000 0.0000 0.0000
# 2 50.7543 122.2717 2.2288 0.0000 0.0000 0.0000
# 3 -8.6903 2.2288 48.8542 0.0000 0.0000 0.0000
# 4 0.0000 0.0000 0.0000 0.4401 0.0000 0.0000
# 5 0.0000 0.0000 0.0000 0.0000 19.5390 0.0000
# 6 0.0000 0.0000 0.0000 0.0000 0.0000 29.6976
#
#
#
# Elastic Compliance Matrix: (Units=1/GPa)
#
#
# Indices 1 2 3 4 5 6 
#
# 1 0.008198 -0.003433 0.001615 0.000000 0.000000 0.000000
# 2 -0.003433 0.009622 -0.001050 0.000000 0.000000 0.000000
# 3 0.001615 -0.001050 0.020804 0.000000 0.000000 0.000000
# 4 0.000000 0.000000 0.000000 2.272094 0.000000 0.000000
# 5 0.000000 0.000000 0.000000 0.000000 0.051180 0.000000
# 6 0.000000 0.000000 0.000000 0.000000 0.000000 0.033673
#
#
# Mechanical properties :
#
#
# Convention : Reuss Voigt Hill
#
# Bulk Modulus (GPa) = 30.40370 44.96095 37.68233
# Shear Modulus (GPa) = 2.07274 28.05335 15.06305
#
# Velocity S-wave (km/s) = 0.90876 3.34324 2.44980
# Velocity P-wave (km/s) = 3.63522 5.72859 4.79747
#
# Compressibility (1/GPa) = 0.03289074
#
# Stress axis : x y z
#
# Youngs Moduli (GPa) = 121.97509 103.92342 48.06715
#
# Poissons Ratio (x) = 0.35672 -0.07763
# Poissons Ratio (y) = 0.41869 0.05045
# Poissons Ratio (z) = -0.19698 0.10908
#
# Static dielectric constant tensor:
#      x y z
#    x 1.959500 0.000000 0.000000 
#    y 0.000000 1.968430 0.000000 
#    z 0.000000 0.000000 1.932860 
# 
# From -- ./inp_files/1398.got.cif
#   From: 2010.05.17/outbox.cif.g08.bks.cpg/sg36_1_cif.got.tgz:1398.got - 2010.06.03 17:41:39.
