data_PCOD9352531
_publ_section_title
;
Structure prediction by ZEFSAII (Michael W. Deem and Ramdas Pophale) SiO2 
 PCOD9352531
Probable space group: C M C 21
;
_chemical_formula_sum "Si O2"
_cell_formula_units_Z 64
_cell_length_a 7.919486
_cell_length_b 26.078999
_cell_length_c 14.457226
_cell_angle_alpha 90.000000
_cell_angle_beta 90.000000
_cell_angle_gamma 90.000000
_cell_volume 2985.883667
_symmetry_space_group_name_H-M "C M C 21"
_symmetry_group_IT_number 36
_symmetry_cell_setting 'orthorhombic'
loop_
_space_group_symop_operation_xyz
x,y,z
-x,-y,1/2+z
x,-y,1/2+z
-x,y,z
1/2+x,1/2+y,z
1/2-x,1/2-y,1/2+z
1/2+x,1/2-y,1/2+z
1/2-x,1/2+y,z
loop_
_atom_site_type_symbol
_atom_site_label
_atom_site_fract_x
_atom_site_fract_y
_atom_site_fract_z
Si Si1 0.299258 0.162314 0.076930
Si Si2 0.203470 0.085897 0.802884
Si Si3 0.204404 0.045680 0.101627
Si Si4 0.298276 0.568989 0.586134
Si Si5 0.796783 0.807417 0.378528
Si Si6 0.303197 0.881399 0.915294
Si Si7 0.697737 0.522949 0.307341
Si Si8 0.293170 0.794028 0.775876
O O1 0.500000 0.165121 0.080366
O O2 0.253756 0.101834 0.065197
O O3 0.235127 0.185049 0.175561
O O4 0.240250 0.194524 0.987881
O O5 0.234402 0.080096 0.693652
O O6 0.273298 0.137984 0.844035
O O7 0.000000 0.088693 0.818234
O O8 0.267396 0.031484 0.841472
O O9 0.265453 0.042581 0.208784
O O10 0.000000 0.044991 0.096725
O O11 0.260296 0.989620 0.063724
O O12 0.500000 0.569724 0.573914
O O13 0.222446 0.614145 0.524245
O O14 0.735915 0.761397 0.312727
O O15 0.000000 0.807149 0.369579
O O16 0.500000 0.886339 0.894189
O O17 0.214358 0.932203 0.878988
O O18 0.240495 0.833526 0.856644
O O19 0.500000 0.513585 0.289119
O O20 0.500000 0.793244 0.772746
#
# Coordination Sequence:
#
# PCOD9352531 Si02
#       8
#     8   8   8   8   8   8   8   8
#     4  11  22  38  58  85 117 148 185 237 290 342
#     4   8  17  35  58  81 108 141 186 238 287 327
#     4   9  18  34  56  81 112 150 192 234 283 337
#     4   9  19  35  55  83 115 150 192 239 281 336
#     4  10  21  40  63  84 108 151 198 237 284 337
#     4  11  21  34  52  81 116 157 190 225 287 344
#     4   9  17  32  54  81 109 142 186 238 280 330
#     4   9  21  40  58  78 115 157 191 228 280 343
#
# _framework density 21.434191999999999
#
# number of rings (size 3 to 8) (size 9 to 14) (size 15 to 20)
#    0.000    2.500    1.250    2.250    1.750    1.500 
#    0.000    6.250    0.000    0.000    0.000    0.000 
#    0.000    0.000    0.000    0.000    0.000    0.000 
#
# Total GULP energy -178396.345807 kJ/mol
# GULP energy per Si atom -5574.885806 kJ/mol
# Density = 2.138541 g / cm^3
# Si number density = 21.434192 Si / 1000 Ang^3
#
#
#
# Elastic Constant Matrix: (Units=GPa)
#
#
# Indices 1 2 3 4 5 6 
#
# 1 16.1350 9.2858 2.0787 0.0000 0.0000 0.0000
# 2 9.2858 119.5238 38.0559 0.0000 0.0000 0.0000
# 3 2.0787 38.0559 41.7303 0.0000 0.0000 0.0000
# 4 0.0000 0.0000 0.0000 30.6126 0.0000 0.0000
# 5 0.0000 0.0000 0.0000 0.0000 18.9278 0.0000
# 6 0.0000 0.0000 0.0000 0.0000 0.0000 11.4526
#
#
#
# Elastic Compliance Matrix: (Units=1/GPa)
#
#
# Indices 1 2 3 4 5 6 
#
# 1 0.064988 -0.005662 0.001927 0.000000 0.000000 0.000000
# 2 -0.005662 0.012283 -0.010920 0.000000 0.000000 0.000000
# 3 0.001927 -0.010920 0.033826 0.000000 0.000000 0.000000
# 4 0.000000 0.000000 0.000000 0.032666 0.000000 0.000000
# 5 0.000000 0.000000 0.000000 0.000000 0.052832 0.000000
# 6 0.000000 0.000000 0.000000 0.000000 0.000000 0.087316
#
#
# Mechanical properties :
#
#
# Convention : Reuss Voigt Hill
#
# Bulk Modulus (GPa) = 12.22708 30.69220 21.45964
# Shear Modulus (GPa) = 14.68499 20.72986 17.70743
#
# Velocity S-wave (km/s) = 2.62032 3.11326 2.87737
# Velocity P-wave (km/s) = 3.85637 5.22241 4.59049
#
# Compressibility (1/GPa) = 0.08178566
#
# Stress axis : x y z
#
# Youngs Moduli (GPa) = 15.38755 81.41210 29.56345
#
# Poissons Ratio (x) = 0.46098 -0.05695
# Poissons Ratio (y) = 0.08713 0.32282
# Poissons Ratio (z) = -0.02964 0.88899
#
# Static dielectric constant tensor:
#      x y z
#    x 1.780540 0.000000 0.000000 
#    y 0.000000 1.790080 0.000000 
#    z 0.000000 0.000000 1.814110 
# 
# From -- ./inp_files/10932.got.cif
#   From: 2010.05.17/outbox.cif.g08.bks.cpg/sg36_6_cif.got.tgz:10932.got - 2010.06.03 17:41:39.
