data_PCOD9352263
_publ_section_title
;
Structure prediction by ZEFSAII (Michael W. Deem and Ramdas Pophale) SiO2 
 PCOD9352263
Probable space group: C M C 21
;
_chemical_formula_sum "Si O2"
_cell_formula_units_Z 48
_cell_length_a 7.999908
_cell_length_b 15.307956
_cell_length_c 19.236572
_cell_angle_alpha 90.000000
_cell_angle_beta 90.000000
_cell_angle_gamma 90.000000
_cell_volume 2355.753691
_symmetry_space_group_name_H-M "C M C 21"
_symmetry_group_IT_number 36
_symmetry_cell_setting 'orthorhombic'
loop_
_space_group_symop_operation_xyz
x,y,z
-x,-y,1/2+z
x,-y,1/2+z
-x,y,z
1/2+x,1/2+y,z
1/2-x,1/2-y,1/2+z
1/2+x,1/2-y,1/2+z
1/2-x,1/2+y,z
loop_
_atom_site_type_symbol
_atom_site_label
_atom_site_fract_x
_atom_site_fract_y
_atom_site_fract_z
Si Si1 0.704080 0.749220 0.378300
Si Si2 0.204916 0.850359 0.612655
Si Si3 0.197957 0.892623 0.766470
Si Si4 0.197735 0.315791 0.030101
Si Si5 0.695813 0.506854 0.000645
Si Si6 0.305508 0.944585 0.349397
O O1 0.500000 0.748172 0.382062
O O2 0.762280 0.675642 0.324033
O O3 0.769677 0.727219 0.454785
O O4 0.758645 0.845443 0.354114
O O5 0.265018 0.875204 0.689396
O O6 0.255875 0.754240 0.587223
O O7 0.000000 0.852129 0.612389
O O8 0.258336 0.921340 0.555329
O O9 0.000000 0.876624 0.762652
O O10 0.223753 0.989935 0.794833
O O11 0.000000 0.329277 0.038691
O O12 0.282911 0.409933 0.030570
O O13 0.500000 0.523103 0.987240
O O14 0.784908 0.515429 0.926548
O O15 0.500000 0.940094 0.331598
#
# Coordination Sequence:
#
# PCOD9352263 Si02
#       6
#     8   8   8   8   8   8
#     4  10  21  36  58  85 116 152 192 236 288 344
#     4   9  21  39  59  84 117 155 194 234 290 351
#     4  10  21  40  61  83 116 158 193 235 293 348
#     4  11  21  36  60  88 116 149 195 242 283 342
#     4  11  21  37  59  85 115 154 196 239 288 344
#     4  11  22  36  57  89 118 150 196 242 286 341
#
# _framework density 20.375644000000001
#
# number of rings (size 3 to 8) (size 9 to 14) (size 15 to 20)
#    0.000    1.667    3.333    1.500    0.000    2.000 
#    0.000    5.000    0.000    0.000    0.000    0.000 
#    0.000    0.000    0.000    0.000    0.000    0.000 
#
# Total GULP energy -134093.416884 kJ/mol
# GULP energy per Si atom -5587.225703 kJ/mol
# Density = 2.032927 g / cm^3
# Si number density = 20.375644 Si / 1000 Ang^3
#
#
#
# Elastic Constant Matrix: (Units=GPa)
#
#
# Indices 1 2 3 4 5 6 
#
# 1 12.7886 -5.9417 0.3437 0.0000 0.0000 0.0000
# 2 -5.9417 74.2085 -23.1535 0.0000 0.0000 0.0000
# 3 0.3437 -23.1535 36.4284 0.0000 0.0000 0.0000
# 4 0.0000 0.0000 0.0000 28.1353 0.0000 0.0000
# 5 0.0000 0.0000 0.0000 0.0000 13.8303 0.0000
# 6 0.0000 0.0000 0.0000 0.0000 0.0000 20.1467
#
#
#
# Elastic Compliance Matrix: (Units=1/GPa)
#
#
# Indices 1 2 3 4 5 6 
#
# 1 0.081735 0.007863 0.004226 0.000000 0.000000 0.000000
# 2 0.007863 0.017565 0.011090 0.000000 0.000000 0.000000
# 3 0.004226 0.011090 0.034460 0.000000 0.000000 0.000000
# 4 0.000000 0.000000 0.000000 0.035543 0.000000 0.000000
# 5 0.000000 0.000000 0.000000 0.000000 0.072305 0.000000
# 6 0.000000 0.000000 0.000000 0.000000 0.000000 0.049636
#
#
# Mechanical properties :
#
#
# Convention : Reuss Voigt Hill
#
# Bulk Modulus (GPa) = 5.55188 7.32472 6.43830
# Shear Modulus (GPa) = 16.39754 22.56759 19.48257
#
# Velocity S-wave (km/s) = 2.83991 3.33164 3.09555
# Velocity P-wave (km/s) = 3.67207 4.28980 3.99290
#
# Compressibility (1/GPa) = 0.18011902
#
# Stress axis : x y z
#
# Youngs Moduli (GPa) = 12.23473 56.93045 29.01920
#
# Poissons Ratio (x) = -0.44765 -0.12265
# Poissons Ratio (y) = -0.09620 -0.32183
# Poissons Ratio (z) = -0.05171 -0.63136
#
# Static dielectric constant tensor:
#      x y z
#    x 1.730030 0.000000 0.000000 
#    y 0.000000 1.718740 0.000000 
#    z 0.000000 0.000000 1.695250 
# 
# From -- ./inp_files/13472.got.cif
#   From: 2010.05.17/outbox.cif.g08.bks.cpg/sg36_7_cif.got.tgz:13472.got - 2010.06.03 17:41:39.
