data_PCOD9352875
_publ_section_title
;
Structure prediction by ZEFSAII (Michael W. Deem and Ramdas Pophale) SiO2 
 PCOD9352875
Probable space group: C M C 21
;
_chemical_formula_sum "Si O2"
_cell_formula_units_Z 40
_cell_length_a 17.810837
_cell_length_b 11.614668
_cell_length_c 7.358466
_cell_angle_alpha 90.000000
_cell_angle_beta 90.000000
_cell_angle_gamma 90.000000
_cell_volume 1522.223481
_symmetry_space_group_name_H-M "C M C 21"
_symmetry_group_IT_number 36
_symmetry_cell_setting 'orthorhombic'
loop_
_space_group_symop_operation_xyz
x,y,z
-x,-y,1/2+z
x,-y,1/2+z
-x,y,z
1/2+x,1/2+y,z
1/2-x,1/2-y,1/2+z
1/2+x,1/2-y,1/2+z
1/2-x,1/2+y,z
loop_
_atom_site_type_symbol
_atom_site_label
_atom_site_fract_x
_atom_site_fract_y
_atom_site_fract_z
Si Si1 0.887866 0.293217 0.355020
Si Si2 0.193915 0.586402 0.597619
Si Si3 0.586079 0.056938 0.290789
Si Si4 0.581641 0.620719 0.028174
Si Si5 0.360000 0.618841 0.645815
O O1 0.807480 0.328672 0.271167
O O2 0.924452 0.419838 0.342775
O O3 0.889852 0.233290 0.548029
O O4 0.914239 0.200476 0.206654
O O5 0.127714 0.620425 0.456836
O O6 0.158844 0.463532 0.659113
O O7 0.280188 0.587998 0.548890
O O8 0.500000 0.094734 0.252297
O O9 0.500000 0.640356 0.943511
O O10 0.639848 0.633600 0.862380
O O11 0.589675 0.491090 0.100543
#
# Coordination Sequence:
#
# PCOD9352875 Si02
#       5
#     8   8   8   8   8
#     4  10  27  44  72 104 145 179 243 284 354 419
#     4  10  25  43  71 100 140 182 238 284 351 412
#     4  10  22  44  69  98 139 181 231 290 342 408
#     4  12  26  45  73 104 141 189 235 289 354 420
#     4  12  25  46  73 104 146 185 235 291 352 417
#
# _framework density 26.277349999999998
#
# number of rings (size 3 to 8) (size 9 to 14) (size 15 to 20)
#    1.200    0.000    2.000    3.000    2.800    4.000 
#    0.000    0.000    0.000    0.000    0.000    0.000 
#    0.000    0.000    0.000    0.000    0.000    0.000 
#
# Total GULP energy -111380.995457 kJ/mol
# GULP energy per Si atom -5569.049773 kJ/mol
# Density = 2.621754 g / cm^3
# Si number density = 26.277350 Si / 1000 Ang^3
#
#
#
# Elastic Constant Matrix: (Units=GPa)
#
#
# Indices 1 2 3 4 5 6 
#
# 1 152.6709 2.6669 -6.0509 0.0000 0.0000 0.0000
# 2 2.6669 119.2065 14.0931 0.0000 0.0000 0.0000
# 3 -6.0509 14.0931 76.5853 0.0000 0.0000 0.0000
# 4 0.0000 0.0000 0.0000 49.5951 0.0000 0.0000
# 5 0.0000 0.0000 0.0000 0.0000 7.9676 0.0000
# 6 0.0000 0.0000 0.0000 0.0000 0.0000 12.9675
#
#
#
# Elastic Compliance Matrix: (Units=1/GPa)
#
#
# Indices 1 2 3 4 5 6 
#
# 1 0.006576 -0.000213 0.000559 0.000000 0.000000 0.000000
# 2 -0.000213 0.008582 -0.001596 0.000000 0.000000 0.000000
# 3 0.000559 -0.001596 0.013395 0.000000 0.000000 0.000000
# 4 0.000000 0.000000 0.000000 0.020163 0.000000 0.000000
# 5 0.000000 0.000000 0.000000 0.000000 0.125509 0.000000
# 6 0.000000 0.000000 0.000000 0.000000 0.000000 0.077116
#
#
# Mechanical properties :
#
#
# Convention : Reuss Voigt Hill
#
# Bulk Modulus (GPa) = 38.38432 41.09790 39.74111
# Shear Modulus (GPa) = 19.04571 36.62293 27.83432
#
# Velocity S-wave (km/s) = 2.69512 3.73729 3.25815
# Velocity P-wave (km/s) = 4.93194 5.85637 5.41392
#
# Compressibility (1/GPa) = 0.02605231
#
# Stress axis : x y z
#
# Youngs Moduli (GPa) = 152.07026 116.51925 74.65358
#
# Poissons Ratio (x) = 0.02484 -0.04172
# Poissons Ratio (y) = 0.03242 0.11916
# Poissons Ratio (z) = -0.08497 0.18598
#
# Static dielectric constant tensor:
#      x y z
#    x 1.998820 0.000000 0.000000 
#    y 0.000000 2.090730 0.000000 
#    z 0.000000 0.000000 2.189610 
# 
# From -- ./inp_files/4509.got.cif
#   From: 2010.05.17/outbox.cif.g08.bks.cpg/sg36_3_cif.got.tgz:4509.got - 2010.06.03 17:41:39.
