data_PCOD9352215
_publ_section_title
;
Structure prediction by ZEFSAII (Michael W. Deem and Ramdas Pophale) SiO2 
 PCOD9352215
Probable space group: C M C 21
;
_chemical_formula_sum "Si O2"
_cell_formula_units_Z 56
_cell_length_a 15.202446
_cell_length_b 34.874181
_cell_length_c 6.037413
_cell_angle_alpha 90.000000
_cell_angle_beta 90.000000
_cell_angle_gamma 90.000000
_cell_volume 3200.872478
_symmetry_space_group_name_H-M "C M C 21"
_symmetry_group_IT_number 36
_symmetry_cell_setting 'orthorhombic'
loop_
_space_group_symop_operation_xyz
x,y,z
-x,-y,1/2+z
x,-y,1/2+z
-x,y,z
1/2+x,1/2+y,z
1/2-x,1/2-y,1/2+z
1/2+x,1/2-y,1/2+z
1/2-x,1/2+y,z
loop_
_atom_site_type_symbol
_atom_site_label
_atom_site_fract_x
_atom_site_fract_y
_atom_site_fract_z
Si Si1 0.395954 0.986511 0.526140
Si Si2 0.136881 0.747190 0.189299
Si Si3 0.898713 0.173938 0.447538
Si Si4 0.807878 0.791825 0.557793
Si Si5 0.398961 0.896579 0.448949
Si Si6 0.766867 0.653666 0.689147
Si Si7 0.594755 0.832521 0.819910
O O1 0.500000 0.997191 0.528075
O O2 0.386778 0.940608 0.513992
O O3 0.363305 0.000821 0.277118
O O4 0.110200 0.781465 0.028087
O O5 0.122261 0.765775 0.429499
O O6 0.240400 0.736673 0.177500
O O7 0.093344 0.706017 0.173544
O O8 0.857682 0.177219 0.204878
O O9 0.831275 0.148496 0.591379
O O10 0.000000 0.162522 0.457978
O O11 0.749819 0.815568 0.381910
O O12 0.500000 0.892733 0.363162
O O13 0.324029 0.881504 0.282122
O O14 0.392887 0.869035 0.662886
O O15 0.826258 0.670735 0.492289
O O16 0.500000 0.835715 0.933794
#
# Coordination Sequence:
#
# PCOD9352215 Si02
#       7
#     8   8   8   8   8   8   8
#     4   9  19  35  56  85 123 164 199 230 273 343
#     4  11  19  35  50  71  94 133 179 232 287 337
#     4  11  24  37  53  73 100 140 188 239 294 351
#     4  11  20  35  53  66  98 136 180 232 290 339
#     4  10  21  35  56  85 117 153 188 225 278 338
#     4  11  21  37  54  74 105 141 182 238 284 333
#     4  11  22  34  51  78 107 139 183 234 285 337
#
# _framework density 17.495229999999999
#
# number of rings (size 3 to 8) (size 9 to 14) (size 15 to 20)
#    0.000    1.429    4.286    1.714    2.000    2.857 
#    0.000    0.000    0.000    0.000    0.000    0.000 
#    0.000    1.143    0.000    0.000    0.000    0.000 
#
# Total GULP energy -155884.189129 kJ/mol
# GULP energy per Si atom -5567.292469 kJ/mol
# Density = 1.745541 g / cm^3
# Si number density = 17.495230 Si / 1000 Ang^3
#
#
#
# Elastic Constant Matrix: (Units=GPa)
#
#
# Indices 1 2 3 4 5 6 
#
# 1 112.0620 17.7227 31.5784 0.0000 0.0000 0.0000
# 2 17.7227 79.4945 31.0591 0.0000 0.0000 0.0000
# 3 31.5784 31.0591 72.9018 0.0000 0.0000 0.0000
# 4 0.0000 0.0000 0.0000 24.6589 0.0000 0.0000
# 5 0.0000 0.0000 0.0000 0.0000 15.6885 0.0000
# 6 0.0000 0.0000 0.0000 0.0000 0.0000 14.7865
#
#
#
# Elastic Compliance Matrix: (Units=1/GPa)
#
#
# Indices 1 2 3 4 5 6 
#
# 1 0.010193 -0.000657 -0.004135 0.000000 0.000000 0.000000
# 2 -0.000657 0.015134 -0.006163 0.000000 0.000000 0.000000
# 3 -0.004135 -0.006163 0.018134 0.000000 0.000000 0.000000
# 4 0.000000 0.000000 0.000000 0.040553 0.000000 0.000000
# 5 0.000000 0.000000 0.000000 0.000000 0.063741 0.000000
# 6 0.000000 0.000000 0.000000 0.000000 0.000000 0.067629
#
#
# Mechanical properties :
#
#
# Convention : Reuss Voigt Hill
#
# Bulk Modulus (GPa) = 46.40301 47.24209 46.82255
# Shear Modulus (GPa) = 20.45169 23.29997 21.87583
#
# Velocity S-wave (km/s) = 3.42275 3.65333 3.53992
# Velocity P-wave (km/s) = 6.49624 6.69755 6.59766
#
# Compressibility (1/GPa) = 0.02155033
#
# Stress axis : x y z
#
# Youngs Moduli (GPa) = 98.10832 66.07678 55.14454
#
# Poissons Ratio (x) = 0.04339 0.22804
# Poissons Ratio (y) = 0.06443 0.33987
# Poissons Ratio (z) = 0.40572 0.40725
#
# Static dielectric constant tensor:
#      x y z
#    x 1.636110 0.000000 0.000000 
#    y 0.000000 1.570010 0.000000 
#    z 0.000000 0.000000 1.705290 
# 
# From -- ./inp_files/943.got.cif
#   From: 2010.05.17/outbox.cif.g08.bks.cpg/sg36_1_cif.got.tgz:943.got - 2010.06.03 17:41:39.
