data_PCOD9352741
_publ_section_title
;
Structure prediction by ZEFSAII (Michael W. Deem and Ramdas Pophale) SiO2 
 PCOD9352741
Probable space group: C M C 21
;
_chemical_formula_sum "Si O2"
_cell_formula_units_Z 64
_cell_length_a 7.843598
_cell_length_b 19.912440
_cell_length_c 17.079831
_cell_angle_alpha 90.000000
_cell_angle_beta 90.000000
_cell_angle_gamma 90.000000
_cell_volume 2667.616386
_symmetry_space_group_name_H-M "C M C 21"
_symmetry_group_IT_number 36
_symmetry_cell_setting 'orthorhombic'
loop_
_space_group_symop_operation_xyz
x,y,z
-x,-y,1/2+z
x,-y,1/2+z
-x,y,z
1/2+x,1/2+y,z
1/2-x,1/2-y,1/2+z
1/2+x,1/2-y,1/2+z
1/2-x,1/2+y,z
loop_
_atom_site_type_symbol
_atom_site_label
_atom_site_fract_x
_atom_site_fract_y
_atom_site_fract_z
Si Si1 0.193097 0.087846 0.383810
Si Si2 0.300813 0.833757 0.039506
Si Si3 0.194768 0.657343 0.230424
Si Si4 0.200516 0.216354 0.812314
Si Si5 0.206783 0.602674 0.703678
Si Si6 0.294507 0.043759 0.965875
Si Si7 0.207442 0.534322 0.141645
Si Si8 0.694575 0.804309 0.481051
O O1 0.219843 0.129749 0.464134
O O2 0.304431 0.117446 0.313220
O O3 0.000000 0.096377 0.357551
O O4 0.228085 0.010035 0.404110
O O5 0.500000 0.850994 0.034953
O O6 0.278751 0.753433 0.032906
O O7 0.237781 0.861366 0.122760
O O8 0.269871 0.729707 0.249863
O O9 0.273829 0.606755 0.167838
O O10 0.000000 0.669878 0.205443
O O11 0.222865 0.143177 0.776554
O O12 0.297894 0.224006 0.893038
O O13 0.000000 0.229899 0.826992
O O14 0.262547 0.525661 0.697658
O O15 0.000000 0.604758 0.707851
O O16 0.500000 0.046369 0.955995
O O17 0.253041 0.016448 0.052576
O O18 0.231458 0.120753 0.970190
O O19 0.000000 0.537312 0.146117
O O20 0.500000 0.812038 0.508164
#
# Coordination Sequence:
#
# PCOD9352741 Si02
#       8
#     8   8   8   8   8   8   8   8
#     4  12  24  39  63  92 123 159 204 257 304 364
#     4  11  22  41  66  90 122 163 204 253 313 368
#     4  10  22  40  64  88 119 166 208 249 303 368
#     4  11  24  40  61  89 128 166 204 255 308 365
#     4  10  22  40  64  89 120 160 205 256 308 371
#     4  10  22  42  66  90 121 161 205 254 307 369
#     4   9  19  40  65  88 115 156 209 251 299 367
#     4  11  24  40  65  94 124 163 211 259 306 366
#
# _framework density 23.991455999999999
#
# number of rings (size 3 to 8) (size 9 to 14) (size 15 to 20)
#    0.000    1.500    2.500    2.250    3.500    2.500 
#    0.000    0.625    0.000    0.000    0.000    0.000 
#    0.000    0.000    0.000    0.000    0.000    0.000 
#
# Total GULP energy -178976.421897 kJ/mol
# GULP energy per Si atom -5593.013184 kJ/mol
# Density = 2.393685 g / cm^3
# Si number density = 23.991456 Si / 1000 Ang^3
#
#
#
# Elastic Constant Matrix: (Units=GPa)
#
#
# Indices 1 2 3 4 5 6 
#
# 1 48.5846 -2.3460 -3.3579 0.0000 0.0000 0.0000
# 2 -2.3460 104.6820 -14.5073 0.0000 0.0000 0.0000
# 3 -3.3579 -14.5073 36.9542 0.0000 0.0000 0.0000
# 4 0.0000 0.0000 0.0000 44.6794 0.0000 0.0000
# 5 0.0000 0.0000 0.0000 0.0000 12.1674 0.0000
# 6 0.0000 0.0000 0.0000 0.0000 0.0000 21.4264
#
#
#
# Elastic Compliance Matrix: (Units=1/GPa)
#
#
# Indices 1 2 3 4 5 6 
#
# 1 0.020771 0.000769 0.002189 0.000000 0.000000 0.000000
# 2 0.000769 0.010131 0.004047 0.000000 0.000000 0.000000
# 3 0.002189 0.004047 0.028848 0.000000 0.000000 0.000000
# 4 0.000000 0.000000 0.000000 0.022382 0.000000 0.000000
# 5 0.000000 0.000000 0.000000 0.000000 0.082187 0.000000
# 6 0.000000 0.000000 0.000000 0.000000 0.000000 0.046671
#
#
# Mechanical properties :
#
#
# Convention : Reuss Voigt Hill
#
# Bulk Modulus (GPa) = 13.55742 16.64427 15.10085
# Shear Modulus (GPa) = 22.56659 29.68345 26.12502
#
# Velocity S-wave (km/s) = 3.07026 3.52127 3.30347
# Velocity P-wave (km/s) = 4.26988 4.84615 4.56711
#
# Compressibility (1/GPa) = 0.07376032
#
# Stress axis : x y z
#
# Youngs Moduli (GPa) = 48.14386 98.70873 34.66419
#
# Poissons Ratio (x) = -0.07590 -0.07589
# Poissons Ratio (y) = -0.03702 -0.14029
# Poissons Ratio (z) = -0.10540 -0.39947
#
# Static dielectric constant tensor:
#      x y z
#    x 1.894960 0.000000 0.000000 
#    y 0.000000 1.945170 0.000000 
#    z 0.000000 0.000000 1.897400 
# 
# From -- ./inp_files/13806.got.cif
#   From: 2010.05.17/outbox.cif.g08.bks.cpg/sg36_7_cif.got.tgz:13806.got - 2010.06.03 17:41:39.
