data_PCOD9352772
_publ_section_title
;
Structure prediction by ZEFSAII (Michael W. Deem and Ramdas Pophale) SiO2 
 PCOD9352772
Probable space group: C M C 21
;
_chemical_formula_sum "Si O2"
_cell_formula_units_Z 64
_cell_length_a 14.389935
_cell_length_b 9.921834
_cell_length_c 22.943643
_cell_angle_alpha 90.000000
_cell_angle_beta 90.000000
_cell_angle_gamma 90.000000
_cell_volume 3275.768221
_symmetry_space_group_name_H-M "C M C 21"
_symmetry_group_IT_number 36
_symmetry_cell_setting 'orthorhombic'
loop_
_space_group_symop_operation_xyz
x,y,z
-x,-y,1/2+z
x,-y,1/2+z
-x,y,z
1/2+x,1/2+y,z
1/2-x,1/2-y,1/2+z
1/2+x,1/2-y,1/2+z
1/2-x,1/2+y,z
loop_
_atom_site_type_symbol
_atom_site_label
_atom_site_fract_x
_atom_site_fract_y
_atom_site_fract_z
Si Si1 0.113286 0.813677 0.299970
Si Si2 0.386705 0.991151 0.779740
Si Si3 0.761196 0.911584 0.088462
Si Si4 0.389772 0.813909 0.174521
Si Si5 0.107873 0.228987 0.929660
Si Si6 0.391413 0.949961 0.406824
Si Si7 0.773324 0.667829 0.010048
Si Si8 0.111115 0.996885 0.694778
O O1 0.144427 0.664520 0.279453
O O2 0.139481 0.832777 0.367502
O O3 0.141048 0.926388 0.253666
O O4 0.000000 0.810650 0.300644
O O5 0.500000 0.987731 0.782197
O O6 0.362549 0.076456 0.723204
O O7 0.356860 0.060775 0.840188
O O8 0.672422 0.841298 0.118409
O O9 0.800852 0.805255 0.042139
O O10 0.833825 0.946112 0.139358
O O11 0.728714 0.046016 0.055735
O O12 0.500000 0.827417 0.162492
O O13 0.373362 0.663167 0.197700
O O14 0.115367 0.390704 0.921802
O O15 0.000000 0.196000 0.938966
O O16 0.171166 0.184361 0.982611
O O17 0.500000 0.913297 0.407981
O O18 0.337640 0.867299 0.455261
O O19 0.000000 0.018628 0.687599
#
# Coordination Sequence:
#
# PCOD9352772 Si02
#       8
#     8   8   8   8   8   8   8   8
#     4   8  16  34  62  93 116 144 192 241 290 350
#     4   8  16  34  62  92 116 145 192 239 289 354
#     4  12  26  41  57  86 120 154 204 247 280 339
#     4  10  22  41  63  86 117 157 193 237 298 352
#     4   9  19  39  65  87 116 157 192 233 296 356
#     4   9  19  39  64  88 117 153 192 240 293 347
#     4  12  24  41  59  86 118 154 206 244 277 343
#     4  10  22  41  62  86 120 154 189 243 301 345
#
# _framework density 19.537402
#
# number of rings (size 3 to 8) (size 9 to 14) (size 15 to 20)
#    0.000    2.250    2.500    1.500    1.750    3.000 
#    2.250    2.500    0.000    0.000    0.000    0.000 
#    0.000    0.000    0.000    0.000    0.000    0.000 
#
# Total GULP energy -178705.900457 kJ/mol
# GULP energy per Si atom -5584.559389 kJ/mol
# Density = 1.949293 g / cm^3
# Si number density = 19.537402 Si / 1000 Ang^3
#
#
#
# Elastic Constant Matrix: (Units=GPa)
#
#
# Indices 1 2 3 4 5 6 
#
# 1 42.6978 4.1682 9.7598 0.0000 0.0000 0.0000
# 2 4.1682 45.3332 9.0737 0.0000 0.0000 0.0000
# 3 9.7598 9.0737 63.1674 0.0000 0.0000 0.0000
# 4 0.0000 0.0000 0.0000 38.7097 0.0000 0.0000
# 5 0.0000 0.0000 0.0000 0.0000 38.7680 0.0000
# 6 0.0000 0.0000 0.0000 0.0000 0.0000 16.1499
#
#
#
# Elastic Compliance Matrix: (Units=1/GPa)
#
#
# Indices 1 2 3 4 5 6 
#
# 1 0.024381 -0.001532 -0.003547 0.000000 0.000000 0.000000
# 2 -0.001532 0.022808 -0.003040 0.000000 0.000000 0.000000
# 3 -0.003547 -0.003040 0.016816 0.000000 0.000000 0.000000
# 4 0.000000 0.000000 0.000000 0.025833 0.000000 0.000000
# 5 0.000000 0.000000 0.000000 0.000000 0.025794 0.000000
# 6 0.000000 0.000000 0.000000 0.000000 0.000000 0.061920
#
#
# Mechanical properties :
#
#
# Convention : Reuss Voigt Hill
#
# Bulk Modulus (GPa) = 20.93462 21.91131 21.42296
# Shear Modulus (GPa) = 23.84230 27.27197 25.55714
#
# Velocity S-wave (km/s) = 3.49713 3.74021 3.62071
# Velocity P-wave (km/s) = 5.20048 5.46732 5.33557
#
# Compressibility (1/GPa) = 0.04776776
#
# Stress axis : x y z
#
# Youngs Moduli (GPa) = 41.01608 43.84408 59.46856
#
# Poissons Ratio (x) = 0.06716 0.21093
# Poissons Ratio (y) = 0.06283 0.18076
# Poissons Ratio (z) = 0.14548 0.13327
#
# Static dielectric constant tensor:
#      x y z
#    x 1.701380 0.000000 0.000000 
#    y 0.000000 1.660600 0.000000 
#    z 0.000000 0.000000 1.663850 
# 
# From -- ./inp_files/16970.got.cif
#   From: 2010.05.17/outbox.cif.g08.bks.cpg/sg36_9_cif.got.tgz:16970.got - 2010.06.03 17:41:39.
