data_PCOD9352504
_publ_section_title
;
Structure prediction by ZEFSAII (Michael W. Deem and Ramdas Pophale) SiO2 
 PCOD9352504
Probable space group: C M C 21
;
_chemical_formula_sum "Si O2"
_cell_formula_units_Z 64
_cell_length_a 24.194286
_cell_length_b 8.348178
_cell_length_c 12.994777
_cell_angle_alpha 90.000000
_cell_angle_beta 90.000000
_cell_angle_gamma 90.000000
_cell_volume 2624.661747
_symmetry_space_group_name_H-M "C M C 21"
_symmetry_group_IT_number 36
_symmetry_cell_setting 'orthorhombic'
loop_
_space_group_symop_operation_xyz
x,y,z
-x,-y,1/2+z
x,-y,1/2+z
-x,y,z
1/2+x,1/2+y,z
1/2-x,1/2-y,1/2+z
1/2+x,1/2-y,1/2+z
1/2-x,1/2+y,z
loop_
_atom_site_type_symbol
_atom_site_label
_atom_site_fract_x
_atom_site_fract_y
_atom_site_fract_z
Si Si1 0.434863 0.701841 0.300080
Si Si2 0.715594 0.916402 0.545973
Si Si3 0.436028 0.834227 0.086453
Si Si4 0.564887 0.347782 0.232238
Si Si5 0.285100 0.144111 0.817092
Si Si6 0.434251 0.188533 0.015989
Si Si7 0.175271 0.704830 0.257413
Si Si8 0.176558 0.229425 0.103489
O O1 0.500000 0.675705 0.317959
O O2 0.433051 0.835697 0.211121
O O3 0.418106 0.529091 0.257019
O O4 0.410116 0.753465 0.408188
O O5 0.706848 0.830607 0.437530
O O6 0.684094 0.819057 0.635202
O O7 0.780791 0.905051 0.570717
O O8 0.698128 0.101433 0.556347
O O9 0.500000 0.793621 0.059009
O O10 0.386087 0.712829 0.063302
O O11 0.418642 0.007289 0.045277
O O12 0.500000 0.317814 0.259369
O O13 0.570815 0.308576 0.111384
O O14 0.611920 0.239597 0.284490
O O15 0.219860 0.165330 0.794014
O O16 0.316264 0.246129 0.727897
O O17 0.304348 0.962911 0.801584
O O18 0.500000 0.171099 0.001570
#
# Coordination Sequence:
#
# PCOD9352504 Si02
#       8
#     8   8   8   8   8   8   8   8
#     4   9  20  39  62  91 130 178 222 259 315 388
#     4  10  21  40  62  85 122 164 210 270 319 370
#     4  10  21  39  64  97 136 170 209 269 332 398
#     4  10  21  41  67  97 136 173 212 268 326 393
#     4  10  21  40  62  86 123 166 215 272 323 378
#     4   9  18  37  63  91 130 177 218 260 319 388
#     4  10  22  40  65  98 126 165 222 268 328 399
#     4  10  22  38  61  93 121 159 214 260 318 392
#
# _framework density 24.384094000000001
#
# number of rings (size 3 to 8) (size 9 to 14) (size 15 to 20)
#    0.000    2.250    0.000    2.250    0.000    6.000 
#    0.000   10.000    0.000   15.750    0.000    0.000 
#    0.000    2.000    0.000    0.000    0.000    0.000 
#
# Total GULP energy -178798.782885 kJ/mol
# GULP energy per Si atom -5587.461965 kJ/mol
# Density = 2.432859 g / cm^3
# Si number density = 24.384094 Si / 1000 Ang^3
#
#
#
# Elastic Constant Matrix: (Units=GPa)
#
#
# Indices 1 2 3 4 5 6 
#
# 1 140.9745 38.8419 18.7755 0.0000 0.0000 0.0000
# 2 38.8419 61.1784 1.1595 0.0000 0.0000 0.0000
# 3 18.7755 1.1595 64.2106 0.0000 0.0000 0.0000
# 4 0.0000 0.0000 0.0000 8.7096 0.0000 0.0000
# 5 0.0000 0.0000 0.0000 0.0000 -7.7285 0.0000
# 6 0.0000 0.0000 0.0000 0.0000 0.0000 13.4221
#
#
#
# Elastic Compliance Matrix: (Units=1/GPa)
#
#
# Indices 1 2 3 4 5 6 
#
# 1 0.008989 -0.005659 -0.002526 0.000000 0.000000 0.000000
# 2 -0.005659 0.019914 0.001295 0.000000 0.000000 0.000000
# 3 -0.002526 0.001295 0.016289 0.000000 0.000000 0.000000
# 4 0.000000 0.000000 0.000000 0.114816 0.000000 0.000000
# 5 0.000000 0.000000 0.000000 0.000000 -0.129392 0.000000
# 6 0.000000 0.000000 0.000000 0.000000 0.000000 0.074504
#
#
# Mechanical properties :
#
#
# Convention : Reuss Voigt Hill
#
# Bulk Modulus (GPa) = 31.83534 42.65748 37.24641
# Shear Modulus (GPa) = 38.64839 16.71977 27.68408
#
# Velocity S-wave (km/s) = 3.98550 2.62140 3.37313
# Velocity P-wave (km/s) = 5.85347 5.16665 5.52075
#
# Compressibility (1/GPa) = 0.03141164
#
# Stress axis : x y z
#
# Youngs Moduli (GPa) = 111.24423 50.21548 61.39087
#
# Poissons Ratio (x) = 0.28419 0.15509
# Poissons Ratio (y) = 0.62957 -0.07952
# Poissons Ratio (z) = 0.28104 -0.06504
#
# Static dielectric constant tensor:
#      x y z
#    x 2.009820 0.000000 0.000000 
#    y 0.000000 1.883720 0.000000 
#    z 0.000000 0.000000 1.983860 
# 
# From -- ./inp_files/12986.got.cif
#   From: 2010.05.17/outbox.cif.g08.bks.cpg/sg36_7_cif.got.tgz:12986.got - 2010.06.03 17:41:39.
