data_PCOD9352617
_publ_section_title
;
Structure prediction by ZEFSAII (Michael W. Deem and Ramdas Pophale) SiO2 
 PCOD9352617
Probable space group: C M C 21
;
_chemical_formula_sum "Si O2"
_cell_formula_units_Z 48
_cell_length_a 16.064422
_cell_length_b 8.573049
_cell_length_c 16.283125
_cell_angle_alpha 90.000000
_cell_angle_beta 90.000000
_cell_angle_gamma 90.000000
_cell_volume 2242.529511
_symmetry_space_group_name_H-M "C M C 21"
_symmetry_group_IT_number 36
_symmetry_cell_setting 'orthorhombic'
loop_
_space_group_symop_operation_xyz
x,y,z
-x,-y,1/2+z
x,-y,1/2+z
-x,y,z
1/2+x,1/2+y,z
1/2-x,1/2-y,1/2+z
1/2+x,1/2-y,1/2+z
1/2-x,1/2+y,z
loop_
_atom_site_type_symbol
_atom_site_label
_atom_site_fract_x
_atom_site_fract_y
_atom_site_fract_z
Si Si1 0.000000 0.901056 0.941360
Si Si2 0.827272 0.561624 0.226222
Si Si3 0.165509 0.100095 0.975058
Si Si4 0.665237 0.276778 0.660424
Si Si5 0.000000 0.565466 0.190775
Si Si6 0.500000 0.720794 0.255705
Si Si7 0.331776 0.059753 0.414923
Si Si8 0.000000 0.560758 0.001229
O O1 0.000000 0.836525 0.848434
O O2 0.000000 0.748005 0.998198
O O3 0.083236 0.000134 0.956995
O O4 0.746901 0.659095 0.204646
O O5 0.830806 0.410187 0.167925
O O6 0.914056 0.651236 0.210110
O O7 0.826147 0.507792 0.320450
O O8 0.167634 0.253000 0.917916
O O9 0.249751 0.002879 0.960680
O O10 0.162730 0.164579 0.067648
O O11 0.582877 0.330688 0.708396
O O12 0.000000 0.410101 0.247756
O O13 0.000000 0.511636 0.096243
O O14 0.416701 0.999560 0.456534
#
# Coordination Sequence:
#
# PCOD9352617 Si02
#       8
#     4   8   8   8   4   4   8   4
#     4  12  26  44  68 100 135 178 225 274 331 396
#     4  11  23  41  64  93 127 170 215 267 326 389
#     4  12  25  43  67 100 135 178 225 276 333 398
#     4  11  22  41  64  92 129 169 213 268 327 387
#     4  10  22  40  63  92 125 168 213 262 329 394
#     4  10  21  42  64  90 129 173 213 266 326 388
#     4  12  24  43  68  98 134 175 224 276 331 398
#     4  12  23  42  69  98 133 175 219 274 332 396
#
# _framework density 21.404399999999999
#
# number of rings (size 3 to 8) (size 9 to 14) (size 15 to 20)
#    0.000    0.667    0.000   10.500    0.000    1.333 
#    0.000    2.500    0.000    0.000    0.000    0.000 
#    0.000    0.000    0.000    0.000    0.000    0.000 
#
# Total GULP energy -134365.038402 kJ/mol
# GULP energy per Si atom -5598.543267 kJ/mol
# Density = 2.135568 g / cm^3
# Si number density = 21.404400 Si / 1000 Ang^3
#
#
#
# Elastic Constant Matrix: (Units=GPa)
#
#
# Indices 1 2 3 4 5 6 
#
# 1 213.2482 48.1840 22.6973 0.0000 0.0000 0.0000
# 2 48.1840 89.3657 -1.6577 0.0000 0.0000 0.0000
# 3 22.6973 -1.6577 85.8321 0.0000 0.0000 0.0000
# 4 0.0000 0.0000 0.0000 15.5003 0.0000 0.0000
# 5 0.0000 0.0000 0.0000 0.0000 41.1542 0.0000
# 6 0.0000 0.0000 0.0000 0.0000 0.0000 38.9501
#
#
#
# Elastic Compliance Matrix: (Units=1/GPa)
#
#
# Indices 1 2 3 4 5 6 
#
# 1 0.005532 -0.003011 -0.001521 0.000000 0.000000 0.000000
# 2 -0.003011 0.012833 0.001044 0.000000 0.000000 0.000000
# 3 -0.001521 0.001044 0.012073 0.000000 0.000000 0.000000
# 4 0.000000 0.000000 0.000000 0.064515 0.000000 0.000000
# 5 0.000000 0.000000 0.000000 0.000000 0.024299 0.000000
# 6 0.000000 0.000000 0.000000 0.000000 0.000000 0.025674
#
#
# Mechanical properties :
#
#
# Convention : Reuss Voigt Hill
#
# Bulk Modulus (GPa) = 42.62221 58.54371 50.58296
# Shear Modulus (GPa) = 31.30468 40.40243 35.85355
#
# Velocity S-wave (km/s) = 3.82846 4.34934 4.09718
# Velocity P-wave (km/s) = 6.28481 7.25486 6.78719
#
# Compressibility (1/GPa) = 0.02346195
#
# Stress axis : x y z
#
# Youngs Moduli (GPa) = 180.78209 77.92633 82.82947
#
# Poissons Ratio (x) = 0.23461 0.12597
# Poissons Ratio (y) = 0.54428 -0.08647
# Poissons Ratio (z) = 0.27495 -0.08135
#
# Static dielectric constant tensor:
#      x y z
#    x 1.783240 0.000000 0.000000 
#    y 0.000000 1.762710 0.000000 
#    z 0.000000 0.000000 1.765480 
# 
# From -- ./inp_files/12533.got.cif
#   From: 2010.05.17/outbox.cif.g08.bks.cpg/sg36_7_cif.got.tgz:12533.got - 2010.06.03 17:41:39.
