data_PCOD9352774
_publ_section_title
;
Structure prediction by ZEFSAII (Michael W. Deem and Ramdas Pophale) SiO2 
 PCOD9352774
Probable space group: C M C 21
;
_chemical_formula_sum "Si O2"
_cell_formula_units_Z 64
_cell_length_a 8.348740
_cell_length_b 14.823662
_cell_length_c 22.234076
_cell_angle_alpha 90.000000
_cell_angle_beta 90.000000
_cell_angle_gamma 90.000000
_cell_volume 2751.664786
_symmetry_space_group_name_H-M "C M C 21"
_symmetry_group_IT_number 36
_symmetry_cell_setting 'orthorhombic'
loop_
_space_group_symop_operation_xyz
x,y,z
-x,-y,1/2+z
x,-y,1/2+z
-x,y,z
1/2+x,1/2+y,z
1/2-x,1/2-y,1/2+z
1/2+x,1/2-y,1/2+z
1/2-x,1/2+y,z
loop_
_atom_site_type_symbol
_atom_site_label
_atom_site_fract_x
_atom_site_fract_y
_atom_site_fract_z
Si Si1 0.691950 0.837704 0.707040
Si Si2 0.196084 0.521944 0.301878
Si Si3 0.687514 0.971624 0.604797
Si Si4 0.310706 0.664429 0.011825
Si Si5 0.815261 0.782613 0.378893
Si Si6 0.184276 0.856329 0.048961
Si Si7 0.314518 0.922300 0.925837
Si Si8 0.814734 0.339568 0.253058
O O1 0.500000 0.839875 0.703738
O O2 0.754774 0.902810 0.654812
O O3 0.740231 0.734002 0.709124
O O4 0.741903 0.886008 0.768994
O O5 0.248635 0.516190 0.371188
O O6 0.251576 0.440511 0.259391
O O7 0.000000 0.519237 0.304315
O O8 0.500000 0.985471 0.616225
O O9 0.713376 0.913367 0.544542
O O10 0.763593 0.070107 0.598044
O O11 0.500000 0.645199 0.015282
O O12 0.279551 0.762421 0.042377
O O13 0.264883 0.672320 0.941766
O O14 0.817999 0.676791 0.395198
O O15 0.708514 0.804619 0.321650
O O16 0.000000 0.807532 0.364284
O O17 0.000000 0.832102 0.056628
O O18 0.212679 0.908821 0.985608
O O19 0.500000 0.944641 0.941596
O O20 0.000000 0.346119 0.237554
#
# Coordination Sequence:
#
# PCOD9352774 Si02
#       8
#     8   8   8   8   8   8   8   8
#     4  10  22  44  64  81 116 163 205 245 297 363
#     4   9  19  37  59  84 115 157 198 238 294 360
#     4  11  24  41  65  91 118 163 215 258 306 365
#     4  10  22  41  63  89 123 164 205 253 310 365
#     4   9  18  35  59  84 117 159 196 239 300 364
#     4  11  23  39  60  91 128 161 202 254 307 367
#     4   9  17  35  61  84 117 162 202 243 298 363
#     4  11  22  34  57  92 120 151 197 252 302 351
#
# _framework density 23.258645999999999
#
# number of rings (size 3 to 8) (size 9 to 14) (size 15 to 20)
#    0.000    2.000    1.250    3.000    1.750    4.500 
#    0.000    3.125    0.000    0.000    0.000    0.000 
#    0.000    0.000    0.000    0.000    0.000    0.000 
#
# Total GULP energy -178835.375684 kJ/mol
# GULP energy per Si atom -5588.605490 kJ/mol
# Density = 2.320571 g / cm^3
# Si number density = 23.258646 Si / 1000 Ang^3
#
#
#
# Elastic Constant Matrix: (Units=GPa)
#
#
# Indices 1 2 3 4 5 6 
#
# 1 24.1699 -4.8535 -2.8307 0.0000 0.0000 0.0000
# 2 -4.8535 92.2419 8.6990 0.0000 0.0000 0.0000
# 3 -2.8307 8.6990 27.0116 0.0000 0.0000 0.0000
# 4 0.0000 0.0000 0.0000 36.6799 0.0000 0.0000
# 5 0.0000 0.0000 0.0000 0.0000 20.4416 0.0000
# 6 0.0000 0.0000 0.0000 0.0000 0.0000 18.3025
#
#
#
# Elastic Compliance Matrix: (Units=1/GPa)
#
#
# Indices 1 2 3 4 5 6 
#
# 1 0.042195 0.001860 0.003823 0.000000 0.000000 0.000000
# 2 0.001860 0.011263 -0.003432 0.000000 0.000000 0.000000
# 3 0.003823 -0.003432 0.038527 0.000000 0.000000 0.000000
# 4 0.000000 0.000000 0.000000 0.027263 0.000000 0.000000
# 5 0.000000 0.000000 0.000000 0.000000 0.048920 0.000000
# 6 0.000000 0.000000 0.000000 0.000000 0.000000 0.054637
#
#
# Mechanical properties :
#
#
# Convention : Reuss Voigt Hill
#
# Bulk Modulus (GPa) = 10.36428 16.16145 13.26286
# Shear Modulus (GPa) = 19.96281 24.57870 22.27075
#
# Velocity S-wave (km/s) = 2.93285 3.25430 3.09775
# Velocity P-wave (km/s) = 3.99181 4.59177 4.30226
#
# Compressibility (1/GPa) = 0.09648527
#
# Stress axis : x y z
#
# Youngs Moduli (GPa) = 23.69956 88.78953 25.95578
#
# Poissons Ratio (x) = -0.16512 -0.09923
# Poissons Ratio (y) = -0.04407 0.08909
# Poissons Ratio (z) = -0.09060 0.30474
#
# Static dielectric constant tensor:
#      x y z
#    x 1.802440 0.000000 0.000000 
#    y 0.000000 1.896130 0.000000 
#    z 0.000000 0.000000 1.936430 
# 
# From -- ./inp_files/16564.got.cif
#   From: 2010.05.17/outbox.cif.g08.bks.cpg/sg36_9_cif.got.tgz:16564.got - 2010.06.03 17:41:39.
