data_PCOD9352226
_publ_section_title
;
Structure prediction by ZEFSAII (Michael W. Deem and Ramdas Pophale) SiO2 
 PCOD9352226
Probable space group: C M C 21
;
_chemical_formula_sum "Si O2"
_cell_formula_units_Z 44
_cell_length_a 10.982142
_cell_length_b 15.434287
_cell_length_c 12.882565
_cell_angle_alpha 90.000000
_cell_angle_beta 90.000000
_cell_angle_gamma 90.000000
_cell_volume 2183.614497
_symmetry_space_group_name_H-M "C M C 21"
_symmetry_group_IT_number 36
_symmetry_cell_setting 'orthorhombic'
loop_
_space_group_symop_operation_xyz
x,y,z
-x,-y,1/2+z
x,-y,1/2+z
-x,y,z
1/2+x,1/2+y,z
1/2-x,1/2-y,1/2+z
1/2+x,1/2-y,1/2+z
1/2-x,1/2+y,z
loop_
_atom_site_type_symbol
_atom_site_label
_atom_site_fract_x
_atom_site_fract_y
_atom_site_fract_z
Si Si1 0.500000 0.702729 0.398250
Si Si2 0.000000 0.349640 0.561948
Si Si3 0.137531 0.277230 0.961325
Si Si4 0.000000 0.883218 0.694282
Si Si5 0.000000 0.741743 0.275586
Si Si6 0.811650 0.912188 0.020635
Si Si7 0.769355 0.896521 0.540892
Si Si8 0.500000 0.575268 0.706699
O O1 0.500000 0.795406 0.454514
O O2 0.500000 0.695089 0.275095
O O3 0.613151 0.646941 0.441174
O O4 0.000000 0.280559 0.655904
O O5 0.872466 0.400021 0.573653
O O6 0.000000 0.256594 0.996808
O O7 0.115598 0.295108 0.838777
O O8 0.187013 0.359009 0.023557
O O9 0.216515 0.191378 0.975531
O O10 0.875032 0.885057 0.627722
O O11 0.000000 0.978211 0.749856
O O12 0.000000 0.845795 0.286368
O O13 0.884298 0.913619 0.129351
O O14 0.798574 0.011713 0.987487
#
# Coordination Sequence:
#
# PCOD9352226 Si02
#       8
#     4   4   8   4   4   8   8   4
#     4  11  22  38  66  89 120 161 209 261 303 365
#     4  12  24  40  62  87 132 168 201 250 321 374
#     4  10  22  36  63  89 121 166 202 253 310 368
#     4  10  23  36  67  96 118 157 223 266 300 366
#     4  10  21  35  60  89 126 161 209 245 314 371
#     4  10  21  40  60  87 124 157 205 258 314 360
#     4  11  23  42  63  92 123 165 206 261 314 372
#     4   9  18  39  61  89 118 163 206 260 314 366
#
# _framework density 20.150078000000001
#
# number of rings (size 3 to 8) (size 9 to 14) (size 15 to 20)
#    0.545    1.091    4.545    0.545    6.364    0.000 
#    0.000    0.000    0.000    0.000    0.000    0.000 
#    0.000    0.000    0.000    0.000    0.000    0.000 
#
# Total GULP energy -122502.214028 kJ/mol
# GULP energy per Si atom -5568.282456 kJ/mol
# Density = 2.010422 g / cm^3
# Si number density = 20.150078 Si / 1000 Ang^3
#
#
#
# Elastic Constant Matrix: (Units=GPa)
#
#
# Indices 1 2 3 4 5 6 
#
# 1 107.1731 6.3729 12.6835 0.0000 0.0000 0.0000
# 2 6.3729 77.7665 11.3154 0.0000 0.0000 0.0000
# 3 12.6835 11.3154 33.1718 0.0000 0.0000 0.0000
# 4 0.0000 0.0000 0.0000 20.8496 0.0000 0.0000
# 5 0.0000 0.0000 0.0000 0.0000 3.0786 0.0000
# 6 0.0000 0.0000 0.0000 0.0000 0.0000 20.4239
#
#
#
# Elastic Compliance Matrix: (Units=1/GPa)
#
#
# Indices 1 2 3 4 5 6 
#
# 1 0.009778 -0.000271 -0.003646 0.000000 0.000000 0.000000
# 2 -0.000271 0.013538 -0.004515 0.000000 0.000000 0.000000
# 3 -0.003646 -0.004515 0.033080 0.000000 0.000000 0.000000
# 4 0.000000 0.000000 0.000000 0.047963 0.000000 0.000000
# 5 0.000000 0.000000 0.000000 0.000000 0.324825 0.000000
# 6 0.000000 0.000000 0.000000 0.000000 0.000000 0.048962
#
#
# Mechanical properties :
#
#
# Convention : Reuss Voigt Hill
#
# Bulk Modulus (GPa) = 25.29516 30.98389 28.13952
# Shear Modulus (GPa) = 9.83888 21.38638 15.61263
#
# Velocity S-wave (km/s) = 2.21210 3.26138 2.78657
# Velocity P-wave (km/s) = 4.37095 5.43986 4.93443
#
# Compressibility (1/GPa) = 0.03953326
#
# Stress axis : x y z
#
# Youngs Moduli (GPa) = 102.26686 73.86570 30.22944
#
# Poissons Ratio (x) = 0.02000 0.11023
# Poissons Ratio (y) = 0.02769 0.13647
# Poissons Ratio (z) = 0.37291 0.33347
#
# Static dielectric constant tensor:
#      x y z
#    x 1.839170 0.000000 0.000000 
#    y 0.000000 1.704510 0.000000 
#    z 0.000000 0.000000 1.736070 
# 
# From -- ./inp_files/11513.got.cif
#   From: 2010.05.17/outbox.cif.g08.bks.cpg/sg36_6_cif.got.tgz:11513.got - 2010.06.03 17:41:39.
