data_PCOD9352377
_publ_section_title
;
Structure prediction by ZEFSAII (Michael W. Deem and Ramdas Pophale) SiO2 
 PCOD9352377
Probable space group: C M C 21
;
_chemical_formula_sum "Si O2"
_cell_formula_units_Z 48
_cell_length_a 31.613416
_cell_length_b 9.338730
_cell_length_c 8.089224
_cell_angle_alpha 90.000000
_cell_angle_beta 90.000000
_cell_angle_gamma 90.000000
_cell_volume 2388.174777
_symmetry_space_group_name_H-M "C M C 21"
_symmetry_group_IT_number 36
_symmetry_cell_setting 'orthorhombic'
loop_
_space_group_symop_operation_xyz
x,y,z
-x,-y,1/2+z
x,-y,1/2+z
-x,y,z
1/2+x,1/2+y,z
1/2-x,1/2-y,1/2+z
1/2+x,1/2-y,1/2+z
1/2-x,1/2+y,z
loop_
_atom_site_type_symbol
_atom_site_label
_atom_site_fract_x
_atom_site_fract_y
_atom_site_fract_z
Si Si1 0.786807 0.786375 0.415250
Si Si2 0.548021 0.213331 0.997062
Si Si3 0.951808 0.404964 0.869472
Si Si4 0.878314 0.093038 0.369422
Si Si5 0.121622 0.215096 0.999893
Si Si6 0.788480 0.098104 0.542164
O O1 0.832467 0.719603 0.458650
O O2 0.787851 0.846101 0.229154
O O3 0.748799 0.678402 0.445728
O O4 0.781931 0.927293 0.530248
O O5 0.500000 0.266790 0.972453
O O6 0.551195 0.152384 0.182889
O O7 0.582857 0.331325 0.960902
O O8 0.554787 0.075076 0.880598
O O9 0.000000 0.378325 0.929659
O O10 0.916479 0.323685 0.974000
O O11 0.877442 0.150001 0.183209
O O12 0.833899 0.127161 0.458633
O O13 0.883545 0.921944 0.379294
#
# Coordination Sequence:
#
# PCOD9352377 Si02
#       6
#     8   8   8   8   8   8
#     4  11  22  39  60  85 115 148 187 231 280 332
#     4  10  21  38  59  84 114 148 187 232 281 333
#     4  10  21  38  59  84 114 148 187 232 281 333
#     4  11  22  38  59  84 114 149 188 231 280 332
#     4  11  22  38  59  84 114 149 188 231 280 332
#     4  11  22  39  60  85 115 148 187 231 280 332
#
# _framework density 20.099029999999999
#
# number of rings (size 3 to 8) (size 9 to 14) (size 15 to 20)
#    0.000    1.333    0.000    9.000    0.000    4.000 
#    0.000    6.667    0.000    0.000    0.000    0.000 
#    0.000    0.000    0.000    0.000    0.000    0.000 
#
# Total GULP energy -134251.831139 kJ/mol
# GULP energy per Si atom -5593.826297 kJ/mol
# Density = 2.005328 g / cm^3
# Si number density = 20.099030 Si / 1000 Ang^3
#
#
#
# Elastic Constant Matrix: (Units=GPa)
#
#
# Indices 1 2 3 4 5 6 
#
# 1 152.5092 65.8826 6.4061 0.0000 0.0000 0.0000
# 2 65.8826 37.7511 -8.9462 0.0000 0.0000 0.0000
# 3 6.4061 -8.9462 53.4690 0.0000 0.0000 0.0000
# 4 0.0000 0.0000 0.0000 33.2543 0.0000 0.0000
# 5 0.0000 0.0000 0.0000 0.0000 28.5603 0.0000
# 6 0.0000 0.0000 0.0000 0.0000 0.0000 36.3801
#
#
#
# Elastic Compliance Matrix: (Units=1/GPa)
#
#
# Indices 1 2 3 4 5 6 
#
# 1 0.035600 -0.065746 -0.015266 0.000000 0.000000 0.000000
# 2 -0.065746 0.149003 0.032808 0.000000 0.000000 0.000000
# 3 -0.015266 0.032808 0.026021 0.000000 0.000000 0.000000
# 4 0.000000 0.000000 0.000000 0.030071 0.000000 0.000000
# 5 0.000000 0.000000 0.000000 0.000000 0.035014 0.000000
# 6 0.000000 0.000000 0.000000 0.000000 0.000000 0.027488
#
#
# Mechanical properties :
#
#
# Convention : Reuss Voigt Hill
#
# Bulk Modulus (GPa) = 8.75539 41.15713 24.95626
# Shear Modulus (GPa) = 11.42399 31.66471 21.54435
#
# Velocity S-wave (km/s) = 2.38667 3.97348 3.27756
# Velocity P-wave (km/s) = 3.45840 6.44771 5.17366
#
# Compressibility (1/GPa) = 0.11421539
#
# Stress axis : x y z
#
# Youngs Moduli (GPa) = 28.09003 6.71129 38.43106
#
# Poissons Ratio (x) = 0.44124 0.58667
# Poissons Ratio (y) = 1.84680 -1.26083
# Poissons Ratio (z) = 0.42881 -0.22018
#
# Static dielectric constant tensor:
#      x y z
#    x 1.692310 0.000000 0.000000 
#    y 0.000000 1.668220 0.000000 
#    z 0.000000 0.000000 1.737000 
# 
# From -- ./inp_files/5981.got.cif
#   From: 2010.05.17/outbox.cif.g08.bks.cpg/sg36_3_cif.got.tgz:5981.got - 2010.06.03 17:41:39.
