data_PCOD9352123
_publ_section_title
;
Structure prediction by ZEFSAII (Michael W. Deem and Ramdas Pophale) SiO2 
 PCOD9352123
Probable space group: C M C 21
;
_chemical_formula_sum "Si O2"
_cell_formula_units_Z 56
_cell_length_a 16.612232
_cell_length_b 15.438394
_cell_length_c 8.475445
_cell_angle_alpha 90.000000
_cell_angle_beta 90.000000
_cell_angle_gamma 90.000000
_cell_volume 2173.665027
_symmetry_space_group_name_H-M "C M C 21"
_symmetry_group_IT_number 36
_symmetry_cell_setting 'orthorhombic'
loop_
_space_group_symop_operation_xyz
x,y,z
-x,-y,1/2+z
x,-y,1/2+z
-x,y,z
1/2+x,1/2+y,z
1/2-x,1/2-y,1/2+z
1/2+x,1/2-y,1/2+z
1/2-x,1/2+y,z
loop_
_atom_site_type_symbol
_atom_site_label
_atom_site_fract_x
_atom_site_fract_y
_atom_site_fract_z
Si Si1 0.088622 0.185255 0.785700
Si Si2 0.309773 0.576991 0.355651
Si Si3 0.910873 0.507290 0.698848
Si Si4 0.309879 0.074332 0.968916
Si Si5 0.091390 0.967646 0.544365
Si Si6 0.587989 0.810570 0.078913
Si Si7 0.241166 0.735052 0.788406
O O1 0.093836 0.098692 0.895338
O O2 0.087534 0.263724 0.912453
O O3 0.175288 0.204014 0.708469
O O4 0.000000 0.185285 0.706964
O O5 0.251535 0.499915 0.413899
O O6 0.382840 0.561655 0.479327
O O7 0.265509 0.668135 0.352511
O O8 0.348558 0.560912 0.183283
O O9 0.886448 0.558741 0.855304
O O10 0.843911 0.440117 0.642592
O O11 0.907765 0.585639 0.570930
O O12 0.000000 0.470810 0.707757
O O13 0.272151 0.166228 0.930186
O O14 0.000000 0.966934 0.604008
O O15 0.500000 0.789967 0.153637
O O16 0.663924 0.778024 0.176747
#
# Coordination Sequence:
#
# PCOD9352123 Si02
#       7
#     8   8   8   8   8   8   8
#     4  10  20  40  66  94 131 179 231 285 343 415
#     4  12  24  44  70 100 136 184 231 288 357 416
#     4  10  21  39  62  92 129 172 220 280 340 410
#     4  11  23  40  64  96 131 173 230 284 343 417
#     4  11  24  44  70 101 139 183 234 291 350 420
#     4   9  19  37  64  92 127 180 229 268 341 424
#     4  11  23  40  68  97 135 181 235 290 344 420
#
# _framework density 25.762938999999999
#
# number of rings (size 3 to 8) (size 9 to 14) (size 15 to 20)
#    0.000    1.429    2.857    2.571    0.000    2.286 
#    0.000    0.714    0.000    0.857    0.000    0.000 
#    0.000    0.000    0.000    0.000    0.000    0.000 
#
# Total GULP energy -156773.206371 kJ/mol
# GULP energy per Si atom -5599.043085 kJ/mol
# Density = 2.570430 g / cm^3
# Si number density = 25.762939 Si / 1000 Ang^3
#
#
#
# Elastic Constant Matrix: (Units=GPa)
#
#
# Indices 1 2 3 4 5 6 
#
# 1 213.8431 53.5165 36.8935 0.0000 0.0000 0.0000
# 2 53.5165 146.7797 31.2646 0.0000 0.0000 0.0000
# 3 36.8935 31.2646 50.1089 0.0000 0.0000 0.0000
# 4 0.0000 0.0000 0.0000 28.7103 0.0000 0.0000
# 5 0.0000 0.0000 0.0000 0.0000 41.1603 0.0000
# 6 0.0000 0.0000 0.0000 0.0000 0.0000 29.1217
#
#
#
# Elastic Compliance Matrix: (Units=1/GPa)
#
#
# Indices 1 2 3 4 5 6 
#
# 1 0.005575 -0.001336 -0.003271 0.000000 0.000000 0.000000
# 2 -0.001336 0.008177 -0.004118 0.000000 0.000000 0.000000
# 3 -0.003271 -0.004118 0.024935 0.000000 0.000000 0.000000
# 4 0.000000 0.000000 0.000000 0.034831 0.000000 0.000000
# 5 0.000000 0.000000 0.000000 0.000000 0.024295 0.000000
# 6 0.000000 0.000000 0.000000 0.000000 0.000000 0.034339
#
#
# Mechanical properties :
#
#
# Convention : Reuss Voigt Hill
#
# Bulk Modulus (GPa) = 47.09035 72.67568 59.88302
# Shear Modulus (GPa) = 31.91192 39.06892 35.49042
#
# Velocity S-wave (km/s) = 3.52330 3.89842 3.71560
# Velocity P-wave (km/s) = 5.90504 6.96665 6.45770
#
# Compressibility (1/GPa) = 0.02123577
#
# Stress axis : x y z
#
# Youngs Moduli (GPa) = 179.37172 122.29038 40.10486
#
# Poissons Ratio (x) = 0.16337 0.13119
# Poissons Ratio (y) = 0.23962 0.16517
# Poissons Ratio (z) = 0.58676 0.50365
#
# Static dielectric constant tensor:
#      x y z
#    x 2.075560 0.000000 0.000000 
#    y 0.000000 2.014320 0.000000 
#    z 0.000000 0.000000 2.136080 
# 
# From -- ./inp_files/8496.got.cif
#   From: 2010.05.17/outbox.cif.g08.bks.cpg/sg36_5_cif.got.tgz:8496.got - 2010.06.03 17:41:39.
