data_PCOD9352840
_publ_section_title
;
Structure prediction by ZEFSAII (Michael W. Deem and Ramdas Pophale) SiO2 
 PCOD9352840
Probable space group: C M C 21
;
_chemical_formula_sum "Si O2"
_cell_formula_units_Z 56
_cell_length_a 16.549962
_cell_length_b 15.169386
_cell_length_c 9.065491
_cell_angle_alpha 90.000000
_cell_angle_beta 90.000000
_cell_angle_gamma 90.000000
_cell_volume 2275.916553
_symmetry_space_group_name_H-M "C M C 21"
_symmetry_group_IT_number 36
_symmetry_cell_setting 'orthorhombic'
loop_
_space_group_symop_operation_xyz
x,y,z
-x,-y,1/2+z
x,-y,1/2+z
-x,y,z
1/2+x,1/2+y,z
1/2-x,1/2-y,1/2+z
1/2+x,1/2-y,1/2+z
1/2-x,1/2+y,z
loop_
_atom_site_type_symbol
_atom_site_label
_atom_site_fract_x
_atom_site_fract_y
_atom_site_fract_z
Si Si1 0.910927 0.170155 0.707940
Si Si2 0.751550 0.568878 0.352939
Si Si3 0.590315 0.128267 0.828825
Si Si4 0.810007 0.114592 0.962678
Si Si5 0.091767 0.543687 0.157278
Si Si6 0.413581 0.536947 0.177739
Si Si7 0.303502 0.746530 0.479296
O O1 0.837007 0.169764 0.820636
O O2 0.883270 0.230817 0.575302
O O3 0.000000 0.194621 0.762003
O O4 0.913623 0.067857 0.658427
O O5 0.742289 0.473747 0.434626
O O6 0.833572 0.576639 0.258467
O O7 0.667638 0.563840 0.260810
O O8 0.739166 0.653735 0.453888
O O9 0.500000 0.166377 0.820103
O O10 0.594394 0.073435 0.985690
O O11 0.659772 0.201304 0.838781
O O12 0.599351 0.061196 0.691718
O O13 0.896438 0.081811 0.021732
O O14 0.758271 0.184913 0.051764
O O15 0.000000 0.567396 0.209245
O O16 0.500000 0.563310 0.242621
#
# Coordination Sequence:
#
# PCOD9352840 Si02
#       7
#     8   8   8   8   8   8   8
#     4  10  23  42  68  99 134 177 227 281 345 415
#     4  11  24  42  68  99 138 176 228 282 345 409
#     4  10  22  42  70 100 136 179 233 286 347 416
#     4  11  23  41  65 100 139 177 223 280 342 412
#     4  10  22  43  70 102 141 185 230 285 346 418
#     4  10  22  43  69  96 135 179 222 282 346 403
#     4  12  24  41  68 100 131 181 230 284 336 413
#
# _framework density 24.605471000000001
#
# number of rings (size 3 to 8) (size 9 to 14) (size 15 to 20)
#    0.000    1.429    2.857    1.714    4.000    1.714 
#    0.000    0.714    0.000    0.000    0.000    0.000 
#    0.000    0.000    0.000    0.000    0.000    0.000 
#
# Total GULP energy -156361.677393 kJ/mol
# GULP energy per Si atom -5584.345621 kJ/mol
# Density = 2.454947 g / cm^3
# Si number density = 24.605471 Si / 1000 Ang^3
#
#
#
# Elastic Constant Matrix: (Units=GPa)
#
#
# Indices 1 2 3 4 5 6 
#
# 1 188.3881 44.4457 12.4087 0.0000 0.0000 0.0000
# 2 44.4457 97.3071 23.1136 0.0000 0.0000 0.0000
# 3 12.4087 23.1136 20.4154 0.0000 0.0000 0.0000
# 4 0.0000 0.0000 0.0000 29.3644 0.0000 0.0000
# 5 0.0000 0.0000 0.0000 0.0000 22.2840 0.0000
# 6 0.0000 0.0000 0.0000 0.0000 0.0000 -13.6606
#
#
#
# Elastic Compliance Matrix: (Units=1/GPa)
#
#
# Indices 1 2 3 4 5 6 
#
# 1 0.005957 -0.002546 -0.000739 0.000000 0.000000 0.000000
# 2 -0.002546 0.015145 -0.015599 0.000000 0.000000 0.000000
# 3 -0.000739 -0.015599 0.067093 0.000000 0.000000 0.000000
# 4 0.000000 0.000000 0.000000 0.034055 0.000000 0.000000
# 5 0.000000 0.000000 0.000000 0.000000 0.044875 0.000000
# 6 0.000000 0.000000 0.000000 0.000000 0.000000 -0.073203
#
#
# Mechanical properties :
#
#
# Convention : Reuss Voigt Hill
#
# Bulk Modulus (GPa) = 19.83046 51.78296 35.80671
# Shear Modulus (GPa) = 33.67040 22.67373 28.17207
#
# Velocity S-wave (km/s) = 3.70322 3.03890 3.38738
# Velocity P-wave (km/s) = 5.13439 5.77964 5.46654
#
# Compressibility (1/GPa) = 0.05042749
#
# Stress axis : x y z
#
# Youngs Moduli (GPa) = 167.85752 66.02943 14.90474
#
# Poissons Ratio (x) = 0.16808 0.01101
# Poissons Ratio (y) = 0.42729 0.23250
# Poissons Ratio (z) = 0.12405 1.03000
#
# Static dielectric constant tensor:
#      x y z
#    x 1.991310 0.000000 0.000000 
#    y 0.000000 1.929470 0.000000 
#    z 0.000000 0.000000 2.108100 
# 
# From -- ./inp_files/8482.got.cif
#   From: 2010.05.17/outbox.cif.g08.bks.cpg/sg36_5_cif.got.tgz:8482.got - 2010.06.03 17:41:39.
