data_PCOD9352971
_publ_section_title
;
Structure prediction by ZEFSAII (Michael W. Deem and Ramdas Pophale) SiO2 
 PCOD9352971
Probable space group: C M C 21
;
_chemical_formula_sum "Si O2"
_cell_formula_units_Z 32
_cell_length_a 24.504608
_cell_length_b 5.050243
_cell_length_c 9.745228
_cell_angle_alpha 90.000000
_cell_angle_beta 90.000000
_cell_angle_gamma 90.000000
_cell_volume 1206.013139
_symmetry_space_group_name_H-M "C M C 21"
_symmetry_group_IT_number 36
_symmetry_cell_setting 'orthorhombic'
loop_
_space_group_symop_operation_xyz
x,y,z
-x,-y,1/2+z
x,-y,1/2+z
-x,y,z
1/2+x,1/2+y,z
1/2-x,1/2-y,1/2+z
1/2+x,1/2-y,1/2+z
1/2-x,1/2+y,z
loop_
_atom_site_type_symbol
_atom_site_label
_atom_site_fract_x
_atom_site_fract_y
_atom_site_fract_z
Si Si1 0.938354 0.992522 0.508920
Si Si2 0.940953 0.494719 0.705801
Si Si3 0.283559 0.159296 0.628567
Si Si4 0.851375 0.366297 0.399403
O O1 0.942639 0.239745 0.612316
O O2 0.885143 0.093456 0.424695
O O3 0.000000 0.961790 0.444854
O O4 0.929608 0.742809 0.607344
O O5 0.897641 0.461860 0.824464
O O6 0.000000 0.543197 0.769718
O O7 0.231572 0.965392 0.603808
O O8 0.327275 0.016662 0.530415
O O9 0.304008 0.154048 0.785459
#
# Coordination Sequence:
#
# PCOD9352971 Si02
#       4
#     8   8   8   8
#     4  10  23  43  71 113 154 190 239 297 369 460
#     4  10  23  43  71 113 154 190 239 297 369 460
#     4  12  30  50  73 108 145 192 258 328 376 440
#     4  12  25  50  80 106 148 200 249 308 396 450
#
# _framework density 26.533709000000002
#
# number of rings (size 3 to 8) (size 9 to 14) (size 15 to 20)
#    0.000    1.000    2.500    2.250    3.500    6.000 
#    0.000    7.500    0.000    0.000    0.000    0.000 
#    0.000    0.000    0.000    0.000    0.000    0.000 
#
# Total GULP energy -89626.146749 kJ/mol
# GULP energy per Si atom -5601.634172 kJ/mol
# Density = 2.647332 g / cm^3
# Si number density = 26.533709 Si / 1000 Ang^3
#
#
#
# Elastic Constant Matrix: (Units=GPa)
#
#
# Indices 1 2 3 4 5 6 
#
# 1 110.8033 33.1043 23.2977 0.0000 0.0000 0.0000
# 2 33.1043 174.3215 57.0671 0.0000 0.0000 0.0000
# 3 23.2977 57.0671 99.7989 0.0000 0.0000 0.0000
# 4 0.0000 0.0000 0.0000 36.3722 0.0000 0.0000
# 5 0.0000 0.0000 0.0000 0.0000 19.5617 0.0000
# 6 0.0000 0.0000 0.0000 0.0000 0.0000 56.3060
#
#
#
# Elastic Compliance Matrix: (Units=1/GPa)
#
#
# Indices 1 2 3 4 5 6 
#
# 1 0.009746 -0.001361 -0.001497 0.000000 0.000000 0.000000
# 2 -0.001361 0.007248 -0.003827 0.000000 0.000000 0.000000
# 3 -0.001497 -0.003827 0.012558 0.000000 0.000000 0.000000
# 4 0.000000 0.000000 0.000000 0.027494 0.000000 0.000000
# 5 0.000000 0.000000 0.000000 0.000000 0.051120 0.000000
# 6 0.000000 0.000000 0.000000 0.000000 0.000000 0.017760
#
#
# Mechanical properties :
#
#
# Convention : Reuss Voigt Hill
#
# Bulk Modulus (GPa) = 61.79457 67.98466 64.88962
# Shear Modulus (GPa) = 34.55680 40.54494 37.55087
#
# Velocity S-wave (km/s) = 3.61276 3.91327 3.76601
# Velocity P-wave (km/s) = 6.38297 6.78940 6.58932
#
# Compressibility (1/GPa) = 0.01618265
#
# Stress axis : x y z
#
# Youngs Moduli (GPa) = 102.60264 137.97520 79.63144
#
# Poissons Ratio (x) = 0.18775 0.11922
# Poissons Ratio (y) = 0.13962 0.30473
# Poissons Ratio (z) = 0.15361 0.52799
#
# Static dielectric constant tensor:
#      x y z
#    x 2.187900 0.000000 0.000000 
#    y 0.000000 2.026170 0.000000 
#    z 0.000000 0.000000 2.064220 
# 
# From -- ./inp_files/9535.got.cif
#   From: 2010.05.17/outbox.cif.g08.bks.cpg/sg36_5_cif.got.tgz:9535.got - 2010.06.03 17:41:39.
