data_PCOD9352200
_publ_section_title
;
Structure prediction by ZEFSAII (Michael W. Deem and Ramdas Pophale) SiO2 
 PCOD9352200
Probable space group: C M C 21
;
_chemical_formula_sum "Si O2"
_cell_formula_units_Z 48
_cell_length_a 7.620738
_cell_length_b 24.603788
_cell_length_c 12.323352
_cell_angle_alpha 90.000000
_cell_angle_beta 90.000000
_cell_angle_gamma 90.000000
_cell_volume 2310.616450
_symmetry_space_group_name_H-M "C M C 21"
_symmetry_group_IT_number 36
_symmetry_cell_setting 'orthorhombic'
loop_
_space_group_symop_operation_xyz
x,y,z
-x,-y,1/2+z
x,-y,1/2+z
-x,y,z
1/2+x,1/2+y,z
1/2-x,1/2-y,1/2+z
1/2+x,1/2-y,1/2+z
1/2-x,1/2+y,z
loop_
_atom_site_type_symbol
_atom_site_label
_atom_site_fract_x
_atom_site_fract_y
_atom_site_fract_z
Si Si1 0.788877 0.831908 0.699200
Si Si2 0.206704 0.137054 0.437287
Si Si3 0.715127 0.888006 0.279649
Si Si4 0.210792 0.420690 0.517454
Si Si5 0.212225 0.712490 0.635712
Si Si6 0.295410 0.037718 0.586261
O O1 0.722796 0.848432 0.818538
O O2 0.748128 0.877733 0.611422
O O3 0.723660 0.773022 0.659818
O O4 0.000000 0.827359 0.707935
O O5 0.232417 0.186666 0.521172
O O6 0.285426 0.083427 0.492986
O O7 0.000000 0.126459 0.427941
O O8 0.500000 0.888181 0.278662
O O9 0.775959 0.899810 0.400900
O O10 0.768282 0.830205 0.228754
O O11 0.777255 0.934034 0.194800
O O12 0.280858 0.480273 0.549312
O O13 0.000000 0.425213 0.506093
O O14 0.000000 0.713042 0.635131
O O15 0.500000 0.027624 0.609842
#
# Coordination Sequence:
#
# PCOD9352200 Si02
#       6
#     8   8   8   8   8   8
#     4  10  23  38  54  81 117 148 177 224 282 326
#     4  10  21  37  58  83 111 145 182 225 277 329
#     4   8  16  33  55  79 106 139 178 224 272 313
#     4  10  21  34  58  86 108 143 188 227 265 324
#     4   9  19  38  59  77 109 150 182 222 275 327
#     4   9  19  36  58  82 111 145 183 226 273 325
#
# _framework density 20.773679000000001
#
# number of rings (size 3 to 8) (size 9 to 14) (size 15 to 20)
#    0.000    2.667    0.000    1.500    4.667    2.667 
#    0.000    3.333    0.000    0.000    0.000    0.000 
#    0.000    0.000    0.000    0.000    0.000    0.000 
#
# Total GULP energy -133976.620858 kJ/mol
# GULP energy per Si atom -5582.359202 kJ/mol
# Density = 2.072640 g / cm^3
# Si number density = 20.773679 Si / 1000 Ang^3
#
#
#
# Elastic Constant Matrix: (Units=GPa)
#
#
# Indices 1 2 3 4 5 6 
#
# 1 37.1698 -13.1850 -12.5947 0.0000 0.0000 0.0000
# 2 -13.1850 170.3144 113.6037 0.0000 0.0000 0.0000
# 3 -12.5947 113.6037 197.4469 0.0000 0.0000 0.0000
# 4 0.0000 0.0000 0.0000 14.0746 0.0000 0.0000
# 5 0.0000 0.0000 0.0000 0.0000 12.5956 0.0000
# 6 0.0000 0.0000 0.0000 0.0000 0.0000 14.5941
#
#
#
# Elastic Compliance Matrix: (Units=1/GPa)
#
#
# Indices 1 2 3 4 5 6 
#
# 1 0.027754 0.001570 0.000867 0.000000 0.000000 0.000000
# 2 0.001570 0.009617 -0.005433 0.000000 0.000000 0.000000
# 3 0.000867 -0.005433 0.008246 0.000000 0.000000 0.000000
# 4 0.000000 0.000000 0.000000 0.071050 0.000000 0.000000
# 5 0.000000 0.000000 0.000000 0.000000 0.079393 0.000000
# 6 0.000000 0.000000 0.000000 0.000000 0.000000 0.068521
#
#
# Mechanical properties :
#
#
# Convention : Reuss Voigt Hill
#
# Bulk Modulus (GPa) = 25.23617 64.50878 44.87247
# Shear Modulus (GPa) = 17.61920 29.39333 23.50626
#
# Velocity S-wave (km/s) = 2.91546 3.76564 3.36749
# Velocity P-wave (km/s) = 4.84848 7.07299 6.06362
#
# Compressibility (1/GPa) = 0.03962566
#
# Stress axis : x y z
#
# Youngs Moduli (GPa) = 36.03036 103.98123 121.27111
#
# Poissons Ratio (x) = -0.16330 -0.10512
# Poissons Ratio (y) = -0.05658 0.65889
# Poissons Ratio (z) = -0.03123 0.56495
#
# Static dielectric constant tensor:
#      x y z
#    x 1.788560 0.000000 0.000000 
#    y 0.000000 1.721090 0.000000 
#    z 0.000000 0.000000 1.716330 
# 
# From -- ./inp_files/6701.got.cif
#   From: 2010.05.17/outbox.cif.g08.bks.cpg/sg36_4_cif.got.tgz:6701.got - 2010.06.03 17:41:39.
