data_PCOD9352714
_publ_section_title
;
Structure prediction by ZEFSAII (Michael W. Deem and Ramdas Pophale) SiO2 
 PCOD9352714
Probable space group: C M C 21
;
_chemical_formula_sum "Si O2"
_cell_formula_units_Z 56
_cell_length_a 15.630614
_cell_length_b 10.522353
_cell_length_c 14.323717
_cell_angle_alpha 90.000000
_cell_angle_beta 90.000000
_cell_angle_gamma 90.000000
_cell_volume 2355.833740
_symmetry_space_group_name_H-M "C M C 21"
_symmetry_group_IT_number 36
_symmetry_cell_setting 'orthorhombic'
loop_
_space_group_symop_operation_xyz
x,y,z
-x,-y,1/2+z
x,-y,1/2+z
-x,y,z
1/2+x,1/2+y,z
1/2-x,1/2-y,1/2+z
1/2+x,1/2-y,1/2+z
1/2-x,1/2+y,z
loop_
_atom_site_type_symbol
_atom_site_label
_atom_site_fract_x
_atom_site_fract_y
_atom_site_fract_z
Si Si1 0.901024 0.927840 0.708510
Si Si2 0.364589 0.375223 0.909254
Si Si3 0.903273 0.282997 0.573019
Si Si4 0.403654 0.982968 0.210947
Si Si5 0.179663 0.655108 0.364343
Si Si6 0.402621 0.356748 0.504552
Si Si7 0.272327 0.345627 0.203472
O O1 0.898865 0.853570 0.805204
O O2 0.869041 0.869566 0.610633
O O3 0.000000 0.968536 0.693446
O O4 0.834272 0.038885 0.731763
O O5 0.263168 0.405786 0.910074
O O6 0.389200 0.247326 0.965035
O O7 0.401906 0.502606 0.957786
O O8 0.900326 0.419108 0.622889
O O9 0.823216 0.207203 0.615165
O O10 0.000000 0.235184 0.596370
O O11 0.500000 0.929958 0.214108
O O12 0.383057 0.060828 0.307346
O O13 0.324057 0.891062 0.194641
O O14 0.140086 0.752046 0.438759
O O15 0.219176 0.740563 0.282153
O O16 0.500000 0.314691 0.514206
#
# Coordination Sequence:
#
# PCOD9352714 Si02
#       7
#     8   8   8   8   8   8   8
#     4  11  22  38  62  93 125 156 201 260 314 363
#     4  12  23  37  62  95 128 155 207 258 314 362
#     4  10  22  39  66  95 124 164 208 255 311 375
#     4  10  22  42  64  90 124 169 215 250 300 377
#     4  11  23  38  62  93 123 167 204 255 308 374
#     4  11  23  39  62  91 123 162 203 256 315 366
#     4  11  21  39  65  93 125 161 207 256 313 365
#
# _framework density 23.770778
#
# number of rings (size 3 to 8) (size 9 to 14) (size 15 to 20)
#    0.000    1.143    4.286    2.143    2.000    1.143 
#    0.000    2.143    0.000    3.429    0.000    0.000 
#    0.000    0.000    0.000    0.000    0.000    0.000 
#
# Total GULP energy -156481.635185 kJ/mol
# GULP energy per Si atom -5588.629828 kJ/mol
# Density = 2.371667 g / cm^3
# Si number density = 23.770778 Si / 1000 Ang^3
#
#
#
# Elastic Constant Matrix: (Units=GPa)
#
#
# Indices 1 2 3 4 5 6 
#
# 1 162.6026 30.7670 15.3849 0.0000 0.0000 0.0000
# 2 30.7670 32.9860 19.7825 0.0000 0.0000 0.0000
# 3 15.3849 19.7825 122.9705 0.0000 0.0000 0.0000
# 4 0.0000 0.0000 0.0000 4.0989 0.0000 0.0000
# 5 0.0000 0.0000 0.0000 0.0000 4.7316 0.0000
# 6 0.0000 0.0000 0.0000 0.0000 0.0000 88.5986
#
#
#
# Elastic Compliance Matrix: (Units=1/GPa)
#
#
# Indices 1 2 3 4 5 6 
#
# 1 0.007473 -0.007094 0.000206 0.000000 0.000000 0.000000
# 2 -0.007094 0.040287 -0.005594 0.000000 0.000000 0.000000
# 3 0.000206 -0.005594 0.009006 0.000000 0.000000 0.000000
# 4 0.000000 0.000000 0.000000 0.243965 0.000000 0.000000
# 5 0.000000 0.000000 0.000000 0.000000 0.211343 0.000000
# 6 0.000000 0.000000 0.000000 0.000000 0.000000 0.011287
#
#
# Mechanical properties :
#
#
# Convention : Reuss Voigt Hill
#
# Bulk Modulus (GPa) = 31.44279 50.04753 40.74516
# Shear Modulus (GPa) = 8.94576 36.32749 22.63662
#
# Velocity S-wave (km/s) = 1.94204 3.91351 3.08926
# Velocity P-wave (km/s) = 4.27608 6.44366 5.46835
#
# Compressibility (1/GPa) = 0.03180379
#
# Stress axis : x y z
#
# Youngs Moduli (GPa) = 133.82063 24.82193 111.03623
#
# Poissons Ratio (x) = 0.17608 -0.02290
# Poissons Ratio (y) = 0.94928 0.62108
# Poissons Ratio (z) = -0.02760 0.13884
#
# Static dielectric constant tensor:
#      x y z
#    x 1.912650 0.000000 0.000000 
#    y 0.000000 1.952450 0.000000 
#    z 0.000000 0.000000 1.974420 
# 
# From -- ./inp_files/12160.got.cif
#   From: 2010.05.17/outbox.cif.g08.bks.cpg/sg36_7_cif.got.tgz:12160.got - 2010.06.03 17:41:39.
