data_PCOD9352175
_publ_section_title
;
Structure prediction by ZEFSAII (Michael W. Deem and Ramdas Pophale) SiO2 
 PCOD9352175
Probable space group: C M C 21
;
_chemical_formula_sum "Si O2"
_cell_formula_units_Z 40
_cell_length_a 18.224562
_cell_length_b 10.340560
_cell_length_c 9.308742
_cell_angle_alpha 90.000000
_cell_angle_beta 90.000000
_cell_angle_gamma 90.000000
_cell_volume 1754.252693
_symmetry_space_group_name_H-M "C M C 21"
_symmetry_group_IT_number 36
_symmetry_cell_setting 'orthorhombic'
loop_
_space_group_symop_operation_xyz
x,y,z
-x,-y,1/2+z
x,-y,1/2+z
-x,y,z
1/2+x,1/2+y,z
1/2-x,1/2-y,1/2+z
1/2+x,1/2-y,1/2+z
1/2-x,1/2+y,z
loop_
_atom_site_type_symbol
_atom_site_label
_atom_site_fract_x
_atom_site_fract_y
_atom_site_fract_z
Si Si1 0.912817 0.164927 0.301150
Si Si2 0.698767 0.767705 0.664023
Si Si3 0.344964 0.511558 0.573440
Si Si4 0.208546 0.392419 0.957201
Si Si5 0.087526 0.414964 0.466639
O O1 0.885648 0.081543 0.439699
O O2 0.895176 0.316097 0.334664
O O3 0.000000 0.156255 0.298764
O O4 0.883413 0.104770 0.153678
O O5 0.663946 0.625470 0.693946
O O6 0.764758 0.721296 0.561083
O O7 0.631386 0.846965 0.596152
O O8 0.728057 0.843404 0.799789
O O9 0.262672 0.493511 0.511236
O O10 0.126743 0.446679 0.952821
O O11 0.000000 0.422075 0.485586
#
# Coordination Sequence:
#
# PCOD9352175 Si02
#       5
#     8   8   8   8   8
#     4  10  20  43  71 103 143 189 236 293 360 429
#     4   9  23  44  69  99 140 188 245 295 358 423
#     4   9  22  40  68 101 137 187 243 294 353 431
#     4  10  23  44  72 100 144 187 242 298 354 427
#     4  10  23  43  73 109 148 185 236 302 368 426
#
# _framework density 22.801732999999999
#
# number of rings (size 3 to 8) (size 9 to 14) (size 15 to 20)
#    1.200    1.200    0.000    0.600    2.800    4.800 
#    0.000    0.000    0.000    1.200    0.000    0.000 
#    0.000    0.000    0.000    0.000    0.000    0.000 
#
# Total GULP energy -111521.730894 kJ/mol
# GULP energy per Si atom -5576.086545 kJ/mol
# Density = 2.274984 g / cm^3
# Si number density = 22.801733 Si / 1000 Ang^3
#
#
#
# Elastic Constant Matrix: (Units=GPa)
#
#
# Indices 1 2 3 4 5 6 
#
# 1 139.2577 60.0221 55.4195 0.0000 0.0000 0.0000
# 2 60.0221 95.8807 49.8947 0.0000 0.0000 0.0000
# 3 55.4195 49.8947 99.1955 0.0000 0.0000 0.0000
# 4 0.0000 0.0000 0.0000 30.9877 0.0000 0.0000
# 5 0.0000 0.0000 0.0000 0.0000 33.3522 0.0000
# 6 0.0000 0.0000 0.0000 0.0000 0.0000 43.1910
#
#
#
# Elastic Compliance Matrix: (Units=1/GPa)
#
#
# Indices 1 2 3 4 5 6 
#
# 1 0.010673 -0.004847 -0.003525 0.000000 0.000000 0.000000
# 2 -0.004847 0.016329 -0.005505 0.000000 0.000000 0.000000
# 3 -0.003525 -0.005505 0.014819 0.000000 0.000000 0.000000
# 4 0.000000 0.000000 0.000000 0.032271 0.000000 0.000000
# 5 0.000000 0.000000 0.000000 0.000000 0.029983 0.000000
# 6 0.000000 0.000000 0.000000 0.000000 0.000000 0.023153
#
#
# Mechanical properties :
#
#
# Convention : Reuss Voigt Hill
#
# Bulk Modulus (GPa) = 71.08888 73.88960 72.48924
# Shear Modulus (GPa) = 31.31436 32.77266 32.04351
#
# Velocity S-wave (km/s) = 3.70987 3.79527 3.75281
# Velocity P-wave (km/s) = 7.04241 7.18895 7.11606
#
# Compressibility (1/GPa) = 0.01406690
#
# Stress axis : x y z
#
# Youngs Moduli (GPa) = 93.69609 61.24158 67.47881
#
# Poissons Ratio (x) = 0.29684 0.23785
# Poissons Ratio (y) = 0.45415 0.37149
# Poissons Ratio (z) = 0.33026 0.33715
#
# Static dielectric constant tensor:
#      x y z
#    x 1.841120 0.000000 0.000000 
#    y 0.000000 1.925230 0.000000 
#    z 0.000000 0.000000 1.848450 
# 
# From -- ./inp_files/4525.got.cif
#   From: 2010.05.17/outbox.cif.g08.bks.cpg/sg36_3_cif.got.tgz:4525.got - 2010.06.03 17:41:39.
