data_PCOD9352278
_publ_section_title
;
Structure prediction by ZEFSAII (Michael W. Deem and Ramdas Pophale) SiO2 
 PCOD9352278
Probable space group: C M C 21
;
_chemical_formula_sum "Si O2"
_cell_formula_units_Z 40
_cell_length_a 18.079162
_cell_length_b 17.139697
_cell_length_c 5.741273
_cell_angle_alpha 90.000000
_cell_angle_beta 90.000000
_cell_angle_gamma 90.000000
_cell_volume 1779.056065
_symmetry_space_group_name_H-M "C M C 21"
_symmetry_group_IT_number 36
_symmetry_cell_setting 'orthorhombic'
loop_
_space_group_symop_operation_xyz
x,y,z
-x,-y,1/2+z
x,-y,1/2+z
-x,y,z
1/2+x,1/2+y,z
1/2-x,1/2-y,1/2+z
1/2+x,1/2-y,1/2+z
1/2-x,1/2+y,z
loop_
_atom_site_type_symbol
_atom_site_label
_atom_site_fract_x
_atom_site_fract_y
_atom_site_fract_z
Si Si1 0.916915 0.781415 0.296740
Si Si2 0.798716 0.167444 0.449614
Si Si3 0.154201 0.690990 0.695127
Si Si4 0.740719 0.959964 0.669842
Si Si5 0.581524 0.106943 0.072619
O O1 0.888150 0.757213 0.550727
O O2 0.919200 0.694091 0.183391
O O3 0.000000 0.812305 0.302084
O O4 0.863660 0.835436 0.140022
O O5 0.800057 0.258763 0.383486
O O6 0.718441 0.149781 0.554547
O O7 0.795557 0.112635 0.224652
O O8 0.099125 0.628657 0.804287
O O9 0.653037 0.938080 0.665346
O O10 0.754857 0.988772 0.404566
O O11 0.500000 0.072057 0.106127
#
# Coordination Sequence:
#
# PCOD9352278 Si02
#       5
#     8   8   8   8   8
#     4  10  21  36  64 100 129 160 209 284 365 417
#     4  11  21  37  63  92 132 167 223 282 341 411
#     4  11  18  35  66  97 129 174 210 285 367 411
#     4  12  27  43  63  92 129 186 239 266 311 393
#     4  10  22  39  59  93 135 169 217 279 339 406
#
# _framework density 22.483834000000002
#
# number of rings (size 3 to 8) (size 9 to 14) (size 15 to 20)
#    0.000    1.200    4.000    3.000    2.800    1.600 
#    0.000    0.000    0.000    1.200    0.000    0.000 
#    0.000    0.000    0.000    0.000    0.000    0.000 
#
# Total GULP energy -111495.102878 kJ/mol
# GULP energy per Si atom -5574.755144 kJ/mol
# Density = 2.243266 g / cm^3
# Si number density = 22.483834 Si / 1000 Ang^3
#
#
#
# Elastic Constant Matrix: (Units=GPa)
#
#
# Indices 1 2 3 4 5 6 
#
# 1 82.9321 15.0423 35.2230 0.0000 0.0000 0.0000
# 2 15.0423 43.9747 26.8773 0.0000 0.0000 0.0000
# 3 35.2230 26.8773 96.3365 0.0000 0.0000 0.0000
# 4 0.0000 0.0000 0.0000 53.3044 0.0000 0.0000
# 5 0.0000 0.0000 0.0000 0.0000 23.2034 0.0000
# 6 0.0000 0.0000 0.0000 0.0000 0.0000 23.3079
#
#
#
# Elastic Compliance Matrix: (Units=1/GPa)
#
#
# Indices 1 2 3 4 5 6 
#
# 1 0.014428 -0.002063 -0.004700 0.000000 0.000000 0.000000
# 2 -0.002063 0.027710 -0.006977 0.000000 0.000000 0.000000
# 3 -0.004700 -0.006977 0.014045 0.000000 0.000000 0.000000
# 4 0.000000 0.000000 0.000000 0.018760 0.000000 0.000000
# 5 0.000000 0.000000 0.000000 0.000000 0.043097 0.000000
# 6 0.000000 0.000000 0.000000 0.000000 0.000000 0.042904
#
#
# Mechanical properties :
#
#
# Convention : Reuss Voigt Hill
#
# Bulk Modulus (GPa) = 34.83751 41.94761 38.39256
# Shear Modulus (GPa) = 25.25356 29.70319 27.47837
#
# Velocity S-wave (km/s) = 3.35503 3.63862 3.49970
# Velocity P-wave (km/s) = 5.52598 6.02910 5.78301
#
# Compressibility (1/GPa) = 0.02870469
#
# Stress axis : x y z
#
# Youngs Moduli (GPa) = 69.30806 36.08786 71.19920
#
# Poissons Ratio (x) = 0.07445 0.33462
# Poissons Ratio (y) = 0.14298 0.49673
# Poissons Ratio (z) = 0.32573 0.25177
#
# Static dielectric constant tensor:
#      x y z
#    x 1.806960 0.000000 0.000000 
#    y 0.000000 1.883700 0.000000 
#    z 0.000000 0.000000 2.041460 
# 
# From -- ./inp_files/1030.got.cif
#   From: 2010.05.17/outbox.cif.g08.bks.cpg/sg36_1_cif.got.tgz:1030.got - 2010.06.03 17:41:39.
