data_PCOD9352919
_publ_section_title
;
Structure prediction by ZEFSAII (Michael W. Deem and Ramdas Pophale) SiO2 
 PCOD9352919
Probable space group: C M C 21
;
_chemical_formula_sum "Si O2"
_cell_formula_units_Z 40
_cell_length_a 24.035129
_cell_length_b 5.312020
_cell_length_c 13.675383
_cell_angle_alpha 90.000000
_cell_angle_beta 90.000000
_cell_angle_gamma 90.000000
_cell_volume 1746.005700
_symmetry_space_group_name_H-M "C M C 21"
_symmetry_group_IT_number 36
_symmetry_cell_setting 'orthorhombic'
loop_
_space_group_symop_operation_xyz
x,y,z
-x,-y,1/2+z
x,-y,1/2+z
-x,y,z
1/2+x,1/2+y,z
1/2-x,1/2-y,1/2+z
1/2+x,1/2-y,1/2+z
1/2-x,1/2+y,z
loop_
_atom_site_type_symbol
_atom_site_label
_atom_site_fract_x
_atom_site_fract_y
_atom_site_fract_z
Si Si1 0.277258 0.370793 0.384430
Si Si2 0.500000 0.903186 0.029489
Si Si3 0.110922 0.003736 0.782201
Si Si4 0.000000 0.902490 0.903915
Si Si5 0.888632 0.508134 0.653530
Si Si6 0.731524 0.900689 0.602541
O O1 0.264190 0.090346 0.349207
O O2 0.338910 0.453634 0.357794
O O3 0.265214 0.365133 0.501247
O O4 0.555632 0.945222 0.092512
O O5 0.500000 0.121992 0.947827
O O6 0.500000 0.621842 0.985842
O O7 0.123154 0.762352 0.714319
O O8 0.104188 0.261793 0.721206
O O9 0.054471 0.943568 0.839005
O O10 0.833662 0.450521 0.589590
O O11 0.739933 0.635288 0.654989
#
# Coordination Sequence:
#
# PCOD9352919 Si02
#       6
#     8   4   8   4   8   8
#     4  10  23  40  68  98 143 180 230 276 342 414
#     4  12  28  46  78 102 138 188 238 282 354 420
#     4  12  26  46  73 105 144 180 232 296 351 403
#     4  12  28  46  78 102 138 188 238 282 354 420
#     4  12  26  46  73 105 144 180 232 296 351 403
#     4  10  23  40  68  98 143 180 230 276 342 414
#
# _framework density 22.909434999999998
#
# number of rings (size 3 to 8) (size 9 to 14) (size 15 to 20)
#    0.000    0.800    0.000    6.000   11.200    4.800 
#    0.000    0.000    0.000    0.000    0.000    0.000 
#    0.000    0.000    0.000    0.000    0.000    0.000 
#
# Total GULP energy -112012.553659 kJ/mol
# GULP energy per Si atom -5600.627683 kJ/mol
# Density = 2.285729 g / cm^3
# Si number density = 22.909435 Si / 1000 Ang^3
#
#
#
# Elastic Constant Matrix: (Units=GPa)
#
#
# Indices 1 2 3 4 5 6 
#
# 1 145.6428 -12.6473 21.9866 0.0000 0.0000 0.0000
# 2 -12.6473 138.8760 9.2227 0.0000 0.0000 0.0000
# 3 21.9866 9.2227 72.3709 0.0000 0.0000 0.0000
# 4 0.0000 0.0000 0.0000 38.2684 0.0000 0.0000
# 5 0.0000 0.0000 0.0000 0.0000 33.5025 0.0000
# 6 0.0000 0.0000 0.0000 0.0000 0.0000 43.0679
#
#
#
# Elastic Compliance Matrix: (Units=1/GPa)
#
#
# Indices 1 2 3 4 5 6 
#
# 1 0.007287 0.000818 -0.002318 0.000000 0.000000 0.000000
# 2 0.000818 0.007354 -0.001186 0.000000 0.000000 0.000000
# 3 -0.002318 -0.001186 0.014673 0.000000 0.000000 0.000000
# 4 0.000000 0.000000 0.000000 0.026131 0.000000 0.000000
# 5 0.000000 0.000000 0.000000 0.000000 0.029849 0.000000
# 6 0.000000 0.000000 0.000000 0.000000 0.000000 0.023219
#
#
# Mechanical properties :
#
#
# Convention : Reuss Voigt Hill
#
# Bulk Modulus (GPa) = 41.76772 43.77930 42.77351
# Shear Modulus (GPa) = 41.02886 45.52293 43.27590
#
# Velocity S-wave (km/s) = 4.23651 4.46251 4.35098
# Velocity P-wave (km/s) = 6.49630 6.76041 6.62967
#
# Compressibility (1/GPa) = 0.02394193
#
# Stress axis : x y z
#
# Youngs Moduli (GPa) = 137.22986 135.98312 68.15228
#
# Poissons Ratio (x) = -0.11117 0.15798
# Poissons Ratio (y) = -0.11219 0.08080
# Poissons Ratio (z) = 0.31810 0.16121
#
# Static dielectric constant tensor:
#      x y z
#    x 1.785200 0.000000 0.000000 
#    y 0.000000 1.925630 0.000000 
#    z 0.000000 0.000000 1.908670 
# 
# From -- ./inp_files/12914.got.cif
#   From: 2010.05.17/outbox.cif.g08.bks.cpg/sg36_7_cif.got.tgz:12914.got - 2010.06.03 17:41:39.
