data_PCOD9352818
_publ_section_title
;
Structure prediction by ZEFSAII (Michael W. Deem and Ramdas Pophale) SiO2 
 PCOD9352818
Probable space group: C M C 21
;
_chemical_formula_sum "Si O2"
_cell_formula_units_Z 60
_cell_length_a 12.667153
_cell_length_b 23.901144
_cell_length_c 9.170134
_cell_angle_alpha 90.000000
_cell_angle_beta 90.000000
_cell_angle_gamma 90.000000
_cell_volume 2776.344707
_symmetry_space_group_name_H-M "C M C 21"
_symmetry_group_IT_number 36
_symmetry_cell_setting 'orthorhombic'
loop_
_space_group_symop_operation_xyz
x,y,z
-x,-y,1/2+z
x,-y,1/2+z
-x,y,z
1/2+x,1/2+y,z
1/2-x,1/2-y,1/2+z
1/2+x,1/2-y,1/2+z
1/2-x,1/2+y,z
loop_
_atom_site_type_symbol
_atom_site_label
_atom_site_fract_x
_atom_site_fract_y
_atom_site_fract_z
Si Si1 0.780226 0.785076 0.299820
Si Si2 0.160735 0.560885 0.383842
Si Si3 0.675908 0.062431 0.927022
Si Si4 0.379168 0.375937 0.512883
Si Si5 0.121906 0.627577 0.661310
Si Si6 0.620054 0.720318 0.502373
Si Si7 0.500000 0.089426 0.124723
Si Si8 0.117071 0.106637 0.345418
O O1 0.845371 0.823986 0.411737
O O2 0.695916 0.822593 0.211919
O O3 0.710452 0.743968 0.397182
O O4 0.854485 0.763034 0.169559
O O5 0.137353 0.500503 0.453343
O O6 0.133563 0.610489 0.494257
O O7 0.285770 0.564619 0.356019
O O8 0.092217 0.570248 0.241210
O O9 0.793555 0.076265 0.977242
O O10 0.593877 0.103495 0.005790
O O11 0.662198 0.074877 0.756258
O O12 0.500000 0.391682 0.481083
O O13 0.372859 0.363866 0.686271
O O14 0.000000 0.639113 0.689749
O O15 0.500000 0.738427 0.465784
O O16 0.622358 0.653407 0.472026
O O17 0.000000 0.080795 0.350050
#
# Coordination Sequence:
#
# PCOD9352818 Si02
#       8
#     8   8   8   8   8   8   4   8
#     4  11  23  42  69  95 129 166 214 261 324 388
#     4  12  23  38  61  93 126 171 216 267 312 385
#     4  11  24  37  61  92 128 172 216 261 325 375
#     4  10  22  43  66  91 126 169 213 263 319 381
#     4  11  23  39  59  93 131 166 209 265 319 378
#     4  11  23  43  67  97 128 165 211 268 329 388
#     4  12  22  38  62  88 128 168 222 254 330 370
#     4  10  22  42  65  89 125 167 215 265 320 377
#
# _framework density 21.611149999999999
#
# number of rings (size 3 to 8) (size 9 to 14) (size 15 to 20)
#    0.000    1.067    4.000    2.800    1.867    0.533 
#    0.000    2.000    1.467    0.000    0.000    0.000 
#    0.000    0.000    0.000    0.000    0.000    0.000 
#
# Total GULP energy -167065.983233 kJ/mol
# GULP energy per Si atom -5568.866108 kJ/mol
# Density = 2.156196 g / cm^3
# Si number density = 21.611150 Si / 1000 Ang^3
#
#
#
# Elastic Constant Matrix: (Units=GPa)
#
#
# Indices 1 2 3 4 5 6 
#
# 1 150.0406 0.1084 11.2374 0.0000 0.0000 0.0000
# 2 0.1084 11.2949 -8.1551 0.0000 0.0000 0.0000
# 3 11.2374 -8.1551 66.6569 0.0000 0.0000 0.0000
# 4 0.0000 0.0000 0.0000 16.5845 0.0000 0.0000
# 5 0.0000 0.0000 0.0000 0.0000 34.4869 0.0000
# 6 0.0000 0.0000 0.0000 0.0000 0.0000 -25.3254
#
#
#
# Elastic Compliance Matrix: (Units=1/GPa)
#
#
# Indices 1 2 3 4 5 6 
#
# 1 0.006760 -0.000974 -0.001259 0.000000 0.000000 0.000000
# 2 -0.000974 0.097255 0.012063 0.000000 0.000000 0.000000
# 3 -0.001259 0.012063 0.016690 0.000000 0.000000 0.000000
# 4 0.000000 0.000000 0.000000 0.060297 0.000000 0.000000
# 5 0.000000 0.000000 0.000000 0.000000 0.028996 0.000000
# 6 0.000000 0.000000 0.000000 0.000000 0.000000 -0.039486
#
#
# Mechanical properties :
#
#
# Convention : Reuss Voigt Hill
#
# Bulk Modulus (GPa) = 7.12428 26.04153 16.58290
# Shear Modulus (GPa) = 25.29847 20.13598 22.71722
#
# Velocity S-wave (km/s) = 3.42515 3.05575 3.24571
# Velocity P-wave (km/s) = 4.35269 4.95241 4.66220
#
# Compressibility (1/GPa) = 0.14036513
#
# Stress axis : x y z
#
# Youngs Moduli (GPa) = 147.93248 10.28228 59.91547
#
# Poissons Ratio (x) = 0.01001 0.07542
# Poissons Ratio (y) = 0.14404 -0.72274
# Poissons Ratio (z) = 0.18621 -0.12403
#
# Static dielectric constant tensor:
#      x y z
#    x 1.774050 0.000000 0.000000 
#    y 0.000000 1.814130 0.000000 
#    z 0.000000 0.000000 1.800800 
# 
# From -- ./inp_files/3468.got.cif
#   From: 2010.05.17/outbox.cif.g08.bks.cpg/sg36_2_cif.got.tgz:3468.got - 2010.06.03 17:41:39.
