data_PCOD9352591
_publ_section_title
;
Structure prediction by ZEFSAII (Michael W. Deem and Ramdas Pophale) SiO2 
 PCOD9352591
Probable space group: C M C 21
;
_chemical_formula_sum "Si O2"
_cell_formula_units_Z 48
_cell_length_a 8.822879
_cell_length_b 27.829301
_cell_length_c 10.287525
_cell_angle_alpha 90.000000
_cell_angle_beta 90.000000
_cell_angle_gamma 90.000000
_cell_volume 2525.942877
_symmetry_space_group_name_H-M "C M C 21"
_symmetry_group_IT_number 36
_symmetry_cell_setting 'orthorhombic'
loop_
_space_group_symop_operation_xyz
x,y,z
-x,-y,1/2+z
x,-y,1/2+z
-x,y,z
1/2+x,1/2+y,z
1/2-x,1/2-y,1/2+z
1/2+x,1/2-y,1/2+z
1/2-x,1/2+y,z
loop_
_atom_site_type_symbol
_atom_site_label
_atom_site_fract_x
_atom_site_fract_y
_atom_site_fract_z
Si Si1 0.817590 0.714085 0.112830
Si Si2 0.681849 0.066525 0.477107
Si Si3 0.318417 0.107527 0.756609
Si Si4 0.182241 0.394350 0.694752
Si Si5 0.680495 0.539315 0.972933
Si Si6 0.181561 0.790044 0.334890
O O1 0.776522 0.659843 0.154945
O O2 0.774942 0.751645 0.224682
O O3 0.000000 0.715510 0.097803
O O4 0.740949 0.725393 0.975872
O O5 0.500000 0.058456 0.478215
O O6 0.719731 0.095946 0.607077
O O7 0.719337 0.094268 0.344276
O O8 0.762697 0.015212 0.478841
O O9 0.500000 0.108515 0.770930
O O10 0.252292 0.066117 0.848857
O O11 0.251418 0.158255 0.801228
O O12 0.262325 0.431778 0.599267
O O13 0.000000 0.399347 0.678958
O O14 0.500000 0.541202 0.965059
O O15 0.000000 0.793698 0.337681
#
# Coordination Sequence:
#
# PCOD9352591 Si02
#       6
#     8   8   8   8   8   8
#     4  10  23  42  65  92 124 163 202 251 307 365
#     4  10  23  40  63  91 119 163 212 252 298 365
#     4  11  23  41  65  90 123 166 207 250 304 365
#     4  10  21  41  65  88 120 162 208 251 297 364
#     4  12  24  39  61  91 126 162 202 256 311 361
#     4  11  24  41  65  96 126 158 203 254 305 362
#
# _framework density 19.002804999999999
#
# number of rings (size 3 to 8) (size 9 to 14) (size 15 to 20)
#    0.000    1.333    1.667    3.500    2.333    7.333 
#    0.000    0.000    0.000    0.000    0.000    0.000 
#    0.000    0.000    0.000    0.000    0.000    0.000 
#
# Total GULP energy -134235.336302 kJ/mol
# GULP energy per Si atom -5593.139013 kJ/mol
# Density = 1.895955 g / cm^3
# Si number density = 19.002805 Si / 1000 Ang^3
#
#
#
# Elastic Constant Matrix: (Units=GPa)
#
#
# Indices 1 2 3 4 5 6 
#
# 1 39.8616 33.4014 58.0347 0.0000 0.0000 0.0000
# 2 33.4014 82.4034 54.9899 0.0000 0.0000 0.0000
# 3 58.0347 54.9899 181.5881 0.0000 0.0000 0.0000
# 4 0.0000 0.0000 0.0000 40.3042 0.0000 0.0000
# 5 0.0000 0.0000 0.0000 0.0000 19.1214 0.0000
# 6 0.0000 0.0000 0.0000 0.0000 0.0000 11.7579
#
#
#
# Elastic Compliance Matrix: (Units=1/GPa)
#
#
# Indices 1 2 3 4 5 6 
#
# 1 0.057129 -0.013752 -0.014094 0.000000 0.000000 0.000000
# 2 -0.013752 0.018519 -0.001213 0.000000 0.000000 0.000000
# 3 -0.014094 -0.001213 0.010379 0.000000 0.000000 0.000000
# 4 0.000000 0.000000 0.000000 0.024811 0.000000 0.000000
# 5 0.000000 0.000000 0.000000 0.000000 0.052297 0.000000
# 6 0.000000 0.000000 0.000000 0.000000 0.000000 0.085049
#
#
# Mechanical properties :
#
#
# Convention : Reuss Voigt Hill
#
# Bulk Modulus (GPa) = 35.82983 66.30059 51.06521
# Shear Modulus (GPa) = 15.84261 24.73184 20.28722
#
# Velocity S-wave (km/s) = 2.89052 3.61152 3.27095
# Velocity P-wave (km/s) = 5.48052 7.23577 6.41843
#
# Compressibility (1/GPa) = 0.02790970
#
# Stress axis : x y z
#
# Youngs Moduli (GPa) = 17.50424 53.99852 96.35149
#
# Poissons Ratio (x) = 0.74256 1.35796
# Poissons Ratio (y) = 0.24071 0.11689
# Poissons Ratio (z) = 0.24670 0.06551
#
# Static dielectric constant tensor:
#      x y z
#    x 1.636780 0.000000 0.000000 
#    y 0.000000 1.618670 0.000000 
#    z 0.000000 0.000000 1.646090 
# 
# From -- ./inp_files/2728.got.cif
#   From: 2010.05.17/outbox.cif.g08.bks.cpg/sg36_2_cif.got.tgz:2728.got - 2010.06.03 17:41:39.
