data_PCOD9352968
_publ_section_title
;
Structure prediction by ZEFSAII (Michael W. Deem and Ramdas Pophale) SiO2 
 PCOD9352968
Probable space group: C M C 21
;
_chemical_formula_sum "Si O2"
_cell_formula_units_Z 32
_cell_length_a 22.867417
_cell_length_b 10.981545
_cell_length_c 4.765465
_cell_angle_alpha 90.000000
_cell_angle_beta 90.000000
_cell_angle_gamma 90.000000
_cell_volume 1196.701516
_symmetry_space_group_name_H-M "C M C 21"
_symmetry_group_IT_number 36
_symmetry_cell_setting 'orthorhombic'
loop_
_space_group_symop_operation_xyz
x,y,z
-x,-y,1/2+z
x,-y,1/2+z
-x,y,z
1/2+x,1/2+y,z
1/2-x,1/2-y,1/2+z
1/2+x,1/2-y,1/2+z
1/2-x,1/2+y,z
loop_
_atom_site_type_symbol
_atom_site_label
_atom_site_fract_x
_atom_site_fract_y
_atom_site_fract_z
Si Si1 0.934628 0.917551 0.614610
Si Si2 0.153752 0.760283 0.962518
Si Si3 0.257224 0.084343 0.645002
Si Si4 0.067444 0.583533 0.278146
O O1 0.886290 0.832200 0.742826
O O2 0.000000 0.867477 0.663473
O O3 0.930378 0.956800 0.292811
O O4 0.197118 0.677340 0.776647
O O5 0.112886 0.679880 0.163126
O O6 0.194207 0.851396 0.144103
O O7 0.263574 0.038432 0.327404
O O8 0.075407 0.459771 0.095996
O O9 0.000000 0.622974 0.237570
#
# Coordination Sequence:
#
# PCOD9352968 Si02
#       4
#     8   8   8   8
#     4  10  23  43  69 103 138 174 226 288 347 417
#     4  12  25  46  72  98 137 192 232 284 356 418
#     4  12  28  46  66 100 140 182 238 292 338 406
#     4  10  23  43  69 103 138 174 226 288 347 417
#
# _framework density 26.740169000000002
#
# number of rings (size 3 to 8) (size 9 to 14) (size 15 to 20)
#    0.000    1.000    0.000    5.250    0.000   10.000 
#    0.000    7.500    0.000    0.000    0.000    0.000 
#    0.000    0.000    0.000    0.000    0.000    0.000 
#
# Total GULP energy -89941.806873 kJ/mol
# GULP energy per Si atom -5621.362930 kJ/mol
# Density = 2.667931 g / cm^3
# Si number density = 26.740169 Si / 1000 Ang^3
#
#
#
# Elastic Constant Matrix: (Units=GPa)
#
#
# Indices 1 2 3 4 5 6 
#
# 1 145.1109 51.2669 35.2327 0.0000 0.0000 0.0000
# 2 51.2669 82.6289 16.1820 0.0000 0.0000 0.0000
# 3 35.2327 16.1820 107.9113 0.0000 0.0000 0.0000
# 4 0.0000 0.0000 0.0000 37.0600 0.0000 0.0000
# 5 0.0000 0.0000 0.0000 0.0000 31.2270 0.0000
# 6 0.0000 0.0000 0.0000 0.0000 0.0000 -45.8529
#
#
#
# Elastic Compliance Matrix: (Units=1/GPa)
#
#
# Indices 1 2 3 4 5 6 
#
# 1 0.009325 -0.005346 -0.002243 0.000000 0.000000 0.000000
# 2 -0.005346 0.015534 -0.000584 0.000000 0.000000 0.000000
# 3 -0.002243 -0.000584 0.010087 0.000000 0.000000 0.000000
# 4 0.000000 0.000000 0.000000 0.026983 0.000000 0.000000
# 5 0.000000 0.000000 0.000000 0.000000 0.032024 0.000000
# 6 0.000000 0.000000 0.000000 0.000000 0.000000 -0.021809
#
#
# Mechanical properties :
#
#
# Convention : Reuss Voigt Hill
#
# Bulk Modulus (GPa) = 53.76539 60.11272 56.93906
# Shear Modulus (GPa) = 52.80476 20.01810 36.41143
#
# Velocity S-wave (km/s) = 4.44862 2.73905 3.69409
# Velocity P-wave (km/s) = 6.82182 5.70371 6.28767
#
# Compressibility (1/GPa) = 0.01859932
#
# Stress axis : x y z
#
# Youngs Moduli (GPa) = 107.24313 64.37615 99.14067
#
# Poissons Ratio (x) = 0.34417 0.22235
# Poissons Ratio (y) = 0.57334 0.05788
# Poissons Ratio (z) = 0.24052 0.03759
#
# Static dielectric constant tensor:
#      x y z
#    x 2.033570 0.000000 0.000000 
#    y 0.000000 2.086270 0.000000 
#    z 0.000000 0.000000 1.987310 
# 
# From -- ./inp_files/1257.got.cif
#   From: 2010.05.17/outbox.cif.g08.bks.cpg/sg36_1_cif.got.tgz:1257.got - 2010.06.03 17:41:39.
