data_PCOD9352890
_publ_section_title
;
Structure prediction by ZEFSAII (Michael W. Deem and Ramdas Pophale) SiO2 
 PCOD9352890
Probable space group: C M C 21
;
_chemical_formula_sum "Si O2"
_cell_formula_units_Z 32
_cell_length_a 19.607630
_cell_length_b 6.942865
_cell_length_c 9.752295
_cell_angle_alpha 90.000000
_cell_angle_beta 90.000000
_cell_angle_gamma 90.000000
_cell_volume 1327.610424
_symmetry_space_group_name_H-M "C M C 21"
_symmetry_group_IT_number 36
_symmetry_cell_setting 'orthorhombic'
loop_
_space_group_symop_operation_xyz
x,y,z
-x,-y,1/2+z
x,-y,1/2+z
-x,y,z
1/2+x,1/2+y,z
1/2-x,1/2-y,1/2+z
1/2+x,1/2-y,1/2+z
1/2-x,1/2+y,z
loop_
_atom_site_type_symbol
_atom_site_label
_atom_site_fract_x
_atom_site_fract_y
_atom_site_fract_z
Si Si1 0.000000 0.437231 0.134310
Si Si2 0.198891 0.189111 0.674766
Si Si3 0.642799 0.422850 0.901029
Si Si4 0.651385 0.878090 0.177117
Si Si5 0.500000 0.728275 0.416796
O O1 0.922991 0.350441 0.105512
O O2 0.000000 0.398208 0.299914
O O3 0.000000 0.647275 0.059101
O O4 0.159998 0.073482 0.558456
O O5 0.164361 0.395465 0.686595
O O6 0.185894 0.074542 0.814584
O O7 0.276465 0.199945 0.620721
O O8 0.562045 0.417767 0.894058
O O9 0.655102 0.215525 0.828636
#
# Coordination Sequence:
#
# PCOD9352890 Si02
#       5
#     4   8   8   8   4
#     4  10  22  45  73 101 142 185 236 293 356 429
#     4  12  26  44  75 105 146 186 246 297 357 430
#     4  11  27  45  71 109 143 189 242 297 364 427
#     4  11  25  45  73 104 146 189 236 299 357 428
#     4  10  22  47  69 105 146 187 238 295 364 431
#
# _framework density 24.103456000000001
#
# number of rings (size 3 to 8) (size 9 to 14) (size 15 to 20)
#    0.000    1.000    5.000    0.000    3.500    4.000 
#    4.500    0.000    0.000    0.000    0.000    0.000 
#    0.000    0.000    0.000    0.000    0.000    0.000 
#
# Total GULP energy -89146.168038 kJ/mol
# GULP energy per Si atom -5571.635502 kJ/mol
# Density = 2.404860 g / cm^3
# Si number density = 24.103456 Si / 1000 Ang^3
#
#
#
# Elastic Constant Matrix: (Units=GPa)
#
#
# Indices 1 2 3 4 5 6 
#
# 1 185.1294 18.4622 -9.9000 0.0000 0.0000 0.0000
# 2 18.4622 80.5193 4.5032 0.0000 0.0000 0.0000
# 3 -9.9000 4.5032 27.3037 0.0000 0.0000 0.0000
# 4 0.0000 0.0000 0.0000 28.4150 0.0000 0.0000
# 5 0.0000 0.0000 0.0000 0.0000 18.5588 0.0000
# 6 0.0000 0.0000 0.0000 0.0000 0.0000 -11.0561
#
#
#
# Elastic Compliance Matrix: (Units=1/GPa)
#
#
# Indices 1 2 3 4 5 6 
#
# 1 0.005666 -0.001427 0.002290 0.000000 0.000000 0.000000
# 2 -0.001427 0.012895 -0.002644 0.000000 0.000000 0.000000
# 3 0.002290 -0.002644 0.037892 0.000000 0.000000 0.000000
# 4 0.000000 0.000000 0.000000 0.035193 0.000000 0.000000
# 5 0.000000 0.000000 0.000000 0.000000 0.053883 0.000000
# 6 0.000000 0.000000 0.000000 0.000000 0.000000 -0.090448
#
#
# Mechanical properties :
#
#
# Convention : Reuss Voigt Hill
#
# Bulk Modulus (GPa) = 18.90740 35.45368 27.18054
# Shear Modulus (GPa) = 65.55358 25.84265 45.69812
#
# Velocity S-wave (km/s) = 5.22071 3.27793 4.35894
# Velocity P-wave (km/s) = 6.64849 5.39141 6.05267
#
# Compressibility (1/GPa) = 0.05288935
#
# Stress axis : x y z
#
# Youngs Moduli (GPa) = 176.47802 77.55218 26.39112
#
# Poissons Ratio (x) = 0.11069 -0.06044
# Poissons Ratio (y) = 0.25189 0.06978
# Poissons Ratio (z) = -0.40413 0.20507
#
# Static dielectric constant tensor:
#      x y z
#    x 2.243650 0.000000 0.000000 
#    y 0.000000 2.105760 0.000000 
#    z 0.000000 0.000000 1.877380 
# 
# From -- ./inp_files/5028.got.cif
#   From: 2010.05.17/outbox.cif.g08.bks.cpg/sg36_3_cif.got.tgz:5028.got - 2010.06.03 17:41:39.
