data_PCOD9352234
_publ_section_title
;
Structure prediction by ZEFSAII (Michael W. Deem and Ramdas Pophale) SiO2 
 PCOD9352234
Probable space group: C M C 21
;
_chemical_formula_sum "Si O2"
_cell_formula_units_Z 48
_cell_length_a 7.439167
_cell_length_b 29.725830
_cell_length_c 8.148437
_cell_angle_alpha 90.000000
_cell_angle_beta 90.000000
_cell_angle_gamma 90.000000
_cell_volume 1801.907986
_symmetry_space_group_name_H-M "C M C 21"
_symmetry_group_IT_number 36
_symmetry_cell_setting 'orthorhombic'
loop_
_space_group_symop_operation_xyz
x,y,z
-x,-y,1/2+z
x,-y,1/2+z
-x,y,z
1/2+x,1/2+y,z
1/2-x,1/2-y,1/2+z
1/2+x,1/2-y,1/2+z
1/2-x,1/2+y,z
loop_
_atom_site_type_symbol
_atom_site_label
_atom_site_fract_x
_atom_site_fract_y
_atom_site_fract_z
Si Si1 0.289950 0.680101 0.822170
Si Si2 0.783642 0.735743 0.493978
Si Si3 0.780371 0.347751 0.808165
Si Si4 0.711950 0.096854 0.993195
Si Si5 0.283078 0.929921 0.010135
Si Si6 0.218657 0.486864 0.682919
O O1 0.500000 0.675755 0.847504
O O2 0.261319 0.708308 0.656962
O O3 0.211783 0.714250 0.960710
O O4 0.225215 0.628703 0.834201
O O5 0.721702 0.702521 0.347384
O O6 0.000000 0.738386 0.487046
O O7 0.719564 0.370811 0.640296
O O8 0.719749 0.380751 0.956459
O O9 0.000000 0.347930 0.806294
O O10 0.500000 0.091253 0.015980
O O11 0.780599 0.047170 0.037577
O O12 0.500000 0.926115 0.023786
O O13 0.241939 0.960796 0.849901
O O14 0.216986 0.962105 0.156162
O O15 0.000000 0.490486 0.679495
#
# Coordination Sequence:
#
# PCOD9352234 Si02
#       6
#     8   8   8   8   8   8
#     4  11  23  36  52  76 102 128 162 203 244 290
#     4  10  21  36  53  73  98 130 164 200 247 295
#     4   8  15  29  49  72  99 130 164 205 249 292
#     4   9  17  32  52  73 101 135 167 200 243 292
#     4   8  13  22  38  66 100 126 155 199 246 287
#     4   8  14  23  39  66  98 129 158 195 243 288
#
# _framework density 26.638428999999999
#
# number of rings (size 3 to 8) (size 9 to 14) (size 15 to 20)
#    0.000    3.000    0.000    3.500    0.000    4.000 
#    0.000    5.833    0.000    0.000    0.000   10.500 
#    0.000    0.000    0.000    0.000    0.000    0.000 
#
# Total GULP energy -134021.715051 kJ/mol
# GULP energy per Si atom -5584.238127 kJ/mol
# Density = 2.657780 g / cm^3
# Si number density = 26.638429 Si / 1000 Ang^3
#
#
#
# Elastic Constant Matrix: (Units=GPa)
#
#
# Indices 1 2 3 4 5 6 
#
# 1 85.3575 1.6218 -10.7966 0.0000 0.0000 0.0000
# 2 1.6218 159.4803 -11.9499 0.0000 0.0000 0.0000
# 3 -10.7966 -11.9499 55.7819 0.0000 0.0000 0.0000
# 4 0.0000 0.0000 0.0000 46.4624 0.0000 0.0000
# 5 0.0000 0.0000 0.0000 0.0000 -0.5431 0.0000
# 6 0.0000 0.0000 0.0000 0.0000 0.0000 -13.7085
#
#
#
# Elastic Compliance Matrix: (Units=1/GPa)
#
#
# Indices 1 2 3 4 5 6 
#
# 1 0.012010 0.000053 0.002336 0.000000 0.000000 0.000000
# 2 0.000053 0.006373 0.001375 0.000000 0.000000 0.000000
# 3 0.002336 0.001375 0.018674 0.000000 0.000000 0.000000
# 4 0.000000 0.000000 0.000000 0.021523 0.000000 0.000000
# 5 0.000000 0.000000 0.000000 0.000000 -1.841192 0.000000
# 6 0.000000 0.000000 0.000000 0.000000 0.000000 -0.072947
#
#
# Mechanical properties :
#
#
# Convention : Reuss Voigt Hill
#
# Bulk Modulus (GPa) = 22.42912 28.70782 25.56847
# Shear Modulus (GPa) = -2.70530 27.89178 12.59324
#
# Velocity S-wave (km/s) = -1.00884 3.23933 2.17663
# Velocity P-wave (km/s) = 2.66103 4.97908 3.99201
#
# Compressibility (1/GPa) = 0.04458491
#
# Stress axis : x y z
#
# Youngs Moduli (GPa) = 83.26479 156.91464 53.55121
#
# Poissons Ratio (x) = -0.00830 -0.12509
# Poissons Ratio (y) = -0.00440 -0.07366
# Poissons Ratio (z) = -0.19449 -0.21583
#
# Static dielectric constant tensor:
#      x y z
#    x 2.007130 0.000000 0.000000 
#    y 0.000000 2.201030 0.000000 
#    z 0.000000 0.000000 2.227310 
# 
# From -- ./inp_files/2688.got.cif
#   From: 2010.05.17/outbox.cif.g08.bks.cpg/sg36_2_cif.got.tgz:2688.got - 2010.06.03 17:41:39.
