data_PCOD9352138
_publ_section_title
;
Structure prediction by ZEFSAII (Michael W. Deem and Ramdas Pophale) SiO2 
 PCOD9352138
Probable space group: C M C 21
;
_chemical_formula_sum "Si O2"
_cell_formula_units_Z 36
_cell_length_a 12.985331
_cell_length_b 24.738399
_cell_length_c 5.192565
_cell_angle_alpha 90.000000
_cell_angle_beta 90.000000
_cell_angle_gamma 90.000000
_cell_volume 1668.040365
_symmetry_space_group_name_H-M "C M C 21"
_symmetry_group_IT_number 36
_symmetry_cell_setting 'orthorhombic'
loop_
_space_group_symop_operation_xyz
x,y,z
-x,-y,1/2+z
x,-y,1/2+z
-x,y,z
1/2+x,1/2+y,z
1/2-x,1/2-y,1/2+z
1/2+x,1/2-y,1/2+z
1/2-x,1/2+y,z
loop_
_atom_site_type_symbol
_atom_site_label
_atom_site_fract_x
_atom_site_fract_y
_atom_site_fract_z
Si Si1 0.320088 0.105911 0.452900
Si Si2 0.291673 0.769532 0.865568
Si Si3 0.500000 0.222908 0.240346
Si Si4 0.000000 0.648365 0.749042
Si Si5 0.616982 0.537090 0.559756
Si Si6 0.500000 0.036601 0.221021
O O1 0.295262 0.165650 0.345135
O O2 0.395523 0.115207 0.698895
O O3 0.213557 0.076652 0.518219
O O4 0.396676 0.071866 0.268744
O O5 0.209892 0.746578 0.663995
O O6 0.395301 0.744928 0.740218
O O7 0.500000 0.190480 0.510260
O O8 0.500000 0.180076 0.012021
O O9 0.624992 0.508176 0.836274
O O10 0.500000 0.560534 0.538882
O O11 0.500000 0.992166 0.447544
#
# Coordination Sequence:
#
# PCOD9352138 Si02
#       6
#     8   8   4   4   8   4
#     4  10  22  40  64  92 133 161 214 274 319 391
#     4  11  24  41  63  93 126 176 219 259 329 381
#     4  10  20  41  60  85 124 160 208 265 313 370
#     4   9  20  34  62  89 118 164 192 255 343 368
#     4  10  22  40  61  86 122 168 209 260 323 377
#     4  11  24  39  66 104 126 164 212 264 350 416
#
# _framework density 21.582211999999998
#
# number of rings (size 3 to 8) (size 9 to 14) (size 15 to 20)
#    0.000    1.778    0.000    4.667    0.000   14.222 
#    4.000    0.000    0.000    0.000    0.000    0.000 
#    0.000    0.000    0.000    0.000    0.000    0.000 
#
# Total GULP energy -100472.115006 kJ/mol
# GULP energy per Si atom -5581.784167 kJ/mol
# Density = 2.153309 g / cm^3
# Si number density = 21.582212 Si / 1000 Ang^3
#
#
#
# Elastic Constant Matrix: (Units=GPa)
#
#
# Indices 1 2 3 4 5 6 
#
# 1 136.6845 26.2094 -5.2553 0.0000 0.0000 0.0000
# 2 26.2094 67.0117 14.1315 0.0000 0.0000 0.0000
# 3 -5.2553 14.1315 99.6264 0.0000 0.0000 0.0000
# 4 0.0000 0.0000 0.0000 31.3914 0.0000 0.0000
# 5 0.0000 0.0000 0.0000 0.0000 -22.4273 0.0000
# 6 0.0000 0.0000 0.0000 0.0000 0.0000 31.7161
#
#
#
# Elastic Compliance Matrix: (Units=1/GPa)
#
#
# Indices 1 2 3 4 5 6 
#
# 1 0.007985 -0.003311 0.000891 0.000000 0.000000 0.000000
# 2 -0.003311 0.016756 -0.002551 0.000000 0.000000 0.000000
# 3 0.000891 -0.002551 0.010446 0.000000 0.000000 0.000000
# 4 0.000000 0.000000 0.000000 0.031856 0.000000 0.000000
# 5 0.000000 0.000000 0.000000 0.000000 -0.044589 0.000000
# 6 0.000000 0.000000 0.000000 0.000000 0.000000 0.031530
#
#
# Mechanical properties :
#
#
# Convention : Reuss Voigt Hill
#
# Bulk Modulus (GPa) = 39.61279 41.49931 40.55605
# Shear Modulus (GPa) = 69.11576 26.01851 47.56714
#
# Velocity S-wave (km/s) = 5.66515 3.47588 4.69977
# Velocity P-wave (km/s) = 7.82216 5.94804 6.94857
#
# Compressibility (1/GPa) = 0.02524437
#
# Stress axis : x y z
#
# Youngs Moduli (GPa) = 125.23057 59.68079 95.72679
#
# Poissons Ratio (x) = 0.19761 -0.08528
# Poissons Ratio (y) = 0.41464 0.24424
# Poissons Ratio (z) = -0.11157 0.15227
#
# Static dielectric constant tensor:
#      x y z
#    x 1.918840 0.000000 0.000000 
#    y 0.000000 1.796520 0.000000 
#    z 0.000000 0.000000 1.759530 
# 
# From -- ./inp_files/473.got.cif
#   From: 2010.05.17/outbox.cif.g08.bks.cpg/sg36_1_cif.got.tgz:473.got - 2010.06.03 17:41:39.
