data_PCOD9352664
_publ_section_title
;
Structure prediction by ZEFSAII (Michael W. Deem and Ramdas Pophale) SiO2 
 PCOD9352664
Probable space group: C M C 21
;
_chemical_formula_sum "Si O2"
_cell_formula_units_Z 40
_cell_length_a 10.331192
_cell_length_b 10.992903
_cell_length_c 14.017373
_cell_angle_alpha 90.000000
_cell_angle_beta 90.000000
_cell_angle_gamma 90.000000
_cell_volume 1591.950129
_symmetry_space_group_name_H-M "C M C 21"
_symmetry_group_IT_number 36
_symmetry_cell_setting 'orthorhombic'
loop_
_space_group_symop_operation_xyz
x,y,z
-x,-y,1/2+z
x,-y,1/2+z
-x,y,z
1/2+x,1/2+y,z
1/2-x,1/2-y,1/2+z
1/2+x,1/2-y,1/2+z
1/2-x,1/2+y,z
loop_
_atom_site_type_symbol
_atom_site_label
_atom_site_fract_x
_atom_site_fract_y
_atom_site_fract_z
Si Si1 0.500000 0.118347 0.139421
Si Si2 0.000000 0.636316 0.592632
Si Si3 0.000000 0.492692 0.343161
Si Si4 0.718934 0.312319 0.102570
Si Si5 0.222975 0.327058 0.879660
Si Si6 0.500000 0.683183 0.911182
Si Si7 0.500000 0.706383 0.364501
Si Si8 0.000000 0.047825 0.546110
O O1 0.500000 0.038261 0.234228
O O2 0.628008 0.201729 0.135682
O O3 0.500000 0.006858 0.064550
O O4 0.863408 0.669400 0.642966
O O5 0.000000 0.718178 0.497169
O O6 0.135127 0.552985 0.377593
O O7 0.000000 0.350541 0.358086
O O8 0.745176 0.295943 0.989479
O O9 0.629498 0.434196 0.107514
O O10 0.360573 0.339891 0.827732
O O11 0.127104 0.216333 0.849923
O O12 0.500000 0.559948 0.970007
O O13 0.500000 0.663538 0.474957
#
# Coordination Sequence:
#
# PCOD9352664 Si02
#       8
#     4   4   4   8   8   4   4   4
#     4  11  25  44  62  90 137 176 216 276 345 415
#     4  10  22  37  66  92 124 171 220 263 338 388
#     4  11  25  44  62  90 137 176 216 276 345 415
#     4   9  21  38  64  96 125 167 222 278 327 384
#     4   9  21  38  64  96 125 167 222 278 327 384
#     4   9  19  34  60  98 132 159 214 276 324 379
#     4  10  22  37  66  92 124 171 220 263 338 388
#     4   9  19  34  60  98 132 159 214 276 324 379
#
# _framework density 25.126412999999999
#
# number of rings (size 3 to 8) (size 9 to 14) (size 15 to 20)
#    0.000    2.400    0.000    1.200   11.200   12.800 
#    0.000    0.000    0.000    0.000    0.000    0.000 
#    0.000    0.000    0.000    0.000    0.000    0.000 
#
# Total GULP energy -111502.436056 kJ/mol
# GULP energy per Si atom -5575.121803 kJ/mol
# Density = 2.506922 g / cm^3
# Si number density = 25.126413 Si / 1000 Ang^3
#
#
#
# Elastic Constant Matrix: (Units=GPa)
#
#
# Indices 1 2 3 4 5 6 
#
# 1 287.5038 76.6101 8.0262 0.0000 0.0000 0.0000
# 2 76.6101 130.4666 19.4462 0.0000 0.0000 0.0000
# 3 8.0262 19.4462 48.8154 0.0000 0.0000 0.0000
# 4 0.0000 0.0000 0.0000 24.0367 0.0000 0.0000
# 5 0.0000 0.0000 0.0000 0.0000 3.0440 0.0000
# 6 0.0000 0.0000 0.0000 0.0000 0.0000 24.1577
#
#
#
# Elastic Compliance Matrix: (Units=1/GPa)
#
#
# Indices 1 2 3 4 5 6 
#
# 1 0.004128 -0.002469 0.000305 0.000000 0.000000 0.000000
# 2 -0.002469 0.009626 -0.003429 0.000000 0.000000 0.000000
# 3 0.000305 -0.003429 0.021801 0.000000 0.000000 0.000000
# 4 0.000000 0.000000 0.000000 0.041603 0.000000 0.000000
# 5 0.000000 0.000000 0.000000 0.000000 0.328513 0.000000
# 6 0.000000 0.000000 0.000000 0.000000 0.000000 0.041395
#
#
# Mechanical properties :
#
#
# Convention : Reuss Voigt Hill
#
# Bulk Modulus (GPa) = 41.03605 74.99454 58.01529
# Shear Modulus (GPa) = 10.72102 34.42790 22.57446
#
# Velocity S-wave (km/s) = 2.06787 3.70562 3.00064
# Velocity P-wave (km/s) = 4.69774 6.94410 5.92829
#
# Compressibility (1/GPa) = 0.02436882
#
# Stress axis : x y z
#
# Youngs Moduli (GPa) = 242.26764 103.88794 45.86947
#
# Poissons Ratio (x) = 0.25652 -0.01399
# Poissons Ratio (y) = 0.59821 0.15727
# Poissons Ratio (z) = -0.07389 0.35619
#
# Static dielectric constant tensor:
#      x y z
#    x 2.189760 0.000000 0.000000 
#    y 0.000000 2.015230 0.000000 
#    z 0.000000 0.000000 2.142720 
# 
# From -- ./inp_files/15913.got.cif
#   From: 2010.05.17/outbox.cif.g08.bks.cpg/sg36_8_cif.got.tgz:15913.got - 2010.06.03 17:41:39.
