data_PCOD9352077
_publ_section_title
;
Structure prediction by ZEFSAII (Michael W. Deem and Ramdas Pophale) SiO2 
 PCOD9352077
Probable space group: C M C 21
;
_chemical_formula_sum "Si O2"
_cell_formula_units_Z 64
_cell_length_a 23.860487
_cell_length_b 14.460895
_cell_length_c 8.110094
_cell_angle_alpha 90.000000
_cell_angle_beta 90.000000
_cell_angle_gamma 90.000000
_cell_volume 2798.339251
_symmetry_space_group_name_H-M "C M C 21"
_symmetry_group_IT_number 36
_symmetry_cell_setting 'orthorhombic'
loop_
_space_group_symop_operation_xyz
x,y,z
-x,-y,1/2+z
x,-y,1/2+z
-x,y,z
1/2+x,1/2+y,z
1/2-x,1/2-y,1/2+z
1/2+x,1/2-y,1/2+z
1/2-x,1/2+y,z
loop_
_atom_site_type_symbol
_atom_site_label
_atom_site_fract_x
_atom_site_fract_y
_atom_site_fract_z
Si Si1 0.257017 0.275788 0.521620
Si Si2 0.768984 0.102183 0.687919
Si Si3 0.435410 0.633279 0.926355
Si Si4 0.109383 0.962809 0.111091
Si Si5 0.850673 0.463315 0.243856
Si Si6 0.361245 0.141684 0.089302
Si Si7 0.378243 0.775162 0.101947
Si Si8 0.066722 0.203423 0.430321
O O1 0.239656 0.167190 0.526711
O O2 0.267792 0.329892 0.349644
O O3 0.202440 0.321731 0.604157
O O4 0.315971 0.268895 0.618030
O O5 0.826971 0.049186 0.669581
O O6 0.716081 0.035631 0.710107
O O7 0.500000 0.645429 0.965263
O O8 0.428339 0.581845 0.753743
O O9 0.406910 0.564723 0.057940
O O10 0.403622 0.730622 0.938107
O O11 0.095714 0.895439 0.957863
O O12 0.860771 0.418144 0.420579
O O13 0.873078 0.385061 0.117528
O O14 0.874725 0.565136 0.224531
O O15 0.403477 0.225679 0.057704
O O16 0.417197 0.742221 0.251526
O O17 0.000000 0.197954 0.451631
#
# Coordination Sequence:
#
# PCOD9352077 Si02
#       8
#     8   8   8   8   8   8   8   8
#     4  10  20  39  62  96 131 165 208 259 323 391
#     4  10  21  38  62  97 128 168 206 259 323 393
#     4  12  25  42  63  90 128 170 218 270 318 381
#     4  12  25  42  63  93 125 169 219 264 324 390
#     4   9  22  37  61  92 131 159 201 259 321 381
#     4  10  21  40  61  92 127 165 207 260 319 375
#     4  10  22  42  65  92 126 167 218 265 327 382
#     4  11  23  44  67  90 126 175 220 266 325 387
#
# _framework density 22.870706999999999
#
# number of rings (size 3 to 8) (size 9 to 14) (size 15 to 20)
#    0.000    1.500    2.500    3.000    1.750    3.000 
#    0.000    3.125    0.000    0.000    0.000    0.000 
#    0.000    0.000    0.000    0.000    0.000    0.000 
#
# Total GULP energy -178903.005176 kJ/mol
# GULP energy per Si atom -5590.718912 kJ/mol
# Density = 2.281865 g / cm^3
# Si number density = 22.870707 Si / 1000 Ang^3
#
#
#
# Elastic Constant Matrix: (Units=GPa)
#
#
# Indices 1 2 3 4 5 6 
#
# 1 100.3692 8.9051 -6.2865 0.0000 0.0000 0.0000
# 2 8.9051 52.7548 -5.9006 0.0000 0.0000 0.0000
# 3 -6.2865 -5.9006 47.4211 0.0000 0.0000 0.0000
# 4 0.0000 0.0000 0.0000 33.6549 0.0000 0.0000
# 5 0.0000 0.0000 0.0000 0.0000 28.7979 0.0000
# 6 0.0000 0.0000 0.0000 0.0000 0.0000 12.0072
#
#
#
# Elastic Compliance Matrix: (Units=1/GPa)
#
#
# Indices 1 2 3 4 5 6 
#
# 1 0.010176 -0.001589 0.001151 0.000000 0.000000 0.000000
# 2 -0.001589 0.019471 0.002212 0.000000 0.000000 0.000000
# 3 0.001151 0.002212 0.021516 0.000000 0.000000 0.000000
# 4 0.000000 0.000000 0.000000 0.029713 0.000000 0.000000
# 5 0.000000 0.000000 0.000000 0.000000 0.034725 0.000000
# 6 0.000000 0.000000 0.000000 0.000000 0.000000 0.083284
#
#
# Mechanical properties :
#
#
# Convention : Reuss Voigt Hill
#
# Bulk Modulus (GPa) = 18.27750 21.55347 19.91549
# Shear Modulus (GPa) = 23.41118 28.48048 25.94583
#
# Velocity S-wave (km/s) = 3.20290 3.53268 3.37182
# Velocity P-wave (km/s) = 4.65694 5.10728 4.88730
#
# Compressibility (1/GPa) = 0.05471206
#
# Stress axis : x y z
#
# Youngs Moduli (GPa) = 98.26749 51.35774 46.47801
#
# Poissons Ratio (x) = 0.08161 -0.05351
# Poissons Ratio (y) = 0.15615 -0.10282
# Poissons Ratio (z) = -0.11314 -0.11361
#
# Static dielectric constant tensor:
#      x y z
#    x 1.800160 0.000000 0.000000 
#    y 0.000000 1.846170 0.000000 
#    z 0.000000 0.000000 1.963510 
# 
# From -- ./inp_files/5657.got.cif
#   From: 2010.05.17/outbox.cif.g08.bks.cpg/sg36_3_cif.got.tgz:5657.got - 2010.06.03 17:41:39.
