data_PCOD9352337
_publ_section_title
;
Structure prediction by ZEFSAII (Michael W. Deem and Ramdas Pophale) SiO2 
 PCOD9352337
Probable space group: C M C 21
;
_chemical_formula_sum "Si O2"
_cell_formula_units_Z 64
_cell_length_a 15.715508
_cell_length_b 22.024936
_cell_length_c 8.688429
_cell_angle_alpha 90.000000
_cell_angle_beta 90.000000
_cell_angle_gamma 90.000000
_cell_volume 3007.352498
_symmetry_space_group_name_H-M "C M C 21"
_symmetry_group_IT_number 36
_symmetry_cell_setting 'orthorhombic'
loop_
_space_group_symop_operation_xyz
x,y,z
-x,-y,1/2+z
x,-y,1/2+z
-x,y,z
1/2+x,1/2+y,z
1/2-x,1/2-y,1/2+z
1/2+x,1/2-y,1/2+z
1/2-x,1/2+y,z
loop_
_atom_site_type_symbol
_atom_site_label
_atom_site_fract_x
_atom_site_fract_y
_atom_site_fract_z
Si Si1 0.092160 0.083012 0.781640
Si Si2 0.746558 0.670518 0.796454
Si Si3 0.597553 0.819276 0.487999
Si Si4 0.155548 0.021223 0.072991
Si Si5 0.732557 0.419343 0.859654
Si Si6 0.845070 0.249842 0.054885
Si Si7 0.904792 0.185358 0.353522
Si Si8 0.094433 0.646174 0.343220
O O1 0.175936 0.122311 0.746600
O O2 0.098699 0.022121 0.680224
O O3 0.000000 0.112887 0.755863
O O4 0.102056 0.063349 0.959135
O O5 0.832964 0.647634 0.880473
O O6 0.777992 0.712330 0.657383
O O7 0.701901 0.710181 0.928118
O O8 0.500000 0.836165 0.449101
O O9 0.605143 0.747270 0.451359
O O10 0.610746 0.831009 0.668472
O O11 0.214932 0.060282 0.184486
O O12 0.209398 0.976127 0.965756
O O13 0.666718 0.364143 0.887372
O O14 0.828056 0.397554 0.884035
O O15 0.893870 0.208157 0.177509
O O16 0.901015 0.297830 0.961362
O O17 0.000000 0.160723 0.377353
O O18 0.000000 0.619082 0.348119
#
# Coordination Sequence:
#
# PCOD9352337 Si02
#       8
#     8   8   8   8   8   8   8   8
#     4  11  23  39  61  88 117 152 194 240 291 346
#     4  11  22  38  58  85 120 162 199 234 286 347
#     4   9  19  36  59  89 123 157 193 234 284 347
#     4  10  24  42  60  82 114 150 196 252 297 335
#     4  11  23  42  62  83 114 154 197 245 296 344
#     4  11  22  36  56  87 126 158 193 237 281 346
#     4  10  21  37  60  90 125 162 193 229 285 351
#     4  11  22  38  62  90 119 153 193 239 294 354
#
# _framework density 21.281177
#
# number of rings (size 3 to 8) (size 9 to 14) (size 15 to 20)
#    0.000    1.500    0.000    6.000    0.000    6.500 
#    0.000    3.750    0.000    3.000    0.000    0.000 
#    0.000    0.000    0.000    0.000    0.000    0.000 
#
# Total GULP energy -179001.443383 kJ/mol
# GULP energy per Si atom -5593.795106 kJ/mol
# Density = 2.123274 g / cm^3
# Si number density = 21.281177 Si / 1000 Ang^3
#
#
#
# Elastic Constant Matrix: (Units=GPa)
#
#
# Indices 1 2 3 4 5 6 
#
# 1 149.6072 37.6780 16.1916 0.0000 0.0000 0.0000
# 2 37.6780 40.2266 9.7387 0.0000 0.0000 0.0000
# 3 16.1916 9.7387 77.3946 0.0000 0.0000 0.0000
# 4 0.0000 0.0000 0.0000 35.5133 0.0000 0.0000
# 5 0.0000 0.0000 0.0000 0.0000 13.1986 0.0000
# 6 0.0000 0.0000 0.0000 0.0000 0.0000 6.1852
#
#
#
# Elastic Compliance Matrix: (Units=1/GPa)
#
#
# Indices 1 2 3 4 5 6 
#
# 1 0.008799 -0.008041 -0.000829 0.000000 0.000000 0.000000
# 2 -0.008041 0.032988 -0.002469 0.000000 0.000000 0.000000
# 3 -0.000829 -0.002469 0.013405 0.000000 0.000000 0.000000
# 4 0.000000 0.000000 0.000000 0.028158 0.000000 0.000000
# 5 0.000000 0.000000 0.000000 0.000000 0.075766 0.000000
# 6 0.000000 0.000000 0.000000 0.000000 0.000000 0.161676
#
#
# Mechanical properties :
#
#
# Convention : Reuss Voigt Hill
#
# Bulk Modulus (GPa) = 30.75516 43.82724 37.29120
# Shear Modulus (GPa) = 14.11204 24.55408 19.33306
#
# Velocity S-wave (km/s) = 2.57791 3.40044 3.01733
# Velocity P-wave (km/s) = 4.83157 6.00470 5.44979
#
# Compressibility (1/GPa) = 0.03251487
#
# Stress axis : x y z
#
# Youngs Moduli (GPa) = 113.65022 30.31389 74.59963
#
# Poissons Ratio (x) = 0.24375 0.06184
# Poissons Ratio (y) = 0.91383 0.18417
# Poissons Ratio (z) = 0.09422 0.07484
#
# Static dielectric constant tensor:
#      x y z
#    x 1.791520 0.000000 0.000000 
#    y 0.000000 1.752060 0.000000 
#    z 0.000000 0.000000 1.782060 
# 
# From -- ./inp_files/4337.got.cif
#   From: 2010.05.17/outbox.cif.g08.bks.cpg/sg36_3_cif.got.tgz:4337.got - 2010.06.03 17:41:39.
