data_PCOD9352604
_publ_section_title
;
Structure prediction by ZEFSAII (Michael W. Deem and Ramdas Pophale) SiO2 
 PCOD9352604
Probable space group: C M C 21
;
_chemical_formula_sum "Si O2"
_cell_formula_units_Z 40
_cell_length_a 13.547387
_cell_length_b 13.034021
_cell_length_c 10.122912
_cell_angle_alpha 90.000000
_cell_angle_beta 90.000000
_cell_angle_gamma 90.000000
_cell_volume 1787.472690
_symmetry_space_group_name_H-M "C M C 21"
_symmetry_group_IT_number 36
_symmetry_cell_setting 'orthorhombic'
loop_
_space_group_symop_operation_xyz
x,y,z
-x,-y,1/2+z
x,-y,1/2+z
-x,y,z
1/2+x,1/2+y,z
1/2-x,1/2-y,1/2+z
1/2+x,1/2-y,1/2+z
1/2-x,1/2+y,z
loop_
_atom_site_type_symbol
_atom_site_label
_atom_site_fract_x
_atom_site_fract_y
_atom_site_fract_z
Si Si1 0.381512 0.893816 0.603470
Si Si2 0.299020 0.951913 0.891260
Si Si3 0.381451 0.326177 0.178282
Si Si4 0.383005 0.479111 0.517720
Si Si5 0.618738 0.259089 0.471557
O O1 0.500000 0.899277 0.613723
O O2 0.339510 0.936490 0.743231
O O3 0.351990 0.773685 0.593976
O O4 0.347896 0.956318 0.475587
O O5 0.183499 0.978431 0.898306
O O6 0.327614 0.849636 0.975576
O O7 0.500000 0.326421 0.178055
O O8 0.352536 0.301845 0.327053
O O9 0.354515 0.437061 0.126290
O O10 0.500000 0.483262 0.487812
O O11 0.361852 0.361065 0.558106
O O12 0.500000 0.239305 0.476475
#
# Coordination Sequence:
#
# PCOD9352604 Si02
#       5
#     8   8   8   8   8
#     4  10  21  41  66  95 130 165 210 267 322 376
#     4  11  23  38  66  95 123 172 216 255 318 382
#     4   8  17  36  60  82 119 166 201 250 321 370
#     4  10  22  38  59  90 125 166 211 260 309 376
#     4   9  19  39  62  84 121 165 207 256 317 376
#
# _framework density 22.377965
#
# number of rings (size 3 to 8) (size 9 to 14) (size 15 to 20)
#    0.000    2.400    0.000    3.000    5.600    0.000 
#    0.000    2.000    0.000    7.200    0.000    0.000 
#    0.000    0.000    0.000    0.000    0.000    0.000 
#
# Total GULP energy -111579.637968 kJ/mol
# GULP energy per Si atom -5578.981898 kJ/mol
# Density = 2.232703 g / cm^3
# Si number density = 22.377965 Si / 1000 Ang^3
#
#
#
# Elastic Constant Matrix: (Units=GPa)
#
#
# Indices 1 2 3 4 5 6 
#
# 1 97.7207 27.2629 9.2297 0.0000 0.0000 0.0000
# 2 27.2629 154.1465 23.9450 0.0000 0.0000 0.0000
# 3 9.2297 23.9450 45.9558 0.0000 0.0000 0.0000
# 4 0.0000 0.0000 0.0000 46.5138 0.0000 0.0000
# 5 0.0000 0.0000 0.0000 0.0000 15.9836 0.0000
# 6 0.0000 0.0000 0.0000 0.0000 0.0000 37.1326
#
#
#
# Elastic Compliance Matrix: (Units=1/GPa)
#
#
# Indices 1 2 3 4 5 6 
#
# 1 0.010833 -0.001717 -0.001281 0.000000 0.000000 0.000000
# 2 -0.001717 0.007331 -0.003475 0.000000 0.000000 0.000000
# 3 -0.001281 -0.003475 0.023828 0.000000 0.000000 0.000000
# 4 0.000000 0.000000 0.000000 0.021499 0.000000 0.000000
# 5 0.000000 0.000000 0.000000 0.000000 0.062564 0.000000
# 6 0.000000 0.000000 0.000000 0.000000 0.000000 0.026930
#
#
# Mechanical properties :
#
#
# Convention : Reuss Voigt Hill
#
# Bulk Modulus (GPa) = 34.42807 46.52203 40.47505
# Shear Modulus (GPa) = 28.47165 35.75171 32.11168
#
# Velocity S-wave (km/s) = 3.57081 4.00137 3.79221
# Velocity P-wave (km/s) = 5.69378 6.49479 6.10743
#
# Compressibility (1/GPa) = 0.02904606
#
# Stress axis : x y z
#
# Youngs Moduli (GPa) = 92.30823 136.41101 41.96764
#
# Poissons Ratio (x) = 0.23422 0.05377
# Poissons Ratio (y) = 0.15849 0.14583
# Poissons Ratio (z) = 0.11826 0.47400
#
# Static dielectric constant tensor:
#      x y z
#    x 1.872260 0.000000 0.000000 
#    y 0.000000 1.877570 0.000000 
#    z 0.000000 0.000000 1.854440 
# 
# From -- ./inp_files/8246.got.cif
#   From: 2010.05.17/outbox.cif.g08.bks.cpg/sg36_5_cif.got.tgz:8246.got - 2010.06.03 17:41:39.
