data_PCOD9352815
_publ_section_title
;
Structure prediction by ZEFSAII (Michael W. Deem and Ramdas Pophale) SiO2 
 PCOD9352815
Probable space group: C M C 21
;
_chemical_formula_sum "Si O2"
_cell_formula_units_Z 48
_cell_length_a 13.345891
_cell_length_b 22.517166
_cell_length_c 7.108909
_cell_angle_alpha 90.000000
_cell_angle_beta 90.000000
_cell_angle_gamma 90.000000
_cell_volume 2136.309924
_symmetry_space_group_name_H-M "C M C 21"
_symmetry_group_IT_number 36
_symmetry_cell_setting 'orthorhombic'
loop_
_space_group_symop_operation_xyz
x,y,z
-x,-y,1/2+z
x,-y,1/2+z
-x,y,z
1/2+x,1/2+y,z
1/2-x,1/2-y,1/2+z
1/2+x,1/2-y,1/2+z
1/2-x,1/2+y,z
loop_
_atom_site_type_symbol
_atom_site_label
_atom_site_fract_x
_atom_site_fract_y
_atom_site_fract_z
Si Si1 0.817326 0.311085 0.289170
Si Si2 0.217324 0.916098 0.167766
Si Si3 0.717516 0.445986 0.608171
Si Si4 0.500000 0.414616 0.154423
Si Si5 0.390018 0.858816 0.682320
Si Si6 0.000000 0.946783 0.591879
Si Si7 0.112995 0.243071 0.944459
O O1 0.802551 0.367199 0.149733
O O2 0.877773 0.330875 0.472671
O O3 0.706393 0.293824 0.364141
O O4 0.864448 0.259444 0.161970
O O5 0.214068 0.925677 0.392842
O O6 0.109338 0.890557 0.103472
O O7 0.234271 0.983128 0.098487
O O8 0.802856 0.407501 0.706823
O O9 0.606113 0.432715 0.686733
O O10 0.500000 0.421647 0.381224
O O11 0.500000 0.481915 0.076414
O O12 0.500000 0.886856 0.698663
O O13 0.385310 0.803306 0.822177
O O14 0.000000 0.217453 0.927048
#
# Coordination Sequence:
#
# PCOD9352815 Si02
#       7
#     8   8   8   4   8   4   8
#     4  11  22  42  65  92 123 165 214 267 317 375
#     4   9  19  31  57  82 121 154 202 249 309 377
#     4   9  18  34  54  85 118 161 194 255 310 374
#     4   8  14  28  46  78 110 150 182 240 297 356
#     4  10  22  42  64  89 127 163 210 261 313 376
#     4   8  14  28  50  74 114 148 190 234 301 356
#     4  11  24  42  67  91 122 168 213 268 321 373
#
# _framework density 22.46865
#
# number of rings (size 3 to 8) (size 9 to 14) (size 15 to 20)
#    0.000    2.333    1.667    0.500    3.500    0.000 
#    1.500    4.167    1.833    0.000    0.000    0.000 
#    0.000    0.000    0.000    0.000    0.000    0.000 
#
# Total GULP energy -133938.820149 kJ/mol
# GULP energy per Si atom -5580.784173 kJ/mol
# Density = 2.241751 g / cm^3
# Si number density = 22.468650 Si / 1000 Ang^3
#
#
#
# Elastic Constant Matrix: (Units=GPa)
#
#
# Indices 1 2 3 4 5 6 
#
# 1 120.2013 33.9553 3.6723 0.0000 0.0000 0.0000
# 2 33.9553 57.6550 9.5392 0.0000 0.0000 0.0000
# 3 3.6723 9.5392 64.6175 0.0000 0.0000 0.0000
# 4 0.0000 0.0000 0.0000 31.5556 0.0000 0.0000
# 5 0.0000 0.0000 0.0000 0.0000 12.5675 0.0000
# 6 0.0000 0.0000 0.0000 0.0000 0.0000 28.0997
#
#
#
# Elastic Compliance Matrix: (Units=1/GPa)
#
#
# Indices 1 2 3 4 5 6 
#
# 1 0.009986 -0.005932 0.000308 0.000000 0.000000 0.000000
# 2 -0.005932 0.021303 -0.002808 0.000000 0.000000 0.000000
# 3 0.000308 -0.002808 0.015873 0.000000 0.000000 0.000000
# 4 0.000000 0.000000 0.000000 0.031690 0.000000 0.000000
# 5 0.000000 0.000000 0.000000 0.000000 0.079570 0.000000
# 6 0.000000 0.000000 0.000000 0.000000 0.000000 0.035588
#
#
# Mechanical properties :
#
#
# Convention : Reuss Voigt Hill
#
# Bulk Modulus (GPa) = 33.00537 37.42305 35.21421
# Shear Modulus (GPa) = 22.62739 27.46503 25.04621
#
# Velocity S-wave (km/s) = 3.17687 3.50004 3.34236
# Velocity P-wave (km/s) = 5.30830 5.74678 5.53189
#
# Compressibility (1/GPa) = 0.03029810
#
# Stress axis : x y z
#
# Youngs Moduli (GPa) = 100.14356 46.94247 63.00143
#
# Poissons Ratio (x) = 0.27846 -0.01942
# Poissons Ratio (y) = 0.59405 0.17689
# Poissons Ratio (z) = -0.03087 0.13180
#
# Static dielectric constant tensor:
#      x y z
#    x 1.874010 0.000000 0.000000 
#    y 0.000000 1.865290 0.000000 
#    z 0.000000 0.000000 1.854140 
# 
# From -- ./inp_files/3348.got.cif
#   From: 2010.05.17/outbox.cif.g08.bks.cpg/sg36_2_cif.got.tgz:3348.got - 2010.06.03 17:41:39.
