data_PCOD9352243
_publ_section_title
;
Structure prediction by ZEFSAII (Michael W. Deem and Ramdas Pophale) SiO2 
 PCOD9352243
Probable space group: C M C 21
;
_chemical_formula_sum "Si O2"
_cell_formula_units_Z 64
_cell_length_a 9.013400
_cell_length_b 25.594232
_cell_length_c 14.648583
_cell_angle_alpha 90.000000
_cell_angle_beta 90.000000
_cell_angle_gamma 90.000000
_cell_volume 3379.297004
_symmetry_space_group_name_H-M "C M C 21"
_symmetry_group_IT_number 36
_symmetry_cell_setting 'orthorhombic'
loop_
_space_group_symop_operation_xyz
x,y,z
-x,-y,1/2+z
x,-y,1/2+z
-x,y,z
1/2+x,1/2+y,z
1/2-x,1/2-y,1/2+z
1/2+x,1/2-y,1/2+z
1/2-x,1/2+y,z
loop_
_atom_site_type_symbol
_atom_site_label
_atom_site_fract_x
_atom_site_fract_y
_atom_site_fract_z
Si Si1 0.180474 0.353430 0.701790
Si Si2 0.176080 0.892942 0.138451
Si Si3 0.677776 0.144194 0.816569
Si Si4 0.330224 0.826456 0.992215
Si Si5 0.176203 0.990552 0.007664
Si Si6 0.179774 0.256700 0.826643
Si Si7 0.829812 0.427160 0.857206
Si Si8 0.321171 0.898413 0.514595
O O1 0.227282 0.300687 0.753083
O O2 0.226914 0.403948 0.761657
O O3 0.225788 0.360677 0.597516
O O4 0.000000 0.353494 0.706304
O O5 0.259132 0.890199 0.234158
O O6 0.229253 0.844170 0.075895
O O7 0.000000 0.890436 0.151450
O O8 0.212296 0.945268 0.081275
O O9 0.500000 0.145939 0.812202
O O10 0.745216 0.201912 0.807457
O O11 0.723335 0.122096 0.915294
O O12 0.500000 0.818033 0.023091
O O13 0.281616 0.778704 0.927784
O O14 0.332888 0.875933 0.922700
O O15 0.255292 0.044452 0.030204
O O16 0.000000 0.996974 0.005810
O O17 0.233310 0.969489 0.909787
O O18 0.000000 0.252622 0.823342
O O19 0.000000 0.445710 0.847704
O O20 0.500000 0.901567 0.516380
#
# Coordination Sequence:
#
# PCOD9352243 Si02
#       8
#     8   8   8   8   8   8   8   8
#     4   8  16  34  59  83 105 137 183 224 262 319
#     4  10  21  37  57  80 108 145 186 229 278 326
#     4  11  24  38  53  79 113 148 188 227 265 321
#     4   8  15  30  54  83 111 138 175 221 266 322
#     4  10  21  36  55  81 110 139 176 224 277 326
#     4   9  18  35  59  84 112 145 177 220 279 327
#     4   8  14  29  55  82 106 135 173 215 261 317
#     4  10  22  39  56  76 107 145 182 220 264 320
#
# _framework density 18.938849000000001
#
# number of rings (size 3 to 8) (size 9 to 14) (size 15 to 20)
#    0.000    2.750    0.000    2.625    0.000    5.000 
#    0.000    8.125    0.000    0.000    0.000    0.000 
#    0.000    0.000    0.000    0.000    0.000    0.000 
#
# Total GULP energy -178488.834505 kJ/mol
# GULP energy per Si atom -5577.776078 kJ/mol
# Density = 1.889574 g / cm^3
# Si number density = 18.938849 Si / 1000 Ang^3
#
#
#
# Elastic Constant Matrix: (Units=GPa)
#
#
# Indices 1 2 3 4 5 6 
#
# 1 26.0015 28.1734 43.4951 0.0000 0.0000 0.0000
# 2 28.1734 73.6183 42.6027 0.0000 0.0000 0.0000
# 3 43.4951 42.6027 138.7347 0.0000 0.0000 0.0000
# 4 0.0000 0.0000 0.0000 19.1890 0.0000 0.0000
# 5 0.0000 0.0000 0.0000 0.0000 10.7508 0.0000
# 6 0.0000 0.0000 0.0000 0.0000 0.0000 23.9950
#
#
#
# Elastic Compliance Matrix: (Units=1/GPa)
#
#
# Indices 1 2 3 4 5 6 
#
# 1 0.114435 -0.028009 -0.027276 0.000000 0.000000 0.000000
# 2 -0.028009 0.023375 0.001603 0.000000 0.000000 0.000000
# 3 -0.027276 0.001603 0.015267 0.000000 0.000000 0.000000
# 4 0.000000 0.000000 0.000000 0.052113 0.000000 0.000000
# 5 0.000000 0.000000 0.000000 0.000000 0.093017 0.000000
# 6 0.000000 0.000000 0.000000 0.000000 0.000000 0.041675
#
#
# Mechanical properties :
#
#
# Convention : Reuss Voigt Hill
#
# Bulk Modulus (GPa) = 21.87544 51.87743 36.87643
# Shear Modulus (GPa) = 10.81119 19.05917 14.93518
#
# Velocity S-wave (km/s) = 2.39183 3.17575 2.81125
# Velocity P-wave (km/s) = 4.38218 6.39521 5.48189
#
# Compressibility (1/GPa) = 0.04571337
#
# Stress axis : x y z
#
# Youngs Moduli (GPa) = 8.73856 42.78122 65.50088
#
# Poissons Ratio (x) = 1.19828 1.78659
# Poissons Ratio (y) = 0.24476 -0.10502
# Poissons Ratio (z) = 0.23835 -0.06859
#
# Static dielectric constant tensor:
#      x y z
#    x 1.629040 0.000000 0.000000 
#    y 0.000000 1.659270 0.000000 
#    z 0.000000 0.000000 1.681150 
# 
# From -- ./inp_files/10948.got.cif
#   From: 2010.05.17/outbox.cif.g08.bks.cpg/sg36_6_cif.got.tgz:10948.got - 2010.06.03 17:41:39.
