data_PCOD9352155
_publ_section_title
;
Structure prediction by ZEFSAII (Michael W. Deem and Ramdas Pophale) SiO2 
 PCOD9352155
Probable space group: C M C 21
;
_chemical_formula_sum "Si O2"
_cell_formula_units_Z 48
_cell_length_a 14.424372
_cell_length_b 9.890867
_cell_length_c 16.619061
_cell_angle_alpha 90.000000
_cell_angle_beta 90.000000
_cell_angle_gamma 90.000000
_cell_volume 2371.033871
_symmetry_space_group_name_H-M "C M C 21"
_symmetry_group_IT_number 36
_symmetry_cell_setting 'orthorhombic'
loop_
_space_group_symop_operation_xyz
x,y,z
-x,-y,1/2+z
x,-y,1/2+z
-x,y,z
1/2+x,1/2+y,z
1/2-x,1/2-y,1/2+z
1/2+x,1/2-y,1/2+z
1/2-x,1/2+y,z
loop_
_atom_site_type_symbol
_atom_site_label
_atom_site_fract_x
_atom_site_fract_y
_atom_site_fract_z
Si Si1 0.187533 0.027968 0.019250
Si Si2 0.302974 0.928377 0.873981
Si Si3 0.000000 0.206364 0.278424
Si Si4 0.706869 0.190739 0.614223
Si Si5 0.500000 0.186688 0.607578
Si Si6 0.000000 0.018433 0.915552
Si Si7 0.297109 0.808200 0.292707
Si Si8 0.500000 0.819041 0.915201
O O1 0.215778 0.912486 0.082961
O O2 0.193523 0.177029 0.058088
O O3 0.265457 0.003906 0.952239
O O4 0.090603 0.003989 0.972573
O O5 0.253092 0.786789 0.857011
O O6 0.409748 0.897872 0.887658
O O7 0.278961 0.033779 0.803987
O O8 0.000000 0.078766 0.338067
O O9 0.093234 0.285403 0.299823
O O10 0.000000 0.197743 0.179240
O O11 0.603012 0.123299 0.619889
O O12 0.731816 0.236344 0.703832
O O13 0.500000 0.209070 0.511522
O O14 0.000000 0.169096 0.879906
#
# Coordination Sequence:
#
# PCOD9352155 Si02
#       8
#     8   8   4   8   4   4   8   4
#     4  12  22  40  64  94 124 169 218 267 322 387
#     4  12  24  41  67  96 129 169 219 270 323 389
#     4  10  23  38  66  91 132 170 217 264 320 392
#     4  11  23  42  66  92 131 172 215 264 329 391
#     4  10  20  42  62  91 123 177 203 258 328 386
#     4  12  22  40  63  98 130 166 219 274 330 378
#     4  11  24  43  64  98 132 172 217 266 329 390
#     4  12  23  44  65  94 133 171 217 274 330 390
#
# _framework density 20.244333000000001
#
# number of rings (size 3 to 8) (size 9 to 14) (size 15 to 20)
#    0.000    0.667    5.000    3.500    0.000    0.000 
#    0.000    1.667    0.000    0.000    0.000    0.000 
#    0.000    0.000    0.000    0.000    0.000    0.000 
#
# Total GULP energy -133850.621929 kJ/mol
# GULP energy per Si atom -5577.109247 kJ/mol
# Density = 2.019826 g / cm^3
# Si number density = 20.244333 Si / 1000 Ang^3
#
#
#
# Elastic Constant Matrix: (Units=GPa)
#
#
# Indices 1 2 3 4 5 6 
#
# 1 103.1137 36.1952 9.4855 0.0000 0.0000 0.0000
# 2 36.1952 94.4011 24.6297 0.0000 0.0000 0.0000
# 3 9.4855 24.6297 65.4482 0.0000 0.0000 0.0000
# 4 0.0000 0.0000 0.0000 31.6938 0.0000 0.0000
# 5 0.0000 0.0000 0.0000 0.0000 11.4172 0.0000
# 6 0.0000 0.0000 0.0000 0.0000 0.0000 22.3796
#
#
#
# Elastic Compliance Matrix: (Units=1/GPa)
#
#
# Indices 1 2 3 4 5 6 
#
# 1 0.011206 -0.004295 -0.000008 0.000000 0.000000 0.000000
# 2 -0.004295 0.013392 -0.004417 0.000000 0.000000 0.000000
# 3 -0.000008 -0.004417 0.016943 0.000000 0.000000 0.000000
# 4 0.000000 0.000000 0.000000 0.031552 0.000000 0.000000
# 5 0.000000 0.000000 0.000000 0.000000 0.087587 0.000000
# 6 0.000000 0.000000 0.000000 0.000000 0.000000 0.044684
#
#
# Mechanical properties :
#
#
# Convention : Reuss Voigt Hill
#
# Bulk Modulus (GPa) = 41.49148 44.84265 43.16707
# Shear Modulus (GPa) = 21.66023 25.94161 23.80092
#
# Velocity S-wave (km/s) = 3.27454 3.58358 3.43254
# Velocity P-wave (km/s) = 5.90226 6.27069 6.08926
#
# Compressibility (1/GPa) = 0.02410133
#
# Stress axis : x y z
#
# Youngs Moduli (GPa) = 89.23572 74.67000 59.02217
#
# Poissons Ratio (x) = 0.32068 0.00047
# Poissons Ratio (y) = 0.38323 0.26072
# Poissons Ratio (z) = 0.00071 0.32985
#
# Static dielectric constant tensor:
#      x y z
#    x 1.714760 0.000000 0.000000 
#    y 0.000000 1.719560 0.000000 
#    z 0.000000 0.000000 1.772900 
# 
# From -- ./inp_files/14613.got.cif
#   From: 2010.05.17/outbox.cif.g08.bks.cpg/sg36_8_cif.got.tgz:14613.got - 2010.06.03 17:41:39.
