data_PCOD9352280
_publ_section_title
;
Structure prediction by ZEFSAII (Michael W. Deem and Ramdas Pophale) SiO2 
 PCOD9352280
Probable space group: C M C 21
;
_chemical_formula_sum "Si O2"
_cell_formula_units_Z 64
_cell_length_a 19.868811
_cell_length_b 12.121933
_cell_length_c 14.176497
_cell_angle_alpha 90.000000
_cell_angle_beta 90.000000
_cell_angle_gamma 90.000000
_cell_volume 3414.386560
_symmetry_space_group_name_H-M "C M C 21"
_symmetry_group_IT_number 36
_symmetry_cell_setting 'orthorhombic'
loop_
_space_group_symop_operation_xyz
x,y,z
-x,-y,1/2+z
x,-y,1/2+z
-x,y,z
1/2+x,1/2+y,z
1/2-x,1/2-y,1/2+z
1/2+x,1/2-y,1/2+z
1/2-x,1/2+y,z
loop_
_atom_site_type_symbol
_atom_site_label
_atom_site_fract_x
_atom_site_fract_y
_atom_site_fract_z
Si Si1 0.660690 0.494866 0.980410
Si Si2 0.328984 0.205528 0.153472
Si Si3 0.339310 0.005134 0.781450
Si Si4 0.421631 0.713897 0.487804
Si Si5 0.828984 0.205528 0.108388
Si Si6 0.705918 0.644731 0.814517
Si Si7 0.578369 0.213897 0.774056
Si Si8 0.794082 0.355268 0.947343
O O1 0.598175 0.414343 0.990959
O O2 0.666575 0.558937 0.880844
O O3 0.727916 0.418530 0.984791
O O4 0.658891 0.588593 0.059245
O O5 0.341109 0.088593 0.202615
O O6 0.250000 0.209070 0.130930
O O7 0.337449 0.303648 0.230034
O O8 0.374518 0.224266 0.062644
O O9 0.333425 0.941063 0.881016
O O10 0.272084 0.081470 0.777069
O O11 0.401825 0.085657 0.770901
O O12 0.500000 0.732929 0.507678
O O13 0.406851 0.750000 0.380930
O O14 0.874518 0.224266 0.199216
O O15 0.837449 0.303647 0.031826
O O16 0.725625 0.750000 0.880930
O O17 0.500000 0.232929 0.754182
#
# Coordination Sequence:
#
# PCOD9352280 Si02
#       8
#     8   8   8   8   8   8   8   8
#     4  10  21  36  64  90 124 160 203 250 315 371
#     4  11  23  36  63  98 124 156 207 265 311 366
#     4  10  21  36  64  90 124 160 203 250 315 371
#     4  11  26  45  61  85 130 174 212 254 310 383
#     4  11  23  36  63  98 124 156 207 265 311 366
#     4   9  19  37  60  95 125 154 196 264 312 363
#     4  11  26  45  61  85 130 174 212 254 310 383
#     4   9  19  37  60  95 125 154 196 264 312 363
#
# _framework density 18.744216000000002
#
# number of rings (size 3 to 8) (size 9 to 14) (size 15 to 20)
#    0.000    1.750    2.500    0.750   10.500    1.000 
#    0.000    3.750    0.000    4.500    0.000    0.000 
#    0.000    0.000    0.000    0.000    0.000    0.000 
#
# Total GULP energy -178741.661722 kJ/mol
# GULP energy per Si atom -5585.676929 kJ/mol
# Density = 1.870155 g / cm^3
# Si number density = 18.744216 Si / 1000 Ang^3
#
#
#
# Elastic Constant Matrix: (Units=GPa)
#
#
# Indices 1 2 3 4 5 6 
#
# 1 90.4659 31.6533 83.1194 0.0000 0.0000 0.0000
# 2 31.6533 95.7548 60.3342 0.0000 0.0000 0.0000
# 3 83.1194 60.3342 132.8512 0.0000 0.0000 0.0000
# 4 0.0000 0.0000 0.0000 21.2794 0.0000 0.0000
# 5 0.0000 0.0000 0.0000 0.0000 29.6358 0.0000
# 6 0.0000 0.0000 0.0000 0.0000 0.0000 13.3930
#
#
#
# Elastic Compliance Matrix: (Units=1/GPa)
#
#
# Indices 1 2 3 4 5 6 
#
# 1 0.026373 0.002352 -0.017568 0.000000 0.000000 0.000000
# 2 0.002352 0.014839 -0.008211 0.000000 0.000000 0.000000
# 3 -0.017568 -0.008211 0.022248 0.000000 0.000000 0.000000
# 4 0.000000 0.000000 0.000000 0.046994 0.000000 0.000000
# 5 0.000000 0.000000 0.000000 0.000000 0.033743 0.000000
# 6 0.000000 0.000000 0.000000 0.000000 0.000000 0.074666
#
#
# Mechanical properties :
#
#
# Convention : Reuss Voigt Hill
#
# Bulk Modulus (GPa) = 60.22139 74.36508 67.29323
# Shear Modulus (GPa) = 18.43305 22.45931 20.44618
#
# Velocity S-wave (km/s) = 3.13932 3.46526 3.30631
# Velocity P-wave (km/s) = 6.73336 7.46796 7.11015
#
# Compressibility (1/GPa) = 0.01660540
#
# Stress axis : x y z
#
# Youngs Moduli (GPa) = 37.91804 67.38810 44.94821
#
# Poissons Ratio (x) = -0.15848 0.78966
# Poissons Ratio (y) = -0.08917 0.36905
# Poissons Ratio (z) = 0.66616 0.55330
#
# Static dielectric constant tensor:
#      x y z
#    x 1.626560 0.000000 0.000000 
#    y 0.000000 1.658050 0.000000 
#    z 0.000000 0.000000 1.705190 
# 
# From -- ./inp_files/12656.got.cif
#   From: 2010.05.17/outbox.cif.g08.bks.cpg/sg36_7_cif.got.tgz:12656.got - 2010.06.03 17:41:39.
