data_PCOD9352502
_publ_section_title
;
Structure prediction by ZEFSAII (Michael W. Deem and Ramdas Pophale) SiO2 
 PCOD9352502
Probable space group: C M C 21
;
_chemical_formula_sum "Si O2"
_cell_formula_units_Z 52
_cell_length_a 7.782250
_cell_length_b 15.139622
_cell_length_c 17.337493
_cell_angle_alpha 90.000000
_cell_angle_beta 90.000000
_cell_angle_gamma 90.000000
_cell_volume 2042.709031
_symmetry_space_group_name_H-M "C M C 21"
_symmetry_group_IT_number 36
_symmetry_cell_setting 'orthorhombic'
loop_
_space_group_symop_operation_xyz
x,y,z
-x,-y,1/2+z
x,-y,1/2+z
-x,y,z
1/2+x,1/2+y,z
1/2-x,1/2-y,1/2+z
1/2+x,1/2-y,1/2+z
1/2-x,1/2+y,z
loop_
_atom_site_type_symbol
_atom_site_label
_atom_site_fract_x
_atom_site_fract_y
_atom_site_fract_z
Si Si1 0.500000 0.824624 0.309120
Si Si2 0.707281 0.647579 0.080308
Si Si3 0.695088 0.397072 0.410319
Si Si4 0.184918 0.154286 0.321368
Si Si5 0.300002 0.990687 0.700636
Si Si6 0.788620 0.665481 0.628652
Si Si7 0.693369 0.082775 0.465366
O O1 0.346687 0.882609 0.350087
O O2 0.650003 0.749484 0.284163
O O3 0.500000 0.641700 0.089061
O O4 0.785410 0.561255 0.119630
O O5 0.771538 0.734064 0.125144
O O6 0.739636 0.655448 0.989332
O O7 0.500000 0.375975 0.385405
O O8 0.701006 0.498256 0.438629
O O9 0.216634 0.075737 0.261655
O O10 0.310881 0.149533 0.392886
O O11 0.000000 0.140614 0.360934
O O12 0.500000 0.001088 0.721528
O O13 0.228078 0.088825 0.686640
O O14 0.747828 0.628914 0.543249
O O15 0.000000 0.666246 0.637866
O O16 0.500000 0.051322 0.480146
#
# Coordination Sequence:
#
# PCOD9352502 Si02
#       7
#     4   8   8   8   8   8   8
#     4  10  24  44  66  92 134 176 222 292 336 406
#     4  10  21  39  64  95 133 170 220 288 347 412
#     4  11  22  39  68 104 134 175 230 286 349 409
#     4  10  24  43  61  90 134 180 228 278 339 411
#     4  11  22  42  66  94 131 181 228 281 349 418
#     4   9  20  38  65  97 127 171 224 278 346 413
#     4  11  20  40  69  99 136 178 225 287 348 407
#
# _framework density 25.456391
#
# number of rings (size 3 to 8) (size 9 to 14) (size 15 to 20)
#    0.462    1.231    2.308    2.308    1.077    2.462 
#    2.769    1.538    0.000    0.000    0.000    0.000 
#    0.000    0.000    0.000    0.000    0.000    0.000 
#
# Total GULP energy -144860.989110 kJ/mol
# GULP energy per Si atom -5571.576504 kJ/mol
# Density = 2.539845 g / cm^3
# Si number density = 25.456391 Si / 1000 Ang^3
#
#
#
# Elastic Constant Matrix: (Units=GPa)
#
#
# Indices 1 2 3 4 5 6 
#
# 1 87.9326 9.0898 16.6249 0.0000 0.0000 0.0000
# 2 9.0898 115.8551 32.1999 0.0000 0.0000 0.0000
# 3 16.6249 32.1999 80.9257 0.0000 0.0000 0.0000
# 4 0.0000 0.0000 0.0000 39.7348 0.0000 0.0000
# 5 0.0000 0.0000 0.0000 0.0000 28.8577 0.0000
# 6 0.0000 0.0000 0.0000 0.0000 0.0000 30.8927
#
#
#
# Elastic Compliance Matrix: (Units=1/GPa)
#
#
# Indices 1 2 3 4 5 6 
#
# 1 0.011840 -0.000284 -0.002319 0.000000 0.000000 0.000000
# 2 -0.000284 0.009712 -0.003806 0.000000 0.000000 0.000000
# 3 -0.002319 -0.003806 0.014348 0.000000 0.000000 0.000000
# 4 0.000000 0.000000 0.000000 0.025167 0.000000 0.000000
# 5 0.000000 0.000000 0.000000 0.000000 0.034653 0.000000
# 6 0.000000 0.000000 0.000000 0.000000 0.000000 0.032370
#
#
# Mechanical properties :
#
#
# Convention : Reuss Voigt Hill
#
# Bulk Modulus (GPa) = 43.32607 44.50474 43.91541
# Shear Modulus (GPa) = 33.64705 35.01698 34.33201
#
# Velocity S-wave (km/s) = 3.63954 3.71289 3.67639
# Velocity P-wave (km/s) = 5.89222 5.99178 5.94221
#
# Compressibility (1/GPa) = 0.02308079
#
# Stress axis : x y z
#
# Youngs Moduli (GPa) = 84.45787 102.97049 69.69739
#
# Poissons Ratio (x) = 0.02928 0.16164
# Poissons Ratio (y) = 0.02402 0.26525
# Poissons Ratio (z) = 0.19588 0.39188
#
# Static dielectric constant tensor:
#      x y z
#    x 1.930250 0.000000 0.000000 
#    y 0.000000 2.093110 0.000000 
#    z 0.000000 0.000000 2.125280 
# 
# From -- ./inp_files/15381.got.cif
#   From: 2010.05.17/outbox.cif.g08.bks.cpg/sg36_8_cif.got.tgz:15381.got - 2010.06.03 17:41:39.
