data_PCOD9352473
_publ_section_title
;
Structure prediction by ZEFSAII (Michael W. Deem and Ramdas Pophale) SiO2 
 PCOD9352473
Probable space group: C M C 21
;
_chemical_formula_sum "Si O2"
_cell_formula_units_Z 64
_cell_length_a 7.557644
_cell_length_b 19.950511
_cell_length_c 16.891942
_cell_angle_alpha 90.000000
_cell_angle_beta 90.000000
_cell_angle_gamma 90.000000
_cell_volume 2546.947754
_symmetry_space_group_name_H-M "C M C 21"
_symmetry_group_IT_number 36
_symmetry_cell_setting 'orthorhombic'
loop_
_space_group_symop_operation_xyz
x,y,z
-x,-y,1/2+z
x,-y,1/2+z
-x,y,z
1/2+x,1/2+y,z
1/2-x,1/2-y,1/2+z
1/2+x,1/2-y,1/2+z
1/2-x,1/2+y,z
loop_
_atom_site_type_symbol
_atom_site_label
_atom_site_fract_x
_atom_site_fract_y
_atom_site_fract_z
Si Si1 0.715748 0.669497 0.068140
Si Si2 0.296090 0.281239 0.835446
Si Si3 0.299720 0.806633 0.005597
Si Si4 0.283707 0.033547 0.661969
Si Si5 0.798900 0.341757 0.248254
Si Si6 0.706030 0.590476 0.909478
Si Si7 0.713341 0.956500 0.985642
Si Si8 0.205288 0.598684 0.233681
O O1 0.500000 0.669819 0.070051
O O2 0.779421 0.635058 0.148445
O O3 0.775806 0.747049 0.059149
O O4 0.770525 0.627869 0.989628
O O5 0.500000 0.262641 0.851009
O O6 0.196540 0.275804 0.917584
O O7 0.220038 0.229670 0.770858
O O8 0.291307 0.354855 0.799138
O O9 0.500000 0.819108 0.034027
O O10 0.218978 0.879983 0.990069
O O11 0.500000 0.034665 0.666377
O O12 0.221022 0.975576 0.720311
O O13 0.218760 0.107199 0.685304
O O14 0.238694 0.015548 0.572466
O O15 0.799438 0.382898 0.330892
O O16 0.000000 0.328145 0.222118
O O17 0.500000 0.607130 0.899945
O O18 0.723735 0.510819 0.922823
O O19 0.500000 0.953685 0.977318
O O20 0.000000 0.593250 0.256007
#
# Coordination Sequence:
#
# PCOD9352473 Si02
#       8
#     8   8   8   8   8   8   8   8
#     4  10  21  39  62  87 117 154 197 244 299 354
#     4  11  24  40  61  88 123 157 197 253 301 353
#     4  10  22  40  64  88 119 160 202 247 295 355
#     4   9  20  39  61  86 112 148 202 246 282 345
#     4  10  22  40  63  86 115 159 205 243 289 354
#     4  11  22  38  61  88 121 154 190 246 301 350
#     4  10  21  39  64  88 115 154 202 247 289 351
#     4  11  23  39  62  87 118 156 199 248 298 362
#
# _framework density 25.128115999999999
#
# number of rings (size 3 to 8) (size 9 to 14) (size 15 to 20)
#    0.000    1.750    2.500    1.125    3.500    2.000 
#    0.000    1.250    0.000    0.000    0.000    0.000 
#    0.000    0.000    0.000    0.000    0.000    0.000 
#
# Total GULP energy -179002.418625 kJ/mol
# GULP energy per Si atom -5593.825582 kJ/mol
# Density = 2.507092 g / cm^3
# Si number density = 25.128116 Si / 1000 Ang^3
#
#
#
# Elastic Constant Matrix: (Units=GPa)
#
#
# Indices 1 2 3 4 5 6 
#
# 1 72.9420 -2.6055 -1.4724 0.0000 0.0000 0.0000
# 2 -2.6055 118.1281 -14.6780 0.0000 0.0000 0.0000
# 3 -1.4724 -14.6780 62.3815 0.0000 0.0000 0.0000
# 4 0.0000 0.0000 0.0000 48.5349 0.0000 0.0000
# 5 0.0000 0.0000 0.0000 0.0000 14.6979 0.0000
# 6 0.0000 0.0000 0.0000 0.0000 0.0000 12.8197
#
#
#
# Elastic Compliance Matrix: (Units=1/GPa)
#
#
# Indices 1 2 3 4 5 6 
#
# 1 0.013730 0.000353 0.000407 0.000000 0.000000 0.000000
# 2 0.000353 0.008729 0.002062 0.000000 0.000000 0.000000
# 3 0.000407 0.002062 0.016525 0.000000 0.000000 0.000000
# 4 0.000000 0.000000 0.000000 0.020604 0.000000 0.000000
# 5 0.000000 0.000000 0.000000 0.000000 0.068037 0.000000
# 6 0.000000 0.000000 0.000000 0.000000 0.000000 0.078005
#
#
# Mechanical properties :
#
#
# Convention : Reuss Voigt Hill
#
# Bulk Modulus (GPa) = 22.40592 23.99333 23.19962
# Shear Modulus (GPa) = 23.27083 33.35767 28.31425
#
# Velocity S-wave (km/s) = 3.04647 3.64745 3.36042
# Velocity P-wave (km/s) = 4.61635 5.22567 4.93043
#
# Compressibility (1/GPa) = 0.04463106
#
# Stress axis : x y z
#
# Youngs Moduli (GPa) = 72.83123 114.55496 60.51346
#
# Poissons Ratio (x) = -0.04049 -0.02464
# Poissons Ratio (y) = -0.02574 -0.12480
# Poissons Ratio (z) = -0.02966 -0.23625
#
# Static dielectric constant tensor:
#      x y z
#    x 1.977200 0.000000 0.000000 
#    y 0.000000 2.016390 0.000000 
#    z 0.000000 0.000000 1.948200 
# 
# From -- ./inp_files/13837.got.cif
#   From: 2010.05.17/outbox.cif.g08.bks.cpg/sg36_7_cif.got.tgz:13837.got - 2010.06.03 17:41:39.
