data_PCOD9352937
_publ_section_title
;
Structure prediction by ZEFSAII (Michael W. Deem and Ramdas Pophale) SiO2 
 PCOD9352937
Probable space group: C M C 21
;
_chemical_formula_sum "Si O2"
_cell_formula_units_Z 40
_cell_length_a 13.976627
_cell_length_b 14.290837
_cell_length_c 8.006950
_cell_angle_alpha 90.000000
_cell_angle_beta 90.000000
_cell_angle_gamma 90.000000
_cell_volume 1599.289763
_symmetry_space_group_name_H-M "C M C 21"
_symmetry_group_IT_number 36
_symmetry_cell_setting 'orthorhombic'
loop_
_space_group_symop_operation_xyz
x,y,z
-x,-y,1/2+z
x,-y,1/2+z
-x,y,z
1/2+x,1/2+y,z
1/2-x,1/2-y,1/2+z
1/2+x,1/2-y,1/2+z
1/2-x,1/2+y,z
loop_
_atom_site_type_symbol
_atom_site_label
_atom_site_fract_x
_atom_site_fract_y
_atom_site_fract_z
Si Si1 0.608741 0.389265 0.011190
Si Si2 0.608741 0.110737 0.158968
Si Si3 0.609484 0.098580 0.758325
Si Si4 0.890515 0.098581 0.911834
Si Si5 0.255459 0.750001 0.085078
O O1 0.500000 0.370095 0.952841
O O2 0.608413 0.391279 0.212570
O O3 0.638044 0.491620 0.949919
O O4 0.681921 0.308052 0.967455
O O5 0.500000 0.129910 0.217316
O O6 0.608414 0.108722 0.957588
O O7 0.681922 0.191949 0.202701
O O8 0.638041 0.008382 0.220243
O O9 0.500000 0.109997 0.696719
O O10 0.678673 0.171649 0.670062
O O11 0.821329 0.171652 0.000095
O O12 0.000000 0.109997 0.973441
#
# Coordination Sequence:
#
# PCOD9352937 Si02
#       5
#     8   8   8   8   8
#     4  10  23  42  63  90 125 164 206 254 309 368
#     4  10  23  42  63  90 125 164 206 254 309 368
#     4  10  23  42  63  90 125 164 206 254 309 368
#     4  10  23  42  63  90 125 164 206 254 309 368
#     4  12  22  36  62  94 124 160 202 252 304 366
#
# _framework density 25.011102000000001
#
# number of rings (size 3 to 8) (size 9 to 14) (size 15 to 20)
#    0.000    1.600    0.000    3.600    0.000    6.400 
#    0.000    8.000    0.000    0.000    0.000    0.000 
#    0.000    0.000    0.000    0.000    0.000    0.000 
#
# Total GULP energy -112185.799607 kJ/mol
# GULP energy per Si atom -5609.289980 kJ/mol
# Density = 2.495418 g / cm^3
# Si number density = 25.011102 Si / 1000 Ang^3
#
#
#
# Elastic Constant Matrix: (Units=GPa)
#
#
# Indices 1 2 3 4 5 6 
#
# 1 153.1438 124.6368 20.0609 0.0000 0.0000 0.0000
# 2 124.6368 206.6735 23.2841 0.0000 0.0000 0.0000
# 3 20.0609 23.2841 28.7500 0.0000 0.0000 0.0000
# 4 0.0000 0.0000 0.0000 38.4368 0.0000 0.0000
# 5 0.0000 0.0000 0.0000 0.0000 33.3051 0.0000
# 6 0.0000 0.0000 0.0000 0.0000 0.0000 60.2488
#
#
#
# Elastic Compliance Matrix: (Units=1/GPa)
#
#
# Indices 1 2 3 4 5 6 
#
# 1 0.013056 -0.007535 -0.003008 0.000000 0.000000 0.000000
# 2 -0.007535 0.009673 -0.002576 0.000000 0.000000 0.000000
# 3 -0.003008 -0.002576 0.038968 0.000000 0.000000 0.000000
# 4 0.000000 0.000000 0.000000 0.026017 0.000000 0.000000
# 5 0.000000 0.000000 0.000000 0.000000 0.030025 0.000000
# 6 0.000000 0.000000 0.000000 0.000000 0.000000 0.016598
#
#
# Mechanical properties :
#
#
# Convention : Reuss Voigt Hill
#
# Bulk Modulus (GPa) = 28.20170 80.50344 54.35257
# Shear Modulus (GPa) = 29.00339 41.10382 35.05361
#
# Velocity S-wave (km/s) = 3.40901 4.05831 3.74775
# Velocity P-wave (km/s) = 5.17642 7.36321 6.36444
#
# Compressibility (1/GPa) = 0.03545886
#
# Stress axis : x y z
#
# Youngs Moduli (GPa) = 76.59343 103.38418 25.66221
#
# Poissons Ratio (x) = 0.77897 0.07719
# Poissons Ratio (y) = 0.57711 0.06611
# Poissons Ratio (z) = 0.23038 0.26634
#
# Static dielectric constant tensor:
#      x y z
#    x 2.010730 0.000000 0.000000 
#    y 0.000000 1.909520 0.000000 
#    z 0.000000 0.000000 1.970430 
# 
# From -- ./inp_files/3800.got.cif
#   From: 2010.05.17/outbox.cif.g08.bks.cpg/sg36_2_cif.got.tgz:3800.got - 2010.06.03 17:41:39.
