data_PCOD9352970
_publ_section_title
;
Structure prediction by ZEFSAII (Michael W. Deem and Ramdas Pophale) SiO2 
 PCOD9352970
Probable space group: C M C 21
;
_chemical_formula_sum "Si O2"
_cell_formula_units_Z 40
_cell_length_a 24.089030
_cell_length_b 8.745632
_cell_length_c 8.331168
_cell_angle_alpha 90.000000
_cell_angle_beta 90.000000
_cell_angle_gamma 90.000000
_cell_volume 1755.158751
_symmetry_space_group_name_H-M "C M C 21"
_symmetry_group_IT_number 36
_symmetry_cell_setting 'orthorhombic'
loop_
_space_group_symop_operation_xyz
x,y,z
-x,-y,1/2+z
x,-y,1/2+z
-x,y,z
1/2+x,1/2+y,z
1/2-x,1/2-y,1/2+z
1/2+x,1/2-y,1/2+z
1/2-x,1/2+y,z
loop_
_atom_site_type_symbol
_atom_site_label
_atom_site_fract_x
_atom_site_fract_y
_atom_site_fract_z
Si Si1 0.063118 0.967709 0.593800
Si Si2 0.937859 0.240001 0.785492
Si Si3 0.165138 0.557139 0.269788
Si Si4 0.832672 0.220858 0.182034
Si Si5 0.272720 0.828488 0.479152
O O1 0.064960 0.895413 0.416876
O O2 0.114133 0.885009 0.680212
O O3 0.000000 0.934542 0.652959
O O4 0.070488 0.149530 0.617754
O O5 0.890672 0.361187 0.824075
O O6 0.000000 0.305650 0.789443
O O7 0.149331 0.398534 0.180269
O O8 0.209474 0.489295 0.396526
O O9 0.194015 0.672665 0.145950
O O10 0.798110 0.212424 0.348940
O O11 0.790903 0.185062 0.034193
#
# Coordination Sequence:
#
# PCOD9352970 Si02
#       5
#     8   8   8   8   8
#     4  10  23  43  71 102 140 192 241 297 365 428
#     4  10  23  44  70 103 143 188 244 300 359 429
#     4  10  24  44  69 105 137 188 237 297 353 441
#     4  10  25  43  70 101 144 190 235 300 353 448
#     4  10  25  40  70 101 140 188 237 292 370 414
#
# _framework density 22.789960000000001
#
# number of rings (size 3 to 8) (size 9 to 14) (size 15 to 20)
#    1.200    0.800    0.000    1.200    8.400    4.000 
#    0.000    1.000    0.000    0.000    0.000    0.000 
#    0.000    0.000    0.000    0.000    0.000    0.000 
#
# Total GULP energy -111489.303787 kJ/mol
# GULP energy per Si atom -5574.465189 kJ/mol
# Density = 2.273809 g / cm^3
# Si number density = 22.789960 Si / 1000 Ang^3
#
#
#
# Elastic Constant Matrix: (Units=GPa)
#
#
# Indices 1 2 3 4 5 6 
#
# 1 176.9530 73.0182 47.6091 0.0000 0.0000 0.0000
# 2 73.0182 65.6163 16.7568 0.0000 0.0000 0.0000
# 3 47.6091 16.7568 80.6427 0.0000 0.0000 0.0000
# 4 0.0000 0.0000 0.0000 33.7395 0.0000 0.0000
# 5 0.0000 0.0000 0.0000 0.0000 33.0252 0.0000
# 6 0.0000 0.0000 0.0000 0.0000 0.0000 42.2571
#
#
#
# Elastic Compliance Matrix: (Units=1/GPa)
#
#
# Indices 1 2 3 4 5 6 
#
# 1 0.011804 -0.011993 -0.004477 0.000000 0.000000 0.000000
# 2 -0.011993 0.028278 0.001204 0.000000 0.000000 0.000000
# 3 -0.004477 0.001204 0.014793 0.000000 0.000000 0.000000
# 4 0.000000 0.000000 0.000000 0.029639 0.000000 0.000000
# 5 0.000000 0.000000 0.000000 0.000000 0.030280 0.000000
# 6 0.000000 0.000000 0.000000 0.000000 0.000000 0.023665
#
#
# Mechanical properties :
#
#
# Convention : Reuss Voigt Hill
#
# Bulk Modulus (GPa) = 41.07651 66.44223 53.75937
# Shear Modulus (GPa) = 28.23179 34.19290 31.21234
#
# Velocity S-wave (km/s) = 3.52345 3.87764 3.70478
# Velocity P-wave (km/s) = 5.88354 7.01894 6.47617
#
# Compressibility (1/GPa) = 0.02434481
#
# Stress axis : x y z
#
# Youngs Moduli (GPa) = 84.71368 35.36297 67.59831
#
# Poissons Ratio (x) = 0.42410 0.30264
# Poissons Ratio (y) = 1.01595 -0.08140
# Poissons Ratio (z) = 0.37927 -0.04259
#
# Static dielectric constant tensor:
#      x y z
#    x 1.808770 0.000000 0.000000 
#    y 0.000000 1.852880 0.000000 
#    z 0.000000 0.000000 1.997910 
# 
# From -- ./inp_files/5463.got.cif
#   From: 2010.05.17/outbox.cif.g08.bks.cpg/sg36_3_cif.got.tgz:5463.got - 2010.06.03 17:41:39.
