data_PCOD9352395
_publ_section_title
;
Structure prediction by ZEFSAII (Michael W. Deem and Ramdas Pophale) SiO2 
 PCOD9352395
Probable space group: C M C 21
;
_chemical_formula_sum "Si O2"
_cell_formula_units_Z 64
_cell_length_a 8.426343
_cell_length_b 14.723096
_cell_length_c 22.560663
_cell_angle_alpha 90.000000
_cell_angle_beta 90.000000
_cell_angle_gamma 90.000000
_cell_volume 2798.917745
_symmetry_space_group_name_H-M "C M C 21"
_symmetry_group_IT_number 36
_symmetry_cell_setting 'orthorhombic'
loop_
_space_group_symop_operation_xyz
x,y,z
-x,-y,1/2+z
x,-y,1/2+z
-x,y,z
1/2+x,1/2+y,z
1/2-x,1/2-y,1/2+z
1/2+x,1/2-y,1/2+z
1/2-x,1/2+y,z
loop_
_atom_site_type_symbol
_atom_site_label
_atom_site_fract_x
_atom_site_fract_y
_atom_site_fract_z
Si Si1 0.685309 0.675614 0.225320
Si Si2 0.182877 0.587353 0.427639
Si Si3 0.312247 0.588441 0.887631
Si Si4 0.811515 0.424746 0.129106
Si Si5 0.813878 0.766687 0.848633
Si Si6 0.810801 0.370893 0.599949
Si Si7 0.814797 0.961786 0.254597
Si Si8 0.313678 0.296065 0.033440
O O1 0.500000 0.699095 0.216425
O O2 0.749776 0.732358 0.281190
O O3 0.770372 0.676469 0.162596
O O4 0.692432 0.570525 0.246127
O O5 0.227921 0.481719 0.431330
O O6 0.287398 0.634767 0.376890
O O7 0.220063 0.644239 0.486134
O O8 0.000000 0.596057 0.411458
O O9 0.500000 0.575800 0.892162
O O10 0.268329 0.693766 0.891081
O O11 0.258620 0.563375 0.820306
O O12 0.757465 0.524831 0.105900
O O13 0.781452 0.421396 0.199463
O O14 0.710634 0.350976 0.094352
O O15 0.000000 0.413879 0.117546
O O16 0.000000 0.747191 0.846340
O O17 0.752172 0.305664 0.547303
O O18 0.000000 0.374170 0.594034
O O19 0.000000 0.935109 0.249548
O O20 0.500000 0.292924 0.016714
#
# Coordination Sequence:
#
# PCOD9352395 Si02
#       8
#     8   8   8   8   8   8   8   8
#     4   9  18  35  60  89 125 163 200 250 309 365
#     4  12  26  45  66  91 124 167 216 268 320 376
#     4  11  23  41  64  93 127 167 212 262 317 378
#     4  10  21  38  60  91 125 159 205 257 308 370
#     4  11  23  41  63  94 129 167 210 260 317 377
#     4   9  21  39  60  88 122 161 202 249 307 367
#     4   9  18  36  60  88 125 165 203 249 311 375
#     4  11  24  43  65  88 121 167 210 257 315 378
#
# _framework density 22.865981999999999
#
# number of rings (size 3 to 8) (size 9 to 14) (size 15 to 20)
#    0.000    1.750    1.250    2.625    1.750    4.500 
#    0.000    3.750    0.000    0.000    0.000    0.000 
#    0.000    0.000    0.000    0.000    0.000    0.000 
#
# Total GULP energy -178921.285637 kJ/mol
# GULP energy per Si atom -5591.290176 kJ/mol
# Density = 2.281394 g / cm^3
# Si number density = 22.865982 Si / 1000 Ang^3
#
#
#
# Elastic Constant Matrix: (Units=GPa)
#
#
# Indices 1 2 3 4 5 6 
#
# 1 26.9919 -5.3491 -6.8768 0.0000 0.0000 0.0000
# 2 -5.3491 66.4820 -1.0822 0.0000 0.0000 0.0000
# 3 -6.8768 -1.0822 21.8864 0.0000 0.0000 0.0000
# 4 0.0000 0.0000 0.0000 28.2945 0.0000 0.0000
# 5 0.0000 0.0000 0.0000 0.0000 28.1377 0.0000
# 6 0.0000 0.0000 0.0000 0.0000 0.0000 23.0602
#
#
#
# Elastic Compliance Matrix: (Units=1/GPa)
#
#
# Indices 1 2 3 4 5 6 
#
# 1 0.041078 0.003518 0.013081 0.000000 0.000000 0.000000
# 2 0.003518 0.015355 0.001865 0.000000 0.000000 0.000000
# 3 0.013081 0.001865 0.049893 0.000000 0.000000 0.000000
# 4 0.000000 0.000000 0.000000 0.035343 0.000000 0.000000
# 5 0.000000 0.000000 0.000000 0.000000 0.035539 0.000000
# 6 0.000000 0.000000 0.000000 0.000000 0.000000 0.043365
#
#
# Mechanical properties :
#
#
# Convention : Reuss Voigt Hill
#
# Bulk Modulus (GPa) = 6.98066 9.86045 8.42056
# Shear Modulus (GPa) = 21.60793 24.47638 23.04216
#
# Velocity S-wave (km/s) = 3.07739 3.27529 3.17788
# Velocity P-wave (km/s) = 3.96063 4.31567 4.14196
#
# Compressibility (1/GPa) = 0.14325290
#
# Stress axis : x y z
#
# Youngs Moduli (GPa) = 24.34398 65.12500 20.04297
#
# Poissons Ratio (x) = -0.22911 -0.26218
# Poissons Ratio (y) = -0.08564 -0.03737
# Poissons Ratio (z) = -0.31844 -0.12143
#
# Static dielectric constant tensor:
#      x y z
#    x 1.765700 0.000000 0.000000 
#    y 0.000000 1.884220 0.000000 
#    z 0.000000 0.000000 1.867680 
# 
# From -- ./inp_files/16694.got.cif
#   From: 2010.05.17/outbox.cif.g08.bks.cpg/sg36_9_cif.got.tgz:16694.got - 2010.06.03 17:41:39.
