data_PCOD9352180
_publ_section_title
;
Structure prediction by ZEFSAII (Michael W. Deem and Ramdas Pophale) SiO2 
 PCOD9352180
Probable space group: C M C 21
;
_chemical_formula_sum "Si O2"
_cell_formula_units_Z 40
_cell_length_a 19.555781
_cell_length_b 11.586712
_cell_length_c 8.222010
_cell_angle_alpha 90.000000
_cell_angle_beta 90.000000
_cell_angle_gamma 90.000000
_cell_volume 1863.002244
_symmetry_space_group_name_H-M "C M C 21"
_symmetry_group_IT_number 36
_symmetry_cell_setting 'orthorhombic'
loop_
_space_group_symop_operation_xyz
x,y,z
-x,-y,1/2+z
x,-y,1/2+z
-x,y,z
1/2+x,1/2+y,z
1/2-x,1/2-y,1/2+z
1/2+x,1/2-y,1/2+z
1/2-x,1/2+y,z
loop_
_atom_site_type_symbol
_atom_site_label
_atom_site_fract_x
_atom_site_fract_y
_atom_site_fract_z
Si Si1 0.858497 0.273489 0.893270
Si Si2 0.352341 0.447385 0.230815
Si Si3 0.624303 0.321543 0.897621
Si Si4 0.000000 0.344528 0.333210
Si Si5 0.000000 0.397246 0.950563
Si Si6 0.735190 0.795877 0.214157
O O1 0.877763 0.138068 0.873689
O O2 0.928218 0.345508 0.882667
O O3 0.803475 0.284223 0.743716
O O4 0.815310 0.291386 0.059566
O O5 0.371596 0.577627 0.262967
O O6 0.270342 0.422024 0.227105
O O7 0.378203 0.392352 0.064000
O O8 0.563521 0.234058 0.879024
O O9 0.690720 0.243254 0.867903
O O10 0.000000 0.466516 0.422276
O O11 0.000000 0.368106 0.141139
#
# Coordination Sequence:
#
# PCOD9352180 Si02
#       6
#     8   8   8   4   4   8
#     4  10  22  46  74 107 153 194 256 309 384 448
#     4  10  24  42  72 104 145 190 243 315 377 436
#     4  12  24  46  70 110 144 194 253 309 382 459
#     4  12  32  47  75 104 154 199 262 304 392 447
#     4  12  28  51  73 110 146 211 248 326 368 463
#     4  10  20  44  68 109 136 196 244 306 371 449
#
# _framework density 21.47072
#
# number of rings (size 3 to 8) (size 9 to 14) (size 15 to 20)
#    1.200    0.000    4.000    1.200    2.800    3.200 
#    3.600    0.000    0.000    0.000    0.000    0.000 
#    0.000    0.000    0.000    0.000    0.000    0.000 
#
# Total GULP energy -111368.061162 kJ/mol
# GULP energy per Si atom -5568.403058 kJ/mol
# Density = 2.142185 g / cm^3
# Si number density = 21.470720 Si / 1000 Ang^3
#
#
#
# Elastic Constant Matrix: (Units=GPa)
#
#
# Indices 1 2 3 4 5 6 
#
# 1 172.3158 84.1141 38.5283 0.0000 0.0000 0.0000
# 2 84.1141 114.0468 26.7999 0.0000 0.0000 0.0000
# 3 38.5283 26.7999 87.9302 0.0000 0.0000 0.0000
# 4 0.0000 0.0000 0.0000 17.8187 0.0000 0.0000
# 5 0.0000 0.0000 0.0000 0.0000 71.6523 0.0000
# 6 0.0000 0.0000 0.0000 0.0000 0.0000 45.6851
#
#
#
# Elastic Compliance Matrix: (Units=1/GPa)
#
#
# Indices 1 2 3 4 5 6 
#
# 1 0.009437 -0.006450 -0.002169 0.000000 0.000000 0.000000
# 2 -0.006450 0.013854 -0.001396 0.000000 0.000000 0.000000
# 3 -0.002169 -0.001396 0.012749 0.000000 0.000000 0.000000
# 4 0.000000 0.000000 0.000000 0.056121 0.000000 0.000000
# 5 0.000000 0.000000 0.000000 0.000000 0.013956 0.000000
# 6 0.000000 0.000000 0.000000 0.000000 0.000000 0.021889
#
#
# Mechanical properties :
#
#
# Convention : Reuss Voigt Hill
#
# Bulk Modulus (GPa) = 62.46737 74.79749 68.63243
# Shear Modulus (GPa) = 32.60032 42.02126 37.31079
#
# Velocity S-wave (km/s) = 3.90084 4.42876 4.17316
# Velocity P-wave (km/s) = 7.03180 7.81438 7.43339
#
# Compressibility (1/GPa) = 0.01600836
#
# Stress axis : x y z
#
# Youngs Moduli (GPa) = 105.96590 72.18194 78.44031
#
# Poissons Ratio (x) = 0.46561 0.17014
# Poissons Ratio (y) = 0.68353 0.10951
# Poissons Ratio (z) = 0.22984 0.10077
#
# Static dielectric constant tensor:
#      x y z
#    x 1.799650 0.000000 0.000000 
#    y 0.000000 1.770150 0.000000 
#    z 0.000000 0.000000 1.850810 
# 
# From -- ./inp_files/5095.got.cif
#   From: 2010.05.17/outbox.cif.g08.bks.cpg/sg36_3_cif.got.tgz:5095.got - 2010.06.03 17:41:39.
