data_PCOD9352283
_publ_section_title
;
Structure prediction by ZEFSAII (Michael W. Deem and Ramdas Pophale) SiO2 
 PCOD9352283
Probable space group: C M C 21
;
_chemical_formula_sum "Si O2"
_cell_formula_units_Z 64
_cell_length_a 8.759044
_cell_length_b 20.517316
_cell_length_c 20.626834
_cell_angle_alpha 90.000000
_cell_angle_beta 90.000000
_cell_angle_gamma 90.000000
_cell_volume 3706.891110
_symmetry_space_group_name_H-M "C M C 21"
_symmetry_group_IT_number 36
_symmetry_cell_setting 'orthorhombic'
loop_
_space_group_symop_operation_xyz
x,y,z
-x,-y,1/2+z
x,-y,1/2+z
-x,y,z
1/2+x,1/2+y,z
1/2-x,1/2-y,1/2+z
1/2+x,1/2-y,1/2+z
1/2-x,1/2+y,z
loop_
_atom_site_type_symbol
_atom_site_label
_atom_site_fract_x
_atom_site_fract_y
_atom_site_fract_z
Si Si1 0.315160 0.174993 0.206020
Si Si2 0.684068 0.075221 0.462937
Si Si3 0.316935 0.675234 0.711314
Si Si4 0.681861 0.678533 0.064326
Si Si5 0.183878 0.424519 0.314102
Si Si6 0.816924 0.178750 0.562482
Si Si7 0.685835 0.927025 0.814623
Si Si8 0.816048 0.576649 0.963180
O O1 0.500000 0.172075 0.200456
O O2 0.274654 0.249375 0.224191
O O3 0.245434 0.161192 0.135674
O O4 0.264032 0.124372 0.260811
O O5 0.500000 0.081342 0.466643
O O6 0.759326 0.124633 0.512817
O O7 0.731003 0.089204 0.388424
O O8 0.721464 0.999331 0.476330
O O9 0.500000 0.670523 0.715291
O O10 0.245984 0.626178 0.762470
O O11 0.272222 0.661406 0.636675
O O12 0.500000 0.681196 0.065724
O O13 0.747310 0.750225 0.047950
O O14 0.738537 0.625719 0.012661
O O15 0.234161 0.498854 0.299970
O O16 0.228129 0.409317 0.388455
O O17 0.000000 0.423929 0.312111
O O18 0.000000 0.183953 0.560531
O O19 0.500000 0.926820 0.814432
O O20 0.000000 0.582876 0.967993
#
# Coordination Sequence:
#
# PCOD9352283 Si02
#       8
#     8   8   8   8   8   8   8   8
#     4   9  18  35  55  73 100 136 169 207 260 310
#     4   9  18  34  56  80 105 136 175 213 250 303
#     4   9  19  33  49  72 103 136 166 204 255 306
#     4  11  22  35  53  77 103 134 178 221 254 301
#     4   9  18  33  54  77 101 132 170 209 247 299
#     4  10  21  37  54  75 106 139 171 211 263 312
#     4   8  16  33  55  77 101 132 170 208 250 302
#     4   9  19  36  54  75 107 141 171 209 259 307
#
# _framework density 17.265142000000001
#
# number of rings (size 3 to 8) (size 9 to 14) (size 15 to 20)
#    0.000    2.750    0.000    3.750    0.000    5.500 
#    0.000    8.125    0.000    0.000    0.000    0.000 
#    0.000    0.000    0.000    0.000    0.000    0.000 
#
# Total GULP energy -178461.600684 kJ/mol
# GULP energy per Si atom -5576.925021 kJ/mol
# Density = 1.722585 g / cm^3
# Si number density = 17.265142 Si / 1000 Ang^3
#
#
#
# Elastic Constant Matrix: (Units=GPa)
#
#
# Indices 1 2 3 4 5 6 
#
# 1 37.0392 51.7843 51.7350 0.0000 0.0000 0.0000
# 2 51.7843 148.7250 143.5221 0.0000 0.0000 0.0000
# 3 51.7350 143.5221 161.2985 0.0000 0.0000 0.0000
# 4 0.0000 0.0000 0.0000 43.0564 0.0000 0.0000
# 5 0.0000 0.0000 0.0000 0.0000 29.1008 0.0000
# 6 0.0000 0.0000 0.0000 0.0000 0.0000 28.9228
#
#
#
# Elastic Compliance Matrix: (Units=1/GPa)
#
#
# Indices 1 2 3 4 5 6 
#
# 1 0.052988 -0.014497 -0.004096 0.000000 0.000000 0.000000
# 2 -0.014497 0.051540 -0.041210 0.000000 0.000000 0.000000
# 3 -0.004096 -0.041210 0.044181 0.000000 0.000000 0.000000
# 4 0.000000 0.000000 0.000000 0.023225 0.000000 0.000000
# 5 0.000000 0.000000 0.000000 0.000000 0.034363 0.000000
# 6 0.000000 0.000000 0.000000 0.000000 0.000000 0.034575
#
#
# Mechanical properties :
#
#
# Convention : Reuss Voigt Hill
#
# Bulk Modulus (GPa) = 34.36022 93.46059 63.91041
# Shear Modulus (GPa) = 13.50698 26.88408 20.19553
#
# Velocity S-wave (km/s) = 2.80004 3.95033 3.42384
# Velocity P-wave (km/s) = 5.51347 8.66354 7.26138
#
# Compressibility (1/GPa) = 0.02910342
#
# Stress axis : x y z
#
# Youngs Moduli (GPa) = 18.87225 19.40258 22.63392
#
# Poissons Ratio (x) = 0.28128 0.09271
# Poissons Ratio (y) = 0.27359 0.93274
# Poissons Ratio (z) = 0.07730 0.79957
#
# Static dielectric constant tensor:
#      x y z
#    x 1.583640 0.000000 0.000000 
#    y 0.000000 1.566880 0.000000 
#    z 0.000000 0.000000 1.569010 
# 
# From -- ./inp_files/13831.got.cif
#   From: 2010.05.17/outbox.cif.g08.bks.cpg/sg36_7_cif.got.tgz:13831.got - 2010.06.03 17:41:39.
