data_PCOD9352756
_publ_section_title
;
Structure prediction by ZEFSAII (Michael W. Deem and Ramdas Pophale) SiO2 
 PCOD9352756
Probable space group: C M C 21
;
_chemical_formula_sum "Si O2"
_cell_formula_units_Z 40
_cell_length_a 26.229292
_cell_length_b 5.472278
_cell_length_c 9.833958
_cell_angle_alpha 90.000000
_cell_angle_beta 90.000000
_cell_angle_gamma 90.000000
_cell_volume 1411.507107
_symmetry_space_group_name_H-M "C M C 21"
_symmetry_group_IT_number 36
_symmetry_cell_setting 'orthorhombic'
loop_
_space_group_symop_operation_xyz
x,y,z
-x,-y,1/2+z
x,-y,1/2+z
-x,y,z
1/2+x,1/2+y,z
1/2-x,1/2-y,1/2+z
1/2+x,1/2-y,1/2+z
1/2-x,1/2+y,z
loop_
_atom_site_type_symbol
_atom_site_label
_atom_site_fract_x
_atom_site_fract_y
_atom_site_fract_z
Si Si1 0.086655 0.194755 0.941980
Si Si2 0.500000 0.316205 0.983411
Si Si3 0.366014 0.041571 0.153502
Si Si4 0.500000 0.937466 0.762033
Si Si5 0.248323 0.450281 0.547353
Si Si6 0.840824 0.955033 0.761619
O O1 0.050565 0.313602 0.825168
O O2 0.142612 0.075248 0.906552
O O3 0.098735 0.414951 0.043031
O O4 0.049139 0.988033 0.997800
O O5 0.500000 0.113036 0.101958
O O6 0.500000 0.204463 0.830531
O O7 0.307938 0.036242 0.104525
O O8 0.363344 0.819757 0.265288
O O9 0.371274 0.328828 0.181843
O O10 0.247361 0.199773 0.463892
O O11 0.287902 0.450083 0.675136
#
# Coordination Sequence:
#
# PCOD9352756 Si02
#       6
#     8   4   8   4   8   8
#     4  11  26  44  73 107 146 204 263 326 399 479
#     4  11  28  52  73 116 150 210 268 342 414 477
#     4  10  22  40  67 100 146 192 248 308 381 460
#     4  11  28  48  79 104 156 200 270 342 406 479
#     4   8  16  36  58  93 139 191 233 303 366 450
#     4  10  22  40  68  99 147 192 249 309 381 461
#
# _framework density 28.338502999999999
#
# number of rings (size 3 to 8) (size 9 to 14) (size 15 to 20)
#    0.000    2.000    0.000    1.200    8.400    3.200 
#    0.000   18.000    0.000    0.000    0.000    0.000 
#    0.000    0.000    0.000    0.000    0.000    0.000 
#
# Total GULP energy -111583.863920 kJ/mol
# GULP energy per Si atom -5579.193196 kJ/mol
# Density = 2.827400 g / cm^3
# Si number density = 28.338503 Si / 1000 Ang^3
#
#
#
# Elastic Constant Matrix: (Units=GPa)
#
#
# Indices 1 2 3 4 5 6 
#
# 1 130.1722 -10.8382 7.6036 0.0000 0.0000 0.0000
# 2 -10.8382 177.2286 19.4975 0.0000 0.0000 0.0000
# 3 7.6036 19.4975 67.1133 0.0000 0.0000 0.0000
# 4 0.0000 0.0000 0.0000 48.0807 0.0000 0.0000
# 5 0.0000 0.0000 0.0000 0.0000 21.4573 0.0000
# 6 0.0000 0.0000 0.0000 0.0000 0.0000 48.6676
#
#
#
# Elastic Compliance Matrix: (Units=1/GPa)
#
#
# Indices 1 2 3 4 5 6 
#
# 1 0.007793 0.000593 -0.001055 0.000000 0.000000 0.000000
# 2 0.000593 0.005874 -0.001774 0.000000 0.000000 0.000000
# 3 -0.001055 -0.001774 0.015535 0.000000 0.000000 0.000000
# 4 0.000000 0.000000 0.000000 0.020798 0.000000 0.000000
# 5 0.000000 0.000000 0.000000 0.000000 0.046604 0.000000
# 6 0.000000 0.000000 0.000000 0.000000 0.000000 0.020548
#
#
# Mechanical properties :
#
#
# Convention : Reuss Voigt Hill
#
# Bulk Modulus (GPa) = 40.43700 45.22666 42.83183
# Shear Modulus (GPa) = 38.50087 47.52453 43.01270
#
# Velocity S-wave (km/s) = 3.68993 4.09960 3.90015
# Velocity P-wave (km/s) = 5.69687 6.19702 5.95220
#
# Compressibility (1/GPa) = 0.02472982
#
# Stress axis : x y z
#
# Youngs Moduli (GPa) = 128.31856 170.24781 64.37089
#
# Poissons Ratio (x) = -0.10090 0.06792
# Poissons Ratio (y) = -0.07605 0.11417
# Poissons Ratio (z) = 0.13539 0.30195
#
# Static dielectric constant tensor:
#      x y z
#    x 3.102960 0.000000 0.000000 
#    y 0.000000 2.250430 0.000000 
#    z 0.000000 0.000000 2.510430 
# 
# From -- ./inp_files/9557.got.cif
#   From: 2010.05.17/outbox.cif.g08.bks.cpg/sg36_5_cif.got.tgz:9557.got - 2010.06.03 17:41:39.
