data_PCOD9352936
_publ_section_title
;
Structure prediction by ZEFSAII (Michael W. Deem and Ramdas Pophale) SiO2 
 PCOD9352936
Probable space group: C M C 21
;
_chemical_formula_sum "Si O2"
_cell_formula_units_Z 48
_cell_length_a 13.444034
_cell_length_b 18.744359
_cell_length_c 9.559263
_cell_angle_alpha 90.000000
_cell_angle_beta 90.000000
_cell_angle_gamma 90.000000
_cell_volume 2408.932361
_symmetry_space_group_name_H-M "C M C 21"
_symmetry_group_IT_number 36
_symmetry_cell_setting 'orthorhombic'
loop_
_space_group_symop_operation_xyz
x,y,z
-x,-y,1/2+z
x,-y,1/2+z
-x,y,z
1/2+x,1/2+y,z
1/2-x,1/2-y,1/2+z
1/2+x,1/2-y,1/2+z
1/2-x,1/2+y,z
loop_
_atom_site_type_symbol
_atom_site_label
_atom_site_fract_x
_atom_site_fract_y
_atom_site_fract_z
Si Si1 0.882560 0.268356 0.119380
Si Si2 0.210296 0.841407 0.005086
Si Si3 0.883390 0.297650 0.438121
Si Si4 0.746789 0.975619 0.166915
Si Si5 0.619408 0.611864 0.207340
Si Si6 0.883141 0.459864 0.441595
O O1 0.847137 0.291276 0.276397
O O2 0.865311 0.182954 0.113149
O O3 0.000000 0.280692 0.110632
O O4 0.825000 0.316396 0.007913
O O5 0.159478 0.765066 0.032510
O O6 0.165431 0.869007 0.859416
O O7 0.199421 0.903316 0.118708
O O8 0.870036 0.377754 0.489724
O O9 0.000000 0.283388 0.427238
O O10 0.693817 0.970994 0.315740
O O11 0.822893 0.041748 0.157051
O O12 0.655112 0.988557 0.061678
O O13 0.500000 0.601129 0.218741
O O14 0.000000 0.469352 0.405354
#
# Coordination Sequence:
#
# PCOD9352936 Si02
#       6
#     8   8   8   8   8   8
#     4   9  18  35  60  85 116 161 205 252 310 368
#     4  11  20  36  64  90 120 157 212 259 307 377
#     4   9  19  36  59  83 113 159 204 249 308 366
#     4  12  23  40  62  96 124 167 212 255 321 380
#     4  10  23  42  62  90 130 169 208 259 319 377
#     4  11  23  41  63  92 129 163 207 262 321 380
#
# _framework density 19.925840999999998
#
# number of rings (size 3 to 8) (size 9 to 14) (size 15 to 20)
#    0.000    1.667    3.333    3.000    0.000    2.000 
#    0.000    0.000    0.000    8.000    0.000    0.000 
#    0.000    0.000    0.000    0.000    0.000    0.000 
#
# Total GULP energy -133841.237364 kJ/mol
# GULP energy per Si atom -5576.718224 kJ/mol
# Density = 1.988049 g / cm^3
# Si number density = 19.925841 Si / 1000 Ang^3
#
#
#
# Elastic Constant Matrix: (Units=GPa)
#
#
# Indices 1 2 3 4 5 6 
#
# 1 85.6222 47.6635 13.1651 0.0000 0.0000 0.0000
# 2 47.6635 81.8173 5.1314 0.0000 0.0000 0.0000
# 3 13.1651 5.1314 15.9640 0.0000 0.0000 0.0000
# 4 0.0000 0.0000 0.0000 18.8050 0.0000 0.0000
# 5 0.0000 0.0000 0.0000 0.0000 26.6635 0.0000
# 6 0.0000 0.0000 0.0000 0.0000 0.0000 31.0782
#
#
#
# Elastic Compliance Matrix: (Units=1/GPa)
#
#
# Indices 1 2 3 4 5 6 
#
# 1 0.019518 -0.010574 -0.012697 0.000000 0.000000 0.000000
# 2 -0.010574 0.018202 0.002869 0.000000 0.000000 0.000000
# 3 -0.012697 0.002869 0.072189 0.000000 0.000000 0.000000
# 4 0.000000 0.000000 0.000000 0.053177 0.000000 0.000000
# 5 0.000000 0.000000 0.000000 0.000000 0.037504 0.000000
# 6 0.000000 0.000000 0.000000 0.000000 0.000000 0.032177
#
#
# Mechanical properties :
#
#
# Convention : Reuss Voigt Hill
#
# Bulk Modulus (GPa) = 14.47050 35.03595 24.75322
# Shear Modulus (GPa) = 16.85735 23.13894 19.99814
#
# Velocity S-wave (km/s) = 2.91177 3.41141 3.17145
# Velocity P-wave (km/s) = 4.31074 5.75659 5.08531
#
# Compressibility (1/GPa) = 0.06910612
#
# Stress axis : x y z
#
# Youngs Moduli (GPa) = 51.23565 54.93806 13.85245
#
# Poissons Ratio (x) = 0.58091 0.17588
# Poissons Ratio (y) = 0.54176 -0.03975
# Poissons Ratio (z) = 0.65054 -0.15763
#
# Static dielectric constant tensor:
#      x y z
#    x 1.714530 0.000000 0.000000 
#    y 0.000000 1.739700 0.000000 
#    z 0.000000 0.000000 1.712880 
# 
# From -- ./inp_files/4009.got.cif
#   From: 2010.05.17/outbox.cif.g08.bks.cpg/sg36_3_cif.got.tgz:4009.got - 2010.06.03 17:41:39.
