data_PCOD9352273
_publ_section_title
;
Structure prediction by ZEFSAII (Michael W. Deem and Ramdas Pophale) SiO2 
 PCOD9352273
Probable space group: C M C 21
;
_chemical_formula_sum "Si O2"
_cell_formula_units_Z 40
_cell_length_a 15.726612
_cell_length_b 12.899795
_cell_length_c 9.105421
_cell_angle_alpha 90.000000
_cell_angle_beta 90.000000
_cell_angle_gamma 90.000000
_cell_volume 1847.217403
_symmetry_space_group_name_H-M "C M C 21"
_symmetry_group_IT_number 36
_symmetry_cell_setting 'orthorhombic'
loop_
_space_group_symop_operation_xyz
x,y,z
-x,-y,1/2+z
x,-y,1/2+z
-x,y,z
1/2+x,1/2+y,z
1/2-x,1/2-y,1/2+z
1/2+x,1/2-y,1/2+z
1/2-x,1/2+y,z
loop_
_atom_site_type_symbol
_atom_site_label
_atom_site_fract_x
_atom_site_fract_y
_atom_site_fract_z
Si Si1 0.199117 0.911474 0.227100
Si Si2 0.906951 0.625267 0.418796
Si Si3 0.346632 0.059352 0.116320
Si Si4 0.600887 0.447864 0.530986
Si Si5 0.283933 0.724035 0.084932
O O1 0.145154 0.926799 0.374243
O O2 0.240047 0.799368 0.202270
O O3 0.277143 0.991239 0.206707
O O4 0.135576 0.944220 0.095268
O O5 0.902367 0.608047 0.244999
O O6 0.893524 0.516857 0.504885
O O7 0.831301 0.698791 0.473665
O O8 0.000000 0.668376 0.458098
O O9 0.292532 0.148330 0.034777
O O10 0.500000 0.444473 0.523963
O O11 0.641518 0.356120 0.632012
#
# Coordination Sequence:
#
# PCOD9352273 Si02
#       5
#     8   8   8   8   8
#     4  10  21  38  61  86 119 161 200 240 295 359
#     4  11  22  39  61  90 121 154 197 251 298 345
#     4  10  21  38  61  86 119 161 200 240 295 359
#     4  11  22  39  61  90 121 154 197 251 298 345
#     4  10  21  36  61  86 114 156 200 236 289 356
#
# _framework density 21.654192999999999
#
# number of rings (size 3 to 8) (size 9 to 14) (size 15 to 20)
#    0.000    1.600    0.000    6.600    0.000    3.200 
#    0.000    3.000    0.000    0.000    0.000    0.000 
#    0.000    0.000    0.000    0.000    0.000    0.000 
#
# Total GULP energy -111625.295573 kJ/mol
# GULP energy per Si atom -5581.264779 kJ/mol
# Density = 2.160491 g / cm^3
# Si number density = 21.654193 Si / 1000 Ang^3
#
#
#
# Elastic Constant Matrix: (Units=GPa)
#
#
# Indices 1 2 3 4 5 6 
#
# 1 142.5276 29.5482 49.8618 0.0000 0.0000 0.0000
# 2 29.5482 66.6298 18.8731 0.0000 0.0000 0.0000
# 3 49.8618 18.8731 81.3910 0.0000 0.0000 0.0000
# 4 0.0000 0.0000 0.0000 29.1220 0.0000 0.0000
# 5 0.0000 0.0000 0.0000 0.0000 24.7310 0.0000
# 6 0.0000 0.0000 0.0000 0.0000 0.0000 22.3463
#
#
#
# Elastic Compliance Matrix: (Units=1/GPa)
#
#
# Indices 1 2 3 4 5 6 
#
# 1 0.009365 -0.002706 -0.005110 0.000000 0.000000 0.000000
# 2 -0.002706 0.016845 -0.002249 0.000000 0.000000 0.000000
# 3 -0.005110 -0.002249 0.015938 0.000000 0.000000 0.000000
# 4 0.000000 0.000000 0.000000 0.034338 0.000000 0.000000
# 5 0.000000 0.000000 0.000000 0.000000 0.040435 0.000000
# 6 0.000000 0.000000 0.000000 0.000000 0.000000 0.044750
#
#
# Mechanical properties :
#
#
# Convention : Reuss Voigt Hill
#
# Bulk Modulus (GPa) = 45.41284 54.12383 49.76834
# Shear Modulus (GPa) = 26.43561 28.05754 27.24658
#
# Velocity S-wave (km/s) = 3.49780 3.60350 3.55104
# Velocity P-wave (km/s) = 6.10984 6.50865 6.31240
#
# Compressibility (1/GPa) = 0.02202020
#
# Stress axis : x y z
#
# Youngs Moduli (GPa) = 106.78479 59.36460 62.74309
#
# Poissons Ratio (x) = 0.16062 0.32059
# Poissons Ratio (y) = 0.28892 0.14108
# Poissons Ratio (z) = 0.54563 0.13348
#
# Static dielectric constant tensor:
#      x y z
#    x 1.772630 0.000000 0.000000 
#    y 0.000000 1.850750 0.000000 
#    z 0.000000 0.000000 1.809120 
# 
# From -- ./inp_files/3797.got.cif
#   From: 2010.05.17/outbox.cif.g08.bks.cpg/sg36_2_cif.got.tgz:3797.got - 2010.06.03 17:41:39.
