data_PCOD9352598
_publ_section_title
;
Structure prediction by ZEFSAII (Michael W. Deem and Ramdas Pophale) SiO2 
 PCOD9352598
Probable space group: C M C 21
;
_chemical_formula_sum "Si O2"
_cell_formula_units_Z 64
_cell_length_a 30.721949
_cell_length_b 7.548358
_cell_length_c 12.872143
_cell_angle_alpha 90.000000
_cell_angle_beta 90.000000
_cell_angle_gamma 90.000000
_cell_volume 2985.053431
_symmetry_space_group_name_H-M "C M C 21"
_symmetry_group_IT_number 36
_symmetry_cell_setting 'orthorhombic'
loop_
_space_group_symop_operation_xyz
x,y,z
-x,-y,1/2+z
x,-y,1/2+z
-x,y,z
1/2+x,1/2+y,z
1/2-x,1/2-y,1/2+z
1/2+x,1/2-y,1/2+z
1/2-x,1/2+y,z
loop_
_atom_site_type_symbol
_atom_site_label
_atom_site_fract_x
_atom_site_fract_y
_atom_site_fract_z
Si Si1 0.807868 0.284047 0.878200
Si Si2 0.180406 0.917270 0.173540
Si Si3 0.050094 0.325787 0.029671
Si Si4 0.147073 0.804040 0.838769
Si Si5 0.779238 0.914228 0.968493
Si Si6 0.049835 0.672074 0.160208
Si Si7 0.103520 0.437742 0.845003
Si Si8 0.096872 0.950583 0.026130
O O1 0.811212 0.239255 0.755779
O O2 0.766945 0.397801 0.913412
O O3 0.854760 0.359203 0.904286
O O4 0.800156 0.100227 0.936527
O O5 0.138993 0.909631 0.097411
O O6 0.169015 0.088017 0.244626
O O7 0.220556 0.914022 0.092914
O O8 0.065470 0.436928 0.929207
O O9 0.000000 0.271034 0.018623
O O10 0.053076 0.469091 0.121419
O O11 0.078610 0.148250 0.040887
O O12 0.187718 0.771287 0.917552
O O13 0.121774 0.626842 0.807549
O O14 0.112324 0.915902 0.907693
O O15 0.084842 0.682827 0.252712
O O16 0.062167 0.808002 0.068704
O O17 0.000000 0.704659 0.193889
#
# Coordination Sequence:
#
# PCOD9352598 Si02
#       8
#     8   8   8   8   8   8   8   8
#     4  11  23  41  65  94 134 178 230 285 347 419
#     4  10  21  41  65  95 132 173 231 282 343 419
#     4  11  24  42  65  99 140 179 229 292 354 420
#     4  10  22  40  67  97 133 177 231 286 350 426
#     4  10  23  41  62  99 134 177 231 287 351 417
#     4  11  24  42  65  99 136 177 234 289 350 424
#     4  12  22  42  68  99 134 180 234 286 354 422
#     4  11  21  43  68  96 131 183 227 285 353 413
#
# _framework density 21.440149999999999
#
# number of rings (size 3 to 8) (size 9 to 14) (size 15 to 20)
#    0.000    1.250    2.500    4.500    0.000    2.000 
#    0.000    3.750    0.000    0.000    0.000    0.000 
#    0.000    0.000    0.000    0.000    0.000    0.000 
#
# Total GULP energy -178536.877873 kJ/mol
# GULP energy per Si atom -5579.277434 kJ/mol
# Density = 2.139135 g / cm^3
# Si number density = 21.440150 Si / 1000 Ang^3
#
#
#
# Elastic Constant Matrix: (Units=GPa)
#
#
# Indices 1 2 3 4 5 6 
#
# 1 110.2836 29.0951 30.1944 0.0000 0.0000 0.0000
# 2 29.0951 66.8856 -0.5143 0.0000 0.0000 0.0000
# 3 30.1944 -0.5143 73.2410 0.0000 0.0000 0.0000
# 4 0.0000 0.0000 0.0000 23.3767 0.0000 0.0000
# 5 0.0000 0.0000 0.0000 0.0000 29.3686 0.0000
# 6 0.0000 0.0000 0.0000 0.0000 0.0000 27.5291
#
#
#
# Elastic Compliance Matrix: (Units=1/GPa)
#
#
# Indices 1 2 3 4 5 6 
#
# 1 0.011766 -0.005156 -0.004887 0.000000 0.000000 0.000000
# 2 -0.005156 0.017211 0.002246 0.000000 0.000000 0.000000
# 3 -0.004887 0.002246 0.015684 0.000000 0.000000 0.000000
# 4 0.000000 0.000000 0.000000 0.042778 0.000000 0.000000
# 5 0.000000 0.000000 0.000000 0.000000 0.034050 0.000000
# 6 0.000000 0.000000 0.000000 0.000000 0.000000 0.036325
#
#
# Mechanical properties :
#
#
# Convention : Reuss Voigt Hill
#
# Bulk Modulus (GPa) = 34.40162 40.88451 37.64306
# Shear Modulus (GPa) = 27.30827 28.83054 28.06940
#
# Velocity S-wave (km/s) = 3.57276 3.67099 3.62221
# Velocity P-wave (km/s) = 5.75324 6.08923 5.92362
#
# Compressibility (1/GPa) = 0.02906840
#
# Stress axis : x y z
#
# Youngs Moduli (GPa) = 84.99349 58.10293 63.75957
#
# Poissons Ratio (x) = 0.29955 0.31157
# Poissons Ratio (y) = 0.43819 -0.14322
# Poissons Ratio (z) = 0.41534 -0.13052
#
# Static dielectric constant tensor:
#      x y z
#    x 1.813800 0.000000 0.000000 
#    y 0.000000 1.815230 0.000000 
#    z 0.000000 0.000000 1.818500 
# 
# From -- ./inp_files/9716.got.cif
#   From: 2010.05.17/outbox.cif.g08.bks.cpg/sg36_5_cif.got.tgz:9716.got - 2010.06.03 17:41:39.
