data_PCOD9352606
_publ_section_title
;
Structure prediction by ZEFSAII (Michael W. Deem and Ramdas Pophale) SiO2 
 PCOD9352606
Probable space group: C M C 21
;
_chemical_formula_sum "Si O2"
_cell_formula_units_Z 28
_cell_length_a 10.864927
_cell_length_b 18.402372
_cell_length_c 5.153319
_cell_angle_alpha 90.000000
_cell_angle_beta 90.000000
_cell_angle_gamma 90.000000
_cell_volume 1030.356809
_symmetry_space_group_name_H-M "C M C 21"
_symmetry_group_IT_number 36
_symmetry_cell_setting 'orthorhombic'
loop_
_space_group_symop_operation_xyz
x,y,z
-x,-y,1/2+z
x,-y,1/2+z
-x,y,z
1/2+x,1/2+y,z
1/2-x,1/2-y,1/2+z
1/2+x,1/2-y,1/2+z
1/2-x,1/2+y,z
loop_
_atom_site_type_symbol
_atom_site_label
_atom_site_fract_x
_atom_site_fract_y
_atom_site_fract_z
Si Si1 0.353213 0.542510 0.875000
Si Si2 0.138136 0.170240 0.513500
Si Si3 0.000000 0.548565 0.849186
Si Si4 0.365231 0.838547 0.649216
O O1 0.303867 0.494591 0.635223
O O2 0.500000 0.529273 0.897849
O O3 0.350051 0.626616 0.783127
O O4 0.250289 0.147906 0.331719
O O5 0.000000 0.152670 0.410715
O O6 0.145727 0.256729 0.544863
O O7 0.887043 0.601786 0.924270
O O8 0.000000 0.514399 0.567155
O O9 0.500000 0.839962 0.790156
#
# Coordination Sequence:
#
# PCOD9352606 Si02
#       4
#     8   8   4   8
#     4   9  19  36  60  93 131 171 215 275 349 413
#     4  10  21  41  67 100 146 180 246 296 365 434
#     4  10  24  48  74 104 146 196 252 300 362 446
#     4   9  23  42  65 106 137 195 241 298 365 435
#
# _framework density 27.175049999999999
#
# number of rings (size 3 to 8) (size 9 to 14) (size 15 to 20)
#    0.857    1.714    0.000    0.000    0.000    8.000 
#    0.000    5.714    0.000    0.000    0.000    0.000 
#    0.000    0.000    0.000    0.000    0.000    0.000 
#
# Total GULP energy -78406.330140 kJ/mol
# GULP energy per Si atom -5600.452153 kJ/mol
# Density = 2.711320 g / cm^3
# Si number density = 27.175050 Si / 1000 Ang^3
#
#
#
# Elastic Constant Matrix: (Units=GPa)
#
#
# Indices 1 2 3 4 5 6 
#
# 1 180.4068 0.7568 28.8694 0.0000 0.0000 0.0000
# 2 0.7568 218.0743 46.3078 0.0000 0.0000 0.0000
# 3 28.8694 46.3078 112.8565 0.0000 0.0000 0.0000
# 4 0.0000 0.0000 0.0000 42.7448 0.0000 0.0000
# 5 0.0000 0.0000 0.0000 0.0000 44.6011 0.0000
# 6 0.0000 0.0000 0.0000 0.0000 0.0000 16.1979
#
#
#
# Elastic Compliance Matrix: (Units=1/GPa)
#
#
# Indices 1 2 3 4 5 6 
#
# 1 0.005800 0.000323 -0.001616 0.000000 0.000000 0.000000
# 2 0.000323 0.005041 -0.002151 0.000000 0.000000 0.000000
# 3 -0.001616 -0.002151 0.010157 0.000000 0.000000 0.000000
# 4 0.000000 0.000000 0.000000 0.023395 0.000000 0.000000
# 5 0.000000 0.000000 0.000000 0.000000 0.022421 0.000000
# 6 0.000000 0.000000 0.000000 0.000000 0.000000 0.061736
#
#
# Mechanical properties :
#
#
# Convention : Reuss Voigt Hill
#
# Bulk Modulus (GPa) = 70.87332 73.68950 72.28141
# Shear Modulus (GPa) = 35.67795 49.73567 42.70681
#
# Velocity S-wave (km/s) = 3.62732 4.28272 3.96857
# Velocity P-wave (km/s) = 6.60910 7.18548 6.90330
#
# Compressibility (1/GPa) = 0.01410968
#
# Stress axis : x y z
#
# Youngs Moduli (GPa) = 172.40412 198.36236 98.45450
#
# Poissons Ratio (x) = -0.06409 0.15914
# Poissons Ratio (y) = -0.05570 0.21180
# Poissons Ratio (z) = 0.27866 0.42672
#
# Static dielectric constant tensor:
#      x y z
#    x 2.296090 0.000000 0.000000 
#    y 0.000000 2.101820 0.000000 
#    z 0.000000 0.000000 2.100950 
# 
# From -- ./inp_files/371.got.cif
#   From: 2010.05.17/outbox.cif.g08.bks.cpg/sg36_1_cif.got.tgz:371.got - 2010.06.03 17:41:39.
