data_PCOD9352082
_publ_section_title
;
Structure prediction by ZEFSAII (Michael W. Deem and Ramdas Pophale) SiO2 
 PCOD9352082
Probable space group: C M C 21
;
_chemical_formula_sum "Si O2"
_cell_formula_units_Z 52
_cell_length_a 7.422420
_cell_length_b 14.559922
_cell_length_c 20.892830
_cell_angle_alpha 90.000000
_cell_angle_beta 90.000000
_cell_angle_gamma 90.000000
_cell_volume 2257.885135
_symmetry_space_group_name_H-M "C M C 21"
_symmetry_group_IT_number 36
_symmetry_cell_setting 'orthorhombic'
loop_
_space_group_symop_operation_xyz
x,y,z
-x,-y,1/2+z
x,-y,1/2+z
-x,y,z
1/2+x,1/2+y,z
1/2-x,1/2-y,1/2+z
1/2+x,1/2-y,1/2+z
1/2-x,1/2+y,z
loop_
_atom_site_type_symbol
_atom_site_label
_atom_site_fract_x
_atom_site_fract_y
_atom_site_fract_z
Si Si1 0.217848 0.711469 0.236060
Si Si2 0.000000 0.115445 0.521147
Si Si3 0.217956 0.735427 0.469320
Si Si4 0.709588 0.338625 0.598024
Si Si5 0.285087 0.347249 0.344628
Si Si6 0.786718 0.493763 0.760568
Si Si7 0.294565 0.046323 0.624271
O O1 0.271043 0.721225 0.162131
O O2 0.286534 0.785535 0.286190
O O3 0.281551 0.610059 0.257617
O O4 0.000000 0.713028 0.237595
O O5 0.160373 0.145439 0.469589
O O6 0.158017 0.088854 0.574076
O O7 0.274386 0.785150 0.535770
O O8 0.269257 0.804046 0.411853
O O9 0.000000 0.720447 0.468645
O O10 0.500000 0.359332 0.587076
O O11 0.801193 0.436377 0.609927
O O12 0.500000 0.339495 0.344354
O O13 0.244272 0.451341 0.325528
O O14 0.722538 0.549093 0.697533
O O15 0.000000 0.487614 0.750805
O O16 0.500000 0.082755 0.619238
#
# Coordination Sequence:
#
# PCOD9352082 Si02
#       7
#     8   4   8   8   8   8   8
#     4   9  20  38  63  90 121 167 213 262 321 382
#     4  12  24  40  68  90 126 170 206 264 322 394
#     4  10  25  43  60  94 133 167 218 266 312 388
#     4  10  20  39  63  93 130 167 210 264 326 379
#     4  10  22  41  62  86 127 169 212 263 319 382
#     4   9  20  37  60  91 124 155 207 266 317 379
#     4  10  22  40  64  98 128 158 215 272 319 386
#
# _framework density 23.030401000000001
#
# number of rings (size 3 to 8) (size 9 to 14) (size 15 to 20)
#    0.000    2.154    0.769    1.846    6.462    1.231 
#    2.769    0.000    0.000    0.000    0.000    0.000 
#    0.000    0.000    0.000    0.000    0.000    0.000 
#
# Total GULP energy -144782.455753 kJ/mol
# GULP energy per Si atom -5568.555990 kJ/mol
# Density = 2.297798 g / cm^3
# Si number density = 23.030401 Si / 1000 Ang^3
#
#
#
# Elastic Constant Matrix: (Units=GPa)
#
#
# Indices 1 2 3 4 5 6 
#
# 1 108.5233 1.1615 -3.1569 0.0000 0.0000 0.0000
# 2 1.1615 43.1385 26.9046 0.0000 0.0000 0.0000
# 3 -3.1569 26.9046 81.2735 0.0000 0.0000 0.0000
# 4 0.0000 0.0000 0.0000 9.0917 0.0000 0.0000
# 5 0.0000 0.0000 0.0000 0.0000 30.3257 0.0000
# 6 0.0000 0.0000 0.0000 0.0000 0.0000 -5.5278
#
#
#
# Elastic Compliance Matrix: (Units=1/GPa)
#
#
# Indices 1 2 3 4 5 6 
#
# 1 0.009237 -0.000595 0.000556 0.000000 0.000000 0.000000
# 2 -0.000595 0.029251 -0.009706 0.000000 0.000000 0.000000
# 3 0.000556 -0.009706 0.015539 0.000000 0.000000 0.000000
# 4 0.000000 0.000000 0.000000 0.109991 0.000000 0.000000
# 5 0.000000 0.000000 0.000000 0.000000 0.032975 0.000000
# 6 0.000000 0.000000 0.000000 0.000000 0.000000 -0.180903
#
#
# Mechanical properties :
#
#
# Convention : Reuss Voigt Hill
#
# Bulk Modulus (GPa) = 28.95589 31.41707 30.18648
# Shear Modulus (GPa) = 106.17278 20.64631 63.40955
#
# Velocity S-wave (km/s) = 6.79715 2.99738 5.25288
# Velocity P-wave (km/s) = 8.61405 5.06460 7.06583
#
# Compressibility (1/GPa) = 0.03453529
#
# Stress axis : x y z
#
# Youngs Moduli (GPa) = 108.25842 34.18717 64.35479
#
# Poissons Ratio (x) = 0.02036 -0.03578
# Poissons Ratio (y) = 0.06446 0.62464
# Poissons Ratio (z) = -0.06018 0.33183
#
# Static dielectric constant tensor:
#      x y z
#    x 1.849750 0.000000 0.000000 
#    y 0.000000 1.945550 0.000000 
#    z 0.000000 0.000000 1.859350 
# 
# From -- ./inp_files/15420.got.cif
#   From: 2010.05.17/outbox.cif.g08.bks.cpg/sg36_8_cif.got.tgz:15420.got - 2010.06.03 17:41:39.
