data_PCOD9352223
_publ_section_title
;
Structure prediction by ZEFSAII (Michael W. Deem and Ramdas Pophale) SiO2 
 PCOD9352223
Probable space group: C M C 21
;
_chemical_formula_sum "Si O2"
_cell_formula_units_Z 64
_cell_length_a 7.938089
_cell_length_b 25.178029
_cell_length_c 14.177310
_cell_angle_alpha 90.000000
_cell_angle_beta 90.000000
_cell_angle_gamma 90.000000
_cell_volume 2833.554231
_symmetry_space_group_name_H-M "C M C 21"
_symmetry_group_IT_number 36
_symmetry_cell_setting 'orthorhombic'
loop_
_space_group_symop_operation_xyz
x,y,z
-x,-y,1/2+z
x,-y,1/2+z
-x,y,z
1/2+x,1/2+y,z
1/2-x,1/2-y,1/2+z
1/2+x,1/2-y,1/2+z
1/2-x,1/2+y,z
loop_
_atom_site_type_symbol
_atom_site_label
_atom_site_fract_x
_atom_site_fract_y
_atom_site_fract_z
Si Si1 0.804271 0.458063 0.541630
Si Si2 0.807558 0.303259 0.751535
Si Si3 0.693507 0.413647 0.815425
Si Si4 0.792530 0.661406 0.054695
Si Si5 0.804552 0.706296 0.853096
Si Si6 0.196949 0.427050 0.024671
Si Si7 0.302921 0.372605 0.197235
Si Si8 0.704945 0.470120 0.325630
O O1 0.732925 0.399931 0.567434
O O2 0.737154 0.516776 0.568955
O O3 0.785048 0.461096 0.427923
O O4 0.000000 0.456539 0.569346
O O5 0.800220 0.364869 0.779351
O O6 0.739564 0.303170 0.644268
O O7 0.714575 0.268339 0.829869
O O8 0.000000 0.284873 0.750594
O O9 0.500000 0.405922 0.786456
O O10 0.752446 0.472242 0.785338
O O11 0.705364 0.415915 0.928802
O O12 0.000000 0.660795 0.055418
O O13 0.737281 0.685309 0.953699
O O14 0.723880 0.677920 0.762645
O O15 0.000000 0.691763 0.852566
O O16 0.213470 0.379182 0.097750
O O17 0.000000 0.434828 0.001143
O O18 0.500000 0.378957 0.178478
O O19 0.242722 0.422016 0.260292
O O20 0.500000 0.469924 0.336301
#
# Coordination Sequence:
#
# PCOD9352223 Si02
#       8
#     8   8   8   8   8   8   8   8
#     4   9  17  34  58  86 117 154 202 250 299 356
#     4  11  24  42  64  91 122 159 208 259 314 370
#     4  10  21  40  60  86 125 164 202 249 308 368
#     4   9  20  39  63  88 116 155 199 252 308 361
#     4  11  23  43  66  88 119 161 213 262 309 365
#     4  10  21  35  58  91 125 164 208 252 302 365
#     4  11  22  37  58  89 126 164 202 249 310 368
#     4   9  19  34  55  85 122 159 194 241 304 365
#
# _framework density 22.586473999999999
#
# number of rings (size 3 to 8) (size 9 to 14) (size 15 to 20)
#    0.000    2.000    1.250    1.875    1.750    2.500 
#    0.000    7.500    0.000    0.000    0.000    0.000 
#    0.000    0.000    0.000    0.000    0.000    0.000 
#
# Total GULP energy -178690.541581 kJ/mol
# GULP energy per Si atom -5584.079424 kJ/mol
# Density = 2.253507 g / cm^3
# Si number density = 22.586474 Si / 1000 Ang^3
#
#
#
# Elastic Constant Matrix: (Units=GPa)
#
#
# Indices 1 2 3 4 5 6 
#
# 1 36.3941 4.2629 2.5901 0.0000 0.0000 0.0000
# 2 4.2629 71.2795 14.9936 0.0000 0.0000 0.0000
# 3 2.5901 14.9936 61.9773 0.0000 0.0000 0.0000
# 4 0.0000 0.0000 0.0000 28.4926 0.0000 0.0000
# 5 0.0000 0.0000 0.0000 0.0000 20.2026 0.0000
# 6 0.0000 0.0000 0.0000 0.0000 0.0000 20.9136
#
#
#
# Elastic Compliance Matrix: (Units=1/GPa)
#
#
# Indices 1 2 3 4 5 6 
#
# 1 0.027708 -0.001489 -0.000798 0.000000 0.000000 0.000000
# 2 -0.001489 0.014862 -0.003533 0.000000 0.000000 0.000000
# 3 -0.000798 -0.003533 0.017023 0.000000 0.000000 0.000000
# 4 0.000000 0.000000 0.000000 0.035097 0.000000 0.000000
# 5 0.000000 0.000000 0.000000 0.000000 0.049499 0.000000
# 6 0.000000 0.000000 0.000000 0.000000 0.000000 0.047816
#
#
# Mechanical properties :
#
#
# Convention : Reuss Voigt Hill
#
# Bulk Modulus (GPa) = 20.85392 23.70491 22.27941
# Shear Modulus (GPa) = 22.76573 23.77537 23.27055
#
# Velocity S-wave (km/s) = 3.17825 3.24796 3.21329
# Velocity P-wave (km/s) = 4.76669 4.95819 4.86338
#
# Compressibility (1/GPa) = 0.04795263
#
# Stress axis : x y z
#
# Youngs Moduli (GPa) = 36.09037 67.28783 58.74407
#
# Poissons Ratio (x) = 0.10021 0.04686
# Poissons Ratio (y) = 0.05375 0.20755
# Poissons Ratio (z) = 0.02879 0.23773
#
# Static dielectric constant tensor:
#      x y z
#    x 1.797570 0.000000 0.000000 
#    y 0.000000 1.841690 0.000000 
#    z 0.000000 0.000000 1.840860 
# 
# From -- ./inp_files/11022.got.cif
#   From: 2010.05.17/outbox.cif.g08.bks.cpg/sg36_6_cif.got.tgz:11022.got - 2010.06.03 17:41:39.
