data_PCOD9352003
_publ_section_title
;
Structure prediction by ZEFSAII (Michael W. Deem and Ramdas Pophale) SiO2 
 PCOD9352003
Probable space group: C M C 21
;
_chemical_formula_sum "Si O2"
_cell_formula_units_Z 48
_cell_length_a 10.224636
_cell_length_b 25.645587
_cell_length_c 8.048850
_cell_angle_alpha 90.000000
_cell_angle_beta 90.000000
_cell_angle_gamma 90.000000
_cell_volume 2110.543627
_symmetry_space_group_name_H-M "C M C 21"
_symmetry_group_IT_number 36
_symmetry_cell_setting 'orthorhombic'
loop_
_space_group_symop_operation_xyz
x,y,z
-x,-y,1/2+z
x,-y,1/2+z
-x,y,z
1/2+x,1/2+y,z
1/2-x,1/2-y,1/2+z
1/2+x,1/2-y,1/2+z
1/2-x,1/2+y,z
loop_
_atom_site_type_symbol
_atom_site_label
_atom_site_fract_x
_atom_site_fract_y
_atom_site_fract_z
Si Si1 0.154399 0.229231 0.708790
Si Si2 0.154285 0.680148 0.436784
Si Si3 0.256509 0.074794 0.577824
Si Si4 0.000000 0.413666 0.527839
Si Si5 0.500000 0.012370 0.704203
Si Si6 0.500000 0.580094 0.069682
Si Si7 0.765130 0.863625 0.426038
Si Si8 0.500000 0.525539 0.420822
O O1 0.169232 0.289206 0.763828
O O2 0.249803 0.209843 0.564724
O O3 0.197867 0.194047 0.866670
O O4 0.000000 0.219395 0.672867
O O5 0.195334 0.620039 0.452476
O O6 0.000000 0.684357 0.484218
O O7 0.370616 0.033609 0.612936
O O8 0.228550 0.103704 0.752485
O O9 0.129195 0.046624 0.510204
O O10 0.124859 0.377389 0.500427
O O11 0.000000 0.449722 0.691941
O O12 0.000000 0.457454 0.380267
O O13 0.626467 0.615178 0.049890
O O14 0.500000 0.536621 0.925777
O O15 0.500000 0.547790 0.237045
#
# Coordination Sequence:
#
# PCOD9352003 Si02
#       8
#     8   8   8   4   4   4   8   4
#     4  10  22  40  64  92 123 162 202 252 302 363
#     4  10  22  41  64  92 125 160 203 251 303 364
#     4  10  21  40  62  89 118 165 199 249 303 361
#     4  10  22  36  61  88 115 157 198 243 299 358
#     4  10  20  38  59  86 119 153 198 243 297 354
#     4  12  24  42  59  90 123 161 204 259 299 362
#     4  10  21  40  63  87 122 159 202 247 307 358
#     4  12  26  38  63  88 123 161 208 249 307 362
#
# _framework density 22.742954999999998
#
# number of rings (size 3 to 8) (size 9 to 14) (size 15 to 20)
#    0.000    1.667    1.667    2.500    7.000    6.000 
#    0.000    0.000    0.000    0.000    0.000    0.000 
#    0.000    0.000    0.000    0.000    0.000    0.000 
#
# Total GULP energy -134309.335915 kJ/mol
# GULP energy per Si atom -5596.222330 kJ/mol
# Density = 2.269119 g / cm^3
# Si number density = 22.742955 Si / 1000 Ang^3
#
#
#
# Elastic Constant Matrix: (Units=GPa)
#
#
# Indices 1 2 3 4 5 6 
#
# 1 166.3793 34.5786 25.4648 0.0000 0.0000 0.0000
# 2 34.5786 72.2840 21.2484 0.0000 0.0000 0.0000
# 3 25.4648 21.2484 45.7553 0.0000 0.0000 0.0000
# 4 0.0000 0.0000 0.0000 39.4661 0.0000 0.0000
# 5 0.0000 0.0000 0.0000 0.0000 13.9830 0.0000
# 6 0.0000 0.0000 0.0000 0.0000 0.0000 26.1125
#
#
#
# Elastic Compliance Matrix: (Units=1/GPa)
#
#
# Indices 1 2 3 4 5 6 
#
# 1 0.006949 -0.002533 -0.002691 0.000000 0.000000 0.000000
# 2 -0.002533 0.016945 -0.006459 0.000000 0.000000 0.000000
# 3 -0.002691 -0.006459 0.026353 0.000000 0.000000 0.000000
# 4 0.000000 0.000000 0.000000 0.025338 0.000000 0.000000
# 5 0.000000 0.000000 0.000000 0.000000 0.071515 0.000000
# 6 0.000000 0.000000 0.000000 0.000000 0.000000 0.038296
#
#
# Mechanical properties :
#
#
# Convention : Reuss Voigt Hill
#
# Bulk Modulus (GPa) = 37.20289 49.66692 43.43490
# Shear Modulus (GPa) = 22.96510 29.45411 26.20960
#
# Velocity S-wave (km/s) = 3.18113 3.60264 3.39842
# Velocity P-wave (km/s) = 5.46684 6.26028 5.87696
#
# Compressibility (1/GPa) = 0.02687963
#
# Stress axis : x y z
#
# Youngs Moduli (GPa) = 143.91275 59.01509 37.94688
#
# Poissons Ratio (x) = 0.14949 0.10211
# Poissons Ratio (y) = 0.36454 0.24511
# Poissons Ratio (z) = 0.38726 0.38120
#
# Static dielectric constant tensor:
#      x y z
#    x 1.773100 0.000000 0.000000 
#    y 0.000000 1.841930 0.000000 
#    z 0.000000 0.000000 1.887590 
# 
# From -- ./inp_files/2766.got.cif
#   From: 2010.05.17/outbox.cif.g08.bks.cpg/sg36_2_cif.got.tgz:2766.got - 2010.06.03 17:41:39.
