data_PCOD9352096
_publ_section_title
;
Structure prediction by ZEFSAII (Michael W. Deem and Ramdas Pophale) SiO2 
 PCOD9352096
Probable space group: C M C 21
;
_chemical_formula_sum "Si O2"
_cell_formula_units_Z 52
_cell_length_a 19.814280
_cell_length_b 18.008828
_cell_length_c 5.199279
_cell_angle_alpha 90.000000
_cell_angle_beta 90.000000
_cell_angle_gamma 90.000000
_cell_volume 1855.268919
_symmetry_space_group_name_H-M "C M C 21"
_symmetry_group_IT_number 36
_symmetry_cell_setting 'orthorhombic'
loop_
_space_group_symop_operation_xyz
x,y,z
-x,-y,1/2+z
x,-y,1/2+z
-x,y,z
1/2+x,1/2+y,z
1/2-x,1/2-y,1/2+z
1/2+x,1/2-y,1/2+z
1/2-x,1/2+y,z
loop_
_atom_site_type_symbol
_atom_site_label
_atom_site_fract_x
_atom_site_fract_y
_atom_site_fract_z
Si Si1 0.000000 0.203428 0.078960
Si Si2 0.281496 0.947527 0.125197
Si Si3 0.500000 0.201647 0.089008
Si Si4 0.000000 0.047432 0.613582
Si Si5 0.714599 0.343351 0.463589
Si Si6 0.116800 0.135749 0.359598
Si Si7 0.647344 0.216089 0.171695
Si Si8 0.426355 0.052641 0.551678
O O1 0.063570 0.154202 0.135010
O O2 0.000000 0.267246 0.299562
O O3 0.000000 0.231220 0.792017
O O4 0.224171 0.887694 0.196159
O O5 0.279504 0.999734 0.378080
O O6 0.354759 0.906679 0.089592
O O7 0.575590 0.170769 0.157936
O O8 0.070576 0.089914 0.555526
O O9 0.000000 0.014978 0.894734
O O10 0.677622 0.391479 0.681162
O O11 0.676966 0.264294 0.413522
O O12 0.789688 0.329680 0.568491
O O13 0.133797 0.215515 0.479487
O O14 0.500000 0.090577 0.569778
O O15 0.425824 0.005424 0.289973
#
# Coordination Sequence:
#
# PCOD9352096 Si02
#       8
#     4   8   4   4   8   8   8   8
#     4   9  18  36  62  91 118 179 213 273 351 402
#     4  10  24  42  61  93 133 175 221 284 352 423
#     4  10  20  39  66  91 136 167 228 282 349 425
#     4  11  28  47  72 110 150 204 265 299 376 455
#     4  12  24  41  71 100 143 187 245 305 378 454
#     4  10  23  41  67  94 141 185 238 307 358 433
#     4  11  24  43  69 105 137 193 241 307 383 449
#     4   8  14  30  56  79 107 153 202 247 311 388
#
# _framework density 28.028282999999998
#
# number of rings (size 3 to 8) (size 9 to 14) (size 15 to 20)
#    0.000    1.846    3.077    0.462    4.308    2.462 
#    1.385    0.000    0.000    0.000    4.000    0.000 
#    0.000    0.000    0.000    0.000    0.000    0.000 
#
# Total GULP energy -145476.294209 kJ/mol
# GULP energy per Si atom -5595.242085 kJ/mol
# Density = 2.796449 g / cm^3
# Si number density = 28.028283 Si / 1000 Ang^3
#
#
#
# Elastic Constant Matrix: (Units=GPa)
#
#
# Indices 1 2 3 4 5 6 
#
# 1 182.7744 37.7992 14.8146 0.0000 0.0000 0.0000
# 2 37.7992 64.7068 39.5248 0.0000 0.0000 0.0000
# 3 14.8146 39.5248 117.8334 0.0000 0.0000 0.0000
# 4 0.0000 0.0000 0.0000 38.7810 0.0000 0.0000
# 5 0.0000 0.0000 0.0000 0.0000 37.5912 0.0000
# 6 0.0000 0.0000 0.0000 0.0000 0.0000 40.3703
#
#
#
# Elastic Compliance Matrix: (Units=1/GPa)
#
#
# Indices 1 2 3 4 5 6 
#
# 1 0.006251 -0.003989 0.000552 0.000000 0.000000 0.000000
# 2 -0.003989 0.021982 -0.006872 0.000000 0.000000 0.000000
# 3 0.000552 -0.006872 0.010722 0.000000 0.000000 0.000000
# 4 0.000000 0.000000 0.000000 0.025786 0.000000 0.000000
# 5 0.000000 0.000000 0.000000 0.000000 0.026602 0.000000
# 6 0.000000 0.000000 0.000000 0.000000 0.000000 0.024771
#
#
# Mechanical properties :
#
#
# Convention : Reuss Voigt Hill
#
# Bulk Modulus (GPa) = 54.53174 61.06578 57.79876
# Shear Modulus (GPa) = 35.00302 41.56023 38.28162
#
# Velocity S-wave (km/s) = 3.53774 3.85489 3.69971
# Velocity P-wave (km/s) = 6.01545 6.45353 6.23834
#
# Compressibility (1/GPa) = 0.01833795
#
# Stress axis : x y z
#
# Youngs Moduli (GPa) = 159.96281 45.49140 93.26443
#
# Poissons Ratio (x) = 0.18147 -0.05149
# Poissons Ratio (y) = 0.63811 0.64091
# Poissons Ratio (z) = -0.08831 0.31261
#
# Static dielectric constant tensor:
#      x y z
#    x 2.451160 0.000000 0.000000 
#    y 0.000000 2.122680 0.000000 
#    z 0.000000 0.000000 2.187500 
# 
# From -- ./inp_files/1394.got.cif
#   From: 2010.05.17/outbox.cif.g08.bks.cpg/sg36_1_cif.got.tgz:1394.got - 2010.06.03 17:41:39.
