data_PCOD9352415
_publ_section_title
;
Structure prediction by ZEFSAII (Michael W. Deem and Ramdas Pophale) SiO2 
 PCOD9352415
Probable space group: C M C 21
;
_chemical_formula_sum "Si O2"
_cell_formula_units_Z 64
_cell_length_a 16.837669
_cell_length_b 9.315529
_cell_length_c 19.819752
_cell_angle_alpha 90.000000
_cell_angle_beta 90.000000
_cell_angle_gamma 90.000000
_cell_volume 3108.763655
_symmetry_space_group_name_H-M "C M C 21"
_symmetry_group_IT_number 36
_symmetry_cell_setting 'orthorhombic'
loop_
_space_group_symop_operation_xyz
x,y,z
-x,-y,1/2+z
x,-y,1/2+z
-x,y,z
1/2+x,1/2+y,z
1/2-x,1/2-y,1/2+z
1/2+x,1/2-y,1/2+z
1/2-x,1/2+y,z
loop_
_atom_site_type_symbol
_atom_site_label
_atom_site_fract_x
_atom_site_fract_y
_atom_site_fract_z
Si Si1 0.186148 0.325710 0.608650
Si Si2 0.652210 0.567302 0.960120
Si Si3 0.342664 0.446514 0.311081
Si Si4 0.180163 0.273209 0.462381
Si Si5 0.590539 0.941607 0.185610
Si Si6 0.123163 0.823415 0.599108
Si Si7 0.327592 0.211176 0.811586
Si Si8 0.085289 0.900843 0.173068
O O1 0.151750 0.343724 0.532629
O O2 0.149556 0.432514 0.663314
O O3 0.280938 0.331639 0.605692
O O4 0.157102 0.171213 0.633277
O O5 0.618720 0.572770 0.884707
O O6 0.729954 0.668632 0.957300
O O7 0.676190 0.399752 0.971154
O O8 0.603300 0.624954 0.023601
O O9 0.324525 0.616527 0.301914
O O10 0.259848 0.359582 0.307054
O O11 0.398459 0.392386 0.251850
O O12 0.143115 0.310658 0.389377
O O13 0.500000 0.989688 0.194385
O O14 0.595942 0.831149 0.123059
O O15 0.620489 0.861906 0.253219
O O16 0.086792 0.934883 0.651294
O O17 0.000000 0.836759 0.154217
#
# Coordination Sequence:
#
# PCOD9352415 Si02
#       8
#     8   8   8   8   8   8   8   8
#     4  11  23  41  64  91 116 159 206 246 298 357
#     4   9  19  35  60  93 119 149 200 257 298 347
#     4  10  21  38  62  91 119 157 204 249 299 355
#     4   9  19  36  61  92 119 149 200 256 298 346
#     4  12  26  41  58  89 129 163 197 246 303 357
#     4  11  21  39  66  90 115 153 205 246 296 353
#     4  10  21  39  63  90 119 157 204 249 296 358
#     4  12  24  39  58  88 126 157 194 247 300 351
#
# _framework density 20.586962
#
# number of rings (size 3 to 8) (size 9 to 14) (size 15 to 20)
#    0.000    1.500    2.500    3.000    7.000    0.000 
#    0.000    2.500    0.000    0.000    0.000    0.000 
#    0.000    0.000    0.000    0.000    0.000    0.000 
#
# Total GULP energy -178559.804057 kJ/mol
# GULP energy per Si atom -5579.993877 kJ/mol
# Density = 2.054010 g / cm^3
# Si number density = 20.586962 Si / 1000 Ang^3
#
#
#
# Elastic Constant Matrix: (Units=GPa)
#
#
# Indices 1 2 3 4 5 6 
#
# 1 69.6256 3.7532 22.3179 0.0000 0.0000 0.0000
# 2 3.7532 25.1902 -13.1953 0.0000 0.0000 0.0000
# 3 22.3179 -13.1953 121.2278 0.0000 0.0000 0.0000
# 4 0.0000 0.0000 0.0000 34.3181 0.0000 0.0000
# 5 0.0000 0.0000 0.0000 0.0000 -9.8625 0.0000
# 6 0.0000 0.0000 0.0000 0.0000 0.0000 4.2541
#
#
#
# Elastic Compliance Matrix: (Units=1/GPa)
#
#
# Indices 1 2 3 4 5 6 
#
# 1 0.015648 -0.004073 -0.003324 0.000000 0.000000 0.000000
# 2 -0.004073 0.043158 0.005447 0.000000 0.000000 0.000000
# 3 -0.003324 0.005447 0.009454 0.000000 0.000000 0.000000
# 4 0.000000 0.000000 0.000000 0.029139 0.000000 0.000000
# 5 0.000000 0.000000 0.000000 0.000000 -0.101395 0.000000
# 6 0.000000 0.000000 0.000000 0.000000 0.000000 0.235069
#
#
# Mechanical properties :
#
#
# Convention : Reuss Voigt Hill
#
# Bulk Modulus (GPa) = 15.53725 26.86611 21.20168
# Shear Modulus (GPa) = 19.49888 19.28647 19.39267
#
# Velocity S-wave (km/s) = 3.08091 3.06409 3.07251
# Velocity P-wave (km/s) = 4.49662 5.05930 4.78624
#
# Compressibility (1/GPa) = 0.06436145
#
# Stress axis : x y z
#
# Youngs Moduli (GPa) = 63.90784 23.17049 105.77743
#
# Poissons Ratio (x) = 0.09436 0.35160
# Poissons Ratio (y) = 0.26027 -0.57622
# Poissons Ratio (z) = 0.21243 -0.12622
#
# Static dielectric constant tensor:
#      x y z
#    x 1.708120 0.000000 0.000000 
#    y 0.000000 1.732210 0.000000 
#    z 0.000000 0.000000 1.782390 
# 
# From -- ./inp_files/16224.got.cif
#   From: 2010.05.17/outbox.cif.g08.bks.cpg/sg36_9_cif.got.tgz:16224.got - 2010.06.03 17:41:39.
