data_PCOD9352386
_publ_section_title
;
Structure prediction by ZEFSAII (Michael W. Deem and Ramdas Pophale) SiO2 
 PCOD9352386
Probable space group: C M C 21
;
_chemical_formula_sum "Si O2"
_cell_formula_units_Z 48
_cell_length_a 15.160818
_cell_length_b 18.210732
_cell_length_c 8.115717
_cell_angle_alpha 90.000000
_cell_angle_beta 90.000000
_cell_angle_gamma 90.000000
_cell_volume 2240.665007
_symmetry_space_group_name_H-M "C M C 21"
_symmetry_group_IT_number 36
_symmetry_cell_setting 'orthorhombic'
loop_
_space_group_symop_operation_xyz
x,y,z
-x,-y,1/2+z
x,-y,1/2+z
-x,y,z
1/2+x,1/2+y,z
1/2-x,1/2-y,1/2+z
1/2+x,1/2-y,1/2+z
1/2-x,1/2+y,z
loop_
_atom_site_type_symbol
_atom_site_label
_atom_site_fract_x
_atom_site_fract_y
_atom_site_fract_z
Si Si1 0.102439 0.891844 0.792790
Si Si2 0.752545 0.363306 0.315299
Si Si3 0.397437 0.969103 0.442517
Si Si4 0.753677 0.213493 0.169844
Si Si5 0.601819 0.885561 0.791630
Si Si6 0.103088 0.044486 0.659967
O O1 0.163678 0.823048 0.761429
O O2 0.000000 0.873828 0.765748
O O3 0.128985 0.959091 0.673219
O O4 0.111659 0.924214 0.976420
O O5 0.833445 0.419336 0.332934
O O6 0.760796 0.300653 0.177571
O O7 0.747783 0.318438 0.486015
O O8 0.664989 0.409037 0.278337
O O9 0.500000 0.965142 0.388584
O O10 0.393142 0.934885 0.624678
O O11 0.371337 0.054799 0.429711
O O12 0.666360 0.182242 0.261148
O O13 0.500000 0.862892 0.816031
O O14 0.000000 0.048504 0.709240
#
# Coordination Sequence:
#
# PCOD9352386 Si02
#       6
#     8   8   8   8   8   8
#     4  10  21  38  60  84 111 145 186 233 283 335
#     4  11  23  37  55  81 114 150 186 227 277 333
#     4   9  19  36  57  80 106 138 177 221 269 321
#     4  11  23  37  55  81 114 150 186 227 277 333
#     4   9  19  36  57  80 106 138 177 221 269 321
#     4  10  21  38  60  84 111 145 186 233 283 335
#
# _framework density 21.422212999999999
#
# number of rings (size 3 to 8) (size 9 to 14) (size 15 to 20)
#    0.000    2.000    0.000    3.000    0.000    8.667 
#    0.000    3.333    0.000    0.000    0.000    0.000 
#    0.000    0.000    0.000    0.000    0.000    0.000 
#
# Total GULP energy -134230.681599 kJ/mol
# GULP energy per Si atom -5592.945067 kJ/mol
# Density = 2.137346 g / cm^3
# Si number density = 21.422213 Si / 1000 Ang^3
#
#
#
# Elastic Constant Matrix: (Units=GPa)
#
#
# Indices 1 2 3 4 5 6 
#
# 1 48.2161 30.3925 15.3062 0.0000 0.0000 0.0000
# 2 30.3925 59.4286 0.9726 0.0000 0.0000 0.0000
# 3 15.3062 0.9726 42.0898 0.0000 0.0000 0.0000
# 4 0.0000 0.0000 0.0000 37.2544 0.0000 0.0000
# 5 0.0000 0.0000 0.0000 0.0000 25.3732 0.0000
# 6 0.0000 0.0000 0.0000 0.0000 0.0000 -4.7979
#
#
#
# Elastic Compliance Matrix: (Units=1/GPa)
#
#
# Indices 1 2 3 4 5 6 
#
# 1 0.036416 -0.018414 -0.012817 0.000000 0.000000 0.000000
# 2 -0.018414 0.026144 0.006092 0.000000 0.000000 0.000000
# 3 -0.012817 0.006092 0.028279 0.000000 0.000000 0.000000
# 4 0.000000 0.000000 0.000000 0.026842 0.000000 0.000000
# 5 0.000000 0.000000 0.000000 0.000000 0.039412 0.000000
# 6 0.000000 0.000000 0.000000 0.000000 0.000000 -0.208423
#
#
# Mechanical properties :
#
#
# Convention : Reuss Voigt Hill
#
# Bulk Modulus (GPa) = 24.65409 27.00857 25.83133
# Shear Modulus (GPa) = 401.02950 18.43682 209.73316
#
# Velocity S-wave (km/s) = 13.69705 2.93685 9.90541
# Velocity P-wave (km/s) = 16.17650 4.91276 11.95438
#
# Compressibility (1/GPa) = 0.04056123
#
# Stress axis : x y z
#
# Youngs Moduli (GPa) = 27.46078 38.24948 35.36191
#
# Poissons Ratio (x) = 0.70431 0.45324
# Poissons Ratio (y) = 0.50565 -0.21543
# Poissons Ratio (z) = 0.35197 -0.23302
#
# Static dielectric constant tensor:
#      x y z
#    x 1.743650 0.000000 0.000000 
#    y 0.000000 1.784800 0.000000 
#    z 0.000000 0.000000 1.826970 
# 
# From -- ./inp_files/3985.got.cif
#   From: 2010.05.17/outbox.cif.g08.bks.cpg/sg36_2_cif.got.tgz:3985.got - 2010.06.03 17:41:39.
