data_PCOD9352140
_publ_section_title
;
Structure prediction by ZEFSAII (Michael W. Deem and Ramdas Pophale) SiO2 
 PCOD9352140
Probable space group: C M C 21
;
_chemical_formula_sum "Si O2"
_cell_formula_units_Z 52
_cell_length_a 7.376330
_cell_length_b 14.921204
_cell_length_c 17.607392
_cell_angle_alpha 90.000000
_cell_angle_beta 90.000000
_cell_angle_gamma 90.000000
_cell_volume 1937.935146
_symmetry_space_group_name_H-M "C M C 21"
_symmetry_group_IT_number 36
_symmetry_cell_setting 'orthorhombic'
loop_
_space_group_symop_operation_xyz
x,y,z
-x,-y,1/2+z
x,-y,1/2+z
-x,y,z
1/2+x,1/2+y,z
1/2-x,1/2-y,1/2+z
1/2+x,1/2-y,1/2+z
1/2-x,1/2+y,z
loop_
_atom_site_type_symbol
_atom_site_label
_atom_site_fract_x
_atom_site_fract_y
_atom_site_fract_z
Si Si1 0.296675 0.595763 0.784400
Si Si2 0.296478 0.850896 0.882424
Si Si3 0.719140 0.108786 0.546924
Si Si4 0.206133 0.340623 0.437974
Si Si5 0.710408 0.252973 0.171720
Si Si6 0.000000 0.082114 0.269579
Si Si7 0.278269 0.919607 0.598628
O O1 0.500000 0.629007 0.801524
O O2 0.206408 0.592473 0.866418
O O3 0.214130 0.671193 0.728846
O O4 0.340168 0.497402 0.752992
O O5 0.500000 0.880390 0.862789
O O6 0.303105 0.748733 0.911132
O O7 0.157791 0.858918 0.814382
O O8 0.227479 0.900232 0.959079
O O9 0.500000 0.112032 0.546592
O O10 0.784664 0.197013 0.590163
O O11 0.778753 0.022552 0.594849
O O12 0.274413 0.383703 0.515156
O O13 0.000000 0.314088 0.453274
O O14 0.500000 0.237900 0.191497
O O15 0.798615 0.155022 0.157362
O O16 0.500000 0.919330 0.604640
#
# Coordination Sequence:
#
# PCOD9352140 Si02
#       7
#     8   8   8   8   8   4   8
#     4   9  22  40  58  86 131 171 215 266 324 401
#     4  11  22  38  64  97 133 166 214 278 332 390
#     4  10  21  37  59  93 124 159 213 272 329 392
#     4  11  20  38  65  95 126 172 218 272 334 388
#     4  10  20  41  63  84 125 171 210 262 333 386
#     4  10  22  42  60  92 128 166 222 262 326 398
#     4   9  19  36  62  89 118 160 214 264 327 391
#
# _framework density 26.832682999999999
#
# number of rings (size 3 to 8) (size 9 to 14) (size 15 to 20)
#    0.462    1.538    2.308    1.385    1.077    2.462 
#    2.769    0.769    0.000    0.000    0.000    0.000 
#    0.000    0.000    0.000    0.000    0.000    0.000 
#
# Total GULP energy -144878.065984 kJ/mol
# GULP energy per Si atom -5572.233307 kJ/mol
# Density = 2.677161 g / cm^3
# Si number density = 26.832683 Si / 1000 Ang^3
#
#
#
# Elastic Constant Matrix: (Units=GPa)
#
#
# Indices 1 2 3 4 5 6 
#
# 1 100.0003 -26.7493 -16.1277 0.0000 0.0000 0.0000
# 2 -26.7493 139.7502 2.3928 0.0000 0.0000 0.0000
# 3 -16.1277 2.3928 103.3818 0.0000 0.0000 0.0000
# 4 0.0000 0.0000 0.0000 40.1087 0.0000 0.0000
# 5 0.0000 0.0000 0.0000 0.0000 6.4413 0.0000
# 6 0.0000 0.0000 0.0000 0.0000 0.0000 25.0179
#
#
#
# Elastic Compliance Matrix: (Units=1/GPa)
#
#
# Indices 1 2 3 4 5 6 
#
# 1 0.010810 0.002041 0.001639 0.000000 0.000000 0.000000
# 2 0.002041 0.007544 0.000144 0.000000 0.000000 0.000000
# 3 0.001639 0.000144 0.009925 0.000000 0.000000 0.000000
# 4 0.000000 0.000000 0.000000 0.024932 0.000000 0.000000
# 5 0.000000 0.000000 0.000000 0.000000 0.155248 0.000000
# 6 0.000000 0.000000 0.000000 0.000000 0.000000 0.039971
#
#
# Mechanical properties :
#
#
# Convention : Reuss Voigt Hill
#
# Bulk Modulus (GPa) = 27.83371 29.12931 28.48151
# Shear Modulus (GPa) = 19.78173 39.88803 29.83488
#
# Velocity S-wave (km/s) = 2.71813 3.85976 3.33811
# Velocity P-wave (km/s) = 4.49962 5.54465 5.04924
#
# Compressibility (1/GPa) = 0.03592766
#
# Stress axis : x y z
#
# Youngs Moduli (GPa) = 92.50426 132.55834 100.75293
#
# Poissons Ratio (x) = -0.27057 -0.16515
# Poissons Ratio (y) = -0.18881 -0.01449
# Poissons Ratio (z) = -0.15163 -0.01906
#
# Static dielectric constant tensor:
#      x y z
#    x 2.047530 0.000000 0.000000 
#    y 0.000000 2.114180 0.000000 
#    z 0.000000 0.000000 2.180620 
# 
# From -- ./inp_files/15430.got.cif
#   From: 2010.05.17/outbox.cif.g08.bks.cpg/sg36_8_cif.got.tgz:15430.got - 2010.06.03 17:41:39.
