data_PCOD9352141
_publ_section_title
;
Structure prediction by ZEFSAII (Michael W. Deem and Ramdas Pophale) SiO2 
 PCOD9352141
Probable space group: C M C 21
;
_chemical_formula_sum "Si O2"
_cell_formula_units_Z 40
_cell_length_a 16.620039
_cell_length_b 8.895898
_cell_length_c 13.506315
_cell_angle_alpha 90.000000
_cell_angle_beta 90.000000
_cell_angle_gamma 90.000000
_cell_volume 1996.910992
_symmetry_space_group_name_H-M "C M C 21"
_symmetry_group_IT_number 36
_symmetry_cell_setting 'orthorhombic'
loop_
_space_group_symop_operation_xyz
x,y,z
-x,-y,1/2+z
x,-y,1/2+z
-x,y,z
1/2+x,1/2+y,z
1/2-x,1/2-y,1/2+z
1/2+x,1/2-y,1/2+z
1/2-x,1/2+y,z
loop_
_atom_site_type_symbol
_atom_site_label
_atom_site_fract_x
_atom_site_fract_y
_atom_site_fract_z
Si Si1 0.000000 0.135810 0.725091
Si Si2 0.500000 0.022352 0.185390
Si Si3 0.500000 0.125831 0.882764
Si Si4 0.862675 0.534373 0.022750
Si Si5 0.638076 0.544389 0.869297
Si Si6 0.756778 0.210665 0.446579
Si Si7 0.000000 0.944876 0.995833
O O1 0.000000 0.315812 0.739450
O O2 0.000000 0.103905 0.608713
O O3 0.078890 0.067584 0.777404
O O4 0.421383 0.018670 0.115794
O O5 0.500000 0.890729 0.265689
O O6 0.421782 0.044415 0.927896
O O7 0.500000 0.293967 0.927666
O O8 0.812797 0.689427 0.018085
O O9 0.799919 0.400764 0.008313
O O10 0.701138 0.677659 0.883791
O O11 0.687687 0.390035 0.875157
O O12 0.578444 0.537678 0.964256
#
# Coordination Sequence:
#
# PCOD9352141 Si02
#       7
#     4   4   4   8   8   8   4
#     4  11  21  41  66  94 124 166 220 256 319 377
#     4  11  22  39  66  94 121 169 214 261 310 381
#     4  11  20  40  67  87 128 161 216 259 309 368
#     4  10  21  41  65  90 130 164 209 259 317 375
#     4  10  22  40  66  90 125 168 209 258 317 379
#     4  10  20  41  63  93 133 165 202 265 320 373
#     4  11  21  44  65  89 127 170 208 274 310 376
#
# _framework density 20.030937000000002
#
# number of rings (size 3 to 8) (size 9 to 14) (size 15 to 20)
#    0.000    1.600    4.000    1.200    0.000    2.400 
#    7.200   22.000    0.000    0.000    0.000    0.000 
#    0.000    0.000    0.000    0.000    0.000    0.000 
#
# Total GULP energy -111745.973007 kJ/mol
# GULP energy per Si atom -5587.298650 kJ/mol
# Density = 1.998535 g / cm^3
# Si number density = 20.030937 Si / 1000 Ang^3
#
#
#
# Elastic Constant Matrix: (Units=GPa)
#
#
# Indices 1 2 3 4 5 6 
#
# 1 146.1529 60.8843 54.0761 0.0000 0.0000 0.0000
# 2 60.8843 88.9440 53.4852 0.0000 0.0000 0.0000
# 3 54.0761 53.4852 99.3066 0.0000 0.0000 0.0000
# 4 0.0000 0.0000 0.0000 21.6983 0.0000 0.0000
# 5 0.0000 0.0000 0.0000 0.0000 6.6938 0.0000
# 6 0.0000 0.0000 0.0000 0.0000 0.0000 30.4848
#
#
#
# Elastic Compliance Matrix: (Units=1/GPa)
#
#
# Indices 1 2 3 4 5 6 
#
# 1 0.010007 -0.005285 -0.002603 0.000000 0.000000 0.000000
# 2 -0.005285 0.019419 -0.007581 0.000000 0.000000 0.000000
# 3 -0.002603 -0.007581 0.015570 0.000000 0.000000 0.000000
# 4 0.000000 0.000000 0.000000 0.046087 0.000000 0.000000
# 5 0.000000 0.000000 0.000000 0.000000 0.149391 0.000000
# 6 0.000000 0.000000 0.000000 0.000000 0.000000 0.032803
#
#
# Mechanical properties :
#
#
# Convention : Reuss Voigt Hill
#
# Bulk Modulus (GPa) = 71.12934 74.58831 72.85883
# Shear Modulus (GPa) = 16.18641 22.83925 19.51283
#
# Velocity S-wave (km/s) = 2.84574 3.38035 3.12450
# Velocity P-wave (km/s) = 6.81062 7.24935 7.03340
#
# Compressibility (1/GPa) = 0.01405890
#
# Stress axis : x y z
#
# Youngs Moduli (GPa) = 99.93368 51.49476 64.22474
#
# Poissons Ratio (x) = 0.27213 0.16716
# Poissons Ratio (y) = 0.52812 0.48691
# Poissons Ratio (z) = 0.26010 0.39040
#
# Static dielectric constant tensor:
#      x y z
#    x 1.716310 0.000000 0.000000 
#    y 0.000000 1.729680 0.000000 
#    z 0.000000 0.000000 1.666180 
# 
# From -- ./inp_files/8805.got.cif
#   From: 2010.05.17/outbox.cif.g08.bks.cpg/sg36_5_cif.got.tgz:8805.got - 2010.06.03 17:41:39.
