data_PCOD9352874
_publ_section_title
;
Structure prediction by ZEFSAII (Michael W. Deem and Ramdas Pophale) SiO2 
 PCOD9352874
Probable space group: C M C 21
;
_chemical_formula_sum "Si O2"
_cell_formula_units_Z 56
_cell_length_a 27.764425
_cell_length_b 5.131682
_cell_length_c 15.335550
_cell_angle_alpha 90.000000
_cell_angle_beta 90.000000
_cell_angle_gamma 90.000000
_cell_volume 2184.981560
_symmetry_space_group_name_H-M "C M C 21"
_symmetry_group_IT_number 36
_symmetry_cell_setting 'orthorhombic'
loop_
_space_group_symop_operation_xyz
x,y,z
-x,-y,1/2+z
x,-y,1/2+z
-x,y,z
1/2+x,1/2+y,z
1/2-x,1/2-y,1/2+z
1/2+x,1/2-y,1/2+z
1/2-x,1/2+y,z
loop_
_atom_site_type_symbol
_atom_site_label
_atom_site_fract_x
_atom_site_fract_y
_atom_site_fract_z
Si Si1 0.555778 0.030376 0.925370
Si Si2 0.857559 0.139916 0.473049
Si Si3 0.282914 0.021250 0.541406
Si Si4 0.946266 0.511177 0.628466
Si Si5 0.859437 0.255822 0.831131
Si Si6 0.718274 0.069566 0.747006
Si Si7 0.111038 0.996095 0.657782
O O1 0.500000 0.070738 0.899447
O O2 0.587643 0.850903 0.861974
O O3 0.588930 0.286626 0.938333
O O4 0.554860 0.923115 0.024984
O O5 0.829643 0.410049 0.491784
O O6 0.859286 0.006527 0.568250
O O7 0.838276 0.934146 0.404345
O O8 0.244075 0.791087 0.523531
O O9 0.294864 0.035793 0.644789
O O10 0.929996 0.214858 0.641455
O O11 0.000000 0.548537 0.660975
O O12 0.910566 0.712964 0.672691
O O13 0.826356 0.500874 0.807655
O O14 0.861449 0.093951 0.741810
O O15 0.757995 0.846523 0.762985
#
# Coordination Sequence:
#
# PCOD9352874 Si02
#       7
#     8   8   8   8   8   8   8
#     4  10  25  46  69 103 145 192 244 306 360 421
#     4  11  25  46  71 106 145 192 241 298 363 433
#     4  10  23  44  74 106 143 190 238 292 363 436
#     4  10  22  44  69  94 135 185 240 294 355 418
#     4  12  26  44  74 106 144 191 242 299 362 437
#     4  10  24  45  71 105 146 187 237 300 362 428
#     4  11  24  43  68 100 138 187 234 291 359 427
#
# _framework density 25.629508999999999
#
# number of rings (size 3 to 8) (size 9 to 14) (size 15 to 20)
#    0.000    1.429    2.857    0.429    6.000    3.429 
#    0.000    0.000    0.000    0.000    0.000    0.000 
#    0.000    0.000    0.000    0.000    0.000    0.000 
#
# Total GULP energy -157038.895096 kJ/mol
# GULP energy per Si atom -5608.531968 kJ/mol
# Density = 2.557117 g / cm^3
# Si number density = 25.629509 Si / 1000 Ang^3
#
#
#
# Elastic Constant Matrix: (Units=GPa)
#
#
# Indices 1 2 3 4 5 6 
#
# 1 143.4950 38.1442 40.5656 0.0000 0.0000 0.0000
# 2 38.1442 92.9985 17.3870 0.0000 0.0000 0.0000
# 3 40.5656 17.3870 119.8594 0.0000 0.0000 0.0000
# 4 0.0000 0.0000 0.0000 35.9740 0.0000 0.0000
# 5 0.0000 0.0000 0.0000 0.0000 27.0967 0.0000
# 6 0.0000 0.0000 0.0000 0.0000 0.0000 34.7303
#
#
#
# Elastic Compliance Matrix: (Units=1/GPa)
#
#
# Indices 1 2 3 4 5 6 
#
# 1 0.008456 -0.003015 -0.002424 0.000000 0.000000 0.000000
# 2 -0.003015 0.012128 -0.000739 0.000000 0.000000 0.000000
# 3 -0.002424 -0.000739 0.009271 0.000000 0.000000 0.000000
# 4 0.000000 0.000000 0.000000 0.027798 0.000000 0.000000
# 5 0.000000 0.000000 0.000000 0.000000 0.036905 0.000000
# 6 0.000000 0.000000 0.000000 0.000000 0.000000 0.028793
#
#
# Mechanical properties :
#
#
# Convention : Reuss Voigt Hill
#
# Bulk Modulus (GPa) = 57.15041 60.94963 59.05002
# Shear Modulus (GPa) = 35.32593 36.91061 36.11827
#
# Velocity S-wave (km/s) = 3.71661 3.79906 3.75806
# Velocity P-wave (km/s) = 6.38473 6.56327 6.47461
#
# Compressibility (1/GPa) = 0.01749769
#
# Stress axis : x y z
#
# Youngs Moduli (GPa) = 118.26354 82.45653 107.86534
#
# Poissons Ratio (x) = 0.24860 0.26151
# Poissons Ratio (y) = 0.35655 0.07970
# Poissons Ratio (z) = 0.28672 0.06093
#
# Static dielectric constant tensor:
#      x y z
#    x 2.016050 0.000000 0.000000 
#    y 0.000000 1.990580 0.000000 
#    z 0.000000 0.000000 2.020010 
# 
# From -- ./inp_files/13160.got.cif
#   From: 2010.05.17/outbox.cif.g08.bks.cpg/sg36_7_cif.got.tgz:13160.got - 2010.06.03 17:41:39.
