data_PCOD9352831
_publ_section_title
;
Structure prediction by ZEFSAII (Michael W. Deem and Ramdas Pophale) SiO2 
 PCOD9352831
Probable space group: C M C 21
;
_chemical_formula_sum "Si O2"
_cell_formula_units_Z 64
_cell_length_a 15.843022
_cell_length_b 9.151004
_cell_length_c 22.056770
_cell_angle_alpha 90.000000
_cell_angle_beta 90.000000
_cell_angle_gamma 90.000000
_cell_volume 3197.780759
_symmetry_space_group_name_H-M "C M C 21"
_symmetry_group_IT_number 36
_symmetry_cell_setting 'orthorhombic'
loop_
_space_group_symop_operation_xyz
x,y,z
-x,-y,1/2+z
x,-y,1/2+z
-x,y,z
1/2+x,1/2+y,z
1/2-x,1/2-y,1/2+z
1/2+x,1/2-y,1/2+z
1/2-x,1/2+y,z
loop_
_atom_site_type_symbol
_atom_site_label
_atom_site_fract_x
_atom_site_fract_y
_atom_site_fract_z
Si Si1 0.750766 0.412564 0.397950
Si Si2 0.660085 0.308415 0.610176
Si Si3 0.593436 0.948434 0.480133
Si Si4 0.243389 0.836473 0.814141
Si Si5 0.904874 0.200117 0.974855
Si Si6 0.404965 0.194172 0.234282
Si Si7 0.656387 0.042075 0.114545
Si Si8 0.595362 0.456810 0.729311
O O1 0.829904 0.384870 0.441453
O O2 0.763518 0.331040 0.334057
O O3 0.744864 0.580090 0.378127
O O4 0.664817 0.365261 0.430368
O O5 0.619745 0.335528 0.544271
O O6 0.752282 0.381411 0.612503
O O7 0.607539 0.381340 0.664172
O O8 0.665591 0.133394 0.619587
O O9 0.500000 0.895414 0.463156
O O10 0.595969 0.123737 0.470502
O O11 0.610085 0.924588 0.551294
O O12 0.331450 0.855775 0.779355
O O13 0.166278 0.890761 0.773333
O O14 0.000000 0.149800 0.961349
O O15 0.500000 0.170868 0.257868
O O16 0.392483 0.108080 0.171642
O O17 0.393542 0.368209 0.223856
O O18 0.500000 0.430204 0.751631
#
# Coordination Sequence:
#
# PCOD9352831 Si02
#       8
#     8   8   8   8   8   8   8   8
#     4  12  24  43  67  92 128 168 222 264 309 378
#     4  11  22  39  69 100 131 167 209 264 329 384
#     4  10  22  42  67  97 130 166 210 264 320 383
#     4  12  26  43  65  94 126 172 220 265 314 372
#     4  10  22  42  68  96 129 170 211 258 322 387
#     4  11  25  45  68  96 129 171 215 266 326 386
#     4  11  22  39  69  99 131 167 210 263 326 390
#     4  11  25  45  67  96 132 167 213 270 326 384
#
# _framework density 20.01388
#
# number of rings (size 3 to 8) (size 9 to 14) (size 15 to 20)
#    0.000    1.000    5.000    1.500    1.750    3.500 
#    2.250    0.000    0.000    0.000    0.000    0.000 
#    0.000    0.000    0.000    0.000    0.000    0.000 
#
# Total GULP energy -178869.895881 kJ/mol
# GULP energy per Si atom -5589.684246 kJ/mol
# Density = 1.996833 g / cm^3
# Si number density = 20.013880 Si / 1000 Ang^3
#
#
#
# Elastic Constant Matrix: (Units=GPa)
#
#
# Indices 1 2 3 4 5 6 
#
# 1 183.8259 46.9139 58.8053 0.0000 0.0000 0.0000
# 2 46.9139 49.8665 28.5313 0.0000 0.0000 0.0000
# 3 58.8053 28.5313 81.8713 0.0000 0.0000 0.0000
# 4 0.0000 0.0000 0.0000 38.4676 0.0000 0.0000
# 5 0.0000 0.0000 0.0000 0.0000 -12.1470 0.0000
# 6 0.0000 0.0000 0.0000 0.0000 0.0000 28.8765
#
#
#
# Elastic Compliance Matrix: (Units=1/GPa)
#
#
# Indices 1 2 3 4 5 6 
#
# 1 0.008058 -0.005333 -0.003929 0.000000 0.000000 0.000000
# 2 -0.005333 0.028577 -0.006129 0.000000 0.000000 0.000000
# 3 -0.003929 -0.006129 0.017172 0.000000 0.000000 0.000000
# 4 0.000000 0.000000 0.000000 0.025996 0.000000 0.000000
# 5 0.000000 0.000000 0.000000 0.000000 -0.082325 0.000000
# 6 0.000000 0.000000 0.000000 0.000000 0.000000 0.034630
#
#
# Mechanical properties :
#
#
# Convention : Reuss Voigt Hill
#
# Bulk Modulus (GPa) = 43.42891 64.89609 54.16250
# Shear Modulus (GPa) = 70.85689 23.12694 46.99191
#
# Velocity S-wave (km/s) = 5.95657 3.40302 4.85084
# Velocity P-wave (km/s) = 8.30988 6.92363 7.64823
#
# Compressibility (1/GPa) = 0.02302614
#
# Stress axis : x y z
#
# Youngs Moduli (GPa) = 124.10318 34.99340 58.23324
#
# Poissons Ratio (x) = 0.18660 0.22882
# Poissons Ratio (y) = 0.66178 0.35689
# Poissons Ratio (z) = 0.48764 0.21446
#
# Static dielectric constant tensor:
#      x y z
#    x 1.697600 0.000000 0.000000 
#    y 0.000000 1.678830 0.000000 
#    z 0.000000 0.000000 1.686860 
# 
# From -- ./inp_files/16961.got.cif
#   From: 2010.05.17/outbox.cif.g08.bks.cpg/sg36_9_cif.got.tgz:16961.got - 2010.06.03 17:41:39.
