data_PCOD9352980
_publ_section_title
;
Structure prediction by ZEFSAII (Michael W. Deem and Ramdas Pophale) SiO2 
 PCOD9352980
Probable space group: C M C 21
;
_chemical_formula_sum "Si O2"
_cell_formula_units_Z 40
_cell_length_a 18.469362
_cell_length_b 9.869772
_cell_length_c 9.819231
_cell_angle_alpha 90.000000
_cell_angle_beta 90.000000
_cell_angle_gamma 90.000000
_cell_volume 1789.931829
_symmetry_space_group_name_H-M "C M C 21"
_symmetry_group_IT_number 36
_symmetry_cell_setting 'orthorhombic'
loop_
_space_group_symop_operation_xyz
x,y,z
-x,-y,1/2+z
x,-y,1/2+z
-x,y,z
1/2+x,1/2+y,z
1/2-x,1/2-y,1/2+z
1/2+x,1/2-y,1/2+z
1/2-x,1/2+y,z
loop_
_atom_site_type_symbol
_atom_site_label
_atom_site_fract_x
_atom_site_fract_y
_atom_site_fract_z
Si Si1 0.585374 0.302068 0.493970
Si Si2 0.180634 0.242105 0.431357
Si Si3 0.213582 0.024440 0.025393
Si Si4 0.650317 0.080486 0.677866
Si Si5 0.585518 0.784672 0.693048
O O1 0.500000 0.321019 0.516119
O O2 0.634564 0.418841 0.560902
O O3 0.610481 0.157544 0.554655
O O4 0.600256 0.296959 0.331793
O O5 0.244801 0.341588 0.476869
O O6 0.147015 0.315765 0.302524
O O7 0.127292 0.233330 0.560224
O O8 0.207164 0.089966 0.408897
O O9 0.267171 0.953730 0.133998
O O10 0.612153 0.939379 0.712207
O O11 0.500000 0.783245 0.669813
#
# Coordination Sequence:
#
# PCOD9352980 Si02
#       5
#     8   8   8   8   8
#     4  11  25  45  69 101 146 189 233 294 357 424
#     4  11  26  41  72  99 138 178 240 290 355 418
#     4  11  25  43  68 103 138 184 234 293 358 425
#     4  11  24  42  72 103 134 185 241 294 347 428
#     4  10  23  45  68 100 142 184 230 289 360 429
#
# _framework density 22.347218999999999
#
# number of rings (size 3 to 8) (size 9 to 14) (size 15 to 20)
#    0.000    1.200    2.000    3.000    5.600    4.000 
#    0.000    2.000    0.000    0.000    0.000    0.000 
#    0.000    0.000    0.000    0.000    0.000    0.000 
#
# Total GULP energy -111865.930390 kJ/mol
# GULP energy per Si atom -5593.296519 kJ/mol
# Density = 2.229636 g / cm^3
# Si number density = 22.347219 Si / 1000 Ang^3
#
#
#
# Elastic Constant Matrix: (Units=GPa)
#
#
# Indices 1 2 3 4 5 6 
#
# 1 138.6327 33.6162 63.2352 0.0000 0.0000 0.0000
# 2 33.6162 106.4535 6.5136 0.0000 0.0000 0.0000
# 3 63.2352 6.5136 75.3243 0.0000 0.0000 0.0000
# 4 0.0000 0.0000 0.0000 20.5529 0.0000 0.0000
# 5 0.0000 0.0000 0.0000 0.0000 21.9813 0.0000
# 6 0.0000 0.0000 0.0000 0.0000 0.0000 32.7718
#
#
#
# Elastic Compliance Matrix: (Units=1/GPa)
#
#
# Indices 1 2 3 4 5 6 
#
# 1 0.012810 -0.003405 -0.010460 0.000000 0.000000 0.000000
# 2 -0.003405 0.010349 0.001964 0.000000 0.000000 0.000000
# 3 -0.010460 0.001964 0.021887 0.000000 0.000000 0.000000
# 4 0.000000 0.000000 0.000000 0.048655 0.000000 0.000000
# 5 0.000000 0.000000 0.000000 0.000000 0.045493 0.000000
# 6 0.000000 0.000000 0.000000 0.000000 0.000000 0.030514
#
#
# Mechanical properties :
#
#
# Convention : Reuss Voigt Hill
#
# Bulk Modulus (GPa) = 47.07241 58.57116 52.82178
# Shear Modulus (GPa) = 24.92630 29.53091 27.22860
#
# Velocity S-wave (km/s) = 3.34340 3.63913 3.49439
# Velocity P-wave (km/s) = 6.00119 6.62753 6.32212
#
# Compressibility (1/GPa) = 0.02124387
#
# Stress axis : x y z
#
# Youngs Moduli (GPa) = 78.06407 96.62849 45.68918
#
# Poissons Ratio (x) = 0.32904 0.47789
# Poissons Ratio (y) = 0.26582 -0.08972
# Poissons Ratio (z) = 0.81652 -0.18975
#
# Static dielectric constant tensor:
#      x y z
#    x 1.817730 0.000000 0.000000 
#    y 0.000000 1.828080 0.000000 
#    z 0.000000 0.000000 1.850480 
# 
# From -- ./inp_files/4522.got.cif
#   From: 2010.05.17/outbox.cif.g08.bks.cpg/sg36_3_cif.got.tgz:4522.got - 2010.06.03 17:41:39.
