data_PCOD9352336
_publ_section_title
;
Structure prediction by ZEFSAII (Michael W. Deem and Ramdas Pophale) SiO2 
 PCOD9352336
Probable space group: C M C 21
;
_chemical_formula_sum "Si O2"
_cell_formula_units_Z 56
_cell_length_a 13.349602
_cell_length_b 18.723448
_cell_length_c 10.196534
_cell_angle_alpha 90.000000
_cell_angle_beta 90.000000
_cell_angle_gamma 90.000000
_cell_volume 2548.629576
_symmetry_space_group_name_H-M "C M C 21"
_symmetry_group_IT_number 36
_symmetry_cell_setting 'orthorhombic'
loop_
_space_group_symop_operation_xyz
x,y,z
-x,-y,1/2+z
x,-y,1/2+z
-x,y,z
1/2+x,1/2+y,z
1/2-x,1/2-y,1/2+z
1/2+x,1/2-y,1/2+z
1/2-x,1/2+y,z
loop_
_atom_site_type_symbol
_atom_site_label
_atom_site_fract_x
_atom_site_fract_y
_atom_site_fract_z
Si Si1 0.115178 0.005492 0.747270
Si Si2 0.756963 0.988729 0.997265
Si Si3 0.887643 0.363793 0.967861
Si Si4 0.888537 0.746483 0.238468
Si Si5 0.174966 0.695494 0.744083
Si Si6 0.388796 0.342744 0.653244
Si Si7 0.682074 0.863160 0.524689
O O1 0.172069 0.019533 0.882798
O O2 0.114753 0.919181 0.724846
O O3 0.000000 0.029240 0.750484
O O4 0.175773 0.033572 0.621371
O O5 0.694347 0.923567 0.939737
O O6 0.682637 0.051775 0.044215
O O7 0.873684 0.340636 0.117954
O O8 0.000000 0.391011 0.945727
O O9 0.874729 0.295363 0.875310
O O10 0.794813 0.798784 0.222779
O O11 0.877727 0.684476 0.128338
O O12 0.000000 0.777864 0.232231
O O13 0.134116 0.776707 0.748757
O O14 0.152125 0.655724 0.877986
O O15 0.500000 0.334200 0.596010
O O16 0.298605 0.341974 0.549997
#
# Coordination Sequence:
#
# PCOD9352336 Si02
#       7
#     8   8   8   8   8   8   8
#     4  10  21  37  60  87 117 154 195 242 295 350
#     4  11  21  40  60  84 119 158 197 240 289 347
#     4  11  24  41  61  85 118 160 198 237 290 353
#     4  10  22  40  60  84 117 154 191 236 295 353
#     4  11  21  37  60  88 115 143 191 246 290 341
#     4   9  19  36  57  81 113 152 187 230 294 351
#     4  10  22  37  58  85 115 149 191 239 283 339
#
# _framework density 21.972593
#
# number of rings (size 3 to 8) (size 9 to 14) (size 15 to 20)
#    0.000    1.714    0.000    6.000    0.000    4.000 
#    0.000    7.857    0.000    0.000    0.000    0.000 
#    0.000    0.000    0.000    0.000    0.000    0.000 
#
# Total GULP energy -156590.156848 kJ/mol
# GULP energy per Si atom -5592.505602 kJ/mol
# Density = 2.192258 g / cm^3
# Si number density = 21.972593 Si / 1000 Ang^3
#
#
#
# Elastic Constant Matrix: (Units=GPa)
#
#
# Indices 1 2 3 4 5 6 
#
# 1 89.8933 7.7400 4.2090 0.0000 0.0000 0.0000
# 2 7.7400 35.9158 -13.6136 0.0000 0.0000 0.0000
# 3 4.2090 -13.6136 102.5273 0.0000 0.0000 0.0000
# 4 0.0000 0.0000 0.0000 18.9620 0.0000 0.0000
# 5 0.0000 0.0000 0.0000 0.0000 19.6692 0.0000
# 6 0.0000 0.0000 0.0000 0.0000 0.0000 8.6698
#
#
#
# Elastic Compliance Matrix: (Units=1/GPa)
#
#
# Indices 1 2 3 4 5 6 
#
# 1 0.011402 -0.002774 -0.000836 0.000000 0.000000 0.000000
# 2 -0.002774 0.029994 0.004096 0.000000 0.000000 0.000000
# 3 -0.000836 0.004096 0.010332 0.000000 0.000000 0.000000
# 4 0.000000 0.000000 0.000000 0.052737 0.000000 0.000000
# 5 0.000000 0.000000 0.000000 0.000000 0.050841 0.000000
# 6 0.000000 0.000000 0.000000 0.000000 0.000000 0.115343
#
#
# Mechanical properties :
#
#
# Convention : Reuss Voigt Hill
#
# Bulk Modulus (GPa) = 18.97569 25.00078 21.98824
# Shear Modulus (GPa) = 17.40681 24.79360 21.10020
#
# Velocity S-wave (km/s) = 2.81767 3.36279 3.10223
# Velocity P-wave (km/s) = 4.38640 5.14594 4.78128
#
# Compressibility (1/GPa) = 0.05269900
#
# Stress axis : x y z
#
# Youngs Moduli (GPa) = 87.70129 33.34052 96.78888
#
# Poissons Ratio (x) = 0.09250 0.08096
# Poissons Ratio (y) = 0.24331 -0.39649
# Poissons Ratio (z) = 0.07336 -0.13658
#
# Static dielectric constant tensor:
#      x y z
#    x 1.794810 0.000000 0.000000 
#    y 0.000000 1.826110 0.000000 
#    z 0.000000 0.000000 1.767640 
# 
# From -- ./inp_files/4178.got.cif
#   From: 2010.05.17/outbox.cif.g08.bks.cpg/sg36_3_cif.got.tgz:4178.got - 2010.06.03 17:41:39.
