data_PCOD9352042
_publ_section_title
;
Structure prediction by ZEFSAII (Michael W. Deem and Ramdas Pophale) SiO2 
 PCOD9352042
Probable space group: C M C 21
;
_chemical_formula_sum "Si O2"
_cell_formula_units_Z 60
_cell_length_a 12.723273
_cell_length_b 13.148899
_cell_length_c 18.183274
_cell_angle_alpha 90.000000
_cell_angle_beta 90.000000
_cell_angle_gamma 90.000000
_cell_volume 3042.007765
_symmetry_space_group_name_H-M "C M C 21"
_symmetry_group_IT_number 36
_symmetry_cell_setting 'orthorhombic'
loop_
_space_group_symop_operation_xyz
x,y,z
-x,-y,1/2+z
x,-y,1/2+z
-x,y,z
1/2+x,1/2+y,z
1/2-x,1/2-y,1/2+z
1/2+x,1/2-y,1/2+z
1/2-x,1/2+y,z
loop_
_atom_site_type_symbol
_atom_site_label
_atom_site_fract_x
_atom_site_fract_y
_atom_site_fract_z
Si Si1 0.500000 0.783338 0.668340
Si Si2 0.693173 0.933191 0.868057
Si Si3 0.880025 0.589156 0.753396
Si Si4 0.621002 0.575459 0.911671
Si Si5 0.623114 0.673342 0.074371
Si Si6 0.314714 0.728079 0.781174
Si Si7 0.181987 0.568535 0.125521
Si Si8 0.621649 0.896191 0.026228
O O1 0.406695 0.733367 0.721041
O O2 0.407111 0.845750 0.622840
O O3 0.704904 0.841868 0.810539
O O4 0.630614 0.024987 0.829027
O O5 0.802180 0.981518 0.895408
O O6 0.634387 0.889769 0.939044
O O7 0.792739 0.676503 0.753247
O O8 0.850378 0.506414 0.691547
O O9 0.000000 0.623397 0.742976
O O10 0.500000 0.544647 0.904200
O O11 0.647605 0.660257 0.850425
O O12 0.633560 0.622991 0.993084
O O13 0.500000 0.667294 0.095069
O O14 0.703132 0.617964 0.128892
O O15 0.654762 0.791151 0.064134
O O16 0.181056 0.494415 0.055448
O O17 0.500000 0.910750 0.045128
#
# Coordination Sequence:
#
# PCOD9352042 Si02
#       8
#     4   8   8   8   8   8   8   8
#     4  12  24  44  64  92 128 174 218 268 326 396
#     4  11  21  38  65  97 125 167 216 269 323 381
#     4  11  24  43  66  94 129 169 223 273 323 396
#     4  10  20  38  63  93 131 165 213 263 323 392
#     4  10  23  41  64  94 129 174 213 265 328 401
#     4  11  23  40  68  95 125 173 218 269 328 391
#     4  12  23  43  63  93 131 170 217 273 325 386
#     4  11  22  37  63  92 126 168 216 266 325 381
#
# _framework density 19.723815999999999
#
# number of rings (size 3 to 8) (size 9 to 14) (size 15 to 20)
#    0.000    1.067    6.000    0.400    2.800    0.533 
#    1.200    0.000    1.467    0.000    0.000    0.000 
#    0.000    0.000    0.000    0.000    0.000    0.000 
#
# Total GULP energy -167031.868116 kJ/mol
# GULP energy per Si atom -5567.728937 kJ/mol
# Density = 1.967892 g / cm^3
# Si number density = 19.723816 Si / 1000 Ang^3
#
#
#
# Elastic Constant Matrix: (Units=GPa)
#
#
# Indices 1 2 3 4 5 6 
#
# 1 153.6385 51.8777 27.6829 0.0000 0.0000 0.0000
# 2 51.8777 62.7130 -0.9560 0.0000 0.0000 0.0000
# 3 27.6829 -0.9560 38.3047 0.0000 0.0000 0.0000
# 4 0.0000 0.0000 0.0000 19.4694 0.0000 0.0000
# 5 0.0000 0.0000 0.0000 0.0000 28.3697 0.0000
# 6 0.0000 0.0000 0.0000 0.0000 0.0000 23.5336
#
#
#
# Elastic Compliance Matrix: (Units=1/GPa)
#
#
# Indices 1 2 3 4 5 6 
#
# 1 0.011167 -0.009364 -0.008304 0.000000 0.000000 0.000000
# 2 -0.009364 0.023804 0.007362 0.000000 0.000000 0.000000
# 3 -0.008304 0.007362 0.032292 0.000000 0.000000 0.000000
# 4 0.000000 0.000000 0.000000 0.051363 0.000000 0.000000
# 5 0.000000 0.000000 0.000000 0.000000 0.035249 0.000000
# 6 0.000000 0.000000 0.000000 0.000000 0.000000 0.042492
#
#
# Mechanical properties :
#
#
# Convention : Reuss Voigt Hill
#
# Bulk Modulus (GPa) = 21.43651 45.76279 33.59965
# Shear Modulus (GPa) = 21.50262 26.01130 23.75696
#
# Velocity S-wave (km/s) = 3.30538 3.63544 3.47433
# Velocity P-wave (km/s) = 5.04572 6.39328 5.75905
#
# Compressibility (1/GPa) = 0.04664938
#
# Stress axis : x y z
#
# Youngs Moduli (GPa) = 89.55011 42.00955 30.96783
#
# Poissons Ratio (x) = 0.39338 0.25716
# Poissons Ratio (y) = 0.83856 -0.22797
# Poissons Ratio (z) = 0.74363 -0.30926
#
# Static dielectric constant tensor:
#      x y z
#    x 1.663010 0.000000 0.000000 
#    y 0.000000 1.704950 0.000000 
#    z 0.000000 0.000000 1.743350 
# 
# From -- ./inp_files/15990.got.cif
#   From: 2010.05.17/outbox.cif.g08.bks.cpg/sg36_8_cif.got.tgz:15990.got - 2010.06.03 17:41:39.
