data_PCOD9352113
_publ_section_title
;
Structure prediction by ZEFSAII (Michael W. Deem and Ramdas Pophale) SiO2 
 PCOD9352113
Probable space group: C M C 21
;
_chemical_formula_sum "Si O2"
_cell_formula_units_Z 48
_cell_length_a 16.842980
_cell_length_b 11.688813
_cell_length_c 9.951586
_cell_angle_alpha 90.000000
_cell_angle_beta 90.000000
_cell_angle_gamma 90.000000
_cell_volume 1959.212957
_symmetry_space_group_name_H-M "C M C 21"
_symmetry_group_IT_number 36
_symmetry_cell_setting 'orthorhombic'
loop_
_space_group_symop_operation_xyz
x,y,z
-x,-y,1/2+z
x,-y,1/2+z
-x,y,z
1/2+x,1/2+y,z
1/2-x,1/2-y,1/2+z
1/2+x,1/2-y,1/2+z
1/2-x,1/2+y,z
loop_
_atom_site_type_symbol
_atom_site_label
_atom_site_fract_x
_atom_site_fract_y
_atom_site_fract_z
Si Si1 0.644229 0.627691 0.946730
Si Si2 0.592140 0.988379 0.098499
Si Si3 0.086402 0.128109 0.436252
Si Si4 0.296391 0.320475 0.724599
Si Si5 0.126824 0.746420 0.191297
Si Si6 0.695211 0.032697 0.838955
O O1 0.602977 0.506186 0.921917
O O2 0.610400 0.721547 0.845211
O O3 0.737564 0.608230 0.911081
O O4 0.644296 0.660033 0.101854
O O5 0.500000 0.956153 0.085008
O O6 0.596778 0.122425 0.145241
O O7 0.638196 0.923166 0.219083
O O8 0.640247 0.983268 0.958639
O O9 0.152661 0.199617 0.357700
O O10 0.091528 0.160537 0.591770
O O11 0.000000 0.157469 0.383333
O O12 0.222717 0.243475 0.678556
O O13 0.247826 0.436016 0.764215
#
# Coordination Sequence:
#
# PCOD9352113 Si02
#       6
#     8   8   8   8   8   8
#     4  11  22  41  65  94 126 177 222 268 331 400
#     4  11  23  41  65  95 134 175 218 279 344 400
#     4  11  24  41  65  99 136 170 218 284 344 393
#     4  10  22  40  66  97 125 176 228 270 325 406
#     4  11  23  41  66  94 130 175 223 274 331 405
#     4  10  20  40  63  95 129 171 225 273 327 404
#
# _framework density 24.499634
#
# number of rings (size 3 to 8) (size 9 to 14) (size 15 to 20)
#    0.000    1.333    3.333    4.000    2.333    3.333 
#    0.000    0.000    0.000    0.000    0.000    0.000 
#    0.000    0.000    0.000    0.000    0.000    0.000 
#
# Total GULP energy -134260.469391 kJ/mol
# GULP energy per Si atom -5594.186225 kJ/mol
# Density = 2.444387 g / cm^3
# Si number density = 24.499634 Si / 1000 Ang^3
#
#
#
# Elastic Constant Matrix: (Units=GPa)
#
#
# Indices 1 2 3 4 5 6 
#
# 1 96.3556 -5.7573 6.4975 0.0000 0.0000 0.0000
# 2 -5.7573 68.1490 8.4296 0.0000 0.0000 0.0000
# 3 6.4975 8.4296 140.7722 0.0000 0.0000 0.0000
# 4 0.0000 0.0000 0.0000 39.6088 0.0000 0.0000
# 5 0.0000 0.0000 0.0000 0.0000 19.3480 0.0000
# 6 0.0000 0.0000 0.0000 0.0000 0.0000 19.7322
#
#
#
# Elastic Compliance Matrix: (Units=1/GPa)
#
#
# Indices 1 2 3 4 5 6 
#
# 1 0.010472 0.000951 -0.000540 0.000000 0.000000 0.000000
# 2 0.000951 0.014870 -0.000934 0.000000 0.000000 0.000000
# 3 -0.000540 -0.000934 0.007185 0.000000 0.000000 0.000000
# 4 0.000000 0.000000 0.000000 0.025247 0.000000 0.000000
# 5 0.000000 0.000000 0.000000 0.000000 0.051685 0.000000
# 6 0.000000 0.000000 0.000000 0.000000 0.000000 0.050679
#
#
# Mechanical properties :
#
#
# Convention : Reuss Voigt Hill
#
# Bulk Modulus (GPa) = 31.76676 35.95737 33.86206
# Shear Modulus (GPa) = 29.12469 35.47828 32.30149
#
# Velocity S-wave (km/s) = 3.45161 3.80954 3.63498
# Velocity P-wave (km/s) = 5.37394 5.83598 5.60972
#
# Compressibility (1/GPa) = 0.03147945
#
# Stress axis : x y z
#
# Youngs Moduli (GPa) = 95.49725 67.25095 139.18735
#
# Poissons Ratio (x) = -0.06399 0.07520
# Poissons Ratio (y) = -0.09086 0.13005
# Poissons Ratio (z) = 0.05160 0.06283
#
# Static dielectric constant tensor:
#      x y z
#    x 1.915980 0.000000 0.000000 
#    y 0.000000 2.051290 0.000000 
#    z 0.000000 0.000000 1.915320 
# 
# From -- ./inp_files/4639.got.cif
#   From: 2010.05.17/outbox.cif.g08.bks.cpg/sg36_3_cif.got.tgz:4639.got - 2010.06.03 17:41:39.
