data_PCOD9352583
_publ_section_title
;
Structure prediction by ZEFSAII (Michael W. Deem and Ramdas Pophale) SiO2 
 PCOD9352583
Probable space group: C M C 21
;
_chemical_formula_sum "Si O2"
_cell_formula_units_Z 64
_cell_length_a 23.496844
_cell_length_b 8.897583
_cell_length_c 15.340447
_cell_angle_alpha 90.000000
_cell_angle_beta 90.000000
_cell_angle_gamma 90.000000
_cell_volume 3207.152389
_symmetry_space_group_name_H-M "C M C 21"
_symmetry_group_IT_number 36
_symmetry_cell_setting 'orthorhombic'
loop_
_space_group_symop_operation_xyz
x,y,z
-x,-y,1/2+z
x,-y,1/2+z
-x,y,z
1/2+x,1/2+y,z
1/2-x,1/2-y,1/2+z
1/2+x,1/2-y,1/2+z
1/2-x,1/2+y,z
loop_
_atom_site_type_symbol
_atom_site_label
_atom_site_fract_x
_atom_site_fract_y
_atom_site_fract_z
Si Si1 0.860750 0.634347 0.090580
Si Si2 0.254256 0.264643 0.354564
Si Si3 0.565189 0.859051 0.073649
Si Si4 0.566473 0.676363 0.253798
Si Si5 0.352941 0.629504 0.984345
Si Si6 0.652626 0.536407 0.666060
Si Si7 0.359509 0.315436 0.915601
Si Si8 0.221096 0.514490 0.231927
O O1 0.915952 0.530461 0.086017
O O2 0.861528 0.793185 0.140600
O O3 0.814272 0.530163 0.142078
O O4 0.852615 0.692264 0.991812
O O5 0.298549 0.321319 0.426868
O O6 0.206545 0.154410 0.393051
O O7 0.213688 0.382416 0.302562
O O8 0.287959 0.169022 0.283105
O O9 0.500000 0.844771 0.045695
O O10 0.570619 0.783741 0.169357
O O11 0.606078 0.769835 0.006421
O O12 0.500000 0.649121 0.271234
O O13 0.601827 0.530451 0.223377
O O14 0.599608 0.737052 0.338061
O O15 0.382230 0.481534 0.942154
O O16 0.338118 0.562391 0.078974
O O17 0.712530 0.511555 0.712481
#
# Coordination Sequence:
#
# PCOD9352583 Si02
#       8
#     8   8   8   8   8   8   8   8
#     4  11  25  39  66  92 129 178 218 272 331 387
#     4  12  22  38  62  93 136 167 213 262 319 388
#     4  10  24  46  67  91 126 170 222 274 333 395
#     4  10  21  42  69  91 123 172 220 276 333 394
#     4  10  23  39  62  91 127 167 209 263 326 388
#     4  10  21  41  59  92 130 169 220 259 324 400
#     4  11  23  41  61  97 131 168 217 270 323 397
#     4  12  23  38  62  93 136 173 213 262 325 389
#
# _framework density 19.955397000000001
#
# number of rings (size 3 to 8) (size 9 to 14) (size 15 to 20)
#    0.000    1.250    3.750    1.500    3.500    3.500 
#    0.000    2.500    0.000    0.000    0.000    0.000 
#    0.000    0.000    0.000    0.000    0.000    0.000 
#
# Total GULP energy -178261.440826 kJ/mol
# GULP energy per Si atom -5570.670026 kJ/mol
# Density = 1.990998 g / cm^3
# Si number density = 19.955397 Si / 1000 Ang^3
#
#
#
# Elastic Constant Matrix: (Units=GPa)
#
#
# Indices 1 2 3 4 5 6 
#
# 1 109.9380 34.4821 56.7992 0.0000 0.0000 0.0000
# 2 34.4821 74.2188 27.4791 0.0000 0.0000 0.0000
# 3 56.7992 27.4791 91.2516 0.0000 0.0000 0.0000
# 4 0.0000 0.0000 0.0000 13.9345 0.0000 0.0000
# 5 0.0000 0.0000 0.0000 0.0000 32.3342 0.0000
# 6 0.0000 0.0000 0.0000 0.0000 0.0000 23.5017
#
#
#
# Elastic Compliance Matrix: (Units=1/GPa)
#
#
# Indices 1 2 3 4 5 6 
#
# 1 0.014285 -0.003764 -0.007758 0.000000 0.000000 0.000000
# 2 -0.003764 0.016156 -0.002522 0.000000 0.000000 0.000000
# 3 -0.007758 -0.002522 0.016547 0.000000 0.000000 0.000000
# 4 0.000000 0.000000 0.000000 0.071764 0.000000 0.000000
# 5 0.000000 0.000000 0.000000 0.000000 0.030927 0.000000
# 6 0.000000 0.000000 0.000000 0.000000 0.000000 0.042550
#
#
# Mechanical properties :
#
#
# Convention : Reuss Voigt Hill
#
# Bulk Modulus (GPa) = 52.91170 56.99213 54.95192
# Shear Modulus (GPa) = 22.06349 24.39727 23.23038
#
# Velocity S-wave (km/s) = 3.32872 3.50035 3.41561
# Velocity P-wave (km/s) = 6.43012 6.70510 6.56905
#
# Compressibility (1/GPa) = 0.01889941
#
# Stress axis : x y z
#
# Youngs Moduli (GPa) = 70.00401 61.89490 60.43339
#
# Poissons Ratio (x) = 0.23300 0.46884
# Poissons Ratio (y) = 0.26352 0.15242
# Poissons Ratio (z) = 0.54309 0.15611
#
# Static dielectric constant tensor:
#      x y z
#    x 1.677090 0.000000 0.000000 
#    y 0.000000 1.743550 0.000000 
#    z 0.000000 0.000000 1.825870 
# 
# From -- ./inp_files/12996.got.cif
#   From: 2010.05.17/outbox.cif.g08.bks.cpg/sg36_7_cif.got.tgz:12996.got - 2010.06.03 17:41:39.
