data_PCOD9352862
_publ_section_title
;
Structure prediction by ZEFSAII (Michael W. Deem and Ramdas Pophale) SiO2 
 PCOD9352862
Probable space group: C M C 21
;
_chemical_formula_sum "Si O2"
_cell_formula_units_Z 56
_cell_length_a 23.365776
_cell_length_b 9.187403
_cell_length_c 13.098056
_cell_angle_alpha 90.000000
_cell_angle_beta 90.000000
_cell_angle_gamma 90.000000
_cell_volume 2811.770167
_symmetry_space_group_name_H-M "C M C 21"
_symmetry_group_IT_number 36
_symmetry_cell_setting 'orthorhombic'
loop_
_space_group_symop_operation_xyz
x,y,z
-x,-y,1/2+z
x,-y,1/2+z
-x,y,z
1/2+x,1/2+y,z
1/2-x,1/2-y,1/2+z
1/2+x,1/2-y,1/2+z
1/2-x,1/2+y,z
loop_
_atom_site_type_symbol
_atom_site_label
_atom_site_fract_x
_atom_site_fract_y
_atom_site_fract_z
Si Si1 0.347269 0.428730 0.965200
Si Si2 0.435269 0.199436 0.990356
Si Si3 0.065973 0.509799 0.293380
Si Si4 0.859210 0.732935 0.407481
Si Si5 0.761612 0.087261 0.654683
Si Si6 0.363436 0.033982 0.599959
Si Si7 0.738416 0.340520 0.804140
O O1 0.409366 0.357916 0.974832
O O2 0.353497 0.594694 0.926178
O O3 0.311780 0.324805 0.886764
O O4 0.311644 0.420346 0.071554
O O5 0.500000 0.202486 0.028504
O O6 0.434404 0.101476 0.888287
O O7 0.392716 0.114647 0.064759
O O8 0.093865 0.662863 0.330698
O O9 0.106789 0.439054 0.208112
O O10 0.000000 0.527727 0.259560
O O11 0.873329 0.658364 0.516164
O O12 0.798361 0.674453 0.363936
O O13 0.704389 0.019591 0.606949
O O14 0.742753 0.240741 0.703356
O O15 0.773710 0.997582 0.756780
#
# Coordination Sequence:
#
# PCOD9352862 Si02
#       7
#     8   8   8   8   8   8   8
#     4  12  26  41  65  98 137 177 222 276 348 405
#     4  10  24  43  66  94 130 176 225 276 325 391
#     4  10  22  43  71  96 125 178 232 275 327 398
#     4  11  24  41  63  96 135 172 218 282 339 393
#     4  12  24  38  65  95 135 174 219 272 339 403
#     4  11  21  40  66  94 130 171 221 274 327 397
#     4  12  24  40  60  97 135 170 219 275 337 407
#
# _framework density 19.916278999999999
#
# number of rings (size 3 to 8) (size 9 to 14) (size 15 to 20)
#    0.000    0.857    4.286    3.000    4.000    1.143 
#    0.000    0.000    0.000    2.571    0.000    0.000 
#    0.000    0.000    0.000    0.000    0.000    0.000 
#
# Total GULP energy -156247.935917 kJ/mol
# GULP energy per Si atom -5580.283426 kJ/mol
# Density = 1.987095 g / cm^3
# Si number density = 19.916279 Si / 1000 Ang^3
#
#
#
# Elastic Constant Matrix: (Units=GPa)
#
#
# Indices 1 2 3 4 5 6 
#
# 1 85.9803 41.5975 24.1824 0.0000 0.0000 0.0000
# 2 41.5975 86.8802 32.0887 0.0000 0.0000 0.0000
# 3 24.1824 32.0887 47.6653 0.0000 0.0000 0.0000
# 4 0.0000 0.0000 0.0000 27.9768 0.0000 0.0000
# 5 0.0000 0.0000 0.0000 0.0000 -19.8983 0.0000
# 6 0.0000 0.0000 0.0000 0.0000 0.0000 24.3212
#
#
#
# Elastic Compliance Matrix: (Units=1/GPa)
#
#
# Indices 1 2 3 4 5 6 
#
# 1 0.015651 -0.006070 -0.003854 0.000000 0.000000 0.000000
# 2 -0.006070 0.017673 -0.008818 0.000000 0.000000 0.000000
# 3 -0.003854 -0.008818 0.028871 0.000000 0.000000 0.000000
# 4 0.000000 0.000000 0.000000 0.035744 0.000000 0.000000
# 5 0.000000 0.000000 0.000000 0.000000 -0.050256 0.000000
# 6 0.000000 0.000000 0.000000 0.000000 0.000000 0.041116
#
#
# Mechanical properties :
#
#
# Convention : Reuss Voigt Hill
#
# Bulk Modulus (GPa) = 40.46741 46.25143 43.35942
# Shear Modulus (GPa) = 37.16841 14.65709 25.91275
#
# Velocity S-wave (km/s) = 4.32468 2.71576 3.61097
# Velocity P-wave (km/s) = 6.73053 5.75388 6.26127
#
# Compressibility (1/GPa) = 0.02471124
#
# Stress axis : x y z
#
# Youngs Moduli (GPa) = 63.89232 56.58205 34.63639
#
# Poissons Ratio (x) = 0.34347 0.13349
# Poissons Ratio (y) = 0.38784 0.30543
# Poissons Ratio (z) = 0.24624 0.49895
#
# Static dielectric constant tensor:
#      x y z
#    x 1.694670 0.000000 0.000000 
#    y 0.000000 1.749910 0.000000 
#    z 0.000000 0.000000 1.758990 
# 
# From -- ./inp_files/12841.got.cif
#   From: 2010.05.17/outbox.cif.g08.bks.cpg/sg36_7_cif.got.tgz:12841.got - 2010.06.03 17:41:39.
