data_PCOD9352174
_publ_section_title
;
Structure prediction by ZEFSAII (Michael W. Deem and Ramdas Pophale) SiO2 
 PCOD9352174
Probable space group: C M C 21
;
_chemical_formula_sum "Si O2"
_cell_formula_units_Z 32
_cell_length_a 11.701979
_cell_length_b 9.088274
_cell_length_c 10.468693
_cell_angle_alpha 90.000000
_cell_angle_beta 90.000000
_cell_angle_gamma 90.000000
_cell_volume 1113.353786
_symmetry_space_group_name_H-M "C M C 21"
_symmetry_group_IT_number 36
_symmetry_cell_setting 'orthorhombic'
loop_
_space_group_symop_operation_xyz
x,y,z
-x,-y,1/2+z
x,-y,1/2+z
-x,y,z
1/2+x,1/2+y,z
1/2-x,1/2-y,1/2+z
1/2+x,1/2-y,1/2+z
1/2-x,1/2+y,z
loop_
_atom_site_type_symbol
_atom_site_label
_atom_site_fract_x
_atom_site_fract_y
_atom_site_fract_z
Si Si1 0.500000 0.972939 0.876961
Si Si2 0.863985 0.901991 0.143155
Si Si3 0.500000 0.843497 0.132415
Si Si4 0.217936 0.363071 0.496206
Si Si5 0.366930 0.349340 0.813375
O O1 0.389688 0.055241 0.932966
O O2 0.500000 0.007580 0.723148
O O3 0.500000 0.836710 0.978542
O O4 0.829634 0.735438 0.115240
O O5 0.000000 0.912571 0.139908
O O6 0.806698 0.014863 0.041817
O O7 0.832723 0.987148 0.273062
O O8 0.606369 0.751822 0.188367
O O9 0.230221 0.231060 0.394063
O O10 0.500000 0.353006 0.868485
#
# Coordination Sequence:
#
# PCOD9352174 Si02
#       5
#     4   8   4   8   8
#     4  10  20  43  70 104 142 184 234 286 353 415
#     4  11  24  43  68  99 135 178 229 280 345 417
#     4   8  18  37  68  98 142 180 222 294 339 413
#     4  11  23  43  72  95 140 181 227 290 347 410
#     4   8  19  42  67  94 142 176 221 292 342 405
#
# _framework density 28.741985
#
# number of rings (size 3 to 8) (size 9 to 14) (size 15 to 20)
#    0.750    1.500    2.500    0.000    3.500    2.000 
#    4.500    2.500    2.750    0.000    0.000    0.000 
#    0.000    0.000    0.000    0.000    0.000    0.000 
#
# Total GULP energy -89260.250156 kJ/mol
# GULP energy per Si atom -5578.765635 kJ/mol
# Density = 2.867657 g / cm^3
# Si number density = 28.741985 Si / 1000 Ang^3
#
#
#
# Elastic Constant Matrix: (Units=GPa)
#
#
# Indices 1 2 3 4 5 6 
#
# 1 145.5342 39.0035 12.8309 0.0000 0.0000 0.0000
# 2 39.0035 129.2344 1.2735 0.0000 0.0000 0.0000
# 3 12.8309 1.2735 23.4767 0.0000 0.0000 0.0000
# 4 0.0000 0.0000 0.0000 64.0648 0.0000 0.0000
# 5 0.0000 0.0000 0.0000 0.0000 38.4351 0.0000
# 6 0.0000 0.0000 0.0000 0.0000 0.0000 40.1641
#
#
#
# Elastic Compliance Matrix: (Units=1/GPa)
#
#
# Indices 1 2 3 4 5 6 
#
# 1 0.007864 -0.002332 -0.004171 0.000000 0.000000 0.000000
# 2 -0.002332 0.008434 0.000817 0.000000 0.000000 0.000000
# 3 -0.004171 0.000817 0.044831 0.000000 0.000000 0.000000
# 4 0.000000 0.000000 0.000000 0.015609 0.000000 0.000000
# 5 0.000000 0.000000 0.000000 0.000000 0.026018 0.000000
# 6 0.000000 0.000000 0.000000 0.000000 0.000000 0.024898
#
#
# Mechanical properties :
#
#
# Convention : Reuss Voigt Hill
#
# Bulk Modulus (GPa) = 20.09828 44.94012 32.51920
# Shear Modulus (GPa) = 32.13120 44.87528 38.50324
#
# Velocity S-wave (km/s) = 3.34716 3.95563 3.66405
# Velocity P-wave (km/s) = 4.68463 6.04420 5.40732
#
# Compressibility (1/GPa) = 0.04975550
#
# Stress axis : x y z
#
# Youngs Moduli (GPa) = 127.16049 118.57164 22.30605
#
# Poissons Ratio (x) = 0.27654 0.09305
# Poissons Ratio (y) = 0.29658 -0.01823
# Poissons Ratio (z) = 0.53045 -0.09690
#
# Static dielectric constant tensor:
#      x y z
#    x 2.160560 0.000000 0.000000 
#    y 0.000000 2.400350 0.000000 
#    z 0.000000 0.000000 2.716870 
# 
# From -- ./inp_files/11292.got.cif
#   From: 2010.05.17/outbox.cif.g08.bks.cpg/sg36_6_cif.got.tgz:11292.got - 2010.06.03 17:41:39.
