data_PCOD9352698
_publ_section_title
;
Structure prediction by ZEFSAII (Michael W. Deem and Ramdas Pophale) SiO2 
 PCOD9352698
Probable space group: C M C 21
;
_chemical_formula_sum "Si O2"
_cell_formula_units_Z 40
_cell_length_a 20.327819
_cell_length_b 8.428372
_cell_length_c 10.993000
_cell_angle_alpha 90.000000
_cell_angle_beta 90.000000
_cell_angle_gamma 90.000000
_cell_volume 1883.435312
_symmetry_space_group_name_H-M "C M C 21"
_symmetry_group_IT_number 36
_symmetry_cell_setting 'orthorhombic'
loop_
_space_group_symop_operation_xyz
x,y,z
-x,-y,1/2+z
x,-y,1/2+z
-x,y,z
1/2+x,1/2+y,z
1/2-x,1/2-y,1/2+z
1/2+x,1/2-y,1/2+z
1/2-x,1/2+y,z
loop_
_atom_site_type_symbol
_atom_site_label
_atom_site_fract_x
_atom_site_fract_y
_atom_site_fract_z
Si Si1 0.646854 0.674711 0.734780
Si Si2 0.425932 0.460651 0.909699
Si Si3 0.577330 0.137164 0.015573
Si Si4 0.317159 0.883718 0.963896
Si Si5 0.698317 0.436745 0.564253
O O1 0.589511 0.563902 0.791367
O O2 0.616155 0.784869 0.629543
O O3 0.678024 0.786567 0.838192
O O4 0.697874 0.543814 0.684069
O O5 0.500000 0.490738 0.951844
O O6 0.417938 0.269953 0.908182
O O7 0.371012 0.519294 0.002825
O O8 0.500000 0.114203 0.042001
O O9 0.615013 0.977399 0.981635
O O10 0.303185 0.751852 0.067876
O O11 0.257953 0.007488 0.978577
#
# Coordination Sequence:
#
# PCOD9352698 Si02
#       5
#     8   8   8   8   8
#     4  10  22  41  66  88 123 167 204 255 319 367
#     4   9  19  37  61  89 120 156 201 249 301 365
#     4  10  22  40  63  95 129 161 207 256 302 368
#     4  11  24  41  63  91 125 163 210 260 307 368
#     4  10  22  39  61  91 122 159 206 256 306 368
#
# _framework density 21.237786
#
# number of rings (size 3 to 8) (size 9 to 14) (size 15 to 20)
#    0.000    2.000    0.000    3.000    0.000   12.800 
#    0.000    2.000    0.000    0.000    0.000    0.000 
#    0.000    0.000    0.000    0.000    0.000    0.000 
#
# Total GULP energy -111551.770898 kJ/mol
# GULP energy per Si atom -5577.588545 kJ/mol
# Density = 2.118945 g / cm^3
# Si number density = 21.237786 Si / 1000 Ang^3
#
#
#
# Elastic Constant Matrix: (Units=GPa)
#
#
# Indices 1 2 3 4 5 6 
#
# 1 88.2937 31.9641 2.9400 0.0000 0.0000 0.0000
# 2 31.9641 113.2504 20.5043 0.0000 0.0000 0.0000
# 3 2.9400 20.5043 48.0806 0.0000 0.0000 0.0000
# 4 0.0000 0.0000 0.0000 14.4049 0.0000 0.0000
# 5 0.0000 0.0000 0.0000 0.0000 24.6756 0.0000
# 6 0.0000 0.0000 0.0000 0.0000 0.0000 41.5382
#
#
#
# Elastic Compliance Matrix: (Units=1/GPa)
#
#
# Indices 1 2 3 4 5 6 
#
# 1 0.012644 -0.003716 0.000811 0.000000 0.000000 0.000000
# 2 -0.003716 0.010661 -0.004319 0.000000 0.000000 0.000000
# 3 0.000811 -0.004319 0.022591 0.000000 0.000000 0.000000
# 4 0.000000 0.000000 0.000000 0.069421 0.000000 0.000000
# 5 0.000000 0.000000 0.000000 0.000000 0.040526 0.000000
# 6 0.000000 0.000000 0.000000 0.000000 0.000000 0.024074
#
#
# Mechanical properties :
#
#
# Convention : Reuss Voigt Hill
#
# Bulk Modulus (GPa) = 31.79781 40.04906 35.92343
# Shear Modulus (GPa) = 24.40861 29.07148 26.74004
#
# Velocity S-wave (km/s) = 3.39381 3.70382 3.55220
# Velocity P-wave (km/s) = 5.51018 6.09831 5.81169
#
# Compressibility (1/GPa) = 0.03144871
#
# Stress axis : x y z
#
# Youngs Moduli (GPa) = 79.08938 93.80282 44.26600
#
# Poissons Ratio (x) = 0.34853 -0.03592
# Poissons Ratio (y) = 0.29386 0.19119
# Poissons Ratio (z) = -0.06417 0.40514
#
# Static dielectric constant tensor:
#      x y z
#    x 1.735950 0.000000 0.000000 
#    y 0.000000 1.803800 0.000000 
#    z 0.000000 0.000000 1.843560 
# 
# From -- ./inp_files/8776.got.cif
#   From: 2010.05.17/outbox.cif.g08.bks.cpg/sg36_5_cif.got.tgz:8776.got - 2010.06.03 17:41:39.
