data_PCOD9352540
_publ_section_title
;
Structure prediction by ZEFSAII (Michael W. Deem and Ramdas Pophale) SiO2 
 PCOD9352540
Probable space group: C M C 21
;
_chemical_formula_sum "Si O2"
_cell_formula_units_Z 44
_cell_length_a 10.459472
_cell_length_b 20.924224
_cell_length_c 10.523654
_cell_angle_alpha 90.000000
_cell_angle_beta 90.000000
_cell_angle_gamma 90.000000
_cell_volume 2303.168346
_symmetry_space_group_name_H-M "C M C 21"
_symmetry_group_IT_number 36
_symmetry_cell_setting 'orthorhombic'
loop_
_space_group_symop_operation_xyz
x,y,z
-x,-y,1/2+z
x,-y,1/2+z
-x,y,z
1/2+x,1/2+y,z
1/2-x,1/2-y,1/2+z
1/2+x,1/2-y,1/2+z
1/2-x,1/2+y,z
loop_
_atom_site_type_symbol
_atom_site_label
_atom_site_fract_x
_atom_site_fract_y
_atom_site_fract_z
Si Si1 0.642323 0.820702 0.557710
Si Si2 0.000000 0.920082 0.113256
Si Si3 0.774549 0.175685 0.534050
Si Si4 0.000000 0.599077 0.874915
Si Si5 0.000000 0.543541 0.362329
Si Si6 0.000000 0.361663 0.099384
Si Si7 0.253505 0.602002 0.272030
Si Si8 0.500000 0.479886 0.833976
O O1 0.500000 0.824651 0.621083
O O2 0.671962 0.747139 0.535775
O O3 0.619427 0.860717 0.429128
O O4 0.742506 0.856577 0.645444
O O5 0.124879 0.874396 0.096244
O O6 0.000000 0.954662 0.250975
O O7 0.000000 0.969823 0.990042
O O8 0.633744 0.175873 0.596245
O O9 0.757124 0.150683 0.390435
O O10 0.000000 0.526910 0.921016
O O11 0.000000 0.596474 0.725246
O O12 0.872230 0.557821 0.283631
O O13 0.000000 0.593377 0.477248
O O14 0.375828 0.557849 0.285721
#
# Coordination Sequence:
#
# PCOD9352540 Si02
#       8
#     8   4   8   4   4   4   8   4
#     4  10  22  39  62  89 119 161 202 246 309 359
#     4  10  21  45  63  91 125 174 192 260 312 372
#     4  10  22  42  65  87 126 163 204 251 313 363
#     4  10  24  36  62  97 121 158 203 259 303 361
#     4  10  21  40  63  89 127 159 207 250 309 363
#     4  10  24  38  62  99 116 162 210 257 298 366
#     4  10  22  41  63  89 123 166 199 256 307 366
#     4  10  24  39  64  90 129 159 214 244 320 368
#
# _framework density 19.104116999999999
#
# number of rings (size 3 to 8) (size 9 to 14) (size 15 to 20)
#    0.545    1.455    1.818    0.000    7.636    3.636 
#    0.000    0.000    0.000    1.091    0.000    0.000 
#    0.000    0.000    0.000    0.000    0.000    0.000 
#
# Total GULP energy -122586.838781 kJ/mol
# GULP energy per Si atom -5572.129036 kJ/mol
# Density = 1.906064 g / cm^3
# Si number density = 19.104117 Si / 1000 Ang^3
#
#
#
# Elastic Constant Matrix: (Units=GPa)
#
#
# Indices 1 2 3 4 5 6 
#
# 1 106.5812 23.5798 11.3385 0.0000 0.0000 0.0000
# 2 23.5798 98.2151 10.5457 0.0000 0.0000 0.0000
# 3 11.3385 10.5457 28.5536 0.0000 0.0000 0.0000
# 4 0.0000 0.0000 0.0000 23.5036 0.0000 0.0000
# 5 0.0000 0.0000 0.0000 0.0000 39.0451 0.0000
# 6 0.0000 0.0000 0.0000 0.0000 0.0000 14.0707
#
#
#
# Elastic Compliance Matrix: (Units=1/GPa)
#
#
# Indices 1 2 3 4 5 6 
#
# 1 0.010195 -0.002096 -0.003274 0.000000 0.000000 0.000000
# 2 -0.002096 0.011033 -0.003243 0.000000 0.000000 0.000000
# 3 -0.003274 -0.003243 0.037520 0.000000 0.000000 0.000000
# 4 0.000000 0.000000 0.000000 0.042547 0.000000 0.000000
# 5 0.000000 0.000000 0.000000 0.000000 0.025611 0.000000
# 6 0.000000 0.000000 0.000000 0.000000 0.000000 0.071070
#
#
# Mechanical properties :
#
#
# Convention : Reuss Voigt Hill
#
# Bulk Modulus (GPa) = 24.08365 36.03086 30.05726
# Shear Modulus (GPa) = 21.83017 27.84961 24.83989
#
# Velocity S-wave (km/s) = 3.38404 3.82223 3.60979
# Velocity P-wave (km/s) = 5.28232 6.19520 5.75688
#
# Compressibility (1/GPa) = 0.04152195
#
# Stress axis : x y z
#
# Youngs Moduli (GPa) = 98.09171 90.63625 26.65277
#
# Poissons Ratio (x) = 0.18997 0.08726
# Poissons Ratio (y) = 0.20560 0.08642
# Poissons Ratio (z) = 0.32116 0.29389
#
# Static dielectric constant tensor:
#      x y z
#    x 1.675600 0.000000 0.000000 
#    y 0.000000 1.631120 0.000000 
#    z 0.000000 0.000000 1.667870 
# 
# From -- ./inp_files/7668.got.cif
#   From: 2010.05.17/outbox.cif.g08.bks.cpg/sg36_4_cif.got.tgz:7668.got - 2010.06.03 17:41:39.
