data_PCOD9352888
_publ_section_title
;
Structure prediction by ZEFSAII (Michael W. Deem and Ramdas Pophale) SiO2 
 PCOD9352888
Probable space group: C M C 21
;
_chemical_formula_sum "Si O2"
_cell_formula_units_Z 60
_cell_length_a 29.233389
_cell_length_b 9.305997
_cell_length_c 11.264478
_cell_angle_alpha 90.000000
_cell_angle_beta 90.000000
_cell_angle_gamma 90.000000
_cell_volume 3064.454271
_symmetry_space_group_name_H-M "C M C 21"
_symmetry_group_IT_number 36
_symmetry_cell_setting 'orthorhombic'
loop_
_space_group_symop_operation_xyz
x,y,z
-x,-y,1/2+z
x,-y,1/2+z
-x,y,z
1/2+x,1/2+y,z
1/2-x,1/2-y,1/2+z
1/2+x,1/2-y,1/2+z
1/2-x,1/2+y,z
loop_
_atom_site_type_symbol
_atom_site_label
_atom_site_fract_x
_atom_site_fract_y
_atom_site_fract_z
Si Si1 0.000000 0.752216 0.373250
Si Si2 0.585504 0.393019 0.515653
Si Si3 0.700403 0.914868 0.095541
Si Si4 0.611372 0.796926 0.228863
Si Si5 0.341034 0.219497 0.369769
Si Si6 0.388372 0.285566 0.003010
Si Si7 0.794535 0.754037 0.138976
Si Si8 0.921884 0.400585 0.713132
O O1 0.959267 0.824846 0.456150
O O2 0.960898 0.677156 0.286647
O O3 0.594078 0.334558 0.648344
O O4 0.629427 0.337053 0.440401
O O5 0.585242 0.564299 0.513883
O O6 0.660669 0.849259 0.179595
O O7 0.747519 0.829411 0.106390
O O8 0.708139 0.082064 0.122004
O O9 0.681484 0.887740 0.963328
O O10 0.614087 0.760307 0.366756
O O11 0.576040 0.928041 0.206868
O O12 0.305591 0.285992 0.276948
O O13 0.376055 0.133005 0.287285
O O14 0.337810 0.303717 0.059808
O O15 0.413994 0.166795 0.083395
#
# Coordination Sequence:
#
# PCOD9352888 Si02
#       8
#     4   8   8   8   8   8   8   8
#     4  10  24  46  76  96 136 164 224 284 332 412
#     4  10  25  44  70  99 134 177 220 281 348 406
#     4  11  24  39  63  99 130 181 232 286 330 394
#     4  11  24  44  71  97 141 182 229 275 349 410
#     4   9  21  42  64  86 137 171 219 279 338 395
#     4  11  25  44  70  98 139 186 228 271 354 409
#     4  11  25  38  64  94 134 177 234 279 334 393
#     4  10  22  45  72  95 130 181 218 279 344 407
#
# _framework density 19.579342
#
# number of rings (size 3 to 8) (size 9 to 14) (size 15 to 20)
#    0.000    1.600    2.667    0.800   14.933    1.067 
#    0.000    1.333    0.000    0.000    0.000    0.000 
#    0.000    0.000    0.000    0.000    0.000    0.000 
#
# Total GULP energy -167067.237416 kJ/mol
# GULP energy per Si atom -5568.907914 kJ/mol
# Density = 1.953478 g / cm^3
# Si number density = 19.579342 Si / 1000 Ang^3
#
#
#
# Elastic Constant Matrix: (Units=GPa)
#
#
# Indices 1 2 3 4 5 6 
#
# 1 104.8323 19.3992 37.6067 0.0000 0.0000 0.0000
# 2 19.3992 50.3529 41.8117 0.0000 0.0000 0.0000
# 3 37.6067 41.8117 145.6201 0.0000 0.0000 0.0000
# 4 0.0000 0.0000 0.0000 15.7934 0.0000 0.0000
# 5 0.0000 0.0000 0.0000 0.0000 10.6091 0.0000
# 6 0.0000 0.0000 0.0000 0.0000 0.0000 -7.8064
#
#
#
# Elastic Compliance Matrix: (Units=1/GPa)
#
#
# Indices 1 2 3 4 5 6 
#
# 1 0.010731 -0.002407 -0.002080 0.000000 0.000000 0.000000
# 2 -0.002407 0.026617 -0.007021 0.000000 0.000000 0.000000
# 3 -0.002080 -0.007021 0.009420 0.000000 0.000000 0.000000
# 4 0.000000 0.000000 0.000000 0.063318 0.000000 0.000000
# 5 0.000000 0.000000 0.000000 0.000000 0.094258 0.000000
# 6 0.000000 0.000000 0.000000 0.000000 0.000000 -0.128100
#
#
# Mechanical properties :
#
#
# Convention : Reuss Voigt Hill
#
# Bulk Modulus (GPa) = 42.10140 55.38229 48.74184
# Shear Modulus (GPa) = 46.65156 17.18507 31.91832
#
# Velocity S-wave (km/s) = 4.88658 2.96584 4.04196
# Velocity P-wave (km/s) = 7.30670 6.33054 6.83607
#
# Compressibility (1/GPa) = 0.02375218
#
# Stress axis : x y z
#
# Youngs Moduli (GPa) = 93.19108 37.56977 106.15360
#
# Poissons Ratio (x) = 0.09042 0.22081
# Poissons Ratio (y) = 0.22430 0.74530
# Poissons Ratio (z) = 0.19385 0.26378
#
# Static dielectric constant tensor:
#      x y z
#    x 1.678540 0.000000 0.000000 
#    y 0.000000 1.727630 0.000000 
#    z 0.000000 0.000000 1.686290 
# 
# From -- ./inp_files/9709.got.cif
#   From: 2010.05.17/outbox.cif.g08.bks.cpg/sg36_5_cif.got.tgz:9709.got - 2010.06.03 17:41:39.
