data_PCOD9352482
_publ_section_title
;
Structure prediction by ZEFSAII (Michael W. Deem and Ramdas Pophale) SiO2 
 PCOD9352482
Probable space group: C M C 21
;
_chemical_formula_sum "Si O2"
_cell_formula_units_Z 56
_cell_length_a 19.584803
_cell_length_b 12.011527
_cell_length_c 11.092860
_cell_angle_alpha 90.000000
_cell_angle_beta 90.000000
_cell_angle_gamma 90.000000
_cell_volume 2609.521991
_symmetry_space_group_name_H-M "C M C 21"
_symmetry_group_IT_number 36
_symmetry_cell_setting 'orthorhombic'
loop_
_space_group_symop_operation_xyz
x,y,z
-x,-y,1/2+z
x,-y,1/2+z
-x,y,z
1/2+x,1/2+y,z
1/2-x,1/2-y,1/2+z
1/2+x,1/2-y,1/2+z
1/2-x,1/2+y,z
loop_
_atom_site_type_symbol
_atom_site_label
_atom_site_fract_x
_atom_site_fract_y
_atom_site_fract_z
Si Si1 0.763576 0.938573 0.314120
Si Si2 0.295538 0.737915 0.008974
Si Si3 0.131907 0.046544 0.145182
Si Si4 0.613974 0.038419 0.719300
Si Si5 0.920292 0.591869 0.465051
Si Si6 0.179256 0.879711 0.975408
Si Si7 0.572434 0.279577 0.801858
O O1 0.772356 0.824865 0.386961
O O2 0.695267 0.948942 0.236861
O O3 0.831308 0.966850 0.240100
O O4 0.765710 0.040579 0.409631
O O5 0.229141 0.804159 0.055167
O O6 0.315490 0.641877 0.102226
O O7 0.362808 0.812119 0.983021
O O8 0.074101 0.119138 0.206322
O O9 0.124332 0.963847 0.033602
O O10 0.594390 0.009985 0.580776
O O11 0.582261 0.160939 0.739525
O O12 0.589753 0.963691 0.832829
O O13 0.000000 0.627749 0.473572
O O14 0.136270 0.802828 0.887091
O O15 0.500000 0.279161 0.867182
#
# Coordination Sequence:
#
# PCOD9352482 Si02
#       7
#     8   8   8   8   8   8   8
#     4  10  22  38  62 101 129 169 222 285 335 396
#     4  11  21  41  65  95 135 176 218 281 343 400
#     4  10  23  38  64  95 126 172 228 274 338 401
#     4  12  24  44  72 101 140 178 229 283 345 416
#     4  12  26  45  70 102 140 183 229 283 349 417
#     4  10  21  39  62  96 124 172 228 277 329 401
#     4  11  23  41  63  92 134 178 216 271 347 413
#
# _framework density 21.459866999999999
#
# number of rings (size 3 to 8) (size 9 to 14) (size 15 to 20)
#    0.000    1.143    4.286    2.143    2.000    0.571 
#    2.571    5.714    0.000    0.000    0.000    0.000 
#    0.000    0.000    0.000    0.000    0.000    0.000 
#
# Total GULP energy -156126.460174 kJ/mol
# GULP energy per Si atom -5575.945006 kJ/mol
# Density = 2.141102 g / cm^3
# Si number density = 21.459867 Si / 1000 Ang^3
#
#
#
# Elastic Constant Matrix: (Units=GPa)
#
#
# Indices 1 2 3 4 5 6 
#
# 1 94.5285 12.1881 -1.0146 0.0000 0.0000 0.0000
# 2 12.1881 51.6451 6.3472 0.0000 0.0000 0.0000
# 3 -1.0146 6.3472 56.9559 0.0000 0.0000 0.0000
# 4 0.0000 0.0000 0.0000 35.7342 0.0000 0.0000
# 5 0.0000 0.0000 0.0000 0.0000 12.6467 0.0000
# 6 0.0000 0.0000 0.0000 0.0000 0.0000 -1.8261
#
#
#
# Elastic Compliance Matrix: (Units=1/GPa)
#
#
# Indices 1 2 3 4 5 6 
#
# 1 0.010924 -0.002638 0.000489 0.000000 0.000000 0.000000
# 2 -0.002638 0.020269 -0.002306 0.000000 0.000000 0.000000
# 3 0.000489 -0.002306 0.017823 0.000000 0.000000 0.000000
# 4 0.000000 0.000000 0.000000 0.027984 0.000000 0.000000
# 5 0.000000 0.000000 0.000000 0.000000 0.079072 0.000000
# 6 0.000000 0.000000 0.000000 0.000000 0.000000 -0.547616
#
#
# Mechanical properties :
#
#
# Convention : Reuss Voigt Hill
#
# Bulk Modulus (GPa) = 24.93417 26.46343 25.69880
# Shear Modulus (GPa) = -13.54046 21.68487 4.07220
#
# Velocity S-wave (km/s) = -2.51463 3.18226 1.37902
# Velocity P-wave (km/s) = 1.79250 5.08535 3.81273
#
# Compressibility (1/GPa) = 0.04010561
#
# Stress axis : x y z
#
# Youngs Moduli (GPa) = 91.53978 49.33666 56.10692
#
# Poissons Ratio (x) = 0.13016 -0.02741
# Poissons Ratio (y) = 0.24149 0.12937
# Poissons Ratio (z) = -0.04473 0.11376
#
# Static dielectric constant tensor:
#      x y z
#    x 1.753070 0.000000 0.000000 
#    y 0.000000 1.783090 0.000000 
#    z 0.000000 0.000000 1.900610 
# 
# From -- ./inp_files/9245.got.cif
#   From: 2010.05.17/outbox.cif.g08.bks.cpg/sg36_5_cif.got.tgz:9245.got - 2010.06.03 17:41:39.
