data_PCOD9352559
_publ_section_title
;
Structure prediction by ZEFSAII (Michael W. Deem and Ramdas Pophale) SiO2 
 PCOD9352559
Probable space group: C M C 21
;
_chemical_formula_sum "Si O2"
_cell_formula_units_Z 48
_cell_length_a 15.074225
_cell_length_b 9.798627
_cell_length_c 12.074549
_cell_angle_alpha 90.000000
_cell_angle_beta 90.000000
_cell_angle_gamma 90.000000
_cell_volume 1783.491884
_symmetry_space_group_name_H-M "C M C 21"
_symmetry_group_IT_number 36
_symmetry_cell_setting 'orthorhombic'
loop_
_space_group_symop_operation_xyz
x,y,z
-x,-y,1/2+z
x,-y,1/2+z
-x,y,z
1/2+x,1/2+y,z
1/2-x,1/2-y,1/2+z
1/2+x,1/2-y,1/2+z
1/2-x,1/2+y,z
loop_
_atom_site_type_symbol
_atom_site_label
_atom_site_fract_x
_atom_site_fract_y
_atom_site_fract_z
Si Si1 0.390249 0.472008 0.482400
Si Si2 0.826342 0.702328 0.194449
Si Si3 0.151475 0.377953 0.236315
Si Si4 0.600288 0.529285 0.737348
Si Si5 0.397304 0.881603 0.474090
Si Si6 0.598945 0.173285 0.499754
O O1 0.500000 0.482392 0.483637
O O2 0.363581 0.524133 0.357726
O O3 0.362203 0.505552 0.611006
O O4 0.358682 0.315626 0.473564
O O5 0.831896 0.542717 0.227915
O O6 0.738403 0.784771 0.225013
O O7 0.899408 0.804971 0.244046
O O8 0.843709 0.703020 0.062638
O O9 0.105219 0.337464 0.349195
O O10 0.093882 0.338001 0.131488
O O11 0.500000 0.477615 0.731769
O O12 0.500000 0.887800 0.513099
O O13 0.354852 0.032788 0.469561
O O14 0.500000 0.169288 0.451797
#
# Coordination Sequence:
#
# PCOD9352559 Si02
#       6
#     8   8   8   8   8   8
#     4   9  19  35  62  96 131 174 225 294 364 418
#     4  11  26  44  66 104 145 190 236 295 369 431
#     4  11  25  43  68 102 139 190 233 297 365 437
#     4  10  21  40  65  96 135 184 243 300 360 430
#     4  10  22  44  75 104 136 187 250 304 354 432
#     4   9  19  38  66  98 131 175 239 300 351 418
#
# _framework density 26.913495000000001
#
# number of rings (size 3 to 8) (size 9 to 14) (size 15 to 20)
#    0.000    2.000    0.000    2.000    2.333    8.667 
#    3.000    3.333    0.000    0.000    0.000    0.000 
#    0.000    0.000    0.000    0.000    0.000    0.000 
#
# Total GULP energy -133923.222745 kJ/mol
# GULP energy per Si atom -5580.134281 kJ/mol
# Density = 2.685224 g / cm^3
# Si number density = 26.913495 Si / 1000 Ang^3
#
#
#
# Elastic Constant Matrix: (Units=GPa)
#
#
# Indices 1 2 3 4 5 6 
#
# 1 52.3435 -22.7202 4.1519 0.0000 0.0000 0.0000
# 2 -22.7202 98.1009 26.0512 0.0000 0.0000 0.0000
# 3 4.1519 26.0512 253.0079 0.0000 0.0000 0.0000
# 4 0.0000 0.0000 0.0000 7.7562 0.0000 0.0000
# 5 0.0000 0.0000 0.0000 0.0000 61.4793 0.0000
# 6 0.0000 0.0000 0.0000 0.0000 0.0000 17.7638
#
#
#
# Elastic Compliance Matrix: (Units=1/GPa)
#
#
# Indices 1 2 3 4 5 6 
#
# 1 0.021432 0.005199 -0.000887 0.000000 0.000000 0.000000
# 2 0.005199 0.011741 -0.001294 0.000000 0.000000 0.000000
# 3 -0.000887 -0.001294 0.004100 0.000000 0.000000 0.000000
# 4 0.000000 0.000000 0.000000 0.128928 0.000000 0.000000
# 5 0.000000 0.000000 0.000000 0.000000 0.016266 0.000000
# 6 0.000000 0.000000 0.000000 0.000000 0.000000 0.056294
#
#
# Mechanical properties :
#
#
# Convention : Reuss Voigt Hill
#
# Bulk Modulus (GPa) = 23.08988 46.49088 34.79038
# Shear Modulus (GPa) = 20.22962 43.79783 32.01372
#
# Velocity S-wave (km/s) = 2.74460 4.03843 3.45266
# Velocity P-wave (km/s) = 4.31761 6.24955 5.37115
#
# Compressibility (1/GPa) = 0.04330902
#
# Stress axis : x y z
#
# Youngs Moduli (GPa) = 46.65993 85.16857 243.88644
#
# Poissons Ratio (x) = -0.44280 0.21633
# Poissons Ratio (y) = -0.24259 0.31566
# Poissons Ratio (z) = 0.04139 0.11023
#
# Static dielectric constant tensor:
#      x y z
#    x 2.082290 0.000000 0.000000 
#    y 0.000000 2.133670 0.000000 
#    z 0.000000 0.000000 2.138260 
# 
# From -- ./inp_files/8860.got.cif
#   From: 2010.05.17/outbox.cif.g08.bks.cpg/sg36_5_cif.got.tgz:8860.got - 2010.06.03 17:41:39.
