data_PCOD9352404
_publ_section_title
;
Structure prediction by ZEFSAII (Michael W. Deem and Ramdas Pophale) SiO2 
 PCOD9352404
Probable space group: C M C 21
;
_chemical_formula_sum "Si O2"
_cell_formula_units_Z 40
_cell_length_a 10.167813
_cell_length_b 23.300687
_cell_length_c 7.609229
_cell_angle_alpha 90.000000
_cell_angle_beta 90.000000
_cell_angle_gamma 90.000000
_cell_volume 1802.755921
_symmetry_space_group_name_H-M "C M C 21"
_symmetry_group_IT_number 36
_symmetry_cell_setting 'orthorhombic'
loop_
_space_group_symop_operation_xyz
x,y,z
-x,-y,1/2+z
x,-y,1/2+z
-x,y,z
1/2+x,1/2+y,z
1/2-x,1/2-y,1/2+z
1/2+x,1/2-y,1/2+z
1/2-x,1/2+y,z
loop_
_atom_site_type_symbol
_atom_site_label
_atom_site_fract_x
_atom_site_fract_y
_atom_site_fract_z
Si Si1 0.850908 0.239381 0.498230
Si Si2 0.225629 0.574693 0.750037
Si Si3 0.648744 0.041293 0.132129
Si Si4 0.850961 0.357571 0.908470
Si Si5 0.859910 0.819598 0.375915
O O1 0.761707 0.190328 0.407483
O O2 0.859342 0.217811 0.697931
O O3 0.767213 0.297557 0.480140
O O4 0.000000 0.245278 0.430082
O O5 0.245329 0.512191 0.664543
O O6 0.154569 0.612388 0.600480
O O7 0.344704 0.615037 0.812436
O O8 0.153416 0.562196 0.932895
O O9 0.500000 0.020056 0.168721
O O10 0.674610 0.093090 0.265493
O O11 0.000000 0.335176 0.880084
O O12 0.000000 0.811070 0.468551
#
# Coordination Sequence:
#
# PCOD9352404 Si02
#       5
#     8   8   8   8   8
#     4  10  23  42  65  92 124 164 210 263 322 386
#     4  11  22  38  61  93 126 168 211 266 311 375
#     4  11  21  35  60  92 125 165 214 259 312 375
#     4  10  21  38  61  90 126 166 208 265 319 371
#     4  10  24  45  65  93 129 165 211 265 322 387
#
# _framework density 22.18825
#
# number of rings (size 3 to 8) (size 9 to 14) (size 15 to 20)
#    0.000    1.600    2.000    2.400    2.800    5.600 
#    0.000    2.000    0.000    0.000    0.000    0.000 
#    0.000    0.000    0.000    0.000    0.000    0.000 
#
# Total GULP energy -111687.674045 kJ/mol
# GULP energy per Si atom -5584.383702 kJ/mol
# Density = 2.213775 g / cm^3
# Si number density = 22.188250 Si / 1000 Ang^3
#
#
#
# Elastic Constant Matrix: (Units=GPa)
#
#
# Indices 1 2 3 4 5 6 
#
# 1 141.3907 64.2487 21.2633 0.0000 0.0000 0.0000
# 2 64.2487 117.6383 35.5643 0.0000 0.0000 0.0000
# 3 21.2633 35.5643 92.5905 0.0000 0.0000 0.0000
# 4 0.0000 0.0000 0.0000 37.3055 0.0000 0.0000
# 5 0.0000 0.0000 0.0000 0.0000 14.7144 0.0000
# 6 0.0000 0.0000 0.0000 0.0000 0.0000 11.2162
#
#
#
# Elastic Compliance Matrix: (Units=1/GPa)
#
#
# Indices 1 2 3 4 5 6 
#
# 1 0.009411 -0.005076 -0.000212 0.000000 0.000000 0.000000
# 2 -0.005076 0.012355 -0.003580 0.000000 0.000000 0.000000
# 3 -0.000212 -0.003580 0.012224 0.000000 0.000000 0.000000
# 4 0.000000 0.000000 0.000000 0.026806 0.000000 0.000000
# 5 0.000000 0.000000 0.000000 0.000000 0.067961 0.000000
# 6 0.000000 0.000000 0.000000 0.000000 0.000000 0.089157
#
#
# Mechanical properties :
#
#
# Convention : Reuss Voigt Hill
#
# Bulk Modulus (GPa) = 61.51888 65.97468 63.74678
# Shear Modulus (GPa) = 20.74119 28.01676 24.37897
#
# Velocity S-wave (km/s) = 3.06074 3.55728 3.31831
# Velocity P-wave (km/s) = 6.34641 6.83161 6.59348
#
# Compressibility (1/GPa) = 0.01625517
#
# Stress axis : x y z
#
# Youngs Moduli (GPa) = 106.25960 80.93798 81.80690
#
# Poissons Ratio (x) = 0.41083 0.01731
# Poissons Ratio (y) = 0.53936 0.29287
# Poissons Ratio (z) = 0.02248 0.28976
#
# Static dielectric constant tensor:
#      x y z
#    x 1.813780 0.000000 0.000000 
#    y 0.000000 1.851000 0.000000 
#    z 0.000000 0.000000 1.817070 
# 
# From -- ./inp_files/2420.got.cif
#   From: 2010.05.17/outbox.cif.g08.bks.cpg/sg36_2_cif.got.tgz:2420.got - 2010.06.03 17:41:39.
