data_PCOD9352142
_publ_section_title
;
Structure prediction by ZEFSAII (Michael W. Deem and Ramdas Pophale) SiO2 
 PCOD9352142
Probable space group: C M C 21
;
_chemical_formula_sum "Si O2"
_cell_formula_units_Z 56
_cell_length_a 32.665972
_cell_length_b 5.459822
_cell_length_c 12.904775
_cell_angle_alpha 90.000000
_cell_angle_beta 90.000000
_cell_angle_gamma 90.000000
_cell_volume 2301.571687
_symmetry_space_group_name_H-M "C M C 21"
_symmetry_group_IT_number 36
_symmetry_cell_setting 'orthorhombic'
loop_
_space_group_symop_operation_xyz
x,y,z
-x,-y,1/2+z
x,-y,1/2+z
-x,y,z
1/2+x,1/2+y,z
1/2-x,1/2-y,1/2+z
1/2+x,1/2-y,1/2+z
1/2-x,1/2+y,z
loop_
_atom_site_type_symbol
_atom_site_label
_atom_site_fract_x
_atom_site_fract_y
_atom_site_fract_z
Si Si1 0.585623 0.775790 0.228640
Si Si2 0.085609 0.007119 0.931174
Si Si3 0.000000 0.027396 0.907483
Si Si4 0.269639 0.393335 0.075313
Si Si5 0.765625 0.820687 0.323242
Si Si6 0.863904 0.065814 0.598173
Si Si7 0.855899 0.343472 0.817353
Si Si8 0.500000 0.026287 0.776150
O O1 0.574309 0.570548 0.313382
O O2 0.607736 0.666681 0.128452
O O3 0.543771 0.931840 0.217491
O O4 0.623004 0.903581 0.290099
O O5 0.040975 0.061760 0.974653
O O6 0.117947 0.218734 0.907306
O O7 0.109646 0.819488 0.005313
O O8 0.000000 0.256492 0.826684
O O9 0.000000 0.745967 0.863042
O O10 0.242663 0.622572 0.037285
O O11 0.261420 0.359407 0.199072
O O12 0.317141 0.465789 0.064135
O O13 0.733782 0.606833 0.356994
O O14 0.808500 0.683104 0.343176
O O15 0.860764 0.208093 0.706080
#
# Coordination Sequence:
#
# PCOD9352142 Si02
#       8
#     8   8   4   8   8   8   8   4
#     4  10  22  39  65  91 124 170 208 265 323 384
#     4  10  22  41  62  91 127 167 209 264 321 383
#     4  10  20  41  65  90 127 170 206 248 328 379
#     4   9  19  36  57  86 124 168 206 260 322 378
#     4   9  19  32  57  86 120 159 206 259 313 377
#     4  10  23  38  63  95 124 164 220 267 312 388
#     4  10  21  38  62  88 123 165 211 257 322 375
#     4  10  20  41  65  92 127 168 206 256 318 385
#
# _framework density 24.331199999999999
#
# number of rings (size 3 to 8) (size 9 to 14) (size 15 to 20)
#    0.000    2.286    1.429    0.000   12.000    1.714 
#    0.000    2.857    0.000    0.000    0.000    0.000 
#    0.000    0.000    0.000    0.000    0.000    0.000 
#
# Total GULP energy -155980.579975 kJ/mol
# GULP energy per Si atom -5570.734999 kJ/mol
# Density = 2.427582 g / cm^3
# Si number density = 24.331200 Si / 1000 Ang^3
#
#
#
# Elastic Constant Matrix: (Units=GPa)
#
#
# Indices 1 2 3 4 5 6 
#
# 1 129.9008 53.9936 21.6988 0.0000 0.0000 0.0000
# 2 53.9936 102.3426 15.6279 0.0000 0.0000 0.0000
# 3 21.6988 15.6279 72.3241 0.0000 0.0000 0.0000
# 4 0.0000 0.0000 0.0000 18.3042 0.0000 0.0000
# 5 0.0000 0.0000 0.0000 0.0000 29.5819 0.0000
# 6 0.0000 0.0000 0.0000 0.0000 0.0000 32.0733
#
#
#
# Elastic Compliance Matrix: (Units=1/GPa)
#
#
# Indices 1 2 3 4 5 6 
#
# 1 0.010119 -0.005041 -0.001947 0.000000 0.000000 0.000000
# 2 -0.005041 0.012616 -0.001214 0.000000 0.000000 0.000000
# 3 -0.001947 -0.001214 0.014673 0.000000 0.000000 0.000000
# 4 0.000000 0.000000 0.000000 0.054632 0.000000 0.000000
# 5 0.000000 0.000000 0.000000 0.000000 0.033804 0.000000
# 6 0.000000 0.000000 0.000000 0.000000 0.000000 0.031179
#
#
# Mechanical properties :
#
#
# Convention : Reuss Voigt Hill
#
# Bulk Modulus (GPa) = 47.60776 54.13425 50.87100
# Shear Modulus (GPa) = 27.71199 30.20834 28.96017
#
# Velocity S-wave (km/s) = 3.37849 3.52738 3.45374
# Velocity P-wave (km/s) = 5.90152 6.23595 6.07104
#
# Compressibility (1/GPa) = 0.02100498
#
# Stress axis : x y z
#
# Youngs Moduli (GPa) = 98.82692 79.26430 68.15287
#
# Poissons Ratio (x) = 0.39958 0.13266
# Poissons Ratio (y) = 0.49820 0.08271
# Poissons Ratio (z) = 0.19237 0.09620
#
# Static dielectric constant tensor:
#      x y z
#    x 2.091760 0.000000 0.000000 
#    y 0.000000 1.976020 0.000000 
#    z 0.000000 0.000000 2.202650 
# 
# From -- ./inp_files/13201.got.cif
#   From: 2010.05.17/outbox.cif.g08.bks.cpg/sg36_7_cif.got.tgz:13201.got - 2010.06.03 17:41:39.
