data_PCOD9352624
_publ_section_title
;
Structure prediction by ZEFSAII (Michael W. Deem and Ramdas Pophale) SiO2 
 PCOD9352624
Probable space group: C M C 21
;
_chemical_formula_sum "Si O2"
_cell_formula_units_Z 64
_cell_length_a 27.077308
_cell_length_b 10.156227
_cell_length_c 11.019722
_cell_angle_alpha 90.000000
_cell_angle_beta 90.000000
_cell_angle_gamma 90.000000
_cell_volume 3030.459767
_symmetry_space_group_name_H-M "C M C 21"
_symmetry_group_IT_number 36
_symmetry_cell_setting 'orthorhombic'
loop_
_space_group_symop_operation_xyz
x,y,z
-x,-y,1/2+z
x,-y,1/2+z
-x,y,z
1/2+x,1/2+y,z
1/2-x,1/2-y,1/2+z
1/2+x,1/2-y,1/2+z
1/2-x,1/2+y,z
loop_
_atom_site_type_symbol
_atom_site_label
_atom_site_fract_x
_atom_site_fract_y
_atom_site_fract_z
Si Si1 0.829825 0.129393 0.067460
Si Si2 0.557416 0.788927 0.434174
Si Si3 0.876417 0.275186 0.854636
Si Si4 0.870782 0.354039 0.208984
Si Si5 0.204210 0.541298 0.314989
Si Si6 0.143595 0.827802 0.083379
Si Si7 0.764094 0.727171 0.927786
Si Si8 0.446435 0.088168 0.499739
O O1 0.843995 0.216920 0.182395
O O2 0.836642 0.976732 0.095410
O O3 0.864840 0.160057 0.950157
O O4 0.777019 0.185876 0.026391
O O5 0.500000 0.746442 0.407755
O O6 0.593168 0.828118 0.322093
O O7 0.590586 0.691476 0.516956
O O8 0.552635 0.931403 0.496095
O O9 0.839369 0.393272 0.893623
O O10 0.862091 0.233315 0.718640
O O11 0.929439 0.340966 0.874885
O O12 0.831470 0.475290 0.211600
O O13 0.907008 0.374243 0.098241
O O14 0.229328 0.408848 0.358037
O O15 0.244540 0.658002 0.336152
O O16 0.185635 0.760591 0.999210
O O17 0.500000 0.138376 0.534062
#
# Coordination Sequence:
#
# PCOD9352624 Si02
#       8
#     8   8   8   8   8   8   8   8
#     4  10  26  44  66  98 136 185 238 277 358 421
#     4  11  24  41  71 104 131 176 235 289 354 425
#     4  10  23  42  67  99 138 180 230 292 349 416
#     4  11  22  44  71  99 143 179 224 291 352 413
#     4  11  22  43  69 100 141 179 230 287 344 424
#     4  12  24  45  69  96 146 184 233 293 346 427
#     4  11  23  45  67 103 140 185 237 280 355 413
#     4  10  21  42  71 103 136 174 232 295 360 419
#
# _framework density 21.118908000000001
#
# number of rings (size 3 to 8) (size 9 to 14) (size 15 to 20)
#    0.000    1.250    3.750    1.125    1.750    4.500 
#    6.750    3.125    0.000    0.000    0.000    0.000 
#    0.000    0.000    0.000    0.000    0.000    0.000 
#
# Total GULP energy -178159.131785 kJ/mol
# GULP energy per Si atom -5567.472868 kJ/mol
# Density = 2.107084 g / cm^3
# Si number density = 21.118908 Si / 1000 Ang^3
#
#
#
# Elastic Constant Matrix: (Units=GPa)
#
#
# Indices 1 2 3 4 5 6 
#
# 1 122.0039 47.2988 47.9473 0.0000 0.0000 0.0000
# 2 47.2988 125.0487 17.5234 0.0000 0.0000 0.0000
# 3 47.9473 17.5234 54.3210 0.0000 0.0000 0.0000
# 4 0.0000 0.0000 0.0000 25.5644 0.0000 0.0000
# 5 0.0000 0.0000 0.0000 0.0000 20.4752 0.0000
# 6 0.0000 0.0000 0.0000 0.0000 0.0000 25.8640
#
#
#
# Elastic Compliance Matrix: (Units=1/GPa)
#
#
# Indices 1 2 3 4 5 6 
#
# 1 0.014046 -0.003745 -0.011190 0.000000 0.000000 0.000000
# 2 -0.003745 0.009374 0.000281 0.000000 0.000000 0.000000
# 3 -0.011190 0.000281 0.028195 0.000000 0.000000 0.000000
# 4 0.000000 0.000000 0.000000 0.039117 0.000000 0.000000
# 5 0.000000 0.000000 0.000000 0.000000 0.048840 0.000000
# 6 0.000000 0.000000 0.000000 0.000000 0.000000 0.038664
#
#
# Mechanical properties :
#
#
# Convention : Reuss Voigt Hill
#
# Bulk Modulus (GPa) = 44.82554 58.54583 51.68569
# Shear Modulus (GPa) = 23.25828 26.95433 25.10630
#
# Velocity S-wave (km/s) = 3.32219 3.57643 3.45165
# Velocity P-wave (km/s) = 5.99894 6.69602 6.35704
#
# Compressibility (1/GPa) = 0.02230871
#
# Stress axis : x y z
#
# Youngs Moduli (GPa) = 71.19598 106.67982 35.46715
#
# Poissons Ratio (x) = 0.39948 0.39687
# Poissons Ratio (y) = 0.26660 -0.00998
# Poissons Ratio (z) = 0.79666 -0.03002
#
# Static dielectric constant tensor:
#      x y z
#    x 1.841110 0.000000 0.000000 
#    y 0.000000 1.768520 0.000000 
#    z 0.000000 0.000000 1.828160 
# 
# From -- ./inp_files/9729.got.cif
#   From: 2010.05.17/outbox.cif.g08.bks.cpg/sg36_5_cif.got.tgz:9729.got - 2010.06.03 17:41:39.
