data_PCOD9352545
_publ_section_title
;
Structure prediction by ZEFSAII (Michael W. Deem and Ramdas Pophale) SiO2 
 PCOD9352545
Probable space group: C M C 21
;
_chemical_formula_sum "Si O2"
_cell_formula_units_Z 48
_cell_length_a 8.783068
_cell_length_b 15.235003
_cell_length_c 18.944133
_cell_angle_alpha 90.000000
_cell_angle_beta 90.000000
_cell_angle_gamma 90.000000
_cell_volume 2534.915712
_symmetry_space_group_name_H-M "C M C 21"
_symmetry_group_IT_number 36
_symmetry_cell_setting 'orthorhombic'
loop_
_space_group_symop_operation_xyz
x,y,z
-x,-y,1/2+z
x,-y,1/2+z
-x,y,z
1/2+x,1/2+y,z
1/2-x,1/2-y,1/2+z
1/2+x,1/2-y,1/2+z
1/2-x,1/2+y,z
loop_
_atom_site_type_symbol
_atom_site_label
_atom_site_fract_x
_atom_site_fract_y
_atom_site_fract_z
Si Si1 0.681115 0.419799 0.789920
Si Si2 0.182155 0.611272 0.773889
Si Si3 0.819187 0.738360 0.372087
Si Si4 0.319296 0.256843 0.023935
Si Si5 0.682181 0.110087 0.139304
Si Si6 0.319163 0.909178 0.110026
O O1 0.500000 0.427032 0.793948
O O2 0.756863 0.515522 0.795690
O O3 0.743632 0.352822 0.847796
O O4 0.730194 0.382713 0.713078
O O5 0.259535 0.686502 0.819516
O O6 0.215506 0.620691 0.690339
O O7 0.000000 0.614396 0.782487
O O8 0.767294 0.759554 0.451265
O O9 0.000000 0.731333 0.367344
O O10 0.500000 0.251722 0.011736
O O11 0.278761 0.184877 0.083391
O O12 0.273375 0.351011 0.055476
O O13 0.500000 0.114036 0.154109
O O14 0.713163 0.013099 0.108246
O O15 0.500000 0.896983 0.097999
#
# Coordination Sequence:
#
# PCOD9352545 Si02
#       6
#     8   8   8   8   8   8
#     4  11  22  38  62  90 118 151 195 241 288 344
#     4  10  21  40  64  89 118 151 192 241 292 345
#     4  12  25  40  58  83 119 159 198 240 290 346
#     4  11  23  38  57  83 116 153 194 239 289 344
#     4   9  20  39  61  84 114 152 191 235 289 344
#     4   9  19  37  60  85 113 148 188 232 286 345
#
# _framework density 18.935542999999999
#
# number of rings (size 3 to 8) (size 9 to 14) (size 15 to 20)
#    0.000    1.667    0.000    6.000    0.000    8.667 
#    0.000    5.000    0.000    0.000    0.000    0.000 
#    0.000    0.000    0.000    0.000    0.000    0.000 
#
# Total GULP energy -134187.847710 kJ/mol
# GULP energy per Si atom -5591.160321 kJ/mol
# Density = 1.889244 g / cm^3
# Si number density = 18.935543 Si / 1000 Ang^3
#
#
#
# Elastic Constant Matrix: (Units=GPa)
#
#
# Indices 1 2 3 4 5 6 
#
# 1 51.8544 0.9690 13.7017 0.0000 0.0000 0.0000
# 2 0.9690 30.9685 8.6761 0.0000 0.0000 0.0000
# 3 13.7017 8.6761 19.1646 0.0000 0.0000 0.0000
# 4 0.0000 0.0000 0.0000 2.7895 0.0000 0.0000
# 5 0.0000 0.0000 0.0000 0.0000 35.0720 0.0000
# 6 0.0000 0.0000 0.0000 0.0000 0.0000 33.5569
#
#
#
# Elastic Compliance Matrix: (Units=1/GPa)
#
#
# Indices 1 2 3 4 5 6 
#
# 1 0.024363 0.004716 -0.019553 0.000000 0.000000 0.000000
# 2 0.004716 0.037894 -0.020527 0.000000 0.000000 0.000000
# 3 -0.019553 -0.020527 0.075452 0.000000 0.000000 0.000000
# 4 0.000000 0.000000 0.000000 0.358493 0.000000 0.000000
# 5 0.000000 0.000000 0.000000 0.000000 0.028513 0.000000
# 6 0.000000 0.000000 0.000000 0.000000 0.000000 0.029800
#
#
# Mechanical properties :
#
#
# Convention : Reuss Voigt Hill
#
# Bulk Modulus (GPa) = 14.92968 16.52011 15.72490
# Shear Modulus (GPa) = 7.72116 19.52637 13.62376
#
# Velocity S-wave (km/s) = 2.02150 3.21472 2.68522
# Velocity P-wave (km/s) = 3.65379 4.74579 4.23513
#
# Compressibility (1/GPa) = 0.06698066
#
# Stress axis : x y z
#
# Youngs Moduli (GPa) = 41.04523 26.38932 13.25342
#
# Poissons Ratio (x) = -0.12445 0.25915
# Poissons Ratio (y) = -0.19356 0.27205
# Poissons Ratio (z) = 0.80258 0.54169
#
# Static dielectric constant tensor:
#      x y z
#    x 1.629660 0.000000 0.000000 
#    y 0.000000 1.642310 0.000000 
#    z 0.000000 0.000000 1.634170 
# 
# From -- ./inp_files/13484.got.cif
#   From: 2010.05.17/outbox.cif.g08.bks.cpg/sg36_7_cif.got.tgz:13484.got - 2010.06.03 17:41:39.
