data_PCOD9352525
_publ_section_title
;
Structure prediction by ZEFSAII (Michael W. Deem and Ramdas Pophale) SiO2 
 PCOD9352525
Probable space group: C M C 21
;
_chemical_formula_sum "Si O2"
_cell_formula_units_Z 56
_cell_length_a 9.902845
_cell_length_b 20.545696
_cell_length_c 13.500370
_cell_angle_alpha 90.000000
_cell_angle_beta 90.000000
_cell_angle_gamma 90.000000
_cell_volume 2746.796660
_symmetry_space_group_name_H-M "C M C 21"
_symmetry_group_IT_number 36
_symmetry_cell_setting 'orthorhombic'
loop_
_space_group_symop_operation_xyz
x,y,z
-x,-y,1/2+z
x,-y,1/2+z
-x,y,z
1/2+x,1/2+y,z
1/2-x,1/2-y,1/2+z
1/2+x,1/2-y,1/2+z
1/2-x,1/2+y,z
loop_
_atom_site_type_symbol
_atom_site_label
_atom_site_fract_x
_atom_site_fract_y
_atom_site_fract_z
Si Si1 0.152756 0.111670 0.663370
Si Si2 0.655000 0.949377 0.548378
Si Si3 0.838888 0.255000 0.656995
Si Si4 0.745413 0.421913 0.950990
Si Si5 0.655453 0.787827 0.866125
Si Si6 0.161910 0.975057 0.735244
Si Si7 0.338733 0.181080 0.952811
O O1 0.219952 0.182480 0.670198
O O2 0.151177 0.092474 0.546632
O O3 0.000000 0.118727 0.700090
O O4 0.208405 0.050958 0.725406
O O5 0.500000 0.936962 0.580367
O O6 0.754170 0.944703 0.643098
O O7 0.689084 0.895066 0.465795
O O8 0.665200 0.019620 0.495860
O O9 0.822266 0.301472 0.750238
O O10 0.794168 0.289046 0.558186
O O11 0.000000 0.245936 0.644067
O O12 0.812781 0.352360 0.927621
O O13 0.687468 0.446466 0.845110
O O14 0.500000 0.768905 0.881414
O O15 0.751723 0.726230 0.882498
O O16 0.000000 0.971684 0.715677
O O17 0.500000 0.189792 0.936552
#
# Coordination Sequence:
#
# PCOD9352525 Si02
#       7
#     8   8   8   8   8   8   8
#     4   9  18  35  57  86 120 156 196 244 305 365
#     4  10  23  41  61  87 126 168 204 250 310 376
#     4   9  18  35  59  82 113 152 195 244 299 359
#     4  11  21  37  61  90 126 159 202 251 311 373
#     4  11  23  37  61  91 118 156 203 250 304 363
#     4  10  22  37  61  93 121 156 206 260 309 361
#     4  10  21  40  62  85 116 159 204 247 302 363
#
# _framework density 20.387384999999998
#
# number of rings (size 3 to 8) (size 9 to 14) (size 15 to 20)
#    0.000    2.000    1.429    1.714    2.000    4.000 
#    0.000    0.714    0.000    0.000    0.000    0.000 
#    0.000    0.000    0.000    0.000    0.000    0.000 
#
# Total GULP energy -155881.661394 kJ/mol
# GULP energy per Si atom -5567.202193 kJ/mol
# Density = 2.034098 g / cm^3
# Si number density = 20.387385 Si / 1000 Ang^3
#
#
#
# Elastic Constant Matrix: (Units=GPa)
#
#
# Indices 1 2 3 4 5 6 
#
# 1 57.3092 16.5628 21.3751 0.0000 0.0000 0.0000
# 2 16.5628 96.8184 14.0170 0.0000 0.0000 0.0000
# 3 21.3751 14.0170 77.7740 0.0000 0.0000 0.0000
# 4 0.0000 0.0000 0.0000 37.1024 0.0000 0.0000
# 5 0.0000 0.0000 0.0000 0.0000 22.6225 0.0000
# 6 0.0000 0.0000 0.0000 0.0000 0.0000 17.5477
#
#
#
# Elastic Compliance Matrix: (Units=1/GPa)
#
#
# Indices 1 2 3 4 5 6 
#
# 1 0.020112 -0.002711 -0.005039 0.000000 0.000000 0.000000
# 2 -0.002711 0.010971 -0.001232 0.000000 0.000000 0.000000
# 3 -0.005039 -0.001232 0.014465 0.000000 0.000000 0.000000
# 4 0.000000 0.000000 0.000000 0.026952 0.000000 0.000000
# 5 0.000000 0.000000 0.000000 0.000000 0.044204 0.000000
# 6 0.000000 0.000000 0.000000 0.000000 0.000000 0.056988
#
#
# Mechanical properties :
#
#
# Convention : Reuss Voigt Hill
#
# Bulk Modulus (GPa) = 36.25378 37.31239 36.78308
# Shear Modulus (GPa) = 24.89418 27.45097 26.17257
#
# Velocity S-wave (km/s) = 3.49816 3.67341 3.58685
# Velocity P-wave (km/s) = 5.84270 6.02771 5.93593
#
# Compressibility (1/GPa) = 0.02758333
#
# Stress axis : x y z
#
# Youngs Moduli (GPa) = 49.72124 91.15117 69.13379
#
# Poissons Ratio (x) = 0.24712 0.34836
# Poissons Ratio (y) = 0.13480 0.08518
# Poissons Ratio (z) = 0.25054 0.11231
#
# Static dielectric constant tensor:
#      x y z
#    x 1.713780 0.000000 0.000000 
#    y 0.000000 1.797860 0.000000 
#    z 0.000000 0.000000 1.735740 
# 
# From -- ./inp_files/10634.got.cif
#   From: 2010.05.17/outbox.cif.g08.bks.cpg/sg36_6_cif.got.tgz:10634.got - 2010.06.03 17:41:39.
