data_PCOD9352704
_publ_section_title
;
Structure prediction by ZEFSAII (Michael W. Deem and Ramdas Pophale) SiO2 
 PCOD9352704
Probable space group: C M C 21
;
_chemical_formula_sum "Si O2"
_cell_formula_units_Z 56
_cell_length_a 9.207536
_cell_length_b 14.492701
_cell_length_c 18.214509
_cell_angle_alpha 90.000000
_cell_angle_beta 90.000000
_cell_angle_gamma 90.000000
_cell_volume 2430.581716
_symmetry_space_group_name_H-M "C M C 21"
_symmetry_group_IT_number 36
_symmetry_cell_setting 'orthorhombic'
loop_
_space_group_symop_operation_xyz
x,y,z
-x,-y,1/2+z
x,-y,1/2+z
-x,y,z
1/2+x,1/2+y,z
1/2-x,1/2-y,1/2+z
1/2+x,1/2-y,1/2+z
1/2-x,1/2+y,z
loop_
_atom_site_type_symbol
_atom_site_label
_atom_site_fract_x
_atom_site_fract_y
_atom_site_fract_z
Si Si1 0.327168 0.725115 0.259150
Si Si2 0.827171 0.434638 0.832729
Si Si3 0.336687 0.833277 0.508008
Si Si4 0.160955 0.966894 0.597005
Si Si5 0.673506 0.373958 0.361628
Si Si6 0.261930 0.625076 0.495388
Si Si7 0.843468 0.619428 0.648818
O O1 0.500000 0.712694 0.271454
O O2 0.242222 0.630657 0.270831
O O3 0.255499 0.793346 0.318334
O O4 0.305988 0.783203 0.184778
O O5 0.743005 0.530885 0.834538
O O6 0.794296 0.389391 0.913410
O O7 0.000000 0.444533 0.825033
O O8 0.500000 0.868749 0.492976
O O9 0.222673 0.859867 0.445193
O O10 0.341981 0.722442 0.505827
O O11 0.273123 0.885539 0.578991
O O12 0.155103 0.033792 0.524368
O O13 0.224070 0.039493 0.656272
O O14 0.000000 0.933131 0.614862
O O15 0.500000 0.370341 0.353080
O O16 0.146191 0.630406 0.561180
O O17 0.000000 0.590756 0.679381
#
# Coordination Sequence:
#
# PCOD9352704 Si02
#       7
#     8   8   8   8   8   8   8
#     4  11  24  44  67  92 129 172 213 264 323 385
#     4  12  24  41  69  98 129 168 211 267 323 381
#     4  12  23  38  63  94 128 165 207 258 319 381
#     4  10  22  39  62  91 124 161 205 260 311 369
#     4  12  25  40  63  93 127 165 212 265 318 381
#     4  10  23  39  67  92 125 164 209 263 313 377
#     4   9  21  43  67  90 124 169 211 261 319 378
#
# _framework density 23.039752
#
# number of rings (size 3 to 8) (size 9 to 14) (size 15 to 20)
#    0.857    0.286    2.857    3.857    0.000    4.000 
#    2.571    0.000    0.000    0.000    0.000    0.000 
#    0.000    0.000    0.000    0.000    0.000    0.000 
#
# Total GULP energy -156317.132070 kJ/mol
# GULP energy per Si atom -5582.754717 kJ/mol
# Density = 2.298731 g / cm^3
# Si number density = 23.039752 Si / 1000 Ang^3
#
#
#
# Elastic Constant Matrix: (Units=GPa)
#
#
# Indices 1 2 3 4 5 6 
#
# 1 121.3728 24.9257 28.6413 0.0000 0.0000 0.0000
# 2 24.9257 119.9739 16.7001 0.0000 0.0000 0.0000
# 3 28.6413 16.7001 51.9918 0.0000 0.0000 0.0000
# 4 0.0000 0.0000 0.0000 46.4955 0.0000 0.0000
# 5 0.0000 0.0000 0.0000 0.0000 16.2748 0.0000
# 6 0.0000 0.0000 0.0000 0.0000 0.0000 0.0636
#
#
#
# Elastic Compliance Matrix: (Units=1/GPa)
#
#
# Indices 1 2 3 4 5 6 
#
# 1 0.009668 -0.001327 -0.004900 0.000000 0.000000 0.000000
# 2 -0.001327 0.008907 -0.002130 0.000000 0.000000 0.000000
# 3 -0.004900 -0.002130 0.022617 0.000000 0.000000 0.000000
# 4 0.000000 0.000000 0.000000 0.021507 0.000000 0.000000
# 5 0.000000 0.000000 0.000000 0.000000 0.061445 0.000000
# 6 0.000000 0.000000 0.000000 0.000000 0.000000 15.735105
#
#
# Mechanical properties :
#
#
# Convention : Reuss Voigt Hill
#
# Bulk Modulus (GPa) = 40.85107 48.20809 44.52958
# Shear Modulus (GPa) = 0.31478 27.43820 13.87649
#
# Velocity S-wave (km/s) = 0.37003 3.45470 2.45681
# Velocity P-wave (km/s) = 4.23695 6.07310 5.23614
#
# Compressibility (1/GPa) = 0.02447916
#
# Stress axis : x y z
#
# Youngs Moduli (GPa) = 103.43704 112.26773 44.21411
#
# Poissons Ratio (x) = 0.14893 0.21663
# Poissons Ratio (y) = 0.13721 0.09419
# Poissons Ratio (z) = 0.50681 0.23917
#
# Static dielectric constant tensor:
#      x y z
#    x 1.824440 0.000000 0.000000 
#    y 0.000000 1.914580 0.000000 
#    z 0.000000 0.000000 1.928340 
# 
# From -- ./inp_files/15477.got.cif
#   From: 2010.05.17/outbox.cif.g08.bks.cpg/sg36_8_cif.got.tgz:15477.got - 2010.06.03 17:41:39.
