data_PCOD9352065
_publ_section_title
;
Structure prediction by ZEFSAII (Michael W. Deem and Ramdas Pophale) SiO2 
 PCOD9352065
Probable space group: C M C 21
;
_chemical_formula_sum "Si O2"
_cell_formula_units_Z 44
_cell_length_a 27.480272
_cell_length_b 9.549218
_cell_length_c 8.843021
_cell_angle_alpha 90.000000
_cell_angle_beta 90.000000
_cell_angle_gamma 90.000000
_cell_volume 2320.542311
_symmetry_space_group_name_H-M "C M C 21"
_symmetry_group_IT_number 36
_symmetry_cell_setting 'orthorhombic'
loop_
_space_group_symop_operation_xyz
x,y,z
-x,-y,1/2+z
x,-y,1/2+z
-x,y,z
1/2+x,1/2+y,z
1/2-x,1/2-y,1/2+z
1/2+x,1/2-y,1/2+z
1/2-x,1/2+y,z
loop_
_atom_site_type_symbol
_atom_site_label
_atom_site_fract_x
_atom_site_fract_y
_atom_site_fract_z
Si Si1 0.781479 0.387266 0.606430
Si Si2 0.165755 0.379390 0.921014
Si Si3 0.500000 0.061264 0.652627
Si Si4 0.335007 0.609779 0.106716
Si Si5 0.647283 0.320297 0.954102
Si Si6 0.075718 0.421489 0.416273
O O1 0.804359 0.532205 0.545800
O O2 0.800446 0.359162 0.775239
O O3 0.723722 0.393744 0.599528
O O4 0.804577 0.266574 0.501533
O O5 0.119721 0.473355 0.874224
O O6 0.149465 0.234053 0.994419
O O7 0.542157 0.998083 0.538175
O O8 0.457296 0.111167 0.772276
O O9 0.350135 0.643148 0.277405
O O10 0.354697 0.461245 0.050580
O O11 0.602068 0.216524 0.980670
#
# Coordination Sequence:
#
# PCOD9352065 Si02
#       6
#     8   8   4   8   8   8
#     4  11  21  36  55  85 120 168 215 246 272 337
#     4  11  22  37  60  84 122 155 204 250 294 344
#     4  10  20  38  70  84 106 134 190 240 302 366
#     4  12  22  36  56  84 124 173 199 239 293 349
#     4  11  24  37  56  86 127 158 207 249 296 352
#     4  10  21  40  62  92 108 143 190 255 302 355
#
# _framework density 18.961085000000001
#
# number of rings (size 3 to 8) (size 9 to 14) (size 15 to 20)
#    0.000    1.091    0.000    9.818    0.000    0.000 
#    0.000    0.000    0.000   19.636    0.000    0.000 
#    0.000    0.000    0.000    0.000    0.000    0.000 
#
# Total GULP energy -122489.888037 kJ/mol
# GULP energy per Si atom -5567.722183 kJ/mol
# Density = 1.891793 g / cm^3
# Si number density = 18.961085 Si / 1000 Ang^3
#
#
#
# Elastic Constant Matrix: (Units=GPa)
#
#
# Indices 1 2 3 4 5 6 
#
# 1 46.7275 2.7885 -1.4585 0.0000 0.0000 0.0000
# 2 2.7885 82.4988 12.6313 0.0000 0.0000 0.0000
# 3 -1.4585 12.6313 77.4600 0.0000 0.0000 0.0000
# 4 0.0000 0.0000 0.0000 28.1595 0.0000 0.0000
# 5 0.0000 0.0000 0.0000 0.0000 27.9223 0.0000
# 6 0.0000 0.0000 0.0000 0.0000 0.0000 15.8386
#
#
#
# Elastic Compliance Matrix: (Units=1/GPa)
#
#
# Indices 1 2 3 4 5 6 
#
# 1 0.021466 -0.000808 0.000536 0.000000 0.000000 0.000000
# 2 -0.000808 0.012462 -0.002047 0.000000 0.000000 0.000000
# 3 0.000536 -0.002047 0.013254 0.000000 0.000000 0.000000
# 4 0.000000 0.000000 0.000000 0.035512 0.000000 0.000000
# 5 0.000000 0.000000 0.000000 0.000000 0.035814 0.000000
# 6 0.000000 0.000000 0.000000 0.000000 0.000000 0.063137
#
#
# Mechanical properties :
#
#
# Convention : Reuss Voigt Hill
#
# Bulk Modulus (GPa) = 23.50544 26.06767 24.78655
# Shear Modulus (GPa) = 24.94220 27.23242 26.08731
#
# Velocity S-wave (km/s) = 3.63084 3.79387 3.71325
# Velocity P-wave (km/s) = 5.47731 5.74187 5.61115
#
# Compressibility (1/GPa) = 0.04254334
#
# Stress axis : x y z
#
# Youngs Moduli (GPa) = 46.58621 80.24287 75.44979
#
# Poissons Ratio (x) = 0.06480 -0.04043
# Poissons Ratio (y) = 0.03762 0.15448
# Poissons Ratio (z) = -0.02496 0.16429
#
# Static dielectric constant tensor:
#      x y z
#    x 1.636990 0.000000 0.000000 
#    y 0.000000 1.664510 0.000000 
#    z 0.000000 0.000000 1.658200 
# 
# From -- ./inp_files/5937.got.cif
#   From: 2010.05.17/outbox.cif.g08.bks.cpg/sg36_3_cif.got.tgz:5937.got - 2010.06.03 17:41:39.
