data_PCOD9352543
_publ_section_title
;
Structure prediction by ZEFSAII (Michael W. Deem and Ramdas Pophale) SiO2 
 PCOD9352543
Probable space group: C M C 21
;
_chemical_formula_sum "Si O2"
_cell_formula_units_Z 48
_cell_length_a 17.687392
_cell_length_b 15.632289
_cell_length_c 9.433143
_cell_angle_alpha 90.000000
_cell_angle_beta 90.000000
_cell_angle_gamma 90.000000
_cell_volume 2608.211435
_symmetry_space_group_name_H-M "C M C 21"
_symmetry_group_IT_number 36
_symmetry_cell_setting 'orthorhombic'
loop_
_space_group_symop_operation_xyz
x,y,z
-x,-y,1/2+z
x,-y,1/2+z
-x,y,z
1/2+x,1/2+y,z
1/2-x,1/2-y,1/2+z
1/2+x,1/2-y,1/2+z
1/2-x,1/2+y,z
loop_
_atom_site_type_symbol
_atom_site_label
_atom_site_fract_x
_atom_site_fract_y
_atom_site_fract_z
Si Si1 0.409668 0.926519 0.442040
Si Si2 0.839162 0.575166 0.253955
Si Si3 0.910068 0.769383 0.934210
Si Si4 0.909447 0.923841 0.445640
Si Si5 0.340915 0.422844 0.760079
Si Si6 0.409751 0.254045 0.266728
O O1 0.500000 0.938112 0.448935
O O2 0.374736 0.932426 0.598065
O O3 0.395686 0.829075 0.391375
O O4 0.372425 0.998494 0.346346
O O5 0.749122 0.570941 0.249369
O O6 0.866064 0.668154 0.308736
O O7 0.864847 0.836256 0.840535
O O8 0.000000 0.786229 0.918985
O O9 0.891831 0.776429 0.102261
O O10 0.876748 0.924789 0.603725
O O11 0.893476 0.833771 0.367929
O O12 0.000000 0.935265 0.450468
O O13 0.873425 0.999128 0.352637
O O14 0.500000 0.236393 0.270654
#
# Coordination Sequence:
#
# PCOD9352543 Si02
#       6
#     8   8   8   8   8   8
#     4  10  21  40  64  86 115 156 197 234 279 344
#     4  11  23  38  59  89 122 151 186 239 297 343
#     4   9  19  38  61  83 111 151 195 237 284 340
#     4  11  23  40  61  83 113 156 202 239 278 341
#     4  12  24  37  58  88 120 151 189 242 296 341
#     4   9  20  39  61  83 111 151 195 237 284 341
#
# _framework density 18.403416
#
# number of rings (size 3 to 8) (size 9 to 14) (size 15 to 20)
#    0.000    1.667    0.000    6.000    0.000    6.667 
#    0.000    1.667    0.000    0.000    0.000    0.000 
#    0.000    0.000    0.000    0.000    0.000    0.000 
#
# Total GULP energy -134144.148094 kJ/mol
# GULP energy per Si atom -5589.339504 kJ/mol
# Density = 1.836153 g / cm^3
# Si number density = 18.403416 Si / 1000 Ang^3
#
#
#
# Elastic Constant Matrix: (Units=GPa)
#
#
# Indices 1 2 3 4 5 6 
#
# 1 90.5549 73.3531 42.6220 0.0000 0.0000 0.0000
# 2 73.3531 128.2504 71.7306 0.0000 0.0000 0.0000
# 3 42.6220 71.7306 87.8476 0.0000 0.0000 0.0000
# 4 0.0000 0.0000 0.0000 29.6664 0.0000 0.0000
# 5 0.0000 0.0000 0.0000 0.0000 39.0776 0.0000
# 6 0.0000 0.0000 0.0000 0.0000 0.0000 48.8137
#
#
#
# Elastic Compliance Matrix: (Units=1/GPa)
#
#
# Indices 1 2 3 4 5 6 
#
# 1 0.020599 -0.011396 -0.000689 0.000000 0.000000 0.000000
# 2 -0.011396 0.020656 -0.011337 0.000000 0.000000 0.000000
# 3 -0.000689 -0.011337 0.020975 0.000000 0.000000 0.000000
# 4 0.000000 0.000000 0.000000 0.033708 0.000000 0.000000
# 5 0.000000 0.000000 0.000000 0.000000 0.025590 0.000000
# 6 0.000000 0.000000 0.000000 0.000000 0.000000 0.020486
#
#
# Mechanical properties :
#
#
# Convention : Reuss Voigt Hill
#
# Bulk Modulus (GPa) = 64.99733 75.78491 70.39112
# Shear Modulus (GPa) = 25.77494 31.44135 28.60814
#
# Velocity S-wave (km/s) = 3.74645 4.13783 3.94699
# Velocity P-wave (km/s) = 7.35590 8.00612 7.68789
#
# Compressibility (1/GPa) = 0.01538525
#
# Stress axis : x y z
#
# Youngs Moduli (GPa) = 48.54717 48.41129 47.67620
#
# Poissons Ratio (x) = 0.55171 0.03283
# Poissons Ratio (y) = 0.55325 0.54052
# Poissons Ratio (z) = 0.03343 0.54886
#
# Static dielectric constant tensor:
#      x y z
#    x 1.603880 0.000000 0.000000 
#    y 0.000000 1.626420 0.000000 
#    z 0.000000 0.000000 1.603160 
# 
# From -- ./inp_files/4631.got.cif
#   From: 2010.05.17/outbox.cif.g08.bks.cpg/sg36_3_cif.got.tgz:4631.got - 2010.06.03 17:41:39.
