data_PCOD9352303
_publ_section_title
;
Structure prediction by ZEFSAII (Michael W. Deem and Ramdas Pophale) SiO2 
 PCOD9352303
Probable space group: C M C 21
;
_chemical_formula_sum "Si O2"
_cell_formula_units_Z 36
_cell_length_a 14.400658
_cell_length_b 22.133798
_cell_length_c 4.774623
_cell_angle_alpha 90.000000
_cell_angle_beta 90.000000
_cell_angle_gamma 90.000000
_cell_volume 1521.869328
_symmetry_space_group_name_H-M "C M C 21"
_symmetry_group_IT_number 36
_symmetry_cell_setting 'orthorhombic'
loop_
_space_group_symop_operation_xyz
x,y,z
-x,-y,1/2+z
x,-y,1/2+z
-x,y,z
1/2+x,1/2+y,z
1/2-x,1/2-y,1/2+z
1/2+x,1/2-y,1/2+z
1/2-x,1/2+y,z
loop_
_atom_site_type_symbol
_atom_site_label
_atom_site_fract_x
_atom_site_fract_y
_atom_site_fract_z
Si Si1 0.895594 0.782437 0.415400
Si Si2 0.196140 0.158706 0.402028
Si Si3 0.099271 0.644977 0.385827
Si Si4 0.890061 0.961219 0.815371
Si Si5 0.500000 0.954247 0.580413
O O1 0.821591 0.789008 0.668941
O O2 0.898667 0.714693 0.288030
O O3 0.000000 0.795434 0.522539
O O4 0.867963 0.825911 0.163921
O O5 0.298820 0.142609 0.512141
O O6 0.161387 0.099433 0.242668
O O7 0.000000 0.640734 0.551114
O O8 0.084914 0.591305 0.159647
O O9 0.000000 0.951106 0.786971
O O10 0.866823 0.018659 0.627427
O O11 0.500000 0.012534 0.785643
#
# Coordination Sequence:
#
# PCOD9352303 Si02
#       5
#     8   8   8   8   4
#     4  11  23  41  65  98 133 168 216 276 338 396
#     4  12  23  40  67  96 128 176 220 266 339 399
#     4   9  24  45  63  98 131 172 217 282 323 394
#     4  10  21  37  57  85 122 160 205 261 314 377
#     4  10  24  44  68  92 130 178 222 270 328 386
#
# _framework density 23.655118999999999
#
# number of rings (size 3 to 8) (size 9 to 14) (size 15 to 20)
#    0.667    0.889    0.000    4.667    0.000    7.111 
#    0.000    0.000    0.000    0.000    0.000    0.000 
#    0.000    0.000    0.000    0.000    0.000    0.000 
#
# Total GULP energy -100314.187102 kJ/mol
# GULP energy per Si atom -5573.010395 kJ/mol
# Density = 2.360128 g / cm^3
# Si number density = 23.655119 Si / 1000 Ang^3
#
#
#
# Elastic Constant Matrix: (Units=GPa)
#
#
# Indices 1 2 3 4 5 6 
#
# 1 97.4333 32.5435 18.8825 0.0000 0.0000 0.0000
# 2 32.5435 117.2922 5.8007 0.0000 0.0000 0.0000
# 3 18.8825 5.8007 43.4031 0.0000 0.0000 0.0000
# 4 0.0000 0.0000 0.0000 9.3752 0.0000 0.0000
# 5 0.0000 0.0000 0.0000 0.0000 13.2144 0.0000
# 6 0.0000 0.0000 0.0000 0.0000 0.0000 18.3056
#
#
#
# Elastic Compliance Matrix: (Units=1/GPa)
#
#
# Indices 1 2 3 4 5 6 
#
# 1 0.012272 -0.003162 -0.004917 0.000000 0.000000 0.000000
# 2 -0.003162 0.009397 0.000120 0.000000 0.000000 0.000000
# 3 -0.004917 0.000120 0.025163 0.000000 0.000000 0.000000
# 4 0.000000 0.000000 0.000000 0.106665 0.000000 0.000000
# 5 0.000000 0.000000 0.000000 0.000000 0.075675 0.000000
# 6 0.000000 0.000000 0.000000 0.000000 0.000000 0.054628
#
#
# Mechanical properties :
#
#
# Convention : Reuss Voigt Hill
#
# Bulk Modulus (GPa) = 32.34703 41.39802 36.87253
# Shear Modulus (GPa) = 16.12785 21.57249 18.85017
#
# Velocity S-wave (km/s) = 2.61395 3.02314 2.82596
# Velocity P-wave (km/s) = 4.77644 5.45202 5.12537
#
# Compressibility (1/GPa) = 0.03091474
#
# Stress axis : x y z
#
# Youngs Moduli (GPa) = 81.48401 106.41600 39.74130
#
# Poissons Ratio (x) = 0.33648 0.19539
# Poissons Ratio (y) = 0.25764 -0.00476
# Poissons Ratio (z) = 0.40062 -0.01274
#
# Static dielectric constant tensor:
#      x y z
#    x 1.925040 0.000000 0.000000 
#    y 0.000000 1.935950 0.000000 
#    z 0.000000 0.000000 1.849950 
# 
# From -- ./inp_files/691.got.cif
#   From: 2010.05.17/outbox.cif.g08.bks.cpg/sg36_1_cif.got.tgz:691.got - 2010.06.03 17:41:39.
