data_PCOD9352799
_publ_section_title
;
Structure prediction by ZEFSAII (Michael W. Deem and Ramdas Pophale) SiO2 
 PCOD9352799
Probable space group: C M C 21
;
_chemical_formula_sum "Si O2"
_cell_formula_units_Z 40
_cell_length_a 9.797451
_cell_length_b 24.164918
_cell_length_c 7.902566
_cell_angle_alpha 90.000000
_cell_angle_beta 90.000000
_cell_angle_gamma 90.000000
_cell_volume 1870.968852
_symmetry_space_group_name_H-M "C M C 21"
_symmetry_group_IT_number 36
_symmetry_cell_setting 'orthorhombic'
loop_
_space_group_symop_operation_xyz
x,y,z
-x,-y,1/2+z
x,-y,1/2+z
-x,y,z
1/2+x,1/2+y,z
1/2-x,1/2-y,1/2+z
1/2+x,1/2-y,1/2+z
1/2-x,1/2+y,z
loop_
_atom_site_type_symbol
_atom_site_label
_atom_site_fract_x
_atom_site_fract_y
_atom_site_fract_z
Si Si1 0.656030 0.559796 0.968920
Si Si2 0.840294 0.364859 0.994658
Si Si3 0.651269 0.794368 0.688393
Si Si4 0.335776 0.028231 0.287387
Si Si5 0.789238 0.177917 0.837222
O O1 0.500000 0.538110 0.996065
O O2 0.744679 0.524756 0.834150
O O3 0.641340 0.622705 0.908091
O O4 0.755911 0.556317 0.131487
O O5 0.777774 0.329412 0.838794
O O6 0.824363 0.428993 0.944736
O O7 0.000000 0.352178 0.991597
O O8 0.793175 0.346446 0.177919
O O9 0.500000 0.818306 0.663838
O O10 0.718193 0.798393 0.505660
O O11 0.642579 0.731798 0.754996
O O12 0.500000 0.018913 0.257000
#
# Coordination Sequence:
#
# PCOD9352799 Si02
#       5
#     8   8   8   8   8
#     4  12  26  44  69 104 147 186 232 296 365 427
#     4  10  22  41  67  98 130 172 231 294 347 410
#     4  11  23  41  64  95 132 176 235 293 347 415
#     4  11  24  45  72 103 140 185 241 293 351 430
#     4  12  23  43  68  98 136 187 230 288 361 424
#
# _framework density 21.379297999999999
#
# number of rings (size 3 to 8) (size 9 to 14) (size 15 to 20)
#    0.000    0.800    4.000    3.600    0.000    4.000 
#    0.000    5.000    0.000    0.000    0.000    0.000 
#    0.000    0.000    0.000    0.000    0.000    0.000 
#
# Total GULP energy -111452.352895 kJ/mol
# GULP energy per Si atom -5572.617645 kJ/mol
# Density = 2.133064 g / cm^3
# Si number density = 21.379298 Si / 1000 Ang^3
#
#
#
# Elastic Constant Matrix: (Units=GPa)
#
#
# Indices 1 2 3 4 5 6 
#
# 1 129.7435 42.5404 66.2757 0.0000 0.0000 0.0000
# 2 42.5404 99.7281 35.9398 0.0000 0.0000 0.0000
# 3 66.2757 35.9398 167.2469 0.0000 0.0000 0.0000
# 4 0.0000 0.0000 0.0000 43.7448 0.0000 0.0000
# 5 0.0000 0.0000 0.0000 0.0000-1666.1359 0.0000
# 6 0.0000 0.0000 0.0000 0.0000 0.0000 5.5839
#
#
#
# Elastic Compliance Matrix: (Units=1/GPa)
#
#
# Indices 1 2 3 4 5 6 
#
# 1 0.010551 -0.003245 -0.003484 0.000000 0.000000 0.000000
# 2 -0.003245 0.011867 -0.001264 0.000000 0.000000 0.000000
# 3 -0.003484 -0.001264 0.007631 0.000000 0.000000 0.000000
# 4 0.000000 0.000000 0.000000 0.022860 0.000000 0.000000
# 5 0.000000 0.000000 0.000000 0.000000 -0.000600 0.000000
# 6 0.000000 0.000000 0.000000 0.000000 0.000000 0.179088
#
#
# Mechanical properties :
#
#
# Convention : Reuss Voigt Hill
#
# Bulk Modulus (GPa) = 71.10689 76.24780 73.67734
# Shear Modulus (GPa) = 19.83568 -306.56395 -143.36414
#
# Velocity S-wave (km/s) = 3.04928 -11.98767 -8.19775
# Velocity P-wave (km/s) = 6.76235 12.48454 7.42073
#
# Compressibility (1/GPa) = 0.01406333
#
# Stress axis : x y z
#
# Youngs Moduli (GPa) = 94.77624 84.26629 131.03817
#
# Poissons Ratio (x) = 0.27347 0.45651
# Poissons Ratio (y) = 0.30757 0.16565
# Poissons Ratio (z) = 0.33018 0.10652
#
# Static dielectric constant tensor:
#      x y z
#    x 3.550170 0.000000 0.000000 
#    y 0.000000 1.817510 0.000000 
#    z 0.000000 0.000000 1.829170 
# 
# From -- ./inp_files/2527.got.cif
#   From: 2010.05.17/outbox.cif.g08.bks.cpg/sg36_2_cif.got.tgz:2527.got - 2010.06.03 17:41:39.
