data_PCOD9352286
_publ_section_title
;
Structure prediction by ZEFSAII (Michael W. Deem and Ramdas Pophale) SiO2 
 PCOD9352286
Probable space group: C M C 21
;
_chemical_formula_sum "Si O2"
_cell_formula_units_Z 64
_cell_length_a 8.170393
_cell_length_b 26.098102
_cell_length_c 14.848921
_cell_angle_alpha 90.000000
_cell_angle_beta 90.000000
_cell_angle_gamma 90.000000
_cell_volume 3166.261409
_symmetry_space_group_name_H-M "C M C 21"
_symmetry_group_IT_number 36
_symmetry_cell_setting 'orthorhombic'
loop_
_space_group_symop_operation_xyz
x,y,z
-x,-y,1/2+z
x,-y,1/2+z
-x,y,z
1/2+x,1/2+y,z
1/2-x,1/2-y,1/2+z
1/2+x,1/2-y,1/2+z
1/2-x,1/2+y,z
loop_
_atom_site_type_symbol
_atom_site_label
_atom_site_fract_x
_atom_site_fract_y
_atom_site_fract_z
Si Si1 0.812392 0.922263 0.642310
Si Si2 0.694647 0.759563 0.668151
Si Si3 0.694451 0.149032 0.292569
Si Si4 0.801634 0.987997 0.482197
Si Si5 0.302352 0.355913 0.167778
Si Si6 0.312801 0.323753 0.508805
Si Si7 0.200505 0.895155 0.356001
Si Si8 0.804559 0.396409 0.974853
O O1 0.721972 0.900653 0.729240
O O2 0.814887 0.874501 0.572135
O O3 0.000000 0.933730 0.668101
O O4 0.745344 0.968467 0.581295
O O5 0.500000 0.757338 0.682475
O O6 0.762859 0.801710 0.738606
O O7 0.759855 0.702356 0.678053
O O8 0.723478 0.781245 0.567627
O O9 0.500000 0.106574 0.473051
O O10 0.761164 0.137580 0.391632
O O11 0.746415 0.044836 0.461547
O O12 0.000000 0.986265 0.484962
O O13 0.746855 0.946558 0.407614
O O14 0.500000 0.354710 0.171233
O O15 0.247164 0.389298 0.253297
O O16 0.254323 0.377737 0.071606
O O17 0.500000 0.306652 0.495373
O O18 0.246630 0.345512 0.414715
O O19 0.000000 0.894802 0.359457
O O20 0.000000 0.656814 0.300106
#
# Coordination Sequence:
#
# PCOD9352286 Si02
#       8
#     8   8   8   8   8   8   8   8
#     4   8  15  29  52  80 103 127 167 215 256 298
#     4   9  18  33  53  77 105 137 172 211 257 306
#     4   9  19  35  53  75 105 140 175 211 255 308
#     4   9  18  35  57  79 104 135 173 216 260 304
#     4  10  21  37  55  76 104 138 175 213 254 303
#     4   8  14  28  52  79 103 128 165 212 257 302
#     4   8  16  33  57  80 100 132 179 220 254 301
#     4  11  24  38  51  74 108 141 172 208 257 312
#
# _framework density 20.213113
#
# number of rings (size 3 to 8) (size 9 to 14) (size 15 to 20)
#    0.000    3.000    0.000    1.875    0.000    4.000 
#    0.000    9.375    0.000    0.000    0.000    0.000 
#    0.000    0.000    0.000    0.000    0.000    0.000 
#
# Total GULP energy -178359.498409 kJ/mol
# GULP energy per Si atom -5573.734325 kJ/mol
# Density = 2.016711 g / cm^3
# Si number density = 20.213113 Si / 1000 Ang^3
#
#
#
# Elastic Constant Matrix: (Units=GPa)
#
#
# Indices 1 2 3 4 5 6 
#
# 1 6.3845 9.3536 9.1140 0.0000 0.0000 0.0000
# 2 9.3536 100.2768 64.6894 0.0000 0.0000 0.0000
# 3 9.1140 64.6894 163.5847 0.0000 0.0000 0.0000
# 4 0.0000 0.0000 0.0000 19.5435 0.0000 0.0000
# 5 0.0000 0.0000 0.0000 0.0000 38.6153 0.0000
# 6 0.0000 0.0000 0.0000 0.0000 0.0000 60.9659
#
#
#
# Elastic Compliance Matrix: (Units=1/GPa)
#
#
# Indices 1 2 3 4 5 6 
#
# 1 0.184020 -0.014165 -0.004651 0.000000 0.000000 0.000000
# 2 -0.014165 0.014478 -0.004936 0.000000 0.000000 0.000000
# 3 -0.004651 -0.004936 0.008324 0.000000 0.000000 0.000000
# 4 0.000000 0.000000 0.000000 0.051168 0.000000 0.000000
# 5 0.000000 0.000000 0.000000 0.000000 0.025896 0.000000
# 6 0.000000 0.000000 0.000000 0.000000 0.000000 0.016403
#
#
# Mechanical properties :
#
#
# Convention : Reuss Voigt Hill
#
# Bulk Modulus (GPa) = 6.27673 48.50666 27.39170
# Shear Modulus (GPa) = 12.47196 36.29755 24.38476
#
# Velocity S-wave (km/s) = 2.48669 4.24222 3.47707
# Velocity P-wave (km/s) = 3.36999 6.93145 5.44985
#
# Compressibility (1/GPa) = 0.15931857
#
# Stress axis : x y z
#
# Youngs Moduli (GPa) = 5.43419 69.07036 120.13213
#
# Poissons Ratio (x) = 0.97835 0.55875
# Poissons Ratio (y) = 0.07697 0.59299
# Poissons Ratio (z) = 0.02528 0.34094
#
# Static dielectric constant tensor:
#      x y z
#    x 1.660910 0.000000 0.000000 
#    y 0.000000 1.741080 0.000000 
#    z 0.000000 0.000000 1.735300 
# 
# From -- ./inp_files/10899.got.cif
#   From: 2010.05.17/outbox.cif.g08.bks.cpg/sg36_6_cif.got.tgz:10899.got - 2010.06.03 17:41:39.
