data_PCOD9352408
_publ_section_title
;
Structure prediction by ZEFSAII (Michael W. Deem and Ramdas Pophale) SiO2 
 PCOD9352408
Probable space group: C M C 21
;
_chemical_formula_sum "Si O2"
_cell_formula_units_Z 64
_cell_length_a 11.910318
_cell_length_b 18.602115
_cell_length_c 14.229889
_cell_angle_alpha 90.000000
_cell_angle_beta 90.000000
_cell_angle_gamma 90.000000
_cell_volume 3152.733013
_symmetry_space_group_name_H-M "C M C 21"
_symmetry_group_IT_number 36
_symmetry_cell_setting 'orthorhombic'
loop_
_space_group_symop_operation_xyz
x,y,z
-x,-y,1/2+z
x,-y,1/2+z
-x,y,z
1/2+x,1/2+y,z
1/2-x,1/2-y,1/2+z
1/2+x,1/2-y,1/2+z
1/2-x,1/2+y,z
loop_
_atom_site_type_symbol
_atom_site_label
_atom_site_fract_x
_atom_site_fract_y
_atom_site_fract_z
Si Si1 0.367225 0.355335 0.273990
Si Si2 0.875509 0.661787 0.472277
Si Si3 0.621473 0.564510 0.071838
Si Si4 0.329294 0.473983 0.776026
Si Si5 0.722926 0.307813 0.467899
Si Si6 0.367569 0.242022 0.121812
Si Si7 0.629416 0.589474 0.480867
Si Si8 0.125998 0.616711 0.257081
O O1 0.500000 0.340555 0.292449
O O2 0.353404 0.441350 0.273137
O O3 0.292513 0.322623 0.357994
O O4 0.336445 0.315564 0.176423
O O5 0.866511 0.746191 0.495735
O O6 0.752333 0.627324 0.496185
O O7 0.877635 0.652924 0.359452
O O8 0.000000 0.634411 0.505468
O O9 0.500000 0.587854 0.035181
O O10 0.622487 0.564539 0.183890
O O11 0.706054 0.616542 0.019419
O O12 0.636401 0.482120 0.043153
O O13 0.369541 0.437808 0.872529
O O14 0.198045 0.455037 0.766711
O O15 0.832633 0.272679 0.514815
O O16 0.500000 0.238522 0.128048
O O17 0.324152 0.176098 0.186481
O O18 0.500000 0.620181 0.498266
O O19 0.000000 0.599467 0.226978
#
# Coordination Sequence:
#
# PCOD9352408 Si02
#       8
#     8   8   8   8   8   8   8   8
#     4  11  22  40  66  91 123 167 216 268 327 396
#     4  10  21  38  62  86 119 165 210 253 312 383
#     4  11  22  36  58  90 121 156 205 264 321 377
#     4  11  21  37  61  93 123 160 205 265 329 380
#     4  12  22  38  64  93 124 163 220 269 317 381
#     4  10  22  40  63  91 125 169 219 268 322 390
#     4  10  22  39  61  92 125 158 204 265 323 377
#     4   9  18  38  61  84 118 164 212 252 309 388
#
# _framework density 20.299848000000001
#
# number of rings (size 3 to 8) (size 9 to 14) (size 15 to 20)
#    0.000    1.500    3.750    2.250    1.750    0.500 
#    0.000    1.875    0.000    2.250    0.000    0.000 
#    0.000    0.000    0.000    0.000    0.000    0.000 
#
# Total GULP energy -178156.552347 kJ/mol
# GULP energy per Si atom -5567.392261 kJ/mol
# Density = 2.025364 g / cm^3
# Si number density = 20.299848 Si / 1000 Ang^3
#
#
#
# Elastic Constant Matrix: (Units=GPa)
#
#
# Indices 1 2 3 4 5 6 
#
# 1 97.2029 43.2602 20.0796 0.0000 0.0000 0.0000
# 2 43.2602 66.3836 12.6645 0.0000 0.0000 0.0000
# 3 20.0796 12.6645 80.9782 0.0000 0.0000 0.0000
# 4 0.0000 0.0000 0.0000 30.4170 0.0000 0.0000
# 5 0.0000 0.0000 0.0000 0.0000 21.9333 0.0000
# 6 0.0000 0.0000 0.0000 0.0000 0.0000 25.0927
#
#
#
# Elastic Compliance Matrix: (Units=1/GPa)
#
#
# Indices 1 2 3 4 5 6 
#
# 1 0.014874 -0.009266 -0.002239 0.000000 0.000000 0.000000
# 2 -0.009266 0.021299 -0.001034 0.000000 0.000000 0.000000
# 3 -0.002239 -0.001034 0.013066 0.000000 0.000000 0.000000
# 4 0.000000 0.000000 0.000000 0.032876 0.000000 0.000000
# 5 0.000000 0.000000 0.000000 0.000000 0.045593 0.000000
# 6 0.000000 0.000000 0.000000 0.000000 0.000000 0.039852
#
#
# Mechanical properties :
#
#
# Convention : Reuss Voigt Hill
#
# Bulk Modulus (GPa) = 41.38653 44.06369 42.72511
# Shear Modulus (GPa) = 24.91387 26.72598 25.81993
#
# Velocity S-wave (km/s) = 3.50708 3.63238 3.57028
# Velocity P-wave (km/s) = 6.06888 6.27262 6.17159
#
# Compressibility (1/GPa) = 0.02416245
#
# Stress axis : x y z
#
# Youngs Moduli (GPa) = 67.23125 46.94979 76.53538
#
# Poissons Ratio (x) = 0.43503 0.17137
# Poissons Ratio (y) = 0.62295 0.07910
# Poissons Ratio (z) = 0.15054 0.04852
#
# Static dielectric constant tensor:
#      x y z
#    x 1.774510 0.000000 0.000000 
#    y 0.000000 1.753100 0.000000 
#    z 0.000000 0.000000 1.729880 
# 
# From -- ./inp_files/11769.got.cif
#   From: 2010.05.17/outbox.cif.g08.bks.cpg/sg36_6_cif.got.tgz:11769.got - 2010.06.03 17:41:39.
