data_PCOD9352423
_publ_section_title
;
Structure prediction by ZEFSAII (Michael W. Deem and Ramdas Pophale) SiO2 
 PCOD9352423
Probable space group: C M C 21
;
_chemical_formula_sum "Si O2"
_cell_formula_units_Z 52
_cell_length_a 7.305244
_cell_length_b 14.503410
_cell_length_c 21.104991
_cell_angle_alpha 90.000000
_cell_angle_beta 90.000000
_cell_angle_gamma 90.000000
_cell_volume 2236.093823
_symmetry_space_group_name_H-M "C M C 21"
_symmetry_group_IT_number 36
_symmetry_cell_setting 'orthorhombic'
loop_
_space_group_symop_operation_xyz
x,y,z
-x,-y,1/2+z
x,-y,1/2+z
-x,y,z
1/2+x,1/2+y,z
1/2-x,1/2-y,1/2+z
1/2+x,1/2-y,1/2+z
1/2-x,1/2+y,z
loop_
_atom_site_type_symbol
_atom_site_label
_atom_site_fract_x
_atom_site_fract_y
_atom_site_fract_z
Si Si1 0.722934 0.398621 0.398400
Si Si2 0.500000 0.869472 0.074086
Si Si3 0.278011 0.416253 0.653948
Si Si4 0.292637 0.296406 0.175914
Si Si5 0.220480 0.739378 0.314180
Si Si6 0.219456 0.010594 0.521626
Si Si7 0.709381 0.528850 0.287463
O O1 0.500000 0.398302 0.398855
O O2 0.779162 0.297330 0.375304
O O3 0.773194 0.440369 0.465859
O O4 0.788247 0.467720 0.343269
O O5 0.658556 0.843017 0.126765
O O6 0.661250 0.897766 0.022110
O O7 0.500000 0.410639 0.655886
O O8 0.207291 0.312467 0.658625
O O9 0.226166 0.463727 0.588604
O O10 0.213196 0.470562 0.716410
O O11 0.500000 0.333355 0.171146
O O12 0.232417 0.295086 0.249633
O O13 0.290686 0.635777 0.308510
O O14 0.000000 0.732670 0.313491
O O15 0.000000 0.024847 0.519780
O O16 0.500000 0.497292 0.280769
#
# Coordination Sequence:
#
# PCOD9352423 Si02
#       7
#     8   4   8   8   8   8   8
#     4   9  19  40  62  84 122 166 204 249 314 376
#     4  12  24  40  60  94 122 160 212 256 304 380
#     4   9  18  37  62  92 125 162 205 257 314 368
#     4  10  21  38  63  93 126 159 205 264 314 369
#     4   9  19  37  60  90 121 156 205 254 314 375
#     4  10  23  42  62  88 129 167 206 258 313 376
#     4   9  18  35  61  89 119 157 203 257 306 368
#
# _framework density 23.254839
#
# number of rings (size 3 to 8) (size 9 to 14) (size 15 to 20)
#    0.000    2.462    0.769    0.462    4.308    0.000 
#    5.538    0.000    0.000    0.000    0.000    0.000 
#    0.000    0.000    0.000    0.000    0.000    0.000 
#
# Total GULP energy -144808.628862 kJ/mol
# GULP energy per Si atom -5569.562649 kJ/mol
# Density = 2.320191 g / cm^3
# Si number density = 23.254839 Si / 1000 Ang^3
#
#
#
# Elastic Constant Matrix: (Units=GPa)
#
#
# Indices 1 2 3 4 5 6 
#
# 1 107.4678 -4.7001 1.3521 0.0000 0.0000 0.0000
# 2 -4.7001 40.0219 26.5118 0.0000 0.0000 0.0000
# 3 1.3521 26.5118 95.1496 0.0000 0.0000 0.0000
# 4 0.0000 0.0000 0.0000 9.1137 0.0000 0.0000
# 5 0.0000 0.0000 0.0000 0.0000 13.0440 0.0000
# 6 0.0000 0.0000 0.0000 0.0000 0.0000 4.7534
#
#
#
# Elastic Compliance Matrix: (Units=1/GPa)
#
#
# Indices 1 2 3 4 5 6 
#
# 1 0.009376 0.001459 -0.000540 0.000000 0.000000 0.000000
# 2 0.001459 0.030869 -0.008622 0.000000 0.000000 0.000000
# 3 -0.000540 -0.008622 0.012920 0.000000 0.000000 0.000000
# 4 0.000000 0.000000 0.000000 0.109725 0.000000 0.000000
# 5 0.000000 0.000000 0.000000 0.000000 0.076664 0.000000
# 6 0.000000 0.000000 0.000000 0.000000 0.000000 0.210377
#
#
# Mechanical properties :
#
#
# Convention : Reuss Voigt Hill
#
# Bulk Modulus (GPa) = 26.48405 32.10745 29.29575
# Shear Modulus (GPa) = 10.46196 20.01392 15.23794
#
# Velocity S-wave (km/s) = 2.12335 2.93684 2.56258
# Velocity P-wave (km/s) = 4.17430 5.03357 4.62394
#
# Compressibility (1/GPa) = 0.03775857
#
# Stress axis : x y z
#
# Youngs Moduli (GPa) = 106.65884 32.39497 77.40081
#
# Poissons Ratio (x) = -0.04725 0.04177
# Poissons Ratio (y) = -0.15557 0.66734
# Poissons Ratio (z) = 0.05756 0.27930
#
# Static dielectric constant tensor:
#      x y z
#    x 1.863720 0.000000 0.000000 
#    y 0.000000 1.916200 0.000000 
#    z 0.000000 0.000000 1.855570 
# 
# From -- ./inp_files/13640.got.cif
#   From: 2010.05.17/outbox.cif.g08.bks.cpg/sg36_7_cif.got.tgz:13640.got - 2010.06.03 17:41:39.
