data_PCOD9352218
_publ_section_title
;
Structure prediction by ZEFSAII (Michael W. Deem and Ramdas Pophale) SiO2 
 PCOD9352218
Probable space group: C M C 21
;
_chemical_formula_sum "Si O2"
_cell_formula_units_Z 64
_cell_length_a 7.460055
_cell_length_b 15.034037
_cell_length_c 22.287901
_cell_angle_alpha 90.000000
_cell_angle_beta 90.000000
_cell_angle_gamma 90.000000
_cell_volume 2499.693806
_symmetry_space_group_name_H-M "C M C 21"
_symmetry_group_IT_number 36
_symmetry_cell_setting 'orthorhombic'
loop_
_space_group_symop_operation_xyz
x,y,z
-x,-y,1/2+z
x,-y,1/2+z
-x,y,z
1/2+x,1/2+y,z
1/2-x,1/2-y,1/2+z
1/2+x,1/2-y,1/2+z
1/2-x,1/2+y,z
loop_
_atom_site_type_symbol
_atom_site_label
_atom_site_fract_x
_atom_site_fract_y
_atom_site_fract_z
Si Si1 0.291699 0.473530 0.353050
Si Si2 0.220026 0.142240 0.412278
Si Si3 0.301698 0.650161 0.214088
Si Si4 0.211529 0.711380 0.082884
Si Si5 0.210840 0.915259 0.041244
Si Si6 0.720826 0.524861 0.662457
Si Si7 0.713010 0.662687 0.756147
Si Si8 0.282830 0.163037 0.951581
O O1 0.500000 0.484313 0.336891
O O2 0.219423 0.573625 0.360872
O O3 0.210877 0.400397 0.308111
O O4 0.283186 0.422477 0.416493
O O5 0.283497 0.096899 0.474701
O O6 0.273868 0.245632 0.417158
O O7 0.000000 0.143047 0.412091
O O8 0.500000 0.630216 0.235435
O O9 0.301337 0.684283 0.144885
O O10 0.212382 0.554521 0.204970
O O11 0.244374 0.732638 0.254430
O O12 0.224823 0.816274 0.069216
O O13 0.000000 0.692653 0.090914
O O14 0.276288 0.666874 0.020907
O O15 0.000000 0.935769 0.034251
O O16 0.283842 0.978541 0.093640
O O17 0.500000 0.521473 0.660295
O O18 0.772005 0.616470 0.694375
O O19 0.500000 0.654546 0.758567
O O20 0.500000 0.163097 0.952426
#
# Coordination Sequence:
#
# PCOD9352218 Si02
#       8
#     8   8   8   8   8   8   8   8
#     4  10  21  35  57  82 103 138 185 228 266 314
#     4   8  16  31  52  79 106 137 179 217 257 314
#     4  11  22  33  54  87 110 134 179 235 277 303
#     4   9  17  33  56  79 111 150 177 205 265 340
#     4   8  13  27  53  77 101 136 173 211 254 311
#     4   9  18  32  53  78 103 138 180 219 262 316
#     4  10  21  40  57  72 105 149 184 215 267 336
#     4   9  19  35  56  82 111 144 177 216 270 324
#
# _framework density 25.603135000000002
#
# number of rings (size 3 to 8) (size 9 to 14) (size 15 to 20)
#    0.000    2.750    1.250    1.875    1.750    2.000 
#    0.000    4.375    0.000    0.750    0.000    0.000 
#    0.000    0.000    0.000    0.000    0.000    0.000 
#
# Total GULP energy -178701.551089 kJ/mol
# GULP energy per Si atom -5584.423472 kJ/mol
# Density = 2.554486 g / cm^3
# Si number density = 25.603135 Si / 1000 Ang^3
#
#
#
# Elastic Constant Matrix: (Units=GPa)
#
#
# Indices 1 2 3 4 5 6 
#
# 1 73.4170 5.9061 2.3370 0.0000 0.0000 0.0000
# 2 5.9061 132.9812 25.0038 0.0000 0.0000 0.0000
# 3 2.3370 25.0038 46.3580 0.0000 0.0000 0.0000
# 4 0.0000 0.0000 0.0000 53.9805 0.0000 0.0000
# 5 0.0000 0.0000 0.0000 0.0000 5.5591 0.0000
# 6 0.0000 0.0000 0.0000 0.0000 0.0000 1.0243
#
#
#
# Elastic Compliance Matrix: (Units=1/GPa)
#
#
# Indices 1 2 3 4 5 6 
#
# 1 0.013676 -0.000532 -0.000403 0.000000 0.000000 0.000000
# 2 -0.000532 0.008389 -0.004498 0.000000 0.000000 0.000000
# 3 -0.000403 -0.004498 0.024018 0.000000 0.000000 0.000000
# 4 0.000000 0.000000 0.000000 0.018525 0.000000 0.000000
# 5 0.000000 0.000000 0.000000 0.000000 0.179885 0.000000
# 6 0.000000 0.000000 0.000000 0.000000 0.000000 0.976301
#
#
# Mechanical properties :
#
#
# Convention : Reuss Voigt Hill
#
# Bulk Modulus (GPa) = 28.39422 35.47222 31.93322
# Shear Modulus (GPa) = 4.02124 26.74674 15.38399
#
# Velocity S-wave (km/s) = 1.25460 3.23564 2.45391
# Velocity P-wave (km/s) = 3.63495 5.27673 4.53082
#
# Compressibility (1/GPa) = 0.03521843
#
# Stress axis : x y z
#
# Youngs Moduli (GPa) = 73.11862 119.20062 41.63610
#
# Poissons Ratio (x) = 0.06338 0.01677
# Poissons Ratio (y) = 0.03888 0.18728
# Poissons Ratio (z) = 0.02944 0.53617
#
# Static dielectric constant tensor:
#      x y z
#    x 1.979500 0.000000 0.000000 
#    y 0.000000 2.016800 0.000000 
#    z 0.000000 0.000000 2.060090 
# 
# From -- ./inp_files/16660.got.cif
#   From: 2010.05.17/outbox.cif.g08.bks.cpg/sg36_9_cif.got.tgz:16660.got - 2010.06.03 17:41:39.
