data_PCOD9352887
_publ_section_title
;
Structure prediction by ZEFSAII (Michael W. Deem and Ramdas Pophale) SiO2 
 PCOD9352887
Probable space group: C M C 21
;
_chemical_formula_sum "Si O2"
_cell_formula_units_Z 48
_cell_length_a 18.515390
_cell_length_b 9.313990
_cell_length_c 13.290244
_cell_angle_alpha 90.000000
_cell_angle_beta 90.000000
_cell_angle_gamma 90.000000
_cell_volume 2291.931249
_symmetry_space_group_name_H-M "C M C 21"
_symmetry_group_IT_number 36
_symmetry_cell_setting 'orthorhombic'
loop_
_space_group_symop_operation_xyz
x,y,z
-x,-y,1/2+z
x,-y,1/2+z
-x,y,z
1/2+x,1/2+y,z
1/2-x,1/2-y,1/2+z
1/2+x,1/2-y,1/2+z
1/2-x,1/2+y,z
loop_
_atom_site_type_symbol
_atom_site_label
_atom_site_fract_x
_atom_site_fract_y
_atom_site_fract_z
Si Si1 0.500000 0.508406 0.625000
Si Si2 0.000000 0.320222 0.373099
Si Si3 0.840180 0.892789 0.357153
Si Si4 0.500000 0.170914 0.631508
Si Si5 0.745936 0.127017 0.453862
Si Si6 0.000000 0.024014 0.864596
Si Si7 0.139585 0.819698 0.125128
Si Si8 0.108990 0.463084 0.527332
O O1 0.500000 0.339490 0.611406
O O2 0.500000 0.537085 0.744016
O O3 0.426705 0.581676 0.588162
O O4 0.000000 0.147325 0.384702
O O5 0.066964 0.390777 0.433344
O O6 0.000000 0.350994 0.253092
O O7 0.795446 0.764372 0.408930
O O8 0.841540 0.862082 0.238210
O O9 0.799999 0.043530 0.378729
O O10 0.923629 0.904182 0.394395
O O11 0.567266 0.095649 0.576873
O O12 0.793427 0.166286 0.550562
O O13 0.685571 0.014669 0.488516
O O14 0.113351 0.656802 0.113850
#
# Coordination Sequence:
#
# PCOD9352887 Si02
#       8
#     4   4   8   4   8   4   8   8
#     4   9  21  44  72 101 130 185 231 290 353 420
#     4  10  22  45  71 100 144 178 235 299 355 423
#     4  11  27  46  75 104 141 190 239 291 358 424
#     4  10  24  41  71 105 136 184 242 294 354 417
#     4  12  27  46  67 107 141 189 236 289 357 425
#     4   9  21  46  74 102 128 187 238 283 350 428
#     4  11  25  48  73  98 148 187 235 294 359 425
#     4  11  25  44  65 105 138 189 233 297 352 418
#
# _framework density 20.943034999999998
#
# number of rings (size 3 to 8) (size 9 to 14) (size 15 to 20)
#    0.000    1.333    1.667    2.000    7.000    2.000 
#    3.000    0.000    0.000    0.000    0.000    0.000 
#    0.000    0.000    0.000    0.000    0.000    0.000 
#
# Total GULP energy -134186.654618 kJ/mol
# GULP energy per Si atom -5591.110609 kJ/mol
# Density = 2.089537 g / cm^3
# Si number density = 20.943035 Si / 1000 Ang^3
#
#
#
# Elastic Constant Matrix: (Units=GPa)
#
#
# Indices 1 2 3 4 5 6 
#
# 1 162.7348 72.8834 55.0270 0.0000 0.0000 0.0000
# 2 72.8834 112.6958 26.7875 0.0000 0.0000 0.0000
# 3 55.0270 26.7875 122.3828 0.0000 0.0000 0.0000
# 4 0.0000 0.0000 0.0000 38.5756 0.0000 0.0000
# 5 0.0000 0.0000 0.0000 0.0000 23.0222 0.0000
# 6 0.0000 0.0000 0.0000 0.0000 0.0000 37.0315
#
#
#
# Elastic Compliance Matrix: (Units=1/GPa)
#
#
# Indices 1 2 3 4 5 6 
#
# 1 0.009676 -0.005510 -0.003145 0.000000 0.000000 0.000000
# 2 -0.005510 0.012499 -0.000258 0.000000 0.000000 0.000000
# 3 -0.003145 -0.000258 0.009641 0.000000 0.000000 0.000000
# 4 0.000000 0.000000 0.000000 0.025923 0.000000 0.000000
# 5 0.000000 0.000000 0.000000 0.000000 0.043436 0.000000
# 6 0.000000 0.000000 0.000000 0.000000 0.000000 0.027004
#
#
# Mechanical properties :
#
#
# Convention : Reuss Voigt Hill
#
# Bulk Modulus (GPa) = 71.47918 78.57879 75.02898
# Shear Modulus (GPa) = 33.18530 35.93356 34.55943
#
# Velocity S-wave (km/s) = 3.98496 4.14669 4.06663
# Velocity P-wave (km/s) = 7.44161 7.78000 7.61269
#
# Compressibility (1/GPa) = 0.01399009
#
# Stress axis : x y z
#
# Youngs Moduli (GPa) = 103.34638 80.00951 103.71864
#
# Poissons Ratio (x) = 0.44088 0.32615
# Poissons Ratio (y) = 0.56948 0.02677
# Poissons Ratio (z) = 0.32498 0.02065
#
# Static dielectric constant tensor:
#      x y z
#    x 1.752200 0.000000 0.000000 
#    y 0.000000 1.734860 0.000000 
#    z 0.000000 0.000000 1.742350 
# 
# From -- ./inp_files/12518.got.cif
#   From: 2010.05.17/outbox.cif.g08.bks.cpg/sg36_7_cif.got.tgz:12518.got - 2010.06.03 17:41:39.
