data_PCOD9352449
_publ_section_title
;
Structure prediction by ZEFSAII (Michael W. Deem and Ramdas Pophale) SiO2 
 PCOD9352449
Probable space group: C M C 21
;
_chemical_formula_sum "Si O2"
_cell_formula_units_Z 56
_cell_length_a 23.619765
_cell_length_b 13.818526
_cell_length_c 8.241613
_cell_angle_alpha 90.000000
_cell_angle_beta 90.000000
_cell_angle_gamma 90.000000
_cell_volume 2689.982843
_symmetry_space_group_name_H-M "C M C 21"
_symmetry_group_IT_number 36
_symmetry_cell_setting 'orthorhombic'
loop_
_space_group_symop_operation_xyz
x,y,z
-x,-y,1/2+z
x,-y,1/2+z
-x,y,z
1/2+x,1/2+y,z
1/2-x,1/2-y,1/2+z
1/2+x,1/2-y,1/2+z
1/2-x,1/2+y,z
loop_
_atom_site_type_symbol
_atom_site_label
_atom_site_fract_x
_atom_site_fract_y
_atom_site_fract_z
Si Si1 0.383878 0.657549 0.734320
Si Si2 0.157401 0.365625 0.815374
Si Si3 0.148885 0.445711 0.452645
Si Si4 0.000000 0.071327 0.869895
Si Si5 0.267466 0.388803 0.338393
Si Si6 0.000000 0.139997 0.240592
Si Si7 0.611597 0.736538 0.365923
Si Si8 0.772889 0.201113 0.196478
O O1 0.370526 0.759413 0.825802
O O2 0.443189 0.612439 0.786296
O O3 0.330821 0.586452 0.778997
O O4 0.385304 0.690980 0.546875
O O5 0.148025 0.412380 0.637963
O O6 0.130503 0.443359 0.936370
O O7 0.224917 0.346991 0.809336
O O8 0.212027 0.452401 0.373093
O O9 0.118274 0.353568 0.370298
O O10 0.000000 0.955858 0.851975
O O11 0.000000 0.103531 0.056320
O O12 0.246613 0.312564 0.203127
O O13 0.272403 0.339736 0.516132
O O14 0.945034 0.202341 0.281055
O O15 0.665797 0.695634 0.272310
#
# Coordination Sequence:
#
# PCOD9352449 Si02
#       8
#     8   8   8   4   8   4   8   8
#     4  10  21  39  59  83 115 150 189 239 287 335
#     4   9  19  33  54  84 118 152 187 228 278 332
#     4   9  19  33  54  84 118 152 187 228 278 332
#     4  12  26  44  65  86 107 142 187 234 286 342
#     4   9  17  31  51  79 112 149 189 231 279 330
#     4  12  26  44  65  86 107 142 187 234 286 342
#     4  10  21  39  59  83 115 150 189 239 287 335
#     4   9  17  31  51  79 112 149 189 231 279 330
#
# _framework density 20.817975000000001
#
# number of rings (size 3 to 8) (size 9 to 14) (size 15 to 20)
#    0.000    2.286    0.000    4.714    0.000    8.000 
#    0.000    3.571    0.000    0.000    0.000    0.000 
#    0.000    0.000    0.000    0.000    0.000    0.000 
#
# Total GULP energy -156151.497708 kJ/mol
# GULP energy per Si atom -5576.839204 kJ/mol
# Density = 2.077059 g / cm^3
# Si number density = 20.817975 Si / 1000 Ang^3
#
#
#
# Elastic Constant Matrix: (Units=GPa)
#
#
# Indices 1 2 3 4 5 6 
#
# 1 123.9169 10.0376 19.1436 0.0000 0.0000 0.0000
# 2 10.0376 39.9163 3.4700 0.0000 0.0000 0.0000
# 3 19.1436 3.4700 49.8724 0.0000 0.0000 0.0000
# 4 0.0000 0.0000 0.0000 32.5321 0.0000 0.0000
# 5 0.0000 0.0000 0.0000 0.0000 22.3485 0.0000
# 6 0.0000 0.0000 0.0000 0.0000 0.0000 6.2324
#
#
#
# Elastic Compliance Matrix: (Units=1/GPa)
#
#
# Indices 1 2 3 4 5 6 
#
# 1 0.008722 -0.001914 -0.003215 0.000000 0.000000 0.000000
# 2 -0.001914 0.025625 -0.001048 0.000000 0.000000 0.000000
# 3 -0.003215 -0.001048 0.021358 0.000000 0.000000 0.000000
# 4 0.000000 0.000000 0.000000 0.030739 0.000000 0.000000
# 5 0.000000 0.000000 0.000000 0.000000 0.044746 0.000000
# 6 0.000000 0.000000 0.000000 0.000000 0.000000 0.160453
#
#
# Mechanical properties :
#
#
# Convention : Reuss Voigt Hill
#
# Bulk Modulus (GPa) = 23.06749 31.00089 27.03419
# Shear Modulus (GPa) = 15.70127 24.29288 19.99707
#
# Velocity S-wave (km/s) = 2.74928 3.41972 3.10266
# Velocity P-wave (km/s) = 4.60246 5.52417 5.08424
#
# Compressibility (1/GPa) = 0.04335106
#
# Stress axis : x y z
#
# Youngs Moduli (GPa) = 114.65835 39.02467 46.82079
#
# Poissons Ratio (x) = 0.07468 0.15051
# Poissons Ratio (y) = 0.21943 0.04908
# Poissons Ratio (z) = 0.36858 0.04091
#
# Static dielectric constant tensor:
#      x y z
#    x 1.735940 0.000000 0.000000 
#    y 0.000000 1.790970 0.000000 
#    z 0.000000 0.000000 1.755740 
# 
# From -- ./inp_files/5259.got.cif
#   From: 2010.05.17/outbox.cif.g08.bks.cpg/sg36_3_cif.got.tgz:5259.got - 2010.06.03 17:41:39.
