data_PCOD9352572
_publ_section_title
;
Structure prediction by ZEFSAII (Michael W. Deem and Ramdas Pophale) SiO2 
 PCOD9352572
Probable space group: C M C 21
;
_chemical_formula_sum "Si O2"
_cell_formula_units_Z 60
_cell_length_a 22.039240
_cell_length_b 11.844611
_cell_length_c 10.362506
_cell_angle_alpha 90.000000
_cell_angle_beta 90.000000
_cell_angle_gamma 90.000000
_cell_volume 2705.093068
_symmetry_space_group_name_H-M "C M C 21"
_symmetry_group_IT_number 36
_symmetry_cell_setting 'orthorhombic'
loop_
_space_group_symop_operation_xyz
x,y,z
-x,-y,1/2+z
x,-y,1/2+z
-x,y,z
1/2+x,1/2+y,z
1/2-x,1/2-y,1/2+z
1/2+x,1/2-y,1/2+z
1/2-x,1/2+y,z
loop_
_atom_site_type_symbol
_atom_site_label
_atom_site_fract_x
_atom_site_fract_y
_atom_site_fract_z
Si Si1 0.566236 0.537205 0.472740
Si Si2 0.690231 0.782511 0.255205
Si Si3 0.365856 0.537013 0.220362
Si Si4 0.066392 0.727872 0.106282
Si Si5 0.879549 0.330007 0.014452
Si Si6 0.101057 0.566062 0.896634
Si Si7 0.327562 0.694154 0.794255
Si Si8 0.500000 0.134696 0.680094
O O1 0.500000 0.492000 0.505433
O O2 0.612799 0.487830 0.576090
O O3 0.580088 0.518166 0.323447
O O4 0.565814 0.672073 0.499636
O O5 0.657573 0.661939 0.242182
O O6 0.659877 0.857313 0.367237
O O7 0.760485 0.758645 0.277487
O O8 0.671930 0.847289 0.123746
O O9 0.320475 0.438528 0.263830
O O10 0.073230 0.610670 0.031571
O O11 0.000000 0.731346 0.172209
O O12 0.123026 0.755837 0.195265
O O13 0.883312 0.436159 0.917638
O O14 0.856614 0.224176 0.931387
O O15 0.945025 0.320484 0.082652
O O16 0.053047 0.590201 0.783535
#
# Coordination Sequence:
#
# PCOD9352572 Si02
#       8
#     8   8   8   8   8   8   8   4
#     4  10  21  40  67  99 137 184 231 294 359 434
#     4  11  27  48  70 103 141 198 247 298 379 447
#     4  11  23  46  68 100 142 184 242 299 367 440
#     4  10  22  41  69 102 137 183 237 289 374 436
#     4  11  27  45  73 112 145 192 252 314 378 456
#     4  11  23  44  74 103 143 191 242 307 369 454
#     4  11  28  44  70 106 142 193 241 309 364 450
#     4  10  24  46  74 110 148 190 238 314 390 436
#
# _framework density 22.180382999999999
#
# number of rings (size 3 to 8) (size 9 to 14) (size 15 to 20)
#    0.000    1.333    2.000    1.600    8.400    0.533 
#    9.600    0.000    0.000    0.000    0.000    0.000 
#    0.000    0.000    0.000    0.000    0.000    0.000 
#
# Total GULP energy -167119.338307 kJ/mol
# GULP energy per Si atom -5570.644610 kJ/mol
# Density = 2.212990 g / cm^3
# Si number density = 22.180383 Si / 1000 Ang^3
#
#
#
# Elastic Constant Matrix: (Units=GPa)
#
#
# Indices 1 2 3 4 5 6 
#
# 1 124.4690 21.3401 37.1339 0.0000 0.0000 0.0000
# 2 21.3401 77.9001 7.4698 0.0000 0.0000 0.0000
# 3 37.1339 7.4698 70.1171 0.0000 0.0000 0.0000
# 4 0.0000 0.0000 0.0000 28.9883 0.0000 0.0000
# 5 0.0000 0.0000 0.0000 0.0000 4.2150 0.0000
# 6 0.0000 0.0000 0.0000 0.0000 0.0000 15.0120
#
#
#
# Elastic Compliance Matrix: (Units=1/GPa)
#
#
# Indices 1 2 3 4 5 6 
#
# 1 0.009912 -0.002235 -0.005012 0.000000 0.000000 0.000000
# 2 -0.002235 0.013473 -0.000252 0.000000 0.000000 0.000000
# 3 -0.005012 -0.000252 0.016943 0.000000 0.000000 0.000000
# 4 0.000000 0.000000 0.000000 0.034497 0.000000 0.000000
# 5 0.000000 0.000000 0.000000 0.000000 0.237249 0.000000
# 6 0.000000 0.000000 0.000000 0.000000 0.000000 0.066613
#
#
# Mechanical properties :
#
#
# Convention : Reuss Voigt Hill
#
# Bulk Modulus (GPa) = 39.47546 44.93042 42.20294
# Shear Modulus (GPa) = 12.43385 23.41255 17.92320
#
# Velocity S-wave (km/s) = 2.37022 3.25245 2.84573
# Velocity P-wave (km/s) = 5.03257 5.86561 5.46498
#
# Compressibility (1/GPa) = 0.02533219
#
# Stress axis : x y z
#
# Youngs Moduli (GPa) = 100.88352 74.22074 59.02219
#
# Poissons Ratio (x) = 0.16587 0.29579
# Poissons Ratio (y) = 0.22546 0.01486
# Poissons Ratio (z) = 0.50558 0.01869
#
# Static dielectric constant tensor:
#      x y z
#    x 1.783540 0.000000 0.000000 
#    y 0.000000 1.906510 0.000000 
#    z 0.000000 0.000000 1.829540 
# 
# From -- ./inp_files/9295.got.cif
#   From: 2010.05.17/outbox.cif.g08.bks.cpg/sg36_5_cif.got.tgz:9295.got - 2010.06.03 17:41:39.
