data_PCOD9352486
_publ_section_title
;
Structure prediction by ZEFSAII (Michael W. Deem and Ramdas Pophale) SiO2 
 PCOD9352486
Probable space group: C M C 21
;
_chemical_formula_sum "Si O2"
_cell_formula_units_Z 64
_cell_length_a 18.606223
_cell_length_b 12.438758
_cell_length_c 12.924922
_cell_angle_alpha 90.000000
_cell_angle_beta 90.000000
_cell_angle_gamma 90.000000
_cell_volume 2991.322042
_symmetry_space_group_name_H-M "C M C 21"
_symmetry_group_IT_number 36
_symmetry_cell_setting 'orthorhombic'
loop_
_space_group_symop_operation_xyz
x,y,z
-x,-y,1/2+z
x,-y,1/2+z
-x,y,z
1/2+x,1/2+y,z
1/2-x,1/2-y,1/2+z
1/2+x,1/2-y,1/2+z
1/2-x,1/2+y,z
loop_
_atom_site_type_symbol
_atom_site_label
_atom_site_fract_x
_atom_site_fract_y
_atom_site_fract_z
Si Si1 0.779660 0.878915 0.871920
Si Si2 0.185323 0.066847 0.007069
Si Si3 0.080087 0.004951 0.675428
Si Si4 0.692924 0.108436 0.161210
Si Si5 0.918370 0.415566 0.162311
Si Si6 0.632034 0.201150 0.459400
Si Si7 0.080548 0.211482 0.313649
Si Si8 0.580227 0.258380 0.236825
O O1 0.749393 0.877135 0.755156
O O2 0.712462 0.843397 0.941623
O O3 0.849044 0.802799 0.883392
O O4 0.802268 0.998269 0.904741
O O5 0.261553 0.094064 0.058214
O O6 0.140656 0.996240 0.088652
O O7 0.140997 0.175506 0.992767
O O8 0.086895 0.112946 0.742573
O O9 0.000000 0.007142 0.627489
O O10 0.083663 0.896219 0.742572
O O11 0.640837 0.210609 0.162882
O O12 0.641499 0.006008 0.180609
O O13 0.911036 0.316578 0.242290
O O14 0.000000 0.457487 0.171647
O O15 0.906601 0.366350 0.047989
O O16 0.593206 0.204150 0.348541
O O17 0.000000 0.214505 0.360808
O O18 0.500000 0.234091 0.200136
#
# Coordination Sequence:
#
# PCOD9352486 Si02
#       8
#     8   8   8   8   8   8   8   8
#     4  11  24  40  62  94 125 165 211 261 314 379
#     4  12  24  39  63  94 127 165 205 263 316 381
#     4  10  21  39  63  90 122 161 204 254 316 374
#     4  11  24  41  64  92 128 168 210 258 311 373
#     4  11  22  41  66  92 128 170 213 260 311 378
#     4  11  23  38  64  94 126 163 214 261 308 378
#     4  10  21  40  63  91 124 163 205 257 320 372
#     4  10  23  42  65  91 124 167 210 260 312 369
#
# _framework density 21.395223000000001
#
# number of rings (size 3 to 8) (size 9 to 14) (size 15 to 20)
#    0.000    1.250    3.750    1.500    3.500    2.000 
#    0.000    0.000    0.000    0.000    0.000    0.000 
#    0.000    0.000    0.000    0.000    0.000    0.000 
#
# Total GULP energy -178869.648986 kJ/mol
# GULP energy per Si atom -5589.676531 kJ/mol
# Density = 2.134653 g / cm^3
# Si number density = 21.395223 Si / 1000 Ang^3
#
#
#
# Elastic Constant Matrix: (Units=GPa)
#
#
# Indices 1 2 3 4 5 6 
#
# 1 118.5150 4.3388 12.4004 0.0000 0.0000 0.0000
# 2 4.3388 55.4202 -10.0323 0.0000 0.0000 0.0000
# 3 12.4004 -10.0323 16.6352 0.0000 0.0000 0.0000
# 4 0.0000 0.0000 0.0000 27.3038 0.0000 0.0000
# 5 0.0000 0.0000 0.0000 0.0000 11.0614 0.0000
# 6 0.0000 0.0000 0.0000 0.0000 0.0000 23.1009
#
#
#
# Elastic Compliance Matrix: (Units=1/GPa)
#
#
# Indices 1 2 3 4 5 6 
#
# 1 0.009395 -0.002249 -0.008359 0.000000 0.000000 0.000000
# 2 -0.002249 0.020794 0.014216 0.000000 0.000000 0.000000
# 3 -0.008359 0.014216 0.074919 0.000000 0.000000 0.000000
# 4 0.000000 0.000000 0.000000 0.036625 0.000000 0.000000
# 5 0.000000 0.000000 0.000000 0.000000 0.090404 0.000000
# 6 0.000000 0.000000 0.000000 0.000000 0.000000 0.043288
#
#
# Mechanical properties :
#
#
# Convention : Reuss Voigt Hill
#
# Bulk Modulus (GPa) = 8.90286 22.66492 15.78389
# Shear Modulus (GPa) = 16.35863 24.55077 20.45470
#
# Velocity S-wave (km/s) = 2.76813 3.39113 3.09534
# Velocity P-wave (km/s) = 3.79300 5.09407 4.49090
#
# Compressibility (1/GPa) = 0.11232351
#
# Stress axis : x y z
#
# Youngs Moduli (GPa) = 106.44270 48.09192 13.34782
#
# Poissons Ratio (x) = 0.10815 0.11158
# Poissons Ratio (y) = 0.23936 -0.18976
# Poissons Ratio (z) = 0.88979 -0.68369
#
# Static dielectric constant tensor:
#      x y z
#    x 1.785420 0.000000 0.000000 
#    y 0.000000 1.755300 0.000000 
#    z 0.000000 0.000000 1.749640 
# 
# From -- ./inp_files/12648.got.cif
#   From: 2010.05.17/outbox.cif.g08.bks.cpg/sg36_7_cif.got.tgz:12648.got - 2010.06.03 17:41:39.
