data_PCOD9352477
_publ_section_title
;
Structure prediction by ZEFSAII (Michael W. Deem and Ramdas Pophale) SiO2 
 PCOD9352477
Probable space group: C M C 21
;
_chemical_formula_sum "Si O2"
_cell_formula_units_Z 64
_cell_length_a 8.545383
_cell_length_b 24.296459
_cell_length_c 15.790284
_cell_angle_alpha 90.000000
_cell_angle_beta 90.000000
_cell_angle_gamma 90.000000
_cell_volume 3278.418993
_symmetry_space_group_name_H-M "C M C 21"
_symmetry_group_IT_number 36
_symmetry_cell_setting 'orthorhombic'
loop_
_space_group_symop_operation_xyz
x,y,z
-x,-y,1/2+z
x,-y,1/2+z
-x,y,z
1/2+x,1/2+y,z
1/2-x,1/2-y,1/2+z
1/2+x,1/2-y,1/2+z
1/2-x,1/2+y,z
loop_
_atom_site_type_symbol
_atom_site_label
_atom_site_fract_x
_atom_site_fract_y
_atom_site_fract_z
Si Si1 0.186382 0.248312 0.609540
Si Si2 0.311547 0.424146 0.696814
Si Si3 0.814034 0.257495 0.294639
Si Si4 0.184506 0.547003 0.697342
Si Si5 0.809048 0.141493 0.362631
Si Si6 0.311749 0.624214 0.550246
Si Si7 0.810690 0.855587 0.532230
Si Si8 0.685935 0.623876 0.843481
O O1 0.276346 0.257844 0.697553
O O2 0.222945 0.186934 0.577747
O O3 0.237835 0.295296 0.544349
O O4 0.000000 0.251514 0.623750
O O5 0.500000 0.421341 0.697484
O O6 0.262215 0.487256 0.696786
O O7 0.254983 0.393080 0.781494
O O8 0.259442 0.392462 0.611978
O O9 0.763867 0.205320 0.350842
O O10 0.727684 0.313971 0.316011
O O11 0.000000 0.265702 0.304718
O O12 0.237771 0.582294 0.616145
O O13 0.233379 0.581537 0.780175
O O14 0.000000 0.540357 0.695907
O O15 0.759424 0.117834 0.453062
O O16 0.000000 0.141141 0.362123
O O17 0.500000 0.617589 0.553915
O O18 0.767270 0.881205 0.441769
O O19 0.000000 0.850659 0.533936
O O20 0.500000 0.616018 0.836302
#
# Coordination Sequence:
#
# PCOD9352477 Si02
#       8
#     8   8   8   8   8   8   8   8
#     4  11  21  34  59  92 128 163 196 239 297 357
#     4  10  21  42  65  85 114 157 203 249 297 357
#     4  11  20  36  62  92 125 159 197 244 298 358
#     4  12  26  42  60  85 117 158 201 254 307 355
#     4   9  19  37  64  91 118 156 198 239 293 354
#     4  10  21  39  62  89 120 157 199 242 291 358
#     4  10  22  40  64  91 122 159 202 247 298 358
#     4  11  23  40  62  91 122 159 202 248 299 359
#
# _framework density 19.521605000000001
#
# number of rings (size 3 to 8) (size 9 to 14) (size 15 to 20)
#    0.000    1.500    2.500    3.000    0.000    4.000 
#    0.000    6.875    0.000    0.000    0.000    0.000 
#    0.000    0.000    0.000    0.000    0.000    0.000 
#
# Total GULP energy -178869.181051 kJ/mol
# GULP energy per Si atom -5589.661908 kJ/mol
# Density = 1.947717 g / cm^3
# Si number density = 19.521605 Si / 1000 Ang^3
#
#
#
# Elastic Constant Matrix: (Units=GPa)
#
#
# Indices 1 2 3 4 5 6 
#
# 1 4.2082 -3.1110 5.5732 0.0000 0.0000 0.0000
# 2 -3.1110 89.3773 18.6551 0.0000 0.0000 0.0000
# 3 5.5732 18.6551 97.6505 0.0000 0.0000 0.0000
# 4 0.0000 0.0000 0.0000 3.9372 0.0000 0.0000
# 5 0.0000 0.0000 0.0000 0.0000 12.0807 0.0000
# 6 0.0000 0.0000 0.0000 0.0000 0.0000 28.5909
#
#
#
# Elastic Compliance Matrix: (Units=1/GPa)
#
#
# Indices 1 2 3 4 5 6 
#
# 1 0.271225 0.013198 -0.018001 0.000000 0.000000 0.000000
# 2 0.013198 0.012295 -0.003102 0.000000 0.000000 0.000000
# 3 -0.018001 -0.003102 0.011861 0.000000 0.000000 0.000000
# 4 0.000000 0.000000 0.000000 0.253990 0.000000 0.000000
# 5 0.000000 0.000000 0.000000 0.000000 0.082777 0.000000
# 6 0.000000 0.000000 0.000000 0.000000 0.000000 0.034976
#
#
# Mechanical properties :
#
#
# Convention : Reuss Voigt Hill
#
# Bulk Modulus (GPa) = 3.57692 25.94120 14.75906
# Shear Modulus (GPa) = 6.44227 20.26301 13.35264
#
# Velocity S-wave (km/s) = 1.81858 3.22526 2.61816
# Velocity P-wave (km/s) = 2.49918 5.21412 4.08858
#
# Compressibility (1/GPa) = 0.27957034
#
# Stress axis : x y z
#
# Youngs Moduli (GPa) = 3.68697 81.33133 84.31264
#
# Poissons Ratio (x) = -1.07340 1.51771
# Poissons Ratio (y) = -0.04866 0.26155
# Poissons Ratio (z) = 0.06637 0.25230
#
# Static dielectric constant tensor:
#      x y z
#    x 1.657290 0.000000 0.000000 
#    y 0.000000 1.643170 0.000000 
#    z 0.000000 0.000000 1.696690 
# 
# From -- ./inp_files/10914.got.cif
#   From: 2010.05.17/outbox.cif.g08.bks.cpg/sg36_6_cif.got.tgz:10914.got - 2010.06.03 17:41:39.
