data_PCOD9352418
_publ_section_title
;
Structure prediction by ZEFSAII (Michael W. Deem and Ramdas Pophale) SiO2 
 PCOD9352418
Probable space group: C M C 21
;
_chemical_formula_sum "Si O2"
_cell_formula_units_Z 64
_cell_length_a 14.700402
_cell_length_b 23.176143
_cell_length_c 7.999693
_cell_angle_alpha 90.000000
_cell_angle_beta 90.000000
_cell_angle_gamma 90.000000
_cell_volume 2725.484357
_symmetry_space_group_name_H-M "C M C 21"
_symmetry_group_IT_number 36
_symmetry_cell_setting 'orthorhombic'
loop_
_space_group_symop_operation_xyz
x,y,z
-x,-y,1/2+z
x,-y,1/2+z
-x,y,z
1/2+x,1/2+y,z
1/2-x,1/2-y,1/2+z
1/2+x,1/2-y,1/2+z
1/2-x,1/2+y,z
loop_
_atom_site_type_symbol
_atom_site_label
_atom_site_fract_x
_atom_site_fract_y
_atom_site_fract_z
Si Si1 0.235559 0.637047 0.500000
Si Si2 0.099668 0.024902 0.002260
Si Si3 0.676278 0.624263 0.861825
Si Si4 0.297557 0.254445 0.359645
Si Si5 0.603711 0.414191 0.858410
Si Si6 0.640929 0.918459 0.483453
Si Si7 0.102198 0.457417 0.104720
Si Si8 0.392687 0.215131 0.013495
O O1 0.281429 0.635834 0.681947
O O2 0.186571 0.697272 0.467158
O O3 0.319902 0.634350 0.371867
O O4 0.166730 0.583684 0.495862
O O5 0.103628 0.074054 0.861024
O O6 0.000000 0.998873 0.985576
O O7 0.150880 0.965282 0.972584
O O8 0.104104 0.055992 0.178164
O O9 0.654763 0.687327 0.929027
O O10 0.751457 0.591966 0.973214
O O11 0.345015 0.240506 0.181390
O O12 0.187860 0.269651 0.376841
O O13 0.500000 0.392639 0.891954
O O14 0.610353 0.936044 0.296212
O O15 0.604277 0.855026 0.527099
O O16 0.622555 0.974384 0.594713
O O17 0.000000 0.449426 0.044893
O O18 0.500000 0.233543 0.990695
#
# Coordination Sequence:
#
# PCOD9352418 Si02
#       8
#     8   8   8   8   8   8   8   8
#     4  11  24  40  64  94 129 176 218 279 342 404
#     4  10  21  38  62  93 129 169 219 276 336 409
#     4  10  22  42  64  91 128 174 220 281 343 402
#     4  11  25  46  70 101 137 180 242 294 344 430
#     4  10  22  38  61  94 130 172 217 273 342 408
#     4  10  24  42  68  99 139 181 227 285 351 426
#     4  11  23  41  64 100 137 176 227 279 345 425
#     4  11  25  49  76 104 145 194 238 301 368 418
#
# _framework density 23.482064000000001
#
# number of rings (size 3 to 8) (size 9 to 14) (size 15 to 20)
#    0.000    1.500    1.250    2.625    5.250    5.000 
#    0.000    0.625    0.000    0.000    0.000    0.000 
#    0.000    0.000    0.000    0.000    0.000    0.000 
#
# Total GULP energy -178391.489167 kJ/mol
# GULP energy per Si atom -5574.734036 kJ/mol
# Density = 2.342862 g / cm^3
# Si number density = 23.482064 Si / 1000 Ang^3
#
#
#
# Elastic Constant Matrix: (Units=GPa)
#
#
# Indices 1 2 3 4 5 6 
#
# 1 88.8097 37.3917 31.5629 0.0000 0.0000 0.0000
# 2 37.3917 141.2164 17.7111 0.0000 0.0000 0.0000
# 3 31.5629 17.7111 46.0091 0.0000 0.0000 0.0000
# 4 0.0000 0.0000 0.0000 39.1460 0.0000 0.0000
# 5 0.0000 0.0000 0.0000 0.0000 25.1541 0.0000
# 6 0.0000 0.0000 0.0000 0.0000 0.0000 -3.2101
#
#
#
# Elastic Compliance Matrix: (Units=1/GPa)
#
#
# Indices 1 2 3 4 5 6 
#
# 1 0.016021 -0.003009 -0.009833 0.000000 0.000000 0.000000
# 2 -0.003009 0.008006 -0.001018 0.000000 0.000000 0.000000
# 3 -0.009833 -0.001018 0.028872 0.000000 0.000000 0.000000
# 4 0.000000 0.000000 0.000000 0.025545 0.000000 0.000000
# 5 0.000000 0.000000 0.000000 0.000000 0.039755 0.000000
# 6 0.000000 0.000000 0.000000 0.000000 0.000000 -0.311520
#
#
# Mechanical properties :
#
#
# Convention : Reuss Voigt Hill
#
# Bulk Modulus (GPa) = 39.71310 49.92961 44.82136
# Shear Modulus (GPa) = -31.80489 24.84264 -3.48113
#
# Velocity S-wave (km/s) = -3.68426 3.25613 -1.21888
# Velocity P-wave (km/s) = 1.07215 5.95362 4.14102
#
# Compressibility (1/GPa) = 0.02518061
#
# Stress axis : x y z
#
# Youngs Moduli (GPa) = 62.41648 124.91132 34.63588
#
# Poissons Ratio (x) = 0.37586 0.34056
# Poissons Ratio (y) = 0.18781 0.03524
# Poissons Ratio (z) = 0.61372 0.12710
#
# Static dielectric constant tensor:
#      x y z
#    x 2.077720 0.000000 0.000000 
#    y 0.000000 1.929880 0.000000 
#    z 0.000000 0.000000 1.938560 
# 
# From -- ./inp_files/4352.got.cif
#   From: 2010.05.17/outbox.cif.g08.bks.cpg/sg36_3_cif.got.tgz:4352.got - 2010.06.03 17:41:39.
