data_PCOD9352475
_publ_section_title
;
Structure prediction by ZEFSAII (Michael W. Deem and Ramdas Pophale) SiO2 
 PCOD9352475
Probable space group: C M C 21
;
_chemical_formula_sum "Si O2"
_cell_formula_units_Z 64
_cell_length_a 7.869720
_cell_length_b 19.991045
_cell_length_c 18.119960
_cell_angle_alpha 90.000000
_cell_angle_beta 90.000000
_cell_angle_gamma 90.000000
_cell_volume 2850.703258
_symmetry_space_group_name_H-M "C M C 21"
_symmetry_group_IT_number 36
_symmetry_cell_setting 'orthorhombic'
loop_
_space_group_symop_operation_xyz
x,y,z
-x,-y,1/2+z
x,-y,1/2+z
-x,y,z
1/2+x,1/2+y,z
1/2-x,1/2-y,1/2+z
1/2+x,1/2-y,1/2+z
1/2-x,1/2+y,z
loop_
_atom_site_type_symbol
_atom_site_label
_atom_site_fract_x
_atom_site_fract_y
_atom_site_fract_z
Si Si1 0.798408 0.569849 0.703330
Si Si2 0.794330 0.641373 0.554541
Si Si3 0.197882 0.789978 0.772847
Si Si4 0.207912 0.784265 0.606328
Si Si5 0.207293 0.895937 0.498173
Si Si6 0.799791 0.966081 0.941804
Si Si7 0.302684 0.659843 0.841050
Si Si8 0.303535 0.059361 0.281645
O O1 0.731907 0.602281 0.627911
O O2 0.776219 0.621002 0.771526
O O3 0.729341 0.496969 0.726905
O O4 0.000000 0.561057 0.693475
O O5 0.742277 0.718430 0.561238
O O6 0.732461 0.603319 0.482510
O O7 0.000000 0.639980 0.554577
O O8 0.266186 0.777508 0.690290
O O9 0.285563 0.739229 0.828945
O O10 0.215017 0.868893 0.785279
O O11 0.000000 0.771623 0.774605
O O12 0.267384 0.851438 0.566284
O O13 0.000000 0.785816 0.609055
O O14 0.263812 0.863377 0.420536
O O15 0.000000 0.893253 0.500323
O O16 0.256799 0.973392 0.494971
O O17 0.707792 0.970702 0.863776
O O18 0.000000 0.973891 0.927208
O O19 0.500000 0.641178 0.839771
O O20 0.500000 0.071689 0.262731
#
# Coordination Sequence:
#
# PCOD9352475 Si02
#       8
#     8   8   8   8   8   8   8   8
#     4  10  21  40  63  87 119 159 205 250 302 365
#     4  10  21  39  62  87 120 161 201 246 307 367
#     4  11  23  40  63  90 123 159 204 257 309 362
#     4   9  19  38  61  84 117 160 200 242 298 363
#     4   9  20  37  58  86 118 157 201 243 297 363
#     4  11  23  40  60  89 124 157 203 254 299 360
#     4  11  21  37  63  89 119 157 204 254 304 362
#     4  11  24  41  62  88 122 162 206 256 308 364
#
# _framework density 22.450599
#
# number of rings (size 3 to 8) (size 9 to 14) (size 15 to 20)
#    0.000    1.750    2.500    1.500    3.500    1.000 
#    0.000    0.000    0.000    4.500    0.000    0.000 
#    0.000    0.000    0.000    0.000    0.000    0.000 
#
# Total GULP energy -178864.603855 kJ/mol
# GULP energy per Si atom -5589.518870 kJ/mol
# Density = 2.239950 g / cm^3
# Si number density = 22.450599 Si / 1000 Ang^3
#
#
#
# Elastic Constant Matrix: (Units=GPa)
#
#
# Indices 1 2 3 4 5 6 
#
# 1 28.0155 -4.7082 -2.0711 0.0000 0.0000 0.0000
# 2 -4.7082 90.1185 -19.2700 0.0000 0.0000 0.0000
# 3 -2.0711 -19.2700 9.2163 0.0000 0.0000 0.0000
# 4 0.0000 0.0000 0.0000 44.8763 0.0000 0.0000
# 5 0.0000 0.0000 0.0000 0.0000 4.6469 0.0000
# 6 0.0000 0.0000 0.0000 0.0000 0.0000 15.2002
#
#
#
# Elastic Compliance Matrix: (Units=1/GPa)
#
#
# Indices 1 2 3 4 5 6 
#
# 1 0.038594 0.007001 0.023311 0.000000 0.000000 0.000000
# 2 0.007001 0.021339 0.046190 0.000000 0.000000 0.000000
# 3 0.023311 0.046190 0.210320 0.000000 0.000000 0.000000
# 4 0.000000 0.000000 0.000000 0.022283 0.000000 0.000000
# 5 0.000000 0.000000 0.000000 0.000000 0.215198 0.000000
# 6 0.000000 0.000000 0.000000 0.000000 0.000000 0.065789
#
#
# Mechanical properties :
#
#
# Convention : Reuss Voigt Hill
#
# Bulk Modulus (GPa) = 2.36263 8.36130 5.36197
# Shear Modulus (GPa) = 8.90305 23.17132 16.03719
#
# Velocity S-wave (km/s) = 1.99355 3.21612 2.67560
# Velocity P-wave (km/s) = 2.52064 4.18612 3.45523
#
# Compressibility (1/GPa) = 0.42325778
#
# Stress axis : x y z
#
# Youngs Moduli (GPa) = 25.91052 46.86223 4.75466
#
# Poissons Ratio (x) = -0.32808 -0.11083
# Poissons Ratio (y) = -0.18140 -0.21962
# Poissons Ratio (z) = -0.60399 -2.16459
#
# Static dielectric constant tensor:
#      x y z
#    x 1.827280 0.000000 0.000000 
#    y 0.000000 1.829100 0.000000 
#    z 0.000000 0.000000 1.803500 
# 
# From -- ./inp_files/15728.got.cif
#   From: 2010.05.17/outbox.cif.g08.bks.cpg/sg36_8_cif.got.tgz:15728.got - 2010.06.03 17:41:39.
