data_PCOD9352675
_publ_section_title
;
Structure prediction by ZEFSAII (Michael W. Deem and Ramdas Pophale) SiO2 
 PCOD9352675
Probable space group: C M C 21
;
_chemical_formula_sum "Si O2"
_cell_formula_units_Z 48
_cell_length_a 8.675054
_cell_length_b 18.602455
_cell_length_c 15.652338
_cell_angle_alpha 90.000000
_cell_angle_beta 90.000000
_cell_angle_gamma 90.000000
_cell_volume 2525.932071
_symmetry_space_group_name_H-M "C M C 21"
_symmetry_group_IT_number 36
_symmetry_cell_setting 'orthorhombic'
loop_
_space_group_symop_operation_xyz
x,y,z
-x,-y,1/2+z
x,-y,1/2+z
-x,y,z
1/2+x,1/2+y,z
1/2-x,1/2-y,1/2+z
1/2+x,1/2-y,1/2+z
1/2-x,1/2+y,z
loop_
_atom_site_type_symbol
_atom_site_label
_atom_site_fract_x
_atom_site_fract_y
_atom_site_fract_z
Si Si1 0.813457 0.541267 0.646590
Si Si2 0.681351 0.187106 0.716284
Si Si3 0.820992 0.313673 0.806600
Si Si4 0.180968 0.826894 0.392203
Si Si5 0.681076 0.467970 0.815580
Si Si6 0.683617 0.952565 0.479498
O O1 0.770723 0.626047 0.649270
O O2 0.741091 0.502195 0.727848
O O3 0.768402 0.498310 0.561945
O O4 0.000000 0.539268 0.654102
O O5 0.500000 0.201858 0.708146
O O6 0.773442 0.261571 0.727410
O O7 0.717601 0.151507 0.809330
O O8 0.802244 0.259608 0.888024
O O9 0.718366 0.383418 0.813010
O O10 0.000000 0.333936 0.799780
O O11 0.000000 0.841082 0.376094
O O12 0.238105 0.874253 0.470378
O O13 0.500000 0.480857 0.824461
O O14 0.766639 0.503239 0.895939
O O15 0.500000 0.943817 0.481580
#
# Coordination Sequence:
#
# PCOD9352675 Si02
#       6
#     8   8   8   8   8   8
#     4  10  22  38  59  85 114 151 189 230 283 338
#     4   9  16  32  57  80 107 144 184 226 276 333
#     4   9  19  34  56  81 111 149 187 230 283 338
#     4   9  18  33  55  81 108 146 185 225 278 330
#     4  12  23  36  58  86 115 147 188 238 284 333
#     4  11  22  37  59  85 115 151 189 233 282 336
#
# _framework density 19.002887999999999
#
# number of rings (size 3 to 8) (size 9 to 14) (size 15 to 20)
#    1.000    1.000    1.667    3.000    0.000    2.000 
#    0.000    1.667    0.000    2.000    0.000    0.000 
#    0.000    0.000    0.000    0.000    0.000    0.000 
#
# Total GULP energy -133660.040082 kJ/mol
# GULP energy per Si atom -5569.168337 kJ/mol
# Density = 1.895964 g / cm^3
# Si number density = 19.002888 Si / 1000 Ang^3
#
#
#
# Elastic Constant Matrix: (Units=GPa)
#
#
# Indices 1 2 3 4 5 6 
#
# 1 24.1829 2.7714 4.7220 0.0000 0.0000 0.0000
# 2 2.7714 72.2155 1.9444 0.0000 0.0000 0.0000
# 3 4.7220 1.9444 48.6440 0.0000 0.0000 0.0000
# 4 0.0000 0.0000 0.0000 -0.9873 0.0000 0.0000
# 5 0.0000 0.0000 0.0000 0.0000 70.9351 0.0000
# 6 0.0000 0.0000 0.0000 0.0000 0.0000 31.6450
#
#
#
# Elastic Compliance Matrix: (Units=1/GPa)
#
#
# Indices 1 2 3 4 5 6 
#
# 1 0.042315 -0.001515 -0.004047 0.000000 0.000000 0.000000
# 2 -0.001515 0.013917 -0.000409 0.000000 0.000000 0.000000
# 3 -0.004047 -0.000409 0.020967 0.000000 0.000000 0.000000
# 4 0.000000 0.000000 0.000000 -1.012881 0.000000 0.000000
# 5 0.000000 0.000000 0.000000 0.000000 0.014097 0.000000
# 6 0.000000 0.000000 0.000000 0.000000 0.000000 0.031601
#
#
# Mechanical properties :
#
#
# Convention : Reuss Voigt Hill
#
# Bulk Modulus (GPa) = 15.32423 18.21312 16.76868
# Shear Modulus (GPa) = -5.83914 29.35889 11.75987
#
# Velocity S-wave (km/s) = -1.75483 3.93487 2.49036
# Velocity P-wave (km/s) = 1.99393 5.49996 4.13674
#
# Compressibility (1/GPa) = 0.06525611
#
# Stress axis : x y z
#
# Youngs Moduli (GPa) = 23.63208 71.85666 47.69463
#
# Poissons Ratio (x) = 0.10886 0.19303
# Poissons Ratio (y) = 0.03580 0.01952
# Poissons Ratio (z) = 0.09564 0.02940
#
# Static dielectric constant tensor:
#      x y z
#    x 1.617010 0.000000 0.000000 
#    y 0.000000 1.706990 0.000000 
#    z 0.000000 0.000000 1.653830 
# 
# From -- ./inp_files/10452.got.cif
#   From: 2010.05.17/outbox.cif.g08.bks.cpg/sg36_6_cif.got.tgz:10452.got - 2010.06.03 17:41:39.
