data_PCOD9352979
_publ_section_title
;
Structure prediction by ZEFSAII (Michael W. Deem and Ramdas Pophale) SiO2 
 PCOD9352979
Probable space group: C M C 21
;
_chemical_formula_sum "Si O2"
_cell_formula_units_Z 28
_cell_length_a 10.153788
_cell_length_b 8.392202
_cell_length_c 15.126508
_cell_angle_alpha 90.000000
_cell_angle_beta 90.000000
_cell_angle_gamma 90.000000
_cell_volume 1288.969680
_symmetry_space_group_name_H-M "C M C 21"
_symmetry_group_IT_number 36
_symmetry_cell_setting 'orthorhombic'
loop_
_space_group_symop_operation_xyz
x,y,z
-x,-y,1/2+z
x,-y,1/2+z
-x,y,z
1/2+x,1/2+y,z
1/2-x,1/2-y,1/2+z
1/2+x,1/2-y,1/2+z
1/2-x,1/2+y,z
loop_
_atom_site_type_symbol
_atom_site_label
_atom_site_fract_x
_atom_site_fract_y
_atom_site_fract_z
Si Si1 0.274887 0.294871 0.719590
Si Si2 0.143184 0.923010 0.106837
Si Si3 0.000000 0.674581 0.843249
Si Si4 0.000000 0.679812 0.325041
Si Si5 0.500000 0.508184 0.947565
O O1 0.253846 0.203746 0.626527
O O2 0.341763 0.457967 0.689210
O O3 0.371563 0.198516 0.782463
O O4 0.134318 0.318057 0.766968
O O5 0.000000 0.841766 0.112868
O O6 0.127421 0.009378 0.013022
O O7 0.000000 0.491575 0.876299
O O8 0.000000 0.831878 0.904667
O O9 0.000000 0.840606 0.383788
#
# Coordination Sequence:
#
# PCOD9352979 Si02
#       5
#     8   8   4   4   4
#     4  12  22  46  74 100 136 188 244 272 342 426
#     4  10  23  45  67  97 144 180 223 291 342 408
#     4  12  25  43  75 107 136 185 234 291 343 419
#     4  12  25  43  75 107 136 185 234 291 343 419
#     4  10  26  50  62 106 158 172 216 306 368 384
#
# _framework density 21.722776
#
# number of rings (size 3 to 8) (size 9 to 14) (size 15 to 20)
#    0.857    0.000    5.714    1.714    0.000    2.286 
#    5.143    0.000    0.000    0.000    0.000    0.000 
#    0.000    0.000    0.000    0.000    0.000    0.000 
#
# Total GULP energy -77956.185014 kJ/mol
# GULP energy per Si atom -5568.298930 kJ/mol
# Density = 2.167333 g / cm^3
# Si number density = 21.722776 Si / 1000 Ang^3
#
#
#
# Elastic Constant Matrix: (Units=GPa)
#
#
# Indices 1 2 3 4 5 6 
#
# 1 92.2352 16.6470 34.1990 0.0000 0.0000 0.0000
# 2 16.6470 134.6347 56.0881 0.0000 0.0000 0.0000
# 3 34.1990 56.0881 92.8205 0.0000 0.0000 0.0000
# 4 0.0000 0.0000 0.0000 42.2919 0.0000 0.0000
# 5 0.0000 0.0000 0.0000 0.0000 38.7347 0.0000
# 6 0.0000 0.0000 0.0000 0.0000 0.0000 12.2719
#
#
#
# Elastic Compliance Matrix: (Units=1/GPa)
#
#
# Indices 1 2 3 4 5 6 
#
# 1 0.012583 0.000502 -0.004939 0.000000 0.000000 0.000000
# 2 0.000502 0.009946 -0.006195 0.000000 0.000000 0.000000
# 3 -0.004939 -0.006195 0.016337 0.000000 0.000000 0.000000
# 4 0.000000 0.000000 0.000000 0.023645 0.000000 0.000000
# 5 0.000000 0.000000 0.000000 0.000000 0.025817 0.000000
# 6 0.000000 0.000000 0.000000 0.000000 0.000000 0.081487
#
#
# Mechanical properties :
#
#
# Convention : Reuss Voigt Hill
#
# Bulk Modulus (GPa) = 56.81566 59.28430 58.04998
# Shear Modulus (GPa) = 25.38761 32.84343 29.11552
#
# Velocity S-wave (km/s) = 3.42235 3.89258 3.66501
# Velocity P-wave (km/s) = 6.46748 6.89590 6.68512
#
# Compressibility (1/GPa) = 0.01760078
#
# Stress axis : x y z
#
# Youngs Moduli (GPa) = 79.47458 100.53993 61.21154
#
# Poissons Ratio (x) = -0.05046 0.30234
# Poissons Ratio (y) = -0.03989 0.37921
# Poissons Ratio (z) = 0.39254 0.62286
#
# Static dielectric constant tensor:
#      x y z
#    x 1.768040 0.000000 0.000000 
#    y 0.000000 1.847980 0.000000 
#    z 0.000000 0.000000 1.847490 
# 
# From -- ./inp_files/11250.got.cif
#   From: 2010.05.17/outbox.cif.g08.bks.cpg/sg36_6_cif.got.tgz:11250.got - 2010.06.03 17:41:39.
