data_PCOD9352792
_publ_section_title
;
Structure prediction by ZEFSAII (Michael W. Deem and Ramdas Pophale) SiO2 
 PCOD9352792
Probable space group: C M C 21
;
_chemical_formula_sum "Si O2"
_cell_formula_units_Z 48
_cell_length_a 26.006152
_cell_length_b 6.548082
_cell_length_c 10.190841
_cell_angle_alpha 90.000000
_cell_angle_beta 90.000000
_cell_angle_gamma 90.000000
_cell_volume 1735.402551
_symmetry_space_group_name_H-M "C M C 21"
_symmetry_group_IT_number 36
_symmetry_cell_setting 'orthorhombic'
loop_
_space_group_symop_operation_xyz
x,y,z
-x,-y,1/2+z
x,-y,1/2+z
-x,y,z
1/2+x,1/2+y,z
1/2-x,1/2-y,1/2+z
1/2+x,1/2-y,1/2+z
1/2-x,1/2+y,z
loop_
_atom_site_type_symbol
_atom_site_label
_atom_site_fract_x
_atom_site_fract_y
_atom_site_fract_z
Si Si1 0.735326 0.371700 0.324760
Si Si2 0.770116 0.392513 0.622428
Si Si3 0.879265 0.429077 0.203198
Si Si4 0.378438 0.482711 0.297135
Si Si5 0.942280 0.913955 0.038020
Si Si6 0.558331 0.057961 0.448599
O O1 0.753069 0.619368 0.288069
O O2 0.760664 0.375382 0.468195
O O3 0.673535 0.377530 0.343348
O O4 0.739088 0.629186 0.649454
O O5 0.830007 0.459554 0.642916
O O6 0.908756 0.557711 0.314738
O O7 0.902915 0.922861 0.158213
O O8 0.916378 0.363896 0.083810
O O9 0.862413 0.220520 0.274392
O O10 0.944708 0.682903 0.986032
O O11 0.000000 0.974410 0.078877
O O12 0.920676 0.031815 0.911256
O O13 0.500000 0.126759 0.425246
#
# Coordination Sequence:
#
# PCOD9352792 Si02
#       6
#     8   8   8   8   8   8
#     4  12  26  45  68  97 133 176 226 280 339 402
#     4  12  26  45  69  98 133 176 226 280 339 402
#     4  11  24  43  67  97 132 171 217 269 327 393
#     4  11  24  43  67  97 132 171 217 269 327 392
#     4  10  22  41  66  97 134 174 217 266 321 387
#     4  10  22  41  65  96 134 174 217 266 321 386
#
# _framework density 27.659286999999999
#
# number of rings (size 3 to 8) (size 9 to 14) (size 15 to 20)
#    0.000    1.000    0.000    6.000    0.000   11.333 
#    0.000    1.667    0.000    0.000    0.000    0.000 
#    0.000    0.000    0.000    0.000    0.000    0.000 
#
# Total GULP energy -134543.727011 kJ/mol
# GULP energy per Si atom -5605.988625 kJ/mol
# Density = 2.759633 g / cm^3
# Si number density = 27.659287 Si / 1000 Ang^3
#
#
#
# Elastic Constant Matrix: (Units=GPa)
#
#
# Indices 1 2 3 4 5 6 
#
# 1 219.7374 27.5549 65.9771 0.0000 0.0000 0.0000
# 2 27.5549 144.2357 51.5373 0.0000 0.0000 0.0000
# 3 65.9771 51.5373 222.7139 0.0000 0.0000 0.0000
# 4 0.0000 0.0000 0.0000 87.2307 0.0000 0.0000
# 5 0.0000 0.0000 0.0000 0.0000 53.5357 0.0000
# 6 0.0000 0.0000 0.0000 0.0000 0.0000 43.2759
#
#
#
# Elastic Compliance Matrix: (Units=1/GPa)
#
#
# Indices 1 2 3 4 5 6 
#
# 1 0.005024 -0.000467 -0.001380 0.000000 0.000000 0.000000
# 2 -0.000467 0.007601 -0.001621 0.000000 0.000000 0.000000
# 3 -0.001380 -0.001621 0.005274 0.000000 0.000000 0.000000
# 4 0.000000 0.000000 0.000000 0.011464 0.000000 0.000000
# 5 0.000000 0.000000 0.000000 0.000000 0.018679 0.000000
# 6 0.000000 0.000000 0.000000 0.000000 0.000000 0.023108
#
#
# Mechanical properties :
#
#
# Convention : Reuss Voigt Hill
#
# Bulk Modulus (GPa) = 91.20820 97.42507 94.31664
# Shear Modulus (GPa) = 61.16981 66.24964 63.70973
#
# Velocity S-wave (km/s) = 4.70781 4.89939 4.80456
# Velocity P-wave (km/s) = 7.91192 8.20397 8.05927
#
# Compressibility (1/GPa) = 0.01096393
#
# Stress axis : x y z
#
# Youngs Moduli (GPa) = 199.05107 131.55550 189.60844
#
# Poissons Ratio (x) = 0.06138 0.26172
# Poissons Ratio (y) = 0.09287 0.30731
# Poissons Ratio (z) = 0.27475 0.21322
#
# Static dielectric constant tensor:
#      x y z
#    x 1.975450 0.000000 0.000000 
#    y 0.000000 2.473530 0.000000 
#    z 0.000000 0.000000 1.965580 
# 
# From -- ./inp_files/15133.got.cif
#   From: 2010.05.17/outbox.cif.g08.bks.cpg/sg36_8_cif.got.tgz:15133.got - 2010.06.03 17:41:39.
