data_PCOD9352430
_publ_section_title
;
Structure prediction by ZEFSAII (Michael W. Deem and Ramdas Pophale) SiO2 
 PCOD9352430
Probable space group: C M C 21
;
_chemical_formula_sum "Si O2"
_cell_formula_units_Z 52
_cell_length_a 21.779591
_cell_length_b 7.820390
_cell_length_c 15.085882
_cell_angle_alpha 90.000000
_cell_angle_beta 90.000000
_cell_angle_gamma 90.000000
_cell_volume 2569.501278
_symmetry_space_group_name_H-M "C M C 21"
_symmetry_group_IT_number 36
_symmetry_cell_setting 'orthorhombic'
loop_
_space_group_symop_operation_xyz
x,y,z
-x,-y,1/2+z
x,-y,1/2+z
-x,y,z
1/2+x,1/2+y,z
1/2-x,1/2-y,1/2+z
1/2+x,1/2-y,1/2+z
1/2-x,1/2+y,z
loop_
_atom_site_type_symbol
_atom_site_label
_atom_site_fract_x
_atom_site_fract_y
_atom_site_fract_z
Si Si1 0.373427 0.343999 0.855610
Si Si2 0.000000 0.023059 0.278385
Si Si3 0.133970 0.857092 0.052731
Si Si4 0.000000 0.246683 0.907081
Si Si5 0.835801 0.461749 0.658281
Si Si6 0.427960 0.989327 0.817976
Si Si7 0.000000 0.996397 0.074511
Si Si8 0.802973 0.859149 0.677663
O O1 0.439450 0.418661 0.828975
O O2 0.387942 0.143884 0.854887
O O3 0.329103 0.387120 0.775648
O O4 0.351026 0.398750 0.951183
O O5 0.000000 0.069002 0.175290
O O6 0.000000 0.824575 0.304658
O O7 0.147223 0.660116 0.076143
O O8 0.061614 0.888292 0.065482
O O9 0.168993 0.993169 0.115013
O O10 0.938830 0.359225 0.899279
O O11 0.000000 0.130376 0.993091
O O12 0.889340 0.433000 0.731829
O O13 0.824793 0.667161 0.648078
O O14 0.769802 0.383236 0.684391
O O15 0.500000 0.041416 0.796285
#
# Coordination Sequence:
#
# PCOD9352430 Si02
#       8
#     8   4   8   4   8   8   4   8
#     4  11  23  44  67  99 138 182 232 284 351 418
#     4  12  19  39  65  94 141 174 221 283 345 412
#     4  12  25  45  71 105 141 185 236 291 350 421
#     4  10  21  38  65 107 134 177 234 278 353 427
#     4  11  24  47  72  99 142 184 236 290 349 423
#     4   9  22  42  67 101 137 177 226 291 351 414
#     4  12  24  37  72 105 137 185 223 289 354 413
#     4  11  25  48  72 101 140 187 236 291 349 418
#
# _framework density 20.237390999999999
#
# number of rings (size 3 to 8) (size 9 to 14) (size 15 to 20)
#    0.462    0.615    5.385    0.923    1.077    1.231 
#    5.538    0.000    0.000    0.000    0.000    0.000 
#    0.000    0.000    0.000    0.000    0.000    0.000 
#
# Total GULP energy -144855.225453 kJ/mol
# GULP energy per Si atom -5571.354825 kJ/mol
# Density = 2.019133 g / cm^3
# Si number density = 20.237391 Si / 1000 Ang^3
#
#
#
# Elastic Constant Matrix: (Units=GPa)
#
#
# Indices 1 2 3 4 5 6 
#
# 1 91.5891 2.9026 48.1186 0.0000 0.0000 0.0000
# 2 2.9026 58.0097 49.3433 0.0000 0.0000 0.0000
# 3 48.1186 49.3433 140.4153 0.0000 0.0000 0.0000
# 4 0.0000 0.0000 0.0000 19.6332 0.0000 0.0000
# 5 0.0000 0.0000 0.0000 0.0000 25.8687 0.0000
# 6 0.0000 0.0000 0.0000 0.0000 0.0000 36.3060
#
#
#
# Elastic Compliance Matrix: (Units=1/GPa)
#
#
# Indices 1 2 3 4 5 6 
#
# 1 0.014230 0.004901 -0.006598 0.000000 0.000000 0.000000
# 2 0.004901 0.026276 -0.010913 0.000000 0.000000 0.000000
# 3 -0.006598 -0.010913 0.013218 0.000000 0.000000 0.000000
# 4 0.000000 0.000000 0.000000 0.050934 0.000000 0.000000
# 5 0.000000 0.000000 0.000000 0.000000 0.038657 0.000000
# 6 0.000000 0.000000 0.000000 0.000000 0.000000 0.027544
#
#
# Mechanical properties :
#
#
# Convention : Reuss Voigt Hill
#
# Bulk Modulus (GPa) = 35.08538 54.52700 44.80619
# Shear Modulus (GPa) = 24.32137 29.00488 26.66312
#
# Velocity S-wave (km/s) = 3.47046 3.78991 3.63370
# Velocity P-wave (km/s) = 5.78216 6.79363 6.30820
#
# Compressibility (1/GPa) = 0.02850190
#
# Stress axis : x y z
#
# Youngs Moduli (GPa) = 70.27554 38.05759 75.65498
#
# Poissons Ratio (x) = -0.18651 0.49921
# Poissons Ratio (y) = -0.34440 0.82563
# Poissons Ratio (z) = 0.46371 0.41532
#
# Static dielectric constant tensor:
#      x y z
#    x 1.717670 0.000000 0.000000 
#    y 0.000000 1.894050 0.000000 
#    z 0.000000 0.000000 1.750930 
# 
# From -- ./inp_files/12812.got.cif
#   From: 2010.05.17/outbox.cif.g08.bks.cpg/sg36_7_cif.got.tgz:12812.got - 2010.06.03 17:41:39.
