data_PCOD9352718
_publ_section_title
;
Structure prediction by ZEFSAII (Michael W. Deem and Ramdas Pophale) SiO2 
 PCOD9352718
Probable space group: C M C 21
;
_chemical_formula_sum "Si O2"
_cell_formula_units_Z 64
_cell_length_a 8.569730
_cell_length_b 20.993870
_cell_length_c 19.968013
_cell_angle_alpha 90.000000
_cell_angle_beta 90.000000
_cell_angle_gamma 90.000000
_cell_volume 3592.481112
_symmetry_space_group_name_H-M "C M C 21"
_symmetry_group_IT_number 36
_symmetry_cell_setting 'orthorhombic'
loop_
_space_group_symop_operation_xyz
x,y,z
-x,-y,1/2+z
x,-y,1/2+z
-x,y,z
1/2+x,1/2+y,z
1/2-x,1/2-y,1/2+z
1/2+x,1/2-y,1/2+z
1/2-x,1/2+y,z
loop_
_atom_site_type_symbol
_atom_site_label
_atom_site_fract_x
_atom_site_fract_y
_atom_site_fract_z
Si Si1 0.311684 0.755850 0.820880
Si Si2 0.689254 0.239912 0.172215
Si Si3 0.185406 0.612547 0.820273
Si Si4 0.812631 0.313187 0.534418
Si Si5 0.313254 0.435370 0.456396
Si Si6 0.312636 0.188524 0.459749
Si Si7 0.688322 0.611892 0.674495
Si Si8 0.811173 0.936773 0.032094
O O1 0.500000 0.749973 0.819975
O O2 0.260223 0.777982 0.747110
O O3 0.246381 0.684817 0.831955
O O4 0.269537 0.801757 0.881769
O O5 0.500000 0.238929 0.170856
O O6 0.741337 0.195776 0.111344
O O7 0.734465 0.314031 0.161631
O O8 0.247578 0.570188 0.881315
O O9 0.244245 0.592856 0.746505
O O10 0.000000 0.613073 0.821250
O O11 0.740265 0.373183 0.497074
O O12 0.761833 0.248414 0.497865
O O13 0.000000 0.318548 0.532289
O O14 0.500000 0.435819 0.452547
O O15 0.260752 0.498230 0.496348
O O16 0.500000 0.191728 0.465596
O O17 0.251830 0.123626 0.491487
O O18 0.500000 0.610643 0.679448
O O19 0.736898 0.571141 0.609909
O O20 0.000000 0.934396 0.031279
#
# Coordination Sequence:
#
# PCOD9352718 Si02
#       8
#     8   8   8   8   8   8   8   8
#     4   9  18  34  54  79 111 148 184 225 279 338
#     4   8  15  30  54  79 106 141 181 223 276 334
#     4  11  21  33  54  84 112 144 185 233 279 334
#     4  11  20  34  57  83 112 146 187 233 282 336
#     4  11  23  39  57  81 113 153 194 234 281 335
#     4  11  21  33  56  85 115 145 183 234 284 334
#     4   9  17  35  58  79 106 144 186 230 280 338
#     4  10  22  40  60  80 111 153 194 232 281 339
#
# _framework density 17.814985
#
# number of rings (size 3 to 8) (size 9 to 14) (size 15 to 20)
#    0.000    2.000    2.500    3.000    0.000    2.000 
#    0.000    1.875    0.000    3.000    0.000    0.000 
#    0.000    0.000    0.000    0.000    0.000    0.000 
#
# Total GULP energy -178556.810637 kJ/mol
# GULP energy per Si atom -5579.900332 kJ/mol
# Density = 1.777444 g / cm^3
# Si number density = 17.814985 Si / 1000 Ang^3
#
#
#
# Elastic Constant Matrix: (Units=GPa)
#
#
# Indices 1 2 3 4 5 6 
#
# 1 26.5652 22.5858 37.5150 0.0000 0.0000 0.0000
# 2 22.5858 96.0626 74.4189 0.0000 0.0000 0.0000
# 3 37.5150 74.4189 185.8765 0.0000 0.0000 0.0000
# 4 0.0000 0.0000 0.0000 28.4145 0.0000 0.0000
# 5 0.0000 0.0000 0.0000 0.0000 24.5085 0.0000
# 6 0.0000 0.0000 0.0000 0.0000 0.0000 21.4699
#
#
#
# Elastic Compliance Matrix: (Units=1/GPa)
#
#
# Indices 1 2 3 4 5 6 
#
# 1 0.055158 -0.006298 -0.008611 0.000000 0.000000 0.000000
# 2 -0.006298 0.015809 -0.005059 0.000000 0.000000 0.000000
# 3 -0.008611 -0.005059 0.009143 0.000000 0.000000 0.000000
# 4 0.000000 0.000000 0.000000 0.035193 0.000000 0.000000
# 5 0.000000 0.000000 0.000000 0.000000 0.040802 0.000000
# 6 0.000000 0.000000 0.000000 0.000000 0.000000 0.046577
#
#
# Mechanical properties :
#
#
# Convention : Reuss Voigt Hill
#
# Bulk Modulus (GPa) = 24.89042 64.17151 44.53097
# Shear Modulus (GPa) = 19.53057 26.47755 23.00406
#
# Velocity S-wave (km/s) = 3.31463 3.85938 3.59733
# Velocity P-wave (km/s) = 5.35266 7.48057 6.50423
#
# Compressibility (1/GPa) = 0.04017609
#
# Stress axis : x y z
#
# Youngs Moduli (GPa) = 18.12977 63.25382 109.37187
#
# Poissons Ratio (x) = 0.39835 0.94180
# Poissons Ratio (y) = 0.11417 0.55326
# Poissons Ratio (z) = 0.15612 0.31997
#
# Static dielectric constant tensor:
#      x y z
#    x 1.606950 0.000000 0.000000 
#    y 0.000000 1.568880 0.000000 
#    z 0.000000 0.000000 1.643860 
# 
# From -- ./inp_files/15694.got.cif
#   From: 2010.05.17/outbox.cif.g08.bks.cpg/sg36_8_cif.got.tgz:15694.got - 2010.06.03 17:41:39.
