data_PCOD9352466
_publ_section_title
;
Structure prediction by ZEFSAII (Michael W. Deem and Ramdas Pophale) SiO2 
 PCOD9352466
Probable space group: C M C 21
;
_chemical_formula_sum "Si O2"
_cell_formula_units_Z 64
_cell_length_a 8.509832
_cell_length_b 15.858395
_cell_length_c 24.295638
_cell_angle_alpha 90.000000
_cell_angle_beta 90.000000
_cell_angle_gamma 90.000000
_cell_volume 3278.751675
_symmetry_space_group_name_H-M "C M C 21"
_symmetry_group_IT_number 36
_symmetry_cell_setting 'orthorhombic'
loop_
_space_group_symop_operation_xyz
x,y,z
-x,-y,1/2+z
x,-y,1/2+z
-x,y,z
1/2+x,1/2+y,z
1/2-x,1/2-y,1/2+z
1/2+x,1/2-y,1/2+z
1/2-x,1/2+y,z
loop_
_atom_site_type_symbol
_atom_site_label
_atom_site_fract_x
_atom_site_fract_y
_atom_site_fract_z
Si Si1 0.312780 0.151127 0.336180
Si Si2 0.190116 0.907294 0.437531
Si Si3 0.187791 0.660446 0.825620
Si Si4 0.186036 0.094551 0.452463
Si Si5 0.689237 0.092976 0.704786
Si Si6 0.691669 0.094882 0.214859
Si Si7 0.313051 0.746039 0.016141
Si Si8 0.812424 0.250876 0.638786
O O1 0.500000 0.139646 0.343247
O O2 0.273945 0.250184 0.332177
O O3 0.226018 0.114012 0.388947
O O4 0.263363 0.109824 0.278365
O O5 0.263996 0.896372 0.377335
O O6 0.240772 0.828914 0.475408
O O7 0.000000 0.904721 0.432099
O O8 0.233021 0.997755 0.462942
O O9 0.231174 0.619515 0.767214
O O10 0.000000 0.673799 0.826203
O O11 0.270011 0.164524 0.489220
O O12 0.000000 0.102652 0.461269
O O13 0.500000 0.094112 0.701216
O O14 0.754055 0.162661 0.663558
O O15 0.743330 0.997210 0.694896
O O16 0.500000 0.095752 0.214126
O O17 0.746886 0.172211 0.177180
O O18 0.500000 0.739394 0.020719
O O19 0.240615 0.737985 0.076322
O O20 0.000000 0.251640 0.641282
#
# Coordination Sequence:
#
# PCOD9352466 Si02
#       8
#     8   8   8   8   8   8   8   8
#     4  11  20  36  61  89 125 164 197 239 300 361
#     4  10  23  41  62  88 124 159 196 245 302 360
#     4  11  21  34  60  93 125 159 200 244 295 356
#     4  11  23  40  62  93 124 155 198 249 298 357
#     4  10  21  39  61  89 122 157 197 242 293 358
#     4   9  20  38  61  87 120 159 198 239 292 357
#     4  11  24  43  63  85 116 160 201 246 302 358
#     4  11  23  41  62  86 116 155 201 252 298 347
#
# _framework density 19.519625000000001
#
# number of rings (size 3 to 8) (size 9 to 14) (size 15 to 20)
#    0.000    1.500    2.500    2.625    0.000    4.000 
#    0.000    5.000    0.000    0.000    0.000    0.000 
#    0.000    0.000    0.000    0.000    0.000    0.000 
#
# Total GULP energy -178867.081085 kJ/mol
# GULP energy per Si atom -5589.596284 kJ/mol
# Density = 1.947520 g / cm^3
# Si number density = 19.519625 Si / 1000 Ang^3
#
#
#
# Elastic Constant Matrix: (Units=GPa)
#
#
# Indices 1 2 3 4 5 6 
#
# 1 7.2195 4.2366 -2.3020 0.0000 0.0000 0.0000
# 2 4.2366 82.7899 -4.4021 0.0000 0.0000 0.0000
# 3 -2.3020 -4.4021 64.4838 0.0000 0.0000 0.0000
# 4 0.0000 0.0000 0.0000 3.2807 0.0000 0.0000
# 5 0.0000 0.0000 0.0000 0.0000 31.6035 0.0000
# 6 0.0000 0.0000 0.0000 0.0000 0.0000 21.1375
#
#
#
# Elastic Compliance Matrix: (Units=1/GPa)
#
#
# Indices 1 2 3 4 5 6 
#
# 1 0.144184 -0.007130 0.004660 0.000000 0.000000 0.000000
# 2 -0.007130 0.012475 0.000597 0.000000 0.000000 0.000000
# 3 0.004660 0.000597 0.015715 0.000000 0.000000 0.000000
# 4 0.000000 0.000000 0.000000 0.304814 0.000000 0.000000
# 5 0.000000 0.000000 0.000000 0.000000 0.031642 0.000000
# 6 0.000000 0.000000 0.000000 0.000000 0.000000 0.047309
#
#
# Mechanical properties :
#
#
# Convention : Reuss Voigt Hill
#
# Bulk Modulus (GPa) = 5.93020 16.61757 11.27389
# Shear Modulus (GPa) = 8.11562 21.66838 14.89200
#
# Velocity S-wave (km/s) = 2.04125 3.33540 2.76511
# Velocity P-wave (km/s) = 2.93262 4.83373 3.99783
#
# Compressibility (1/GPa) = 0.16862838
#
# Stress axis : x y z
#
# Youngs Moduli (GPa) = 6.93558 80.15771 63.63383
#
# Poissons Ratio (x) = 0.57156 -0.29656
# Poissons Ratio (y) = 0.04945 -0.03800
# Poissons Ratio (z) = -0.03232 -0.04786
#
# Static dielectric constant tensor:
#      x y z
#    x 1.667840 0.000000 0.000000 
#    y 0.000000 1.689430 0.000000 
#    z 0.000000 0.000000 1.650320 
# 
# From -- ./inp_files/16582.got.cif
#   From: 2010.05.17/outbox.cif.g08.bks.cpg/sg36_9_cif.got.tgz:16582.got - 2010.06.03 17:41:39.
