data_PCOD9352201
_publ_section_title
;
Structure prediction by ZEFSAII (Michael W. Deem and Ramdas Pophale) SiO2 
 PCOD9352201
Probable space group: C M C 21
;
_chemical_formula_sum "Si O2"
_cell_formula_units_Z 64
_cell_length_a 19.998880
_cell_length_b 18.944510
_cell_length_c 7.890912
_cell_angle_alpha 90.000000
_cell_angle_beta 90.000000
_cell_angle_gamma 90.000000
_cell_volume 2989.621798
_symmetry_space_group_name_H-M "C M C 21"
_symmetry_group_IT_number 36
_symmetry_cell_setting 'orthorhombic'
loop_
_space_group_symop_operation_xyz
x,y,z
-x,-y,1/2+z
x,-y,1/2+z
-x,y,z
1/2+x,1/2+y,z
1/2-x,1/2-y,1/2+z
1/2+x,1/2-y,1/2+z
1/2-x,1/2+y,z
loop_
_atom_site_type_symbol
_atom_site_label
_atom_site_fract_x
_atom_site_fract_y
_atom_site_fract_z
Si Si1 0.572371 0.349035 0.893220
Si Si2 0.574701 0.193850 0.737083
Si Si3 0.791063 0.730932 0.206773
Si Si4 0.926432 0.920998 0.522160
Si Si5 0.218846 0.889509 0.911955
Si Si6 0.575530 0.733455 0.870747
Si Si7 0.712500 0.853225 0.357574
Si Si8 0.784613 0.973831 0.555345
O O1 0.500000 0.362747 0.978886
O O2 0.575486 0.266393 0.845129
O O3 0.571239 0.391763 0.714778
O O4 0.644131 0.367515 0.968489
O O5 0.500000 0.837133 0.251174
O O6 0.583878 0.222824 0.545537
O O7 0.636029 0.145789 0.795365
O O8 0.760329 0.677329 0.346782
O O9 0.868503 0.741827 0.244074
O O10 0.753810 0.805731 0.224616
O O11 0.782184 0.694483 0.027556
O O12 0.915480 0.849348 0.414647
O O13 0.863266 0.971528 0.502290
O O14 0.000000 0.950800 0.480525
O O15 0.216468 0.936753 0.738118
O O16 0.243719 0.947086 0.046686
O O17 0.500000 0.744013 0.810830
O O18 0.744409 0.925228 0.423555
#
# Coordination Sequence:
#
# PCOD9352201 Si02
#       8
#     8   8   8   8   8   8   8   8
#     4   8  14  28  49  71 101 138 170 202 247 304
#     4   9  17  32  55  80 106 136 170 213 267 319
#     4  11  21  34  54  79 107 138 177 221 264 309
#     4   8  14  28  49  71 101 138 170 202 247 304
#     4  10  21  35  50  73 104 140 177 214 260 308
#     4   9  17  32  55  80 106 136 170 213 267 319
#     4  11  21  34  54  79 107 138 177 221 264 309
#     4  10  21  35  50  73 104 140 177 214 260 308
#
# _framework density 21.407392000000002
#
# number of rings (size 3 to 8) (size 9 to 14) (size 15 to 20)
#    0.000    2.500    2.500    2.250    0.000    3.000 
#    0.000    0.000    0.000    0.750    0.000    0.000 
#    0.000    0.000    0.000    0.000    0.000    0.000 
#
# Total GULP energy -178787.180702 kJ/mol
# GULP energy per Si atom -5587.099397 kJ/mol
# Density = 2.135867 g / cm^3
# Si number density = 21.407392 Si / 1000 Ang^3
#
#
#
# Elastic Constant Matrix: (Units=GPa)
#
#
# Indices 1 2 3 4 5 6 
#
# 1 96.2477 23.6803 18.6292 0.0000 0.0000 0.0000
# 2 23.6803 67.1749 10.7015 0.0000 0.0000 0.0000
# 3 18.6292 10.7015 63.8335 0.0000 0.0000 0.0000
# 4 0.0000 0.0000 0.0000 28.8199 0.0000 0.0000
# 5 0.0000 0.0000 0.0000 0.0000 25.8067 0.0000
# 6 0.0000 0.0000 0.0000 0.0000 0.0000 17.0431
#
#
#
# Elastic Compliance Matrix: (Units=1/GPa)
#
#
# Indices 1 2 3 4 5 6 
#
# 1 0.011856 -0.003728 -0.002835 0.000000 0.000000 0.000000
# 2 -0.003728 0.016467 -0.001673 0.000000 0.000000 0.000000
# 3 -0.002835 -0.001673 0.016774 0.000000 0.000000 0.000000
# 4 0.000000 0.000000 0.000000 0.034698 0.000000 0.000000
# 5 0.000000 0.000000 0.000000 0.000000 0.038750 0.000000
# 6 0.000000 0.000000 0.000000 0.000000 0.000000 0.058675
#
#
# Mechanical properties :
#
#
# Convention : Reuss Voigt Hill
#
# Bulk Modulus (GPa) = 34.93406 37.03091 35.98249
# Shear Modulus (GPa) = 24.60247 25.95030 25.27639
#
# Velocity S-wave (km/s) = 3.39374 3.48546 3.43991
# Velocity P-wave (km/s) = 5.63123 5.79083 5.71158
#
# Compressibility (1/GPa) = 0.02862535
#
# Stress axis : x y z
#
# Youngs Moduli (GPa) = 84.34736 60.72720 59.61765
#
# Poissons Ratio (x) = 0.22637 0.16902
# Poissons Ratio (y) = 0.31442 0.09973
# Poissons Ratio (z) = 0.23913 0.10158
#
# Static dielectric constant tensor:
#      x y z
#    x 1.778720 0.000000 0.000000 
#    y 0.000000 1.753660 0.000000 
#    z 0.000000 0.000000 1.855460 
# 
# From -- ./inp_files/4943.got.cif
#   From: 2010.05.17/outbox.cif.g08.bks.cpg/sg36_3_cif.got.tgz:4943.got - 2010.06.03 17:41:39.
