data_PCOD9352382
_publ_section_title
;
Structure prediction by ZEFSAII (Michael W. Deem and Ramdas Pophale) SiO2 
 PCOD9352382
Probable space group: C M C 21
;
_chemical_formula_sum "Si O2"
_cell_formula_units_Z 64
_cell_length_a 8.576724
_cell_length_b 27.027539
_cell_length_c 13.256308
_cell_angle_alpha 90.000000
_cell_angle_beta 90.000000
_cell_angle_gamma 90.000000
_cell_volume 3072.914830
_symmetry_space_group_name_H-M "C M C 21"
_symmetry_group_IT_number 36
_symmetry_cell_setting 'orthorhombic'
loop_
_space_group_symop_operation_xyz
x,y,z
-x,-y,1/2+z
x,-y,1/2+z
-x,y,z
1/2+x,1/2+y,z
1/2-x,1/2-y,1/2+z
1/2+x,1/2-y,1/2+z
1/2-x,1/2+y,z
loop_
_atom_site_type_symbol
_atom_site_label
_atom_site_fract_x
_atom_site_fract_y
_atom_site_fract_z
Si Si1 0.682702 0.583108 0.394980
Si Si2 0.687623 0.128756 0.978982
Si Si3 0.176836 0.224414 0.071684
Si Si4 0.680652 0.188387 0.424546
Si Si5 0.181901 0.237546 0.761482
Si Si6 0.187729 0.561649 0.172598
Si Si7 0.812208 0.124289 0.762528
Si Si8 0.686401 0.952756 0.099764
O O1 0.500000 0.573623 0.395647
O O2 0.721100 0.639191 0.427424
O O3 0.745549 0.575970 0.281597
O O4 0.761538 0.551129 0.483467
O O5 0.500000 0.132810 0.975922
O O6 0.747072 0.107732 0.871978
O O7 0.767273 0.182231 0.995281
O O8 0.731855 0.096765 0.078082
O O9 0.296398 0.229813 0.162219
O O10 0.000000 0.212691 0.104698
O O11 0.173940 0.278937 0.024173
O O12 0.500000 0.175276 0.397220
O O13 0.752916 0.227556 0.346410
O O14 0.241679 0.181701 0.750223
O O15 0.000000 0.232295 0.788331
O O16 0.233968 0.505712 0.144999
O O17 0.000000 0.563775 0.179563
O O18 0.754728 0.090404 0.670715
O O19 0.000000 0.123037 0.764117
O O20 0.500000 0.948899 0.102957
#
# Coordination Sequence:
#
# PCOD9352382 Si02
#       8
#     8   8   8   8   8   8   8   8
#     4  12  26  43  66 100 134 166 214 276 333 382
#     4  11  23  41  66  97 131 174 222 267 324 391
#     4  11  22  37  59  91 127 168 213 263 316 370
#     4  10  21  40  61  84 124 174 212 246 309 381
#     4  10  21  38  59  87 126 170 210 255 312 379
#     4  10  25  47  70  94 126 173 222 266 321 395
#     4  11  23  42  66  99 137 170 215 274 330 385
#     4  11  25  46  71  96 127 173 222 267 325 397
#
# _framework density 20.827131000000001
#
# number of rings (size 3 to 8) (size 9 to 14) (size 15 to 20)
#    0.000    1.250    1.250    4.125    1.750    9.500 
#    0.000    0.000    0.000    0.000    0.000    0.000 
#    0.000    0.000    0.000    0.000    0.000    0.000 
#
# Total GULP energy -178743.925186 kJ/mol
# GULP energy per Si atom -5585.747662 kJ/mol
# Density = 2.077973 g / cm^3
# Si number density = 20.827131 Si / 1000 Ang^3
#
#
#
# Elastic Constant Matrix: (Units=GPa)
#
#
# Indices 1 2 3 4 5 6 
#
# 1 43.7111 18.5914 18.3227 0.0000 0.0000 0.0000
# 2 18.5914 52.9382 10.4536 0.0000 0.0000 0.0000
# 3 18.3227 10.4536 101.6133 0.0000 0.0000 0.0000
# 4 0.0000 0.0000 0.0000 30.1777 0.0000 0.0000
# 5 0.0000 0.0000 0.0000 0.0000 30.2559 0.0000
# 6 0.0000 0.0000 0.0000 0.0000 0.0000 14.2069
#
#
#
# Elastic Compliance Matrix: (Units=1/GPa)
#
#
# Indices 1 2 3 4 5 6 
#
# 1 0.028551 -0.009197 -0.004202 0.000000 0.000000 0.000000
# 2 -0.009197 0.022244 -0.000630 0.000000 0.000000 0.000000
# 3 -0.004202 -0.000630 0.010664 0.000000 0.000000 0.000000
# 4 0.000000 0.000000 0.000000 0.033137 0.000000 0.000000
# 5 0.000000 0.000000 0.000000 0.000000 0.033051 0.000000
# 6 0.000000 0.000000 0.000000 0.000000 0.000000 0.070388
#
#
# Mechanical properties :
#
#
# Convention : Reuss Voigt Hill
#
# Bulk Modulus (GPa) = 29.93961 32.55533 31.24747
# Shear Modulus (GPa) = 21.07686 24.98775 23.03231
#
# Velocity S-wave (km/s) = 3.18463 3.46753 3.32909
# Velocity P-wave (km/s) = 5.28479 5.62999 5.46012
#
# Compressibility (1/GPa) = 0.03340057
#
# Stress axis : x y z
#
# Youngs Moduli (GPa) = 35.02555 44.95546 93.77570
#
# Poissons Ratio (x) = 0.41345 0.39405
# Poissons Ratio (y) = 0.32213 0.05908
# Poissons Ratio (z) = 0.14718 0.02832
#
# Static dielectric constant tensor:
#      x y z
#    x 1.726130 0.000000 0.000000 
#    y 0.000000 1.749630 0.000000 
#    z 0.000000 0.000000 1.761020 
# 
# From -- ./inp_files/7054.got.cif
#   From: 2010.05.17/outbox.cif.g08.bks.cpg/sg36_4_cif.got.tgz:7054.got - 2010.06.03 17:41:39.
