data_PCOD9352205
_publ_section_title
;
Structure prediction by ZEFSAII (Michael W. Deem and Ramdas Pophale) SiO2 
 PCOD9352205
Probable space group: C M C 21
;
_chemical_formula_sum "Si O2"
_cell_formula_units_Z 56
_cell_length_a 14.267402
_cell_length_b 5.084435
_cell_length_c 36.821352
_cell_angle_alpha 90.000000
_cell_angle_beta 90.000000
_cell_angle_gamma 90.000000
_cell_volume 2671.082664
_symmetry_space_group_name_H-M "C M C 21"
_symmetry_group_IT_number 36
_symmetry_cell_setting 'orthorhombic'
loop_
_space_group_symop_operation_xyz
x,y,z
-x,-y,1/2+z
x,-y,1/2+z
-x,y,z
1/2+x,1/2+y,z
1/2-x,1/2-y,1/2+z
1/2+x,1/2-y,1/2+z
1/2-x,1/2+y,z
loop_
_atom_site_type_symbol
_atom_site_label
_atom_site_fract_x
_atom_site_fract_y
_atom_site_fract_z
Si Si1 0.500000 0.066223 0.477371
Si Si2 0.308745 0.436048 0.299204
Si Si3 0.308457 0.065393 0.607097
Si Si4 0.000000 0.066010 0.429560
Si Si5 0.112087 0.116932 0.223424
Si Si6 0.316826 0.976121 0.525842
Si Si7 0.387938 0.883042 0.682728
Si Si8 0.317448 0.517804 0.380317
O O1 0.500000 0.864270 0.443740
O O2 0.500000 0.364192 0.463157
O O3 0.405773 0.011064 0.500134
O O4 0.217985 0.629245 0.298414
O O5 0.363442 0.519089 0.263405
O O6 0.352283 0.500589 0.338402
O O7 0.282379 0.372529 0.608030
O O8 0.351011 0.000786 0.567756
O O9 0.363573 0.981096 0.642744
O O10 0.093744 0.014598 0.406450
O O11 0.146740 0.904727 0.193853
O O12 0.000000 0.127375 0.221006
O O13 0.146737 0.404730 0.212292
O O14 0.238885 0.204015 0.520545
O O15 0.500000 0.872545 0.685181
O O16 0.254260 0.776590 0.385571
#
# Coordination Sequence:
#
# PCOD9352205 Si02
#       8
#     4   8   8   4   8   8   8   8
#     4  12  26  42  68 100 122 164 208 238 314 380
#     4  10  21  37  58  83 111 153 198 238 295 348
#     4  10  21  37  58  83 111 153 198 238 295 348
#     4  12  26  42  68 100 122 164 208 238 314 380
#     4  10  21  35  52  80 114 151 193 241 294 341
#     4  10  23  43  64  93 129 162 204 256 303 362
#     4  10  21  35  52  80 114 151 193 241 294 341
#     4  10  23  43  64  93 129 162 204 256 303 362
#
# _framework density 20.965281999999998
#
# number of rings (size 3 to 8) (size 9 to 14) (size 15 to 20)
#    0.000    1.714    0.000    3.429    2.000    6.857 
#    0.000    0.000    0.000    0.000    0.000    0.000 
#    0.000    0.000    0.000    0.000    0.000    0.000 
#
# Total GULP energy -156461.871834 kJ/mol
# GULP energy per Si atom -5587.923994 kJ/mol
# Density = 2.091756 g / cm^3
# Si number density = 20.965282 Si / 1000 Ang^3
#
#
#
# Elastic Constant Matrix: (Units=GPa)
#
#
# Indices 1 2 3 4 5 6 
#
# 1 57.8126 -6.1782 33.4483 0.0000 0.0000 0.0000
# 2 -6.1782 72.7150 1.6772 0.0000 0.0000 0.0000
# 3 33.4483 1.6772 79.0615 0.0000 0.0000 0.0000
# 4 0.0000 0.0000 0.0000 28.6657 0.0000 0.0000
# 5 0.0000 0.0000 0.0000 0.0000 101.6116 0.0000
# 6 0.0000 0.0000 0.0000 0.0000 0.0000 11.4583
#
#
#
# Elastic Compliance Matrix: (Units=1/GPa)
#
#
# Indices 1 2 3 4 5 6 
#
# 1 0.023251 0.002203 -0.009883 0.000000 0.000000 0.000000
# 2 0.002203 0.013968 -0.001229 0.000000 0.000000 0.000000
# 3 -0.009883 -0.001229 0.016856 0.000000 0.000000 0.000000
# 4 0.000000 0.000000 0.000000 0.034885 0.000000 0.000000
# 5 0.000000 0.000000 0.000000 0.000000 0.009841 0.000000
# 6 0.000000 0.000000 0.000000 0.000000 0.000000 0.087273
#
#
# Mechanical properties :
#
#
# Convention : Reuss Voigt Hill
#
# Bulk Modulus (GPa) = 27.58042 29.72041 28.65041
# Shear Modulus (GPa) = 23.15066 40.38992 31.77029
#
# Velocity S-wave (km/s) = 3.32661 4.39397 3.89701
# Velocity P-wave (km/s) = 5.28573 6.32055 5.82616
#
# Compressibility (1/GPa) = 0.03625761
#
# Stress axis : x y z
#
# Youngs Moduli (GPa) = 43.00902 71.59287 59.32675
#
# Poissons Ratio (x) = -0.15775 0.58635
# Poissons Ratio (y) = -0.09477 0.07289
# Poissons Ratio (z) = 0.42508 0.08795
#
# Static dielectric constant tensor:
#      x y z
#    x 1.713100 0.000000 0.000000 
#    y 0.000000 1.743300 0.000000 
#    z 0.000000 0.000000 1.755930 
# 
# From -- ./inp_files/17404.got.cif
#   From: 2010.05.17/outbox.cif.g08.bks.cpg/sg36_9_cif.got.tgz:17404.got - 2010.06.03 17:41:39.
