data_PCOD9352510
_publ_section_title
;
Structure prediction by ZEFSAII (Michael W. Deem and Ramdas Pophale) SiO2 
 PCOD9352510
Probable space group: C M C 21
;
_chemical_formula_sum "Si O2"
_cell_formula_units_Z 64
_cell_length_a 13.247739
_cell_length_b 17.993538
_cell_length_c 13.405565
_cell_angle_alpha 90.000000
_cell_angle_beta 90.000000
_cell_angle_gamma 90.000000
_cell_volume 3195.534064
_symmetry_space_group_name_H-M "C M C 21"
_symmetry_group_IT_number 36
_symmetry_cell_setting 'orthorhombic'
loop_
_space_group_symop_operation_xyz
x,y,z
-x,-y,1/2+z
x,-y,1/2+z
-x,y,z
1/2+x,1/2+y,z
1/2-x,1/2-y,1/2+z
1/2+x,1/2-y,1/2+z
1/2-x,1/2+y,z
loop_
_atom_site_type_symbol
_atom_site_label
_atom_site_fract_x
_atom_site_fract_y
_atom_site_fract_z
Si Si1 0.385114 0.090153 0.292280
Si Si2 0.388175 0.069176 0.055024
Si Si3 0.387500 0.405611 0.906329
Si Si4 0.215784 0.847501 0.435042
Si Si5 0.620103 0.756467 0.096536
Si Si6 0.716096 0.523119 0.794121
Si Si7 0.283876 0.714677 0.305058
Si Si8 0.723580 0.918081 0.078711
O O1 0.500000 0.094666 0.330821
O O2 0.389437 0.089426 0.172159
O O3 0.312747 0.159630 0.317975
O O4 0.325574 0.014052 0.319643
O O5 0.500000 0.079355 0.013134
O O6 0.355237 0.983135 0.053061
O O7 0.306641 0.120450 0.001521
O O8 0.500000 0.421741 0.937616
O O9 0.357574 0.453013 0.807739
O O10 0.370558 0.321206 0.873186
O O11 0.310035 0.420932 0.995252
O O12 0.143157 0.798926 0.504660
O O13 0.176228 0.918989 0.375700
O O14 0.256278 0.793859 0.348889
O O15 0.500000 0.763713 0.112025
O O16 0.675857 0.722271 0.193256
O O17 0.670431 0.837652 0.079491
O O18 0.728882 0.560014 0.686253
#
# Coordination Sequence:
#
# PCOD9352510 Si02
#       8
#     8   8   8   8   8   8   8   8
#     4   9  20  41  67  93 125 168 211 265 329 383
#     4  10  21  39  66  94 125 163 208 265 328 378
#     4  11  24  43  66  93 129 178 218 262 332 399
#     4  12  23  42  62  98 138 165 212 278 326 390
#     4  12  26  44  69  97 134 181 221 273 338 398
#     4  10  23  41  67  95 130 164 217 274 323 396
#     4  11  23  44  64  94 139 170 217 270 323 402
#     4  11  22  46  67  94 132 165 222 283 317 390
#
# _framework density 20.027951000000002
#
# number of rings (size 3 to 8) (size 9 to 14) (size 15 to 20)
#    0.000    1.250    5.000    0.750    0.000    3.500 
#    0.000    0.625    0.000    0.000    0.000    0.000 
#    0.000    0.000    0.000    0.000    0.000    0.000 
#
# Total GULP energy -178642.429630 kJ/mol
# GULP energy per Si atom -5582.575926 kJ/mol
# Density = 1.998237 g / cm^3
# Si number density = 20.027951 Si / 1000 Ang^3
#
#
#
# Elastic Constant Matrix: (Units=GPa)
#
#
# Indices 1 2 3 4 5 6 
#
# 1 91.9567 23.4440 17.7975 0.0000 0.0000 0.0000
# 2 23.4440 80.7806 4.6585 0.0000 0.0000 0.0000
# 3 17.7975 4.6585 73.4528 0.0000 0.0000 0.0000
# 4 0.0000 0.0000 0.0000 38.3758 0.0000 0.0000
# 5 0.0000 0.0000 0.0000 0.0000 18.7177 0.0000
# 6 0.0000 0.0000 0.0000 0.0000 0.0000 10.2830
#
#
#
# Elastic Compliance Matrix: (Units=1/GPa)
#
#
# Indices 1 2 3 4 5 6 
#
# 1 0.012276 -0.003404 -0.002759 0.000000 0.000000 0.000000
# 2 -0.003404 0.013368 -0.000023 0.000000 0.000000 0.000000
# 3 -0.002759 -0.000023 0.014284 0.000000 0.000000 0.000000
# 4 0.000000 0.000000 0.000000 0.026058 0.000000 0.000000
# 5 0.000000 0.000000 0.000000 0.000000 0.053425 0.000000
# 6 0.000000 0.000000 0.000000 0.000000 0.000000 0.097248
#
#
# Mechanical properties :
#
#
# Convention : Reuss Voigt Hill
#
# Bulk Modulus (GPa) = 36.28742 37.55444 36.92093
# Shear Modulus (GPa) = 20.98927 26.82798 23.90863
#
# Velocity S-wave (km/s) = 3.24079 3.66393 3.45884
# Velocity P-wave (km/s) = 5.67110 6.05730 5.86738
#
# Compressibility (1/GPa) = 0.02755776
#
# Stress axis : x y z
#
# Youngs Moduli (GPa) = 81.45732 74.80347 70.00802
#
# Poissons Ratio (x) = 0.25461 0.19313
# Poissons Ratio (y) = 0.27726 0.00162
# Poissons Ratio (z) = 0.22471 0.00173
#
# Static dielectric constant tensor:
#      x y z
#    x 1.702760 0.000000 0.000000 
#    y 0.000000 1.687490 0.000000 
#    z 0.000000 0.000000 1.720010 
# 
# From -- ./inp_files/11778.got.cif
#   From: 2010.05.17/outbox.cif.g08.bks.cpg/sg36_6_cif.got.tgz:11778.got - 2010.06.03 17:41:39.
