data_PCOD9352716
_publ_section_title
;
Structure prediction by ZEFSAII (Michael W. Deem and Ramdas Pophale) SiO2 
 PCOD9352716
Probable space group: C M C 21
;
_chemical_formula_sum "Si O2"
_cell_formula_units_Z 56
_cell_length_a 23.000217
_cell_length_b 12.380703
_cell_length_c 8.942811
_cell_angle_alpha 90.000000
_cell_angle_beta 90.000000
_cell_angle_gamma 90.000000
_cell_volume 2546.544626
_symmetry_space_group_name_H-M "C M C 21"
_symmetry_group_IT_number 36
_symmetry_cell_setting 'orthorhombic'
loop_
_space_group_symop_operation_xyz
x,y,z
-x,-y,1/2+z
x,-y,1/2+z
-x,y,z
1/2+x,1/2+y,z
1/2-x,1/2-y,1/2+z
1/2+x,1/2-y,1/2+z
1/2-x,1/2+y,z
loop_
_atom_site_type_symbol
_atom_site_label
_atom_site_fract_x
_atom_site_fract_y
_atom_site_fract_z
Si Si1 0.272083 0.898844 0.218190
Si Si2 0.774269 0.269722 0.515816
Si Si3 0.661122 0.525479 0.859589
Si Si4 0.381302 0.130511 0.548878
Si Si5 0.874115 0.263336 0.737772
Si Si6 0.500000 0.842146 0.665305
Si Si7 0.500000 0.021504 0.459646
Si Si8 0.347945 0.641449 0.142203
O O1 0.239984 0.851590 0.070746
O O2 0.278985 0.802966 0.343112
O O3 0.229123 0.976887 0.306909
O O4 0.334480 0.930914 0.152741
O O5 0.832799 0.297841 0.602408
O O6 0.717601 0.329779 0.584861
O O7 0.639997 0.639840 0.786031
O O8 0.640392 0.410850 0.800621
O O9 0.640786 0.543433 0.027739
O O10 0.359951 0.160212 0.380820
O O11 0.441793 0.071263 0.531662
O O12 0.384720 0.250790 0.618181
O O13 0.941324 0.277331 0.697787
O O14 0.500000 0.896051 0.502126
O O15 0.500000 0.939879 0.788104
#
# Coordination Sequence:
#
# PCOD9352716 Si02
#       8
#     8   8   8   8   8   4   4   8
#     4   9  17  30  49  74 103 135 169 207 251 301
#     4   9  17  30  49  74 103 135 169 207 251 301
#     4   9  18  31  49  75 105 136 169 203 250 306
#     4   9  19  36  54  74 103 139 174 213 261 309
#     4   9  19  36  54  74 103 139 174 213 261 309
#     4  10  22  40  59  76 100 134 175 222 267 312
#     4  10  22  40  59  76 100 134 175 222 267 312
#     4   9  18  31  49  75 105 136 169 203 250 306
#
# _framework density 21.990582
#
# number of rings (size 3 to 8) (size 9 to 14) (size 15 to 20)
#    0.000    2.857    0.000    2.571    0.000    8.000 
#    0.000    6.429    0.000    0.000    0.000    0.000 
#    0.000    0.000    0.000    0.000    0.000    0.000 
#
# Total GULP energy -156085.268177 kJ/mol
# GULP energy per Si atom -5574.473863 kJ/mol
# Density = 2.194053 g / cm^3
# Si number density = 21.990582 Si / 1000 Ang^3
#
#
#
# Elastic Constant Matrix: (Units=GPa)
#
#
# Indices 1 2 3 4 5 6 
#
# 1 66.1520 0.3723 24.8159 0.0000 0.0000 0.0000
# 2 0.3723 37.3243 13.0115 0.0000 0.0000 0.0000
# 3 24.8159 13.0115 56.8229 0.0000 0.0000 0.0000
# 4 0.0000 0.0000 0.0000 38.5206 0.0000 0.0000
# 5 0.0000 0.0000 0.0000 0.0000 23.5175 0.0000
# 6 0.0000 0.0000 0.0000 0.0000 0.0000 9.3830
#
#
#
# Elastic Compliance Matrix: (Units=1/GPa)
#
#
# Indices 1 2 3 4 5 6 
#
# 1 0.018351 0.002837 -0.008664 0.000000 0.000000 0.000000
# 2 0.002837 0.029555 -0.008007 0.000000 0.000000 0.000000
# 3 -0.008664 -0.008007 0.023216 0.000000 0.000000 0.000000
# 4 0.000000 0.000000 0.000000 0.025960 0.000000 0.000000
# 5 0.000000 0.000000 0.000000 0.000000 0.042522 0.000000
# 6 0.000000 0.000000 0.000000 0.000000 0.000000 0.106576
#
#
# Mechanical properties :
#
#
# Convention : Reuss Voigt Hill
#
# Bulk Modulus (GPa) = 23.01237 26.29983 24.65610
# Shear Modulus (GPa) = 17.34118 22.42418 19.88268
#
# Velocity S-wave (km/s) = 2.81120 3.19677 3.01016
# Velocity P-wave (km/s) = 4.58525 5.06076 4.82886
#
# Compressibility (1/GPa) = 0.04345488
#
# Stress axis : x y z
#
# Youngs Moduli (GPa) = 54.49328 33.83514 43.07433
#
# Poissons Ratio (x) = -0.09600 0.37319
# Poissons Ratio (y) = -0.15461 0.34488
# Poissons Ratio (z) = 0.47213 0.27091
#
# Static dielectric constant tensor:
#      x y z
#    x 1.799480 0.000000 0.000000 
#    y 0.000000 1.861890 0.000000 
#    z 0.000000 0.000000 1.859050 
# 
# From -- ./inp_files/5249.got.cif
#   From: 2010.05.17/outbox.cif.g08.bks.cpg/sg36_3_cif.got.tgz:5249.got - 2010.06.03 17:41:39.
