data_PCOD9352696
_publ_section_title
;
Structure prediction by ZEFSAII (Michael W. Deem and Ramdas Pophale) SiO2 
 PCOD9352696
Probable space group: C M C 21
;
_chemical_formula_sum "Si O2"
_cell_formula_units_Z 48
_cell_length_a 13.121616
_cell_length_b 13.164896
_cell_length_c 11.321121
_cell_angle_alpha 90.000000
_cell_angle_beta 90.000000
_cell_angle_gamma 90.000000
_cell_volume 1955.663764
_symmetry_space_group_name_H-M "C M C 21"
_symmetry_group_IT_number 36
_symmetry_cell_setting 'orthorhombic'
loop_
_space_group_symop_operation_xyz
x,y,z
-x,-y,1/2+z
x,-y,1/2+z
-x,y,z
1/2+x,1/2+y,z
1/2-x,1/2-y,1/2+z
1/2+x,1/2-y,1/2+z
1/2-x,1/2+y,z
loop_
_atom_site_type_symbol
_atom_site_label
_atom_site_fract_x
_atom_site_fract_y
_atom_site_fract_z
Si Si1 0.255226 0.628650 0.315520
Si Si2 0.712305 0.374098 0.136865
Si Si3 0.377047 0.035335 0.105535
Si Si4 0.615975 0.283036 0.369659
Si Si5 0.115456 0.982016 0.473725
Si Si6 0.379427 0.780032 0.445775
O O1 0.194000 0.597654 0.198635
O O2 0.161344 0.673791 0.391143
O O3 0.310200 0.536027 0.380283
O O4 0.336995 0.722282 0.328215
O O5 0.823845 0.424630 0.120436
O O6 0.677801 0.335084 0.263428
O O7 0.639062 0.467351 0.097929
O O8 0.677114 0.285584 0.047168
O O9 0.500000 0.034027 0.129956
O O10 0.364793 0.101027 0.982778
O O11 0.500000 0.275879 0.332970
O O12 0.626777 0.361406 0.476138
O O13 0.000000 0.003158 0.436860
O O14 0.500000 0.763069 0.452201
#
# Coordination Sequence:
#
# PCOD9352696 Si02
#       6
#     8   8   8   8   8   8
#     4  11  20  37  62  89 120 157 200 250 299 359
#     4  11  20  38  62  87 117 158 198 247 294 360
#     4  11  23  40  62  89 124 164 203 247 307 365
#     4  11  21  36  61  89 117 155 199 244 296 356
#     4  10  22  39  61  90 119 154 201 251 300 352
#     4  10  22  42  66  88 119 164 207 249 302 362
#
# _framework density 24.544094999999999
#
# number of rings (size 3 to 8) (size 9 to 14) (size 15 to 20)
#    0.000    1.333    3.333    4.500    0.000    0.000 
#    0.000    8.333    0.000    6.000    0.000    0.000 
#    0.000    0.000    0.000    0.000    0.000    0.000 
#
# Total GULP energy -133750.499702 kJ/mol
# GULP energy per Si atom -5572.937488 kJ/mol
# Density = 2.448823 g / cm^3
# Si number density = 24.544095 Si / 1000 Ang^3
#
#
#
# Elastic Constant Matrix: (Units=GPa)
#
#
# Indices 1 2 3 4 5 6 
#
# 1 212.9668 72.4374 41.8217 0.0000 0.0000 0.0000
# 2 72.4374 61.5154 4.3553 0.0000 0.0000 0.0000
# 3 41.8217 4.3553 41.2728 0.0000 0.0000 0.0000
# 4 0.0000 0.0000 0.0000 31.8601 0.0000 0.0000
# 5 0.0000 0.0000 0.0000 0.0000 31.7706 0.0000
# 6 0.0000 0.0000 0.0000 0.0000 0.0000 47.6459
#
#
#
# Elastic Compliance Matrix: (Units=1/GPa)
#
#
# Indices 1 2 3 4 5 6 
#
# 1 0.010548 -0.011752 -0.009449 0.000000 0.000000 0.000000
# 2 -0.011752 0.029472 0.008799 0.000000 0.000000 0.000000
# 3 -0.009449 0.008799 0.032875 0.000000 0.000000 0.000000
# 4 0.000000 0.000000 0.000000 0.031387 0.000000 0.000000
# 5 0.000000 0.000000 0.000000 0.000000 0.031476 0.000000
# 6 0.000000 0.000000 0.000000 0.000000 0.000000 0.020988
#
#
# Mechanical properties :
#
#
# Convention : Reuss Voigt Hill
#
# Bulk Modulus (GPa) = 20.79402 61.44264 41.11833
# Shear Modulus (GPa) = 25.30606 35.39802 30.35204
#
# Velocity S-wave (km/s) = 3.21447 3.80178 3.52039
# Velocity P-wave (km/s) = 4.71886 6.66028 5.77178
#
# Compressibility (1/GPa) = 0.04809076
#
# Stress axis : x y z
#
# Youngs Moduli (GPa) = 94.80097 33.93040 30.41845
#
# Poissons Ratio (x) = 0.39876 0.28741
# Poissons Ratio (y) = 1.11413 -0.26764
# Poissons Ratio (z) = 0.89573 -0.29854
#
# Static dielectric constant tensor:
#      x y z
#    x 1.960150 0.000000 0.000000 
#    y 0.000000 2.023920 0.000000 
#    z 0.000000 0.000000 2.030710 
# 
# From -- ./inp_files/11538.got.cif
#   From: 2010.05.17/outbox.cif.g08.bks.cpg/sg36_6_cif.got.tgz:11538.got - 2010.06.03 17:41:39.
