data_PCOD9352832
_publ_section_title
;
Structure prediction by ZEFSAII (Michael W. Deem and Ramdas Pophale) SiO2 
 PCOD9352832
Probable space group: C M C 21
;
_chemical_formula_sum "Si O2"
_cell_formula_units_Z 40
_cell_length_a 13.759925
_cell_length_b 16.083811
_cell_length_c 7.592970
_cell_angle_alpha 90.000000
_cell_angle_beta 90.000000
_cell_angle_gamma 90.000000
_cell_volume 1680.415628
_symmetry_space_group_name_H-M "C M C 21"
_symmetry_group_IT_number 36
_symmetry_cell_setting 'orthorhombic'
loop_
_space_group_symop_operation_xyz
x,y,z
-x,-y,1/2+z
x,-y,1/2+z
-x,y,z
1/2+x,1/2+y,z
1/2-x,1/2-y,1/2+z
1/2+x,1/2-y,1/2+z
1/2-x,1/2+y,z
loop_
_atom_site_type_symbol
_atom_site_label
_atom_site_fract_x
_atom_site_fract_y
_atom_site_fract_z
Si Si1 0.610251 0.365289 0.161640
Si Si2 0.816139 0.426210 0.581624
Si Si3 0.115685 0.705471 0.359483
Si Si4 0.112101 0.976703 0.505819
Si Si5 0.383588 0.891670 0.190494
O O1 0.500000 0.340074 0.114940
O O2 0.655966 0.285472 0.255179
O O3 0.610642 0.434926 0.314628
O O4 0.641723 0.425407 0.003112
O O5 0.865613 0.371108 0.730242
O O6 0.699826 0.429457 0.600803
O O7 0.841138 0.392475 0.386983
O O8 0.855640 0.519874 0.603926
O O9 0.151006 0.679728 0.554116
O O10 0.000000 0.719765 0.380889
O O11 0.000000 0.967937 0.568832
O O12 0.500000 0.886633 0.204571
#
# Coordination Sequence:
#
# PCOD9352832 Si02
#       5
#     8   8   8   8   8
#     4   9  20  43  68  92 129 177 224 283 344 394
#     4  12  22  39  67  99 135 182 229 263 343 416
#     4  10  22  42  67  99 140 173 218 285 340 406
#     4  10  22  44  68  92 131 177 227 282 339 396
#     4  11  22  38  65 100 139 177 217 273 341 412
#
# _framework density 23.803635
#
# number of rings (size 3 to 8) (size 9 to 14) (size 15 to 20)
#    0.000    1.600    2.000    3.000    0.000    0.000 
#   10.800    0.000    0.000    0.000    0.000    0.000 
#    0.000    0.000    0.000    0.000    0.000    0.000 
#
# Total GULP energy -111625.218967 kJ/mol
# GULP energy per Si atom -5581.260948 kJ/mol
# Density = 2.374946 g / cm^3
# Si number density = 23.803635 Si / 1000 Ang^3
#
#
#
# Elastic Constant Matrix: (Units=GPa)
#
#
# Indices 1 2 3 4 5 6 
#
# 1 92.4977 13.4138 14.2890 0.0000 0.0000 0.0000
# 2 13.4138 72.6623 29.8997 0.0000 0.0000 0.0000
# 3 14.2890 29.8997 107.5795 0.0000 0.0000 0.0000
# 4 0.0000 0.0000 0.0000 32.1126 0.0000 0.0000
# 5 0.0000 0.0000 0.0000 0.0000 27.4985 0.0000
# 6 0.0000 0.0000 0.0000 0.0000 0.0000 10.0973
#
#
#
# Elastic Compliance Matrix: (Units=1/GPa)
#
#
# Indices 1 2 3 4 5 6 
#
# 1 0.011209 -0.001645 -0.001032 0.000000 0.000000 0.000000
# 2 -0.001645 0.015781 -0.004168 0.000000 0.000000 0.000000
# 3 -0.001032 -0.004168 0.010591 0.000000 0.000000 0.000000
# 4 0.000000 0.000000 0.000000 0.031140 0.000000 0.000000
# 5 0.000000 0.000000 0.000000 0.000000 0.036366 0.000000
# 6 0.000000 0.000000 0.000000 0.000000 0.000000 0.099036
#
#
# Mechanical properties :
#
#
# Convention : Reuss Voigt Hill
#
# Bulk Modulus (GPa) = 41.85378 43.10495 42.47936
# Shear Modulus (GPa) = 22.14596 28.28415 25.21506
#
# Velocity S-wave (km/s) = 3.05349 3.45081 3.25821
# Velocity P-wave (km/s) = 5.48205 5.83312 5.66031
#
# Compressibility (1/GPa) = 0.02389271
#
# Stress axis : x y z
#
# Youngs Moduli (GPa) = 89.21430 63.36820 94.42190
#
# Poissons Ratio (x) = 0.10422 0.09741
# Poissons Ratio (y) = 0.14673 0.39350
# Poissons Ratio (z) = 0.09204 0.26409
#
# Static dielectric constant tensor:
#      x y z
#    x 1.951230 0.000000 0.000000 
#    y 0.000000 1.944250 0.000000 
#    z 0.000000 0.000000 1.963200 
# 
# From -- ./inp_files/3816.got.cif
#   From: 2010.05.17/outbox.cif.g08.bks.cpg/sg36_2_cif.got.tgz:3816.got - 2010.06.03 17:41:39.
