data_PCOD9352391
_publ_section_title
;
Structure prediction by ZEFSAII (Michael W. Deem and Ramdas Pophale) SiO2 
 PCOD9352391
Probable space group: C M C 21
;
_chemical_formula_sum "Si O2"
_cell_formula_units_Z 64
_cell_length_a 8.246531
_cell_length_b 24.962715
_cell_length_c 15.633313
_cell_angle_alpha 90.000000
_cell_angle_beta 90.000000
_cell_angle_gamma 90.000000
_cell_volume 3218.208203
_symmetry_space_group_name_H-M "C M C 21"
_symmetry_group_IT_number 36
_symmetry_cell_setting 'orthorhombic'
loop_
_space_group_symop_operation_xyz
x,y,z
-x,-y,1/2+z
x,-y,1/2+z
-x,y,z
1/2+x,1/2+y,z
1/2-x,1/2-y,1/2+z
1/2+x,1/2-y,1/2+z
1/2-x,1/2+y,z
loop_
_atom_site_type_symbol
_atom_site_label
_atom_site_fract_x
_atom_site_fract_y
_atom_site_fract_z
Si Si1 0.696854 0.255404 0.281720
Si Si2 0.195593 0.183124 0.440156
Si Si3 0.688125 0.626205 0.820371
Si Si4 0.303908 0.234613 0.086348
Si Si5 0.313252 0.987075 0.597754
Si Si6 0.684982 0.380290 0.524322
Si Si7 0.304086 0.439996 0.942437
Si Si8 0.193789 0.988937 0.282137
O O1 0.500000 0.255328 0.286869
O O2 0.756616 0.214283 0.353706
O O3 0.758588 0.315635 0.300404
O O4 0.744784 0.241778 0.184905
O O5 0.251398 0.218256 0.521935
O O6 0.254123 0.121604 0.441556
O O7 0.000000 0.181506 0.443849
O O8 0.500000 0.628762 0.790025
O O9 0.762247 0.571644 0.784083
O O10 0.687951 0.618819 0.921995
O O11 0.500000 0.234030 0.083800
O O12 0.239371 0.178034 0.053637
O O13 0.500000 0.000094 0.611675
O O14 0.242508 0.028476 0.528375
O O15 0.225341 0.988273 0.688778
O O16 0.293884 0.927736 0.559822
O O17 0.500000 0.390681 0.552133
O O18 0.500000 0.438551 0.938361
O O19 0.244857 0.473796 0.859718
O O20 0.000000 0.984369 0.296076
#
# Coordination Sequence:
#
# PCOD9352391 Si02
#       8
#     8   8   8   8   8   8   8   8
#     4  10  21  38  60  88 121 158 199 244 303 361
#     4  10  22  39  60  88 123 159 202 250 297 351
#     4   9  18  36  64  90 111 149 205 257 295 344
#     4  10  22  38  58  89 124 159 196 249 310 354
#     4  12  26  41  60  92 128 159 196 248 314 367
#     4  11  21  40  66  88 114 155 208 254 297 359
#     4  10  22  42  65  89 119 163 211 251 294 354
#     4  10  21  40  65  90 118 158 211 253 294 356
#
# _framework density 19.886842000000001
#
# number of rings (size 3 to 8) (size 9 to 14) (size 15 to 20)
#    0.000    1.750    2.500    1.500    3.500    1.500 
#    0.000    0.625    0.000    0.000    0.000    0.000 
#    0.000    0.000    0.000    0.000    0.000    0.000 
#
# Total GULP energy -178666.430329 kJ/mol
# GULP energy per Si atom -5583.325948 kJ/mol
# Density = 1.984158 g / cm^3
# Si number density = 19.886842 Si / 1000 Ang^3
#
#
#
# Elastic Constant Matrix: (Units=GPa)
#
#
# Indices 1 2 3 4 5 6 
#
# 1 6.9001 9.3646 4.7033 0.0000 0.0000 0.0000
# 2 9.3646 109.2500 12.0122 0.0000 0.0000 0.0000
# 3 4.7033 12.0122 70.2482 0.0000 0.0000 0.0000
# 4 0.0000 0.0000 0.0000 32.7412 0.0000 0.0000
# 5 0.0000 0.0000 0.0000 0.0000 16.0942 0.0000
# 6 0.0000 0.0000 0.0000 0.0000 0.0000 1.0881
#
#
#
# Elastic Compliance Matrix: (Units=1/GPa)
#
#
# Indices 1 2 3 4 5 6 
#
# 1 0.169444 -0.013531 -0.009031 0.000000 0.000000 0.000000
# 2 -0.013531 0.010409 -0.000874 0.000000 0.000000 0.000000
# 3 -0.009031 -0.000874 0.014989 0.000000 0.000000 0.000000
# 4 0.000000 0.000000 0.000000 0.030543 0.000000 0.000000
# 5 0.000000 0.000000 0.000000 0.000000 0.062134 0.000000
# 6 0.000000 0.000000 0.000000 0.000000 0.000000 0.918996
#
#
# Mechanical properties :
#
#
# Convention : Reuss Voigt Hill
#
# Bulk Modulus (GPa) = 6.75810 26.50651 16.63231
# Shear Modulus (GPa) = 3.83815 20.67261 12.25538
#
# Velocity S-wave (km/s) = 1.39075 3.22764 2.48514
# Velocity P-wave (km/s) = 2.44634 5.21995 4.07630
#
# Compressibility (1/GPa) = 0.14797055
#
# Stress axis : x y z
#
# Youngs Moduli (GPa) = 5.90164 96.06816 66.71410
#
# Poissons Ratio (x) = 1.29993 0.60249
# Poissons Ratio (y) = 0.07986 0.05831
# Poissons Ratio (z) = 0.05330 0.08396
#
# Static dielectric constant tensor:
#      x y z
#    x 1.717150 0.000000 0.000000 
#    y 0.000000 1.620590 0.000000 
#    z 0.000000 0.000000 1.666610 
# 
# From -- ./inp_files/11119.got.cif
#   From: 2010.05.17/outbox.cif.g08.bks.cpg/sg36_6_cif.got.tgz:11119.got - 2010.06.03 17:41:39.
