data_PCOD9352954
_publ_section_title
;
Structure prediction by ZEFSAII (Michael W. Deem and Ramdas Pophale) SiO2 
 PCOD9352954
Probable space group: C M C 21
;
_chemical_formula_sum "Si O2"
_cell_formula_units_Z 64
_cell_length_a 8.756313
_cell_length_b 24.294990
_cell_length_c 15.442145
_cell_angle_alpha 90.000000
_cell_angle_beta 90.000000
_cell_angle_gamma 90.000000
_cell_volume 3285.077563
_symmetry_space_group_name_H-M "C M C 21"
_symmetry_group_IT_number 36
_symmetry_cell_setting 'orthorhombic'
loop_
_space_group_symop_operation_xyz
x,y,z
-x,-y,1/2+z
x,-y,1/2+z
-x,y,z
1/2+x,1/2+y,z
1/2-x,1/2-y,1/2+z
1/2+x,1/2-y,1/2+z
1/2-x,1/2+y,z
loop_
_atom_site_type_symbol
_atom_site_label
_atom_site_fract_x
_atom_site_fract_y
_atom_site_fract_z
Si Si1 0.818729 0.470065 0.609240
Si Si2 0.321812 0.136780 0.838626
Si Si3 0.824170 0.871132 0.518132
Si Si4 0.177611 0.248544 0.102022
Si Si5 0.818131 0.482421 0.298528
Si Si6 0.313862 0.169612 0.450174
Si Si7 0.182246 0.953274 0.960782
Si Si8 0.681235 0.247306 0.290918
O O1 0.728511 0.414174 0.589767
O O2 0.794639 0.487759 0.707822
O O3 0.757008 0.515960 0.542861
O O4 0.000000 0.462589 0.595183
O O5 0.500000 0.147937 0.823791
O O6 0.276043 0.081798 0.787693
O O7 0.228978 0.191426 0.818649
O O8 0.288062 0.121508 0.937729
O O9 0.814447 0.808861 0.550824
O O10 0.000000 0.882061 0.492191
O O11 0.258831 0.240546 0.193571
O O12 0.000000 0.260717 0.120574
O O13 0.233307 0.295986 0.036165
O O14 0.729219 0.511710 0.375999
O O15 0.000000 0.483704 0.319660
O O16 0.500000 0.167203 0.450007
O O17 0.246936 0.108496 0.451693
O O18 0.264693 0.203767 0.364160
O O19 0.000000 0.952347 0.969863
O O20 0.500000 0.242968 0.290122
#
# Coordination Sequence:
#
# PCOD9352954 Si02
#       8
#     8   8   8   8   8   8   8   8
#     4  11  24  43  66  93 127 169 213 256 312 381
#     4  11  22  40  67  94 123 165 212 259 315 374
#     4  11  22  41  66  95 127 162 209 265 318 368
#     4  10  23  43  65  91 127 168 208 256 315 375
#     4  10  24  44  66  92 124 169 214 253 309 381
#     4  10  23  45  65  85 126 174 209 249 313 380
#     4  12  26  42  64  95 129 164 207 265 319 367
#     4  11  24  42  65  95 127 165 210 261 315 370
#
# _framework density 19.482035
#
# number of rings (size 3 to 8) (size 9 to 14) (size 15 to 20)
#    0.000    1.250    2.500    2.625    3.500    4.000 
#    0.000    0.000    0.000    0.000    0.000    0.000 
#    0.000    0.000    0.000    0.000    0.000    0.000 
#
# Total GULP energy -178838.729571 kJ/mol
# GULP energy per Si atom -5588.710299 kJ/mol
# Density = 1.943769 g / cm^3
# Si number density = 19.482035 Si / 1000 Ang^3
#
#
#
# Elastic Constant Matrix: (Units=GPa)
#
#
# Indices 1 2 3 4 5 6 
#
# 1 24.4325 12.3423 8.4657 0.0000 0.0000 0.0000
# 2 12.3423 69.3978 -4.0127 0.0000 0.0000 0.0000
# 3 8.4657 -4.0127 47.7814 0.0000 0.0000 0.0000
# 4 0.0000 0.0000 0.0000 23.3599 0.0000 0.0000
# 5 0.0000 0.0000 0.0000 0.0000 27.2448 0.0000
# 6 0.0000 0.0000 0.0000 0.0000 0.0000 29.9980
#
#
#
# Elastic Compliance Matrix: (Units=1/GPa)
#
#
# Indices 1 2 3 4 5 6 
#
# 1 0.048863 -0.009236 -0.009433 0.000000 0.000000 0.000000
# 2 -0.009236 0.016226 0.002999 0.000000 0.000000 0.000000
# 3 -0.009433 0.002999 0.022852 0.000000 0.000000 0.000000
# 4 0.000000 0.000000 0.000000 0.042808 0.000000 0.000000
# 5 0.000000 0.000000 0.000000 0.000000 0.036704 0.000000
# 6 0.000000 0.000000 0.000000 0.000000 0.000000 0.033336
#
#
# Mechanical properties :
#
#
# Convention : Reuss Voigt Hill
#
# Bulk Modulus (GPa) = 17.66746 19.46691 18.56719
# Shear Modulus (GPa) = 19.92073 24.44164 22.18119
#
# Velocity S-wave (km/s) = 3.20115 3.54584 3.37789
# Velocity P-wave (km/s) = 4.76985 5.17474 4.97641
#
# Compressibility (1/GPa) = 0.05660122
#
# Stress axis : x y z
#
# Youngs Moduli (GPa) = 20.46540 61.63095 43.76030
#
# Poissons Ratio (x) = 0.56920 0.41279
# Poissons Ratio (y) = 0.18901 -0.13123
# Poissons Ratio (z) = 0.19305 -0.18483
#
# Static dielectric constant tensor:
#      x y z
#    x 1.665460 0.000000 0.000000 
#    y 0.000000 1.676800 0.000000 
#    z 0.000000 0.000000 1.685330 
# 
# From -- ./inp_files/11061.got.cif
#   From: 2010.05.17/outbox.cif.g08.bks.cpg/sg36_6_cif.got.tgz:11061.got - 2010.06.03 17:41:39.
