data_PCOD9352316
_publ_section_title
;
Structure prediction by ZEFSAII (Michael W. Deem and Ramdas Pophale) SiO2 
 PCOD9352316
Probable space group: C M C 21
;
_chemical_formula_sum "Si O2"
_cell_formula_units_Z 48
_cell_length_a 7.671137
_cell_length_b 9.884374
_cell_length_c 25.266108
_cell_angle_alpha 90.000000
_cell_angle_beta 90.000000
_cell_angle_gamma 90.000000
_cell_volume 1915.787154
_symmetry_space_group_name_H-M "C M C 21"
_symmetry_group_IT_number 36
_symmetry_cell_setting 'orthorhombic'
loop_
_space_group_symop_operation_xyz
x,y,z
-x,-y,1/2+z
x,-y,1/2+z
-x,y,z
1/2+x,1/2+y,z
1/2-x,1/2-y,1/2+z
1/2+x,1/2-y,1/2+z
1/2-x,1/2+y,z
loop_
_atom_site_type_symbol
_atom_site_label
_atom_site_fract_x
_atom_site_fract_y
_atom_site_fract_z
Si Si1 0.711622 0.950779 0.218440
Si Si2 0.201257 0.421678 0.894541
Si Si3 0.202858 0.775733 0.000536
Si Si4 0.288057 0.173343 0.830809
Si Si5 0.703570 0.700515 0.155859
Si Si6 0.797834 0.030044 0.059095
O O1 0.500000 0.955825 0.217470
O O2 0.764148 0.887937 0.274454
O O3 0.774643 0.845615 0.173127
O O4 0.781102 0.098869 0.205517
O O5 0.285997 0.344170 0.943363
O O6 0.215435 0.319792 0.844848
O O7 0.270575 0.565995 0.875563
O O8 0.000000 0.441228 0.909175
O O9 0.000000 0.753233 0.011673
O O10 0.291195 0.631930 0.009219
O O11 0.278657 0.886697 0.041697
O O12 0.500000 0.180087 0.831881
O O13 0.500000 0.721674 0.143855
O O14 0.782700 0.616134 0.107127
O O15 0.000000 0.004536 0.071940
#
# Coordination Sequence:
#
# PCOD9352316 Si02
#       6
#     8   8   8   8   8   8
#     4  10  21  37  58  85 116 150 189 233 280 332
#     4  11  23  38  58  83 111 146 187 231 281 336
#     4  11  23  38  58  83 111 146 187 231 281 336
#     4  10  22  39  58  84 116 149 189 233 279 335
#     4  10  21  37  58  85 116 150 189 233 280 332
#     4  10  22  39  58  84 116 149 189 233 279 335
#
# _framework density 25.054976
#
# number of rings (size 3 to 8) (size 9 to 14) (size 15 to 20)
#    0.000    1.667    0.000    4.000    0.000    7.333 
#    0.000    0.000    0.000    0.000    0.000    0.000 
#    0.000    0.000    0.000    0.000    0.000    0.000 
#
# Total GULP energy -134339.032837 kJ/mol
# GULP energy per Si atom -5597.459702 kJ/mol
# Density = 2.499795 g / cm^3
# Si number density = 25.054976 Si / 1000 Ang^3
#
#
#
# Elastic Constant Matrix: (Units=GPa)
#
#
# Indices 1 2 3 4 5 6 
#
# 1 57.7243 -6.8574 2.0661 0.0000 0.0000 0.0000
# 2 -6.8574 110.3293 -11.9898 0.0000 0.0000 0.0000
# 3 2.0661 -11.9898 68.8886 0.0000 0.0000 0.0000
# 4 0.0000 0.0000 0.0000 45.9755 0.0000 0.0000
# 5 0.0000 0.0000 0.0000 0.0000 20.9647 0.0000
# 6 0.0000 0.0000 0.0000 0.0000 0.0000 7.6615
#
#
#
# Elastic Compliance Matrix: (Units=1/GPa)
#
#
# Indices 1 2 3 4 5 6 
#
# 1 0.017460 0.001048 -0.000341 0.000000 0.000000 0.000000
# 2 0.001048 0.009301 0.001587 0.000000 0.000000 0.000000
# 3 -0.000341 0.001587 0.014803 0.000000 0.000000 0.000000
# 4 0.000000 0.000000 0.000000 0.021751 0.000000 0.000000
# 5 0.000000 0.000000 0.000000 0.000000 0.047699 0.000000
# 6 0.000000 0.000000 0.000000 0.000000 0.000000 0.130523
#
#
# Mechanical properties :
#
#
# Convention : Reuss Voigt Hill
#
# Bulk Modulus (GPa) = 21.66693 22.59778 22.13235
# Shear Modulus (GPa) = 19.81508 31.83522 25.82515
#
# Velocity S-wave (km/s) = 2.81528 3.56844 3.21400
# Velocity P-wave (km/s) = 4.38569 5.10070 4.75665
#
# Compressibility (1/GPa) = 0.04615329
#
# Stress axis : x y z
#
# Youngs Moduli (GPa) = 57.27225 107.51030 67.55520
#
# Poissons Ratio (x) = -0.11269 0.02305
# Poissons Ratio (y) = -0.06003 -0.10724
# Poissons Ratio (z) = 0.01954 -0.17067
#
# Static dielectric constant tensor:
#      x y z
#    x 1.915750 0.000000 0.000000 
#    y 0.000000 1.922340 0.000000 
#    z 0.000000 0.000000 2.059120 
# 
# From -- ./inp_files/16441.got.cif
#   From: 2010.05.17/outbox.cif.g08.bks.cpg/sg36_9_cif.got.tgz:16441.got - 2010.06.03 17:41:39.
