data_PCOD9352837
_publ_section_title
;
Structure prediction by ZEFSAII (Michael W. Deem and Ramdas Pophale) SiO2 
 PCOD9352837
Probable space group: C M C 21
;
_chemical_formula_sum "Si O2"
_cell_formula_units_Z 56
_cell_length_a 19.404323
_cell_length_b 14.638149
_cell_length_c 8.284709
_cell_angle_alpha 90.000000
_cell_angle_beta 90.000000
_cell_angle_gamma 90.000000
_cell_volume 2353.216675
_symmetry_space_group_name_H-M "C M C 21"
_symmetry_group_IT_number 36
_symmetry_cell_setting 'orthorhombic'
loop_
_space_group_symop_operation_xyz
x,y,z
-x,-y,1/2+z
x,-y,1/2+z
-x,y,z
1/2+x,1/2+y,z
1/2-x,1/2-y,1/2+z
1/2+x,1/2-y,1/2+z
1/2-x,1/2+y,z
loop_
_atom_site_type_symbol
_atom_site_label
_atom_site_fract_x
_atom_site_fract_y
_atom_site_fract_z
Si Si1 0.000000 0.475557 0.857311
Si Si2 0.153104 0.635653 0.989364
Si Si3 0.304139 0.690821 0.330988
Si Si4 0.418678 0.436791 0.965595
Si Si5 0.637739 0.960325 0.187224
Si Si6 0.833669 0.292733 0.990413
Si Si7 0.000000 0.628323 0.084712
Si Si8 0.080681 0.133305 0.831167
O O1 0.929595 0.518217 0.790716
O O2 0.000000 0.375156 0.778618
O O3 0.000000 0.519893 0.033489
O O4 0.185164 0.733982 0.972947
O O5 0.164128 0.554465 0.115073
O O6 0.071392 0.662572 0.012467
O O7 0.181923 0.588675 0.824493
O O8 0.363575 0.616091 0.355218
O O9 0.226961 0.664170 0.380456
O O10 0.313279 0.737446 0.155369
O O11 0.500000 0.420038 0.922534
O O12 0.408090 0.401890 0.148310
O O13 0.406727 0.545033 0.944830
O O14 0.624943 0.881997 0.054089
O O15 0.874293 0.219680 0.882709
O O16 0.000000 0.156784 0.844969
#
# Coordination Sequence:
#
# PCOD9352837 Si02
#       8
#     4   8   8   8   8   8   4   8
#     4   8  14  28  48  74 103 132 173 218 267 330
#     4   9  19  34  55  81 112 151 190 234 288 349
#     4  11  24  40  60  88 125 167 210 259 315 379
#     4  10  22  42  68  97 126 161 211 270 329 389
#     4   9  19  34  55  81 112 151 190 234 288 349
#     4  11  24  40  60  88 125 167 210 259 315 379
#     4   8  14  28  48  74 103 132 173 218 267 330
#     4  10  22  42  68  97 126 161 211 270 329 389
#
# _framework density 23.797212999999999
#
# number of rings (size 3 to 8) (size 9 to 14) (size 15 to 20)
#    0.000    2.286    0.000    1.714    2.000    5.143 
#    0.000    2.857    0.000    0.000    0.000    0.000 
#    0.000    0.000    0.000    0.000    0.000    0.000 
#
# Total GULP energy -156089.595617 kJ/mol
# GULP energy per Si atom -5574.628415 kJ/mol
# Density = 2.374305 g / cm^3
# Si number density = 23.797213 Si / 1000 Ang^3
#
#
#
# Elastic Constant Matrix: (Units=GPa)
#
#
# Indices 1 2 3 4 5 6 
#
# 1 43.4225 44.1948 47.3469 0.0000 0.0000 0.0000
# 2 44.1948 96.6171 27.0967 0.0000 0.0000 0.0000
# 3 47.3469 27.0967 76.5457 0.0000 0.0000 0.0000
# 4 0.0000 0.0000 0.0000 43.0025 0.0000 0.0000
# 5 0.0000 0.0000 0.0000 0.0000 -2.5072 0.0000
# 6 0.0000 0.0000 0.0000 0.0000 0.0000 8.0167
#
#
#
# Elastic Compliance Matrix: (Units=1/GPa)
#
#
# Indices 1 2 3 4 5 6 
#
# 1 0.182219 -0.057444 -0.092376 0.000000 0.000000 0.000000
# 2 -0.057444 0.029600 0.025053 0.000000 0.000000 0.000000
# 3 -0.092376 0.025053 0.061334 0.000000 0.000000 0.000000
# 4 0.000000 0.000000 0.000000 0.023254 0.000000 0.000000
# 5 0.000000 0.000000 0.000000 0.000000 -0.398857 0.000000
# 6 0.000000 0.000000 0.000000 0.000000 0.000000 0.124739
#
#
# Mechanical properties :
#
#
# Convention : Reuss Voigt Hill
#
# Bulk Modulus (GPa) = 42.33634 50.42911 46.38273
# Shear Modulus (GPa) = 17.87657 16.23221 17.05439
#
# Velocity S-wave (km/s) = 2.74378 2.61455 2.67995
# Velocity P-wave (km/s) = 5.27891 5.50924 5.39530
#
# Compressibility (1/GPa) = 0.02362037
#
# Stress axis : x y z
#
# Youngs Moduli (GPa) = 5.48789 33.78397 16.30420
#
# Poissons Ratio (x) = 1.94068 1.50611
# Poissons Ratio (y) = 0.31525 -0.40848
# Poissons Ratio (z) = 0.50695 -0.84640
#
# Static dielectric constant tensor:
#      x y z
#    x 2.422720 0.000000 0.000000 
#    y 0.000000 1.905210 0.000000 
#    z 0.000000 0.000000 2.016650 
# 
# From -- ./inp_files/5252.got.cif
#   From: 2010.05.17/outbox.cif.g08.bks.cpg/sg36_3_cif.got.tgz:5252.got - 2010.06.03 17:41:39.
