data_PCOD9352734
_publ_section_title
;
Structure prediction by ZEFSAII (Michael W. Deem and Ramdas Pophale) SiO2 
 PCOD9352734
Probable space group: C M C 21
;
_chemical_formula_sum "Si O2"
_cell_formula_units_Z 48
_cell_length_a 8.951110
_cell_length_b 24.150462
_cell_length_c 12.175049
_cell_angle_alpha 90.000000
_cell_angle_beta 90.000000
_cell_angle_gamma 90.000000
_cell_volume 2631.922248
_symmetry_space_group_name_H-M "C M C 21"
_symmetry_group_IT_number 36
_symmetry_cell_setting 'orthorhombic'
loop_
_space_group_symop_operation_xyz
x,y,z
-x,-y,1/2+z
x,-y,1/2+z
-x,y,z
1/2+x,1/2+y,z
1/2-x,1/2-y,1/2+z
1/2+x,1/2-y,1/2+z
1/2-x,1/2+y,z
loop_
_atom_site_type_symbol
_atom_site_label
_atom_site_fract_x
_atom_site_fract_y
_atom_site_fract_z
Si Si1 0.320758 0.363321 0.575910
Si Si2 0.178585 0.168539 0.826792
Si Si3 0.678756 0.084777 0.653235
Si Si4 0.678456 0.041537 0.216081
Si Si5 0.678334 0.604743 0.416684
Si Si6 0.822278 0.785882 0.777900
O O1 0.500000 0.372216 0.583782
O O2 0.282061 0.348236 0.451664
O O3 0.239015 0.417565 0.621588
O O4 0.285007 0.313382 0.660113
O O5 0.255166 0.126923 0.741899
O O6 0.233209 0.230526 0.802378
O O7 0.000000 0.165261 0.815700
O O8 0.500000 0.090490 0.647994
O O9 0.748502 0.097035 0.534626
O O10 0.714165 0.021817 0.688264
O O11 0.500000 0.047298 0.225388
O O12 0.754437 0.061838 0.328615
O O13 0.500000 0.597742 0.422591
O O14 0.708022 0.665801 0.366624
O O15 0.000000 0.774217 0.779300
#
# Coordination Sequence:
#
# PCOD9352734 Si02
#       6
#     8   8   8   8   8   8
#     4   9  21  41  62  87 120 158 201 248 298 353
#     4  11  24  39  60  92 122 157 203 247 298 354
#     4  11  25  41  60  89 125 160 200 248 298 355
#     4  10  22  40  63  90 120 158 200 244 300 358
#     4  10  22  41  65  91 120 157 201 247 301 358
#     4   9  20  40  62  87 119 156 195 246 303 356
#
# _framework density 18.237622000000002
#
# number of rings (size 3 to 8) (size 9 to 14) (size 15 to 20)
#    0.000    2.000    0.000    3.000    4.667    7.333 
#    0.000    0.000    0.000    0.000    0.000    0.000 
#    0.000    0.000    0.000    0.000    0.000    0.000 
#
# Total GULP energy -134106.678809 kJ/mol
# GULP energy per Si atom -5587.778284 kJ/mol
# Density = 1.819611 g / cm^3
# Si number density = 18.237622 Si / 1000 Ang^3
#
#
#
# Elastic Constant Matrix: (Units=GPa)
#
#
# Indices 1 2 3 4 5 6 
#
# 1 72.2842 87.7142 86.3700 0.0000 0.0000 0.0000
# 2 87.7142 151.4718 121.8999 0.0000 0.0000 0.0000
# 3 86.3700 121.8999 193.3431 0.0000 0.0000 0.0000
# 4 0.0000 0.0000 0.0000 9.9327 0.0000 0.0000
# 5 0.0000 0.0000 0.0000 0.0000 29.7997 0.0000
# 6 0.0000 0.0000 0.0000 0.0000 0.0000 36.2776
#
#
#
# Elastic Compliance Matrix: (Units=1/GPa)
#
#
# Indices 1 2 3 4 5 6 
#
# 1 0.052977 -0.023614 -0.008778 0.000000 0.000000 0.000000
# 2 -0.023614 0.023928 -0.004537 0.000000 0.000000 0.000000
# 3 -0.008778 -0.004537 0.011954 0.000000 0.000000 0.000000
# 4 0.000000 0.000000 0.000000 0.100678 0.000000 0.000000
# 5 0.000000 0.000000 0.000000 0.000000 0.033557 0.000000
# 6 0.000000 0.000000 0.000000 0.000000 0.000000 0.027565
#
#
# Mechanical properties :
#
#
# Convention : Reuss Voigt Hill
#
# Bulk Modulus (GPa) = 66.66195 112.11858 89.39026
# Shear Modulus (GPa) = 15.17370 23.27633 19.22501
#
# Velocity S-wave (km/s) = 2.88757 3.57638 3.25028
# Velocity P-wave (km/s) = 6.91004 8.86927 7.95024
#
# Compressibility (1/GPa) = 0.01500106
#
# Stress axis : x y z
#
# Youngs Moduli (GPa) = 18.87606 41.79254 83.65455
#
# Poissons Ratio (x) = 0.98689 0.73429
# Poissons Ratio (y) = 0.44574 0.37956
# Poissons Ratio (z) = 0.16569 0.18962
#
# Static dielectric constant tensor:
#      x y z
#    x 1.607370 0.000000 0.000000 
#    y 0.000000 1.594620 0.000000 
#    z 0.000000 0.000000 1.602130 
# 
# From -- ./inp_files/6728.got.cif
#   From: 2010.05.17/outbox.cif.g08.bks.cpg/sg36_4_cif.got.tgz:6728.got - 2010.06.03 17:41:39.
