data_PCOD9352156
_publ_section_title
;
Structure prediction by ZEFSAII (Michael W. Deem and Ramdas Pophale) SiO2 
 PCOD9352156
Probable space group: C M C 21
;
_chemical_formula_sum "Si O2"
_cell_formula_units_Z 48
_cell_length_a 23.295101
_cell_length_b 12.082679
_cell_length_c 7.726192
_cell_angle_alpha 90.000000
_cell_angle_beta 90.000000
_cell_angle_gamma 90.000000
_cell_volume 2174.669843
_symmetry_space_group_name_H-M "C M C 21"
_symmetry_group_IT_number 36
_symmetry_cell_setting 'orthorhombic'
loop_
_space_group_symop_operation_xyz
x,y,z
-x,-y,1/2+z
x,-y,1/2+z
-x,y,z
1/2+x,1/2+y,z
1/2-x,1/2-y,1/2+z
1/2+x,1/2-y,1/2+z
1/2-x,1/2+y,z
loop_
_atom_site_type_symbol
_atom_site_label
_atom_site_fract_x
_atom_site_fract_y
_atom_site_fract_z
Si Si1 0.000000 0.021044 0.736371
Si Si2 0.000000 0.183014 0.062276
Si Si3 0.153797 0.660022 0.951134
Si Si4 0.308370 0.374859 0.811469
Si Si5 0.817807 0.566170 0.323014
Si Si6 0.370043 0.278330 0.480567
Si Si7 0.608145 0.639849 0.596981
O O1 0.000000 0.888677 0.738213
O O2 0.054924 0.064613 0.634600
O O3 0.000000 0.089332 0.912593
O O4 0.937601 0.238856 0.033804
O O5 0.172723 0.615116 0.134638
O O6 0.100558 0.741586 0.997265
O O7 0.200429 0.746882 0.876707
O O8 0.149544 0.550069 0.840026
O O9 0.250859 0.444307 0.828193
O O10 0.160910 0.148074 0.128056
O O11 0.351131 0.419166 0.958643
O O12 0.840068 0.658453 0.457959
O O13 0.367353 0.331886 0.287964
#
# Coordination Sequence:
#
# PCOD9352156 Si02
#       7
#     4   4   8   8   8   8   8
#     4  10  20  42  63  86 129 154 203 262 296 369
#     4  10  24  40  63  96 123 162 199 256 310 359
#     4   9  21  37  57  85 115 160 199 245 303 352
#     4  10  21  39  60  87 120 160 200 252 300 363
#     4  11  20  40  59  86 126 157 204 254 299 364
#     4  10  21  40  62  86 128 157 202 252 299 366
#     4   8  21  40  58  87 118 159 203 250 306 352
#
# _framework density 22.072316000000001
#
# number of rings (size 3 to 8) (size 9 to 14) (size 15 to 20)
#    1.000    1.333    0.000    2.000    2.333    0.000 
#    9.000    0.833    0.000    2.000    0.000    0.000 
#    0.000    0.000    0.000    0.000    0.000    0.000 
#
# Total GULP energy -133705.578415 kJ/mol
# GULP energy per Si atom -5571.065767 kJ/mol
# Density = 2.202208 g / cm^3
# Si number density = 22.072316 Si / 1000 Ang^3
#
#
#
# Elastic Constant Matrix: (Units=GPa)
#
#
# Indices 1 2 3 4 5 6 
#
# 1 63.3430 17.2611 30.7597 0.0000 0.0000 0.0000
# 2 17.2611 83.5952 30.8040 0.0000 0.0000 0.0000
# 3 30.7597 30.8040 100.8538 0.0000 0.0000 0.0000
# 4 0.0000 0.0000 0.0000 28.4755 0.0000 0.0000
# 5 0.0000 0.0000 0.0000 0.0000 19.0330 0.0000
# 6 0.0000 0.0000 0.0000 0.0000 0.0000 21.3468
#
#
#
# Elastic Compliance Matrix: (Units=1/GPa)
#
#
# Indices 1 2 3 4 5 6 
#
# 1 0.018823 -0.001996 -0.005131 0.000000 0.000000 0.000000
# 2 -0.001996 0.013691 -0.003573 0.000000 0.000000 0.000000
# 3 -0.005131 -0.003573 0.012572 0.000000 0.000000 0.000000
# 4 0.000000 0.000000 0.000000 0.035118 0.000000 0.000000
# 5 0.000000 0.000000 0.000000 0.000000 0.052540 0.000000
# 6 0.000000 0.000000 0.000000 0.000000 0.000000 0.046845
#
#
# Mechanical properties :
#
#
# Convention : Reuss Voigt Hill
#
# Bulk Modulus (GPa) = 42.22007 45.04907 43.63457
# Shear Modulus (GPa) = 23.93672 25.03555 24.48613
#
# Velocity S-wave (km/s) = 3.29670 3.37152 3.33432
# Velocity P-wave (km/s) = 5.80177 5.96743 5.88518
#
# Compressibility (1/GPa) = 0.02368542
#
# Stress axis : x y z
#
# Youngs Moduli (GPa) = 53.12745 73.03997 79.54408
#
# Poissons Ratio (x) = 0.14577 0.40816
# Poissons Ratio (y) = 0.10603 0.28421
# Poissons Ratio (z) = 0.27261 0.26097
#
# Static dielectric constant tensor:
#      x y z
#    x 1.893470 0.000000 0.000000 
#    y 0.000000 1.847890 0.000000 
#    z 0.000000 0.000000 1.893130 
# 
# From -- ./inp_files/9202.got.cif
#   From: 2010.05.17/outbox.cif.g08.bks.cpg/sg36_5_cif.got.tgz:9202.got - 2010.06.03 17:41:39.
