data_PCOD9352040
_publ_section_title
;
Structure prediction by ZEFSAII (Michael W. Deem and Ramdas Pophale) SiO2 
 PCOD9352040
Probable space group: C M C 21
;
_chemical_formula_sum "Si O2"
_cell_formula_units_Z 48
_cell_length_a 8.597240
_cell_length_b 15.200317
_cell_length_c 18.903802
_cell_angle_alpha 90.000000
_cell_angle_beta 90.000000
_cell_angle_gamma 90.000000
_cell_volume 2470.363464
_symmetry_space_group_name_H-M "C M C 21"
_symmetry_group_IT_number 36
_symmetry_cell_setting 'orthorhombic'
loop_
_space_group_symop_operation_xyz
x,y,z
-x,-y,1/2+z
x,-y,1/2+z
-x,y,z
1/2+x,1/2+y,z
1/2-x,1/2-y,1/2+z
1/2+x,1/2-y,1/2+z
1/2-x,1/2+y,z
loop_
_atom_site_type_symbol
_atom_site_label
_atom_site_fract_x
_atom_site_fract_y
_atom_site_fract_z
Si Si1 0.184660 0.402499 0.029460
Si Si2 0.687813 0.691400 0.269146
Si Si3 0.313919 0.253371 0.927516
Si Si4 0.686512 0.345977 0.180791
Si Si5 0.186336 0.064122 0.952304
Si Si6 0.310931 0.507744 0.794650
O O1 0.240965 0.372090 0.106241
O O2 0.000000 0.396970 0.024517
O O3 0.260524 0.337385 0.971986
O O4 0.240699 0.500551 0.010615
O O5 0.500000 0.693850 0.263235
O O6 0.730882 0.732542 0.345479
O O7 0.760780 0.750721 0.208243
O O8 0.737945 0.589552 0.270756
O O9 0.500000 0.246384 0.930803
O O10 0.237937 0.164907 0.957292
O O11 0.500000 0.348989 0.175509
O O12 0.738089 0.416973 0.240072
O O13 0.000000 0.057819 0.955946
O O14 0.238896 0.029815 0.874550
O O15 0.500000 0.507596 0.795890
#
# Coordination Sequence:
#
# PCOD9352040 Si02
#       6
#     8   8   8   8   8   8
#     4  12  26  43  62  91 129 171 214 262 317 371
#     4  10  20  38  63  92 124 160 206 258 310 375
#     4  11  22  39  65  96 127 165 211 260 312 375
#     4  11  23  41  63  91 126 165 207 259 320 378
#     4  11  21  40  66  95 127 165 209 259 314 376
#     4   9  19  37  63  91 121 160 205 250 309 373
#
# _framework density 19.430339
#
# number of rings (size 3 to 8) (size 9 to 14) (size 15 to 20)
#    0.000    1.333    3.333    3.000    0.000    2.000 
#    0.000    6.667    0.000    0.000    0.000    0.000 
#    0.000    0.000    0.000    0.000    0.000    0.000 
#
# Total GULP energy -134189.998471 kJ/mol
# GULP energy per Si atom -5591.249936 kJ/mol
# Density = 1.938611 g / cm^3
# Si number density = 19.430339 Si / 1000 Ang^3
#
#
#
# Elastic Constant Matrix: (Units=GPa)
#
#
# Indices 1 2 3 4 5 6 
#
# 1 19.1910 -15.3595 7.8481 0.0000 0.0000 0.0000
# 2 -15.3595 63.1264 -26.7211 0.0000 0.0000 0.0000
# 3 7.8481 -26.7211 32.3377 0.0000 0.0000 0.0000
# 4 0.0000 0.0000 0.0000 28.8039 0.0000 0.0000
# 5 0.0000 0.0000 0.0000 0.0000 24.0717 0.0000
# 6 0.0000 0.0000 0.0000 0.0000 0.0000 32.4782
#
#
#
# Elastic Compliance Matrix: (Units=1/GPa)
#
#
# Indices 1 2 3 4 5 6 
#
# 1 0.065072 0.014069 -0.004167 0.000000 0.000000 0.000000
# 2 0.014069 0.027404 0.019230 0.000000 0.000000 0.000000
# 3 -0.004167 0.019230 0.047825 0.000000 0.000000 0.000000
# 4 0.000000 0.000000 0.000000 0.034717 0.000000 0.000000
# 5 0.000000 0.000000 0.000000 0.000000 0.041542 0.000000
# 6 0.000000 0.000000 0.000000 0.000000 0.000000 0.030790
#
#
# Mechanical properties :
#
#
# Convention : Reuss Voigt Hill
#
# Bulk Modulus (GPa) = 5.03610 5.13223 5.08417
# Shear Modulus (GPa) = 19.58667 26.99661 23.29164
#
# Velocity S-wave (km/s) = 3.17842 3.73152 3.46602
# Velocity P-wave (km/s) = 4.00840 4.60573 4.31741
#
# Compressibility (1/GPa) = 0.19856630
#
# Stress axis : x y z
#
# Youngs Moduli (GPa) = 15.36757 36.49041 20.90952
#
# Poissons Ratio (x) = -0.51339 0.08713
# Poissons Ratio (y) = -0.21621 -0.40209
# Poissons Ratio (z) = 0.06404 -0.70172
#
# Static dielectric constant tensor:
#      x y z
#    x 1.656000 0.000000 0.000000 
#    y 0.000000 1.658430 0.000000 
#    z 0.000000 0.000000 1.655300 
# 
# From -- ./inp_files/13481.got.cif
#   From: 2010.05.17/outbox.cif.g08.bks.cpg/sg36_7_cif.got.tgz:13481.got - 2010.06.03 17:41:39.
