data_PCOD9352097
_publ_section_title
;
Structure prediction by ZEFSAII (Michael W. Deem and Ramdas Pophale) SiO2 
 PCOD9352097
Probable space group: C M C 21
;
_chemical_formula_sum "Si O2"
_cell_formula_units_Z 64
_cell_length_a 16.235856
_cell_length_b 11.359391
_cell_length_c 14.140020
_cell_angle_alpha 90.000000
_cell_angle_beta 90.000000
_cell_angle_gamma 90.000000
_cell_volume 2607.835921
_symmetry_space_group_name_H-M "C M C 21"
_symmetry_group_IT_number 36
_symmetry_cell_setting 'orthorhombic'
loop_
_space_group_symop_operation_xyz
x,y,z
-x,-y,1/2+z
x,-y,1/2+z
-x,y,z
1/2+x,1/2+y,z
1/2-x,1/2-y,1/2+z
1/2+x,1/2-y,1/2+z
1/2-x,1/2+y,z
loop_
_atom_site_type_symbol
_atom_site_label
_atom_site_fract_x
_atom_site_fract_y
_atom_site_fract_z
Si Si1 0.363524 0.068446 0.492170
Si Si2 0.646423 0.325209 0.890543
Si Si3 0.323057 0.446532 0.068133
Si Si4 0.904898 0.670560 0.743449
Si Si5 0.405509 0.682810 0.077052
Si Si6 0.332371 0.195232 0.317249
Si Si7 0.595219 0.073329 0.157416
Si Si8 0.402158 0.560277 0.775385
O O1 0.270815 0.066092 0.534037
O O2 0.401936 0.192951 0.524485
O O3 0.368184 0.086362 0.379784
O O4 0.402687 0.958932 0.546977
O O5 0.601395 0.211207 0.849984
O O6 0.740283 0.299359 0.857388
O O7 0.617908 0.445311 0.838012
O O8 0.634232 0.349537 0.001126
O O9 0.351433 0.577466 0.038621
O O10 0.349501 0.439219 0.177558
O O11 0.871844 0.778623 0.680257
O O12 0.872362 0.547886 0.706573
O O13 0.000000 0.664331 0.716114
O O14 0.500000 0.640874 0.082173
O O15 0.377489 0.319965 0.329735
O O16 0.345555 0.167316 0.206422
O O17 0.500000 0.099129 0.184220
O O18 0.500000 0.560667 0.754545
#
# Coordination Sequence:
#
# PCOD9352097 Si02
#       8
#     8   8   8   8   8   8   8   8
#     4  10  23  42  65  95 127 177 222 262 324 399
#     4  11  24  41  66  96 131 173 215 264 330 398
#     4  11  24  39  62 102 131 161 213 278 331 380
#     4   9  19  37  63  89 117 163 215 257 309 382
#     4  10  20  39  66  92 123 169 220 261 312 396
#     4  11  26  43  63  97 136 171 218 272 330 396
#     4  10  22  41  66  91 122 171 220 265 317 385
#     4  12  26  44  69 100 135 175 217 277 339 386
#
# _framework density 24.541419999999999
#
# number of rings (size 3 to 8) (size 9 to 14) (size 15 to 20)
#    0.000    1.500    1.250    3.750    5.250    5.000 
#    4.500    0.000    0.000    0.000    0.000    0.000 
#    0.000    0.000    0.000    0.000    0.000    0.000 
#
# Total GULP energy -178654.032524 kJ/mol
# GULP energy per Si atom -5582.938516 kJ/mol
# Density = 2.448556 g / cm^3
# Si number density = 24.541420 Si / 1000 Ang^3
#
#
#
# Elastic Constant Matrix: (Units=GPa)
#
#
# Indices 1 2 3 4 5 6 
#
# 1 84.4441 15.8482 5.0055 0.0000 0.0000 0.0000
# 2 15.8482 64.5137 -0.9811 0.0000 0.0000 0.0000
# 3 5.0055 -0.9811 99.8980 0.0000 0.0000 0.0000
# 4 0.0000 0.0000 0.0000 46.0490 0.0000 0.0000
# 5 0.0000 0.0000 0.0000 0.0000 30.1114 0.0000
# 6 0.0000 0.0000 0.0000 0.0000 0.0000 23.9524
#
#
#
# Elastic Compliance Matrix: (Units=1/GPa)
#
#
# Indices 1 2 3 4 5 6 
#
# 1 0.012457 -0.003070 -0.000654 0.000000 0.000000 0.000000
# 2 -0.003070 0.016260 0.000314 0.000000 0.000000 0.000000
# 3 -0.000654 0.000314 0.010046 0.000000 0.000000 0.000000
# 4 0.000000 0.000000 0.000000 0.021716 0.000000 0.000000
# 5 0.000000 0.000000 0.000000 0.000000 0.033210 0.000000
# 6 0.000000 0.000000 0.000000 0.000000 0.000000 0.041750
#
#
# Mechanical properties :
#
#
# Convention : Reuss Voigt Hill
#
# Bulk Modulus (GPa) = 31.30783 32.06677 31.68730
# Shear Modulus (GPa) = 32.69958 35.28809 33.99384
#
# Velocity S-wave (km/s) = 3.65420 3.79608 3.72581
# Velocity P-wave (km/s) = 5.53074 5.68404 5.60791
#
# Compressibility (1/GPa) = 0.03194089
#
# Stress axis : x y z
#
# Youngs Moduli (GPa) = 80.27527 61.50232 99.54131
#
# Poissons Ratio (x) = 0.18882 0.06513
# Poissons Ratio (y) = 0.24646 -0.03121
# Poissons Ratio (z) = 0.05253 -0.01928
#
# Static dielectric constant tensor:
#      x y z
#    x 2.045660 0.000000 0.000000 
#    y 0.000000 1.931460 0.000000 
#    z 0.000000 0.000000 2.068340 
# 
# From -- ./inp_files/12660.got.cif
#   From: 2010.05.17/outbox.cif.g08.bks.cpg/sg36_7_cif.got.tgz:12660.got - 2010.06.03 17:41:39.
