data_PCOD9352462
_publ_section_title
;
Structure prediction by ZEFSAII (Michael W. Deem and Ramdas Pophale) SiO2 
 PCOD9352462
Probable space group: C M C 21
;
_chemical_formula_sum "Si O2"
_cell_formula_units_Z 48
_cell_length_a 8.228371
_cell_length_b 30.282433
_cell_length_c 8.633016
_cell_angle_alpha 90.000000
_cell_angle_beta 90.000000
_cell_angle_gamma 90.000000
_cell_volume 2151.132569
_symmetry_space_group_name_H-M "C M C 21"
_symmetry_group_IT_number 36
_symmetry_cell_setting 'orthorhombic'
loop_
_space_group_symop_operation_xyz
x,y,z
-x,-y,1/2+z
x,-y,1/2+z
-x,y,z
1/2+x,1/2+y,z
1/2-x,1/2-y,1/2+z
1/2+x,1/2-y,1/2+z
1/2-x,1/2+y,z
loop_
_atom_site_type_symbol
_atom_site_label
_atom_site_fract_x
_atom_site_fract_y
_atom_site_fract_z
Si Si1 0.806003 0.981530 0.342320
Si Si2 0.694681 0.689962 0.835891
Si Si3 0.198308 0.104245 0.666603
Si Si4 0.191435 0.724969 0.163367
Si Si5 0.690464 0.938616 0.660446
Si Si6 0.307640 0.356752 0.837785
O O1 0.750435 0.944219 0.219368
O O2 0.766891 0.961647 0.509913
O O3 0.000000 0.988338 0.329771
O O4 0.721276 0.027317 0.301146
O O5 0.500000 0.688824 0.819585
O O6 0.753357 0.641370 0.789389
O O7 0.756742 0.727596 0.717990
O O8 0.732748 0.705663 0.007858
O O9 0.249079 0.121219 0.498146
O O10 0.000000 0.102715 0.666249
O O11 0.223178 0.689149 0.297354
O O12 0.000000 0.729250 0.136471
O O13 0.500000 0.931663 0.636681
O O14 0.773124 0.892405 0.703828
O O15 0.500000 0.348615 0.849233
#
# Coordination Sequence:
#
# PCOD9352462 Si02
#       6
#     8   8   8   8   8   8
#     4  11  22  40  65  91 120 162 211 251 300 368
#     4  10  21  39  61  86 119 159 201 246 300 360
#     4   9  20  38  62  88 114 152 204 251 290 351
#     4  11  23  38  59  90 123 156 201 253 302 356
#     4  12  25  41  61  91 127 160 202 258 312 359
#     4  11  22  40  64  88 119 161 205 249 304 368
#
# _framework density 22.313828000000001
#
# number of rings (size 3 to 8) (size 9 to 14) (size 15 to 20)
#    0.000    1.333    0.000    6.000    0.000    5.333 
#    0.000    5.000    0.000    0.000    0.000    0.000 
#    0.000    0.000    0.000    0.000    0.000    0.000 
#
# Total GULP energy -134321.932802 kJ/mol
# GULP energy per Si atom -5596.747200 kJ/mol
# Density = 2.226304 g / cm^3
# Si number density = 22.313828 Si / 1000 Ang^3
#
#
#
# Elastic Constant Matrix: (Units=GPa)
#
#
# Indices 1 2 3 4 5 6 
#
# 1 17.4684 -5.7668 -8.8947 0.0000 0.0000 0.0000
# 2 -5.7668 74.9324 -16.8651 0.0000 0.0000 0.0000
# 3 -8.8947 -16.8651 54.0594 0.0000 0.0000 0.0000
# 4 0.0000 0.0000 0.0000 41.0951 0.0000 0.0000
# 5 0.0000 0.0000 0.0000 0.0000 27.0268 0.0000
# 6 0.0000 0.0000 0.0000 0.0000 0.0000 25.6643
#
#
#
# Elastic Compliance Matrix: (Units=1/GPa)
#
#
# Indices 1 2 3 4 5 6 
#
# 1 0.066855 0.008197 0.013557 0.000000 0.000000 0.000000
# 2 0.008197 0.015358 0.006140 0.000000 0.000000 0.000000
# 3 0.013557 0.006140 0.022644 0.000000 0.000000 0.000000
# 4 0.000000 0.000000 0.000000 0.024334 0.000000 0.000000
# 5 0.000000 0.000000 0.000000 0.000000 0.037000 0.000000
# 6 0.000000 0.000000 0.000000 0.000000 0.000000 0.038965
#
#
# Mechanical properties :
#
#
# Convention : Reuss Voigt Hill
#
# Bulk Modulus (GPa) = 6.22490 9.26744 7.74617
# Shear Modulus (GPa) = 24.64055 30.62302 27.63179
#
# Velocity S-wave (km/s) = 3.32667 3.70858 3.52280
# Velocity P-wave (km/s) = 4.18943 4.74345 4.47503
#
# Compressibility (1/GPa) = 0.16064503
#
# Stress axis : x y z
#
# Youngs Moduli (GPa) = 14.95768 65.11224 44.16121
#
# Poissons Ratio (x) = -0.53369 -0.59870
# Poissons Ratio (y) = -0.12260 -0.27115
# Poissons Ratio (z) = -0.20278 -0.39979
#
# Static dielectric constant tensor:
#      x y z
#    x 1.779220 0.000000 0.000000 
#    y 0.000000 1.810720 0.000000 
#    z 0.000000 0.000000 1.837190 
# 
# From -- ./inp_files/2680.got.cif
#   From: 2010.05.17/outbox.cif.g08.bks.cpg/sg36_2_cif.got.tgz:2680.got - 2010.06.03 17:41:39.
