data_PCOD9352038
_publ_section_title
;
Structure prediction by ZEFSAII (Michael W. Deem and Ramdas Pophale) SiO2 
 PCOD9352038
Probable space group: C M C 21
;
_chemical_formula_sum "Si O2"
_cell_formula_units_Z 36
_cell_length_a 7.794362
_cell_length_b 25.351867
_cell_length_c 7.191519
_cell_angle_alpha 90.000000
_cell_angle_beta 90.000000
_cell_angle_gamma 90.000000
_cell_volume 1421.055868
_symmetry_space_group_name_H-M "C M C 21"
_symmetry_group_IT_number 36
_symmetry_cell_setting 'orthorhombic'
loop_
_space_group_symop_operation_xyz
x,y,z
-x,-y,1/2+z
x,-y,1/2+z
-x,y,z
1/2+x,1/2+y,z
1/2-x,1/2-y,1/2+z
1/2+x,1/2-y,1/2+z
1/2-x,1/2+y,z
loop_
_atom_site_type_symbol
_atom_site_label
_atom_site_fract_x
_atom_site_fract_y
_atom_site_fract_z
Si Si1 0.294338 0.073331 0.741610
Si Si2 0.809193 0.137560 0.069493
Si Si3 0.318614 0.206828 0.388863
Si Si4 0.500000 0.290026 0.167917
Si Si5 0.707332 0.045302 0.328228
O O1 0.500000 0.075826 0.763115
O O2 0.217353 0.121527 0.855572
O O3 0.249740 0.071307 0.525220
O O4 0.239896 0.015634 0.817258
O O5 0.000000 0.156942 0.095125
O O6 0.692048 0.175332 0.192237
O O7 0.785749 0.080807 0.169068
O O8 0.500000 0.189486 0.481720
O O9 0.152860 0.199172 0.512613
O O10 0.352571 0.266035 0.317240
O O11 0.500000 0.045832 0.306805
#
# Coordination Sequence:
#
# PCOD9352038 Si02
#       5
#     8   8   8   4   8
#     4  10  20  38  63  91 126 185 236 285 340 406
#     4  12  24  41  63  97 145 179 232 288 345 420
#     4  10  24  46  74 104 138 180 229 301 359 449
#     4  10  24  46  78 104 142 180 234 288 392 428
#     4  10  20  38  63  90 129 181 238 283 342 404
#
# _framework density 25.333276000000001
#
# number of rings (size 3 to 8) (size 9 to 14) (size 15 to 20)
#    0.667    0.889    3.333    2.000    1.556    1.778 
#    4.000    0.000    0.000    0.000    0.000    0.000 
#    0.000    0.000    0.000    0.000    0.000    0.000 
#
# Total GULP energy -100219.109381 kJ/mol
# GULP energy per Si atom -5567.728299 kJ/mol
# Density = 2.527562 g / cm^3
# Si number density = 25.333276 Si / 1000 Ang^3
#
#
#
# Elastic Constant Matrix: (Units=GPa)
#
#
# Indices 1 2 3 4 5 6 
#
# 1 127.9896 5.4065 34.6206 0.0000 0.0000 0.0000
# 2 5.4065 103.4118 11.0877 0.0000 0.0000 0.0000
# 3 34.6206 11.0877 78.7958 0.0000 0.0000 0.0000
# 4 0.0000 0.0000 0.0000 47.6448 0.0000 0.0000
# 5 0.0000 0.0000 0.0000 0.0000 496.3364 0.0000
# 6 0.0000 0.0000 0.0000 0.0000 0.0000 -5.6192
#
#
#
# Elastic Compliance Matrix: (Units=1/GPa)
#
#
# Indices 1 2 3 4 5 6 
#
# 1 0.008867 -0.000047 -0.003889 0.000000 0.000000 0.000000
# 2 -0.000047 0.009818 -0.001361 0.000000 0.000000 0.000000
# 3 -0.003889 -0.001361 0.014591 0.000000 0.000000 0.000000
# 4 0.000000 0.000000 0.000000 0.020989 0.000000 0.000000
# 5 0.000000 0.000000 0.000000 0.000000 0.002015 0.000000
# 6 0.000000 0.000000 0.000000 0.000000 0.000000 -0.177960
#
#
# Mechanical properties :
#
#
# Convention : Reuss Voigt Hill
#
# Bulk Modulus (GPa) = 44.08623 45.82521 44.95572
# Shear Modulus (GPa) = -48.29767 124.94456 38.32345
#
# Velocity S-wave (km/s) = -4.37108 7.03046 3.89366
# Velocity P-wave (km/s) = 2.83457 9.16687 6.16428
#
# Compressibility (1/GPa) = 0.02268282
#
# Stress axis : x y z
#
# Youngs Moduli (GPa) = 112.77552 101.84906 68.53321
#
# Poissons Ratio (x) = 0.00474 0.26655
# Poissons Ratio (y) = 0.00525 0.09328
# Poissons Ratio (z) = 0.43863 0.13863
#
# Static dielectric constant tensor:
#      x y z
#    x 1.307320 0.000000 0.000000 
#    y 0.000000 2.101970 0.000000 
#    z 0.000000 0.000000 1.997360 
# 
# From -- ./inp_files/2507.got.cif
#   From: 2010.05.17/outbox.cif.g08.bks.cpg/sg36_2_cif.got.tgz:2507.got - 2010.06.03 17:41:39.
