data_PCOD9352822
_publ_section_title
;
Structure prediction by ZEFSAII (Michael W. Deem and Ramdas Pophale) SiO2 
 PCOD9352822
Probable space group: C M C 21
;
_chemical_formula_sum "Si O2"
_cell_formula_units_Z 60
_cell_length_a 17.911062
_cell_length_b 25.492805
_cell_length_c 5.025498
_cell_angle_alpha 90.000000
_cell_angle_beta 90.000000
_cell_angle_gamma 90.000000
_cell_volume 2294.658523
_symmetry_space_group_name_H-M "C M C 21"
_symmetry_group_IT_number 36
_symmetry_cell_setting 'orthorhombic'
loop_
_space_group_symop_operation_xyz
x,y,z
-x,-y,1/2+z
x,-y,1/2+z
-x,y,z
1/2+x,1/2+y,z
1/2-x,1/2-y,1/2+z
1/2+x,1/2-y,1/2+z
1/2-x,1/2+y,z
loop_
_atom_site_type_symbol
_atom_site_label
_atom_site_fract_x
_atom_site_fract_y
_atom_site_fract_z
Si Si1 0.589481 0.968230 0.674990
Si Si2 0.282109 0.470583 0.401964
Si Si3 0.611459 0.312910 0.428312
Si Si4 0.290445 0.379406 0.793027
Si Si5 0.082522 0.077970 0.683096
Si Si6 0.000000 0.718630 0.565564
Si Si7 0.198309 0.742996 0.072639
Si Si8 0.634863 0.146806 0.369810
O O1 0.500000 0.969822 0.670365
O O2 0.609123 0.909695 0.764693
O O3 0.614805 0.987408 0.385641
O O4 0.259525 0.516650 0.602998
O O5 0.260965 0.419227 0.565292
O O6 0.372031 0.463487 0.363102
O O7 0.677162 0.331886 0.620749
O O8 0.563555 0.266489 0.557426
O O9 0.638853 0.288054 0.149346
O O10 0.575609 0.368388 0.353190
O O11 0.359149 0.405312 0.951623
O O12 0.219807 0.363119 0.975141
O O13 0.000000 0.061923 0.596682
O O14 0.932161 0.673876 0.535224
O O15 0.261516 0.755787 0.293426
O O16 0.153935 0.689306 0.137680
#
# Coordination Sequence:
#
# PCOD9352822 Si02
#       8
#     8   8   8   8   8   4   8   8
#     4  10  23  47  76 105 147 198 252 316 387 452
#     4  11  24  48  71 110 151 193 256 316 386 449
#     4  10  22  42  65  99 146 196 246 302 385 452
#     4  11  24  43  75 109 153 202 254 324 383 476
#     4  11  24  43  73 104 148 203 253 312 384 469
#     4  10  22  44  74 106 158 200 258 324 384 486
#     4  11  23  42  69 104 145 191 236 304 372 446
#     4  11  23  45  77 112 153 200 267 317 395 462
#
# _framework density 26.147679
#
# number of rings (size 3 to 8) (size 9 to 14) (size 15 to 20)
#    0.000    1.333    4.000    0.800    0.933    3.200 
#    4.800    0.000    2.933    0.000    0.000    0.000 
#    0.000    0.000    0.000    0.000    0.000    0.000 
#
# Total GULP energy -167148.807754 kJ/mol
# GULP energy per Si atom -5571.626925 kJ/mol
# Density = 2.608817 g / cm^3
# Si number density = 26.147679 Si / 1000 Ang^3
#
#
#
# Elastic Constant Matrix: (Units=GPa)
#
#
# Indices 1 2 3 4 5 6 
#
# 1 161.6015 16.9966 27.7549 0.0000 0.0000 0.0000
# 2 16.9966 120.7667 29.3834 0.0000 0.0000 0.0000
# 3 27.7549 29.3834 81.4383 0.0000 0.0000 0.0000
# 4 0.0000 0.0000 0.0000 31.8189 0.0000 0.0000
# 5 0.0000 0.0000 0.0000 0.0000 21.7027 0.0000
# 6 0.0000 0.0000 0.0000 0.0000 0.0000 39.5570
#
#
#
# Elastic Compliance Matrix: (Units=1/GPa)
#
#
# Indices 1 2 3 4 5 6 
#
# 1 0.006592 -0.000418 -0.002096 0.000000 0.000000 0.000000
# 2 -0.000418 0.009104 -0.003142 0.000000 0.000000 0.000000
# 3 -0.002096 -0.003142 0.014127 0.000000 0.000000 0.000000
# 4 0.000000 0.000000 0.000000 0.031428 0.000000 0.000000
# 5 0.000000 0.000000 0.000000 0.000000 0.046077 0.000000
# 6 0.000000 0.000000 0.000000 0.000000 0.000000 0.025280
#
#
# Mechanical properties :
#
#
# Convention : Reuss Voigt Hill
#
# Bulk Modulus (GPa) = 54.02166 56.89736 55.45951
# Shear Modulus (GPa) = 33.31327 37.92716 35.62022
#
# Velocity S-wave (km/s) = 3.57325 3.81267 3.69490
# Velocity P-wave (km/s) = 6.14241 6.41788 6.28166
#
# Compressibility (1/GPa) = 0.01851109
#
# Stress axis : x y z
#
# Youngs Moduli (GPa) = 151.69984 109.84450 70.78505
#
# Poissons Ratio (x) = 0.04589 0.14835
# Poissons Ratio (y) = 0.06338 0.22243
# Poissons Ratio (z) = 0.31794 0.34516
#
# Static dielectric constant tensor:
#      x y z
#    x 2.126080 0.000000 0.000000 
#    y 0.000000 2.123890 0.000000 
#    z 0.000000 0.000000 2.061440 
# 
# From -- ./inp_files/1177.got.cif
#   From: 2010.05.17/outbox.cif.g08.bks.cpg/sg36_1_cif.got.tgz:1177.got - 2010.06.03 17:41:39.
