data_PCOD9352715
_publ_section_title
;
Structure prediction by ZEFSAII (Michael W. Deem and Ramdas Pophale) SiO2 
 PCOD9352715
Probable space group: C M C 21
;
_chemical_formula_sum "Si O2"
_cell_formula_units_Z 48
_cell_length_a 14.634243
_cell_length_b 15.559556
_cell_length_c 9.640159
_cell_angle_alpha 90.000000
_cell_angle_beta 90.000000
_cell_angle_gamma 90.000000
_cell_volume 2195.086603
_symmetry_space_group_name_H-M "C M C 21"
_symmetry_group_IT_number 36
_symmetry_cell_setting 'orthorhombic'
loop_
_space_group_symop_operation_xyz
x,y,z
-x,-y,1/2+z
x,-y,1/2+z
-x,y,z
1/2+x,1/2+y,z
1/2-x,1/2-y,1/2+z
1/2+x,1/2-y,1/2+z
1/2-x,1/2+y,z
loop_
_atom_site_type_symbol
_atom_site_label
_atom_site_fract_x
_atom_site_fract_y
_atom_site_fract_z
Si Si1 0.306073 0.672446 0.846560
Si Si2 0.310807 0.918468 0.111344
Si Si3 0.000000 0.003611 0.730157
Si Si4 0.314654 0.434917 0.620712
Si Si5 0.000000 0.820269 0.882395
Si Si6 0.805404 0.165906 0.397113
Si Si7 0.000000 0.810366 0.359131
Si Si8 0.000000 0.686889 0.627443
O O1 0.247496 0.633517 0.724177
O O2 0.247300 0.746515 0.914650
O O3 0.401729 0.713501 0.799022
O O4 0.323998 0.603721 0.967896
O O5 0.411118 0.875646 0.113050
O O6 0.282813 0.017159 0.140438
O O7 0.258598 0.904303 0.966514
O O8 0.000000 0.086357 0.829392
O O9 0.903187 0.996702 0.647962
O O10 0.000000 0.914163 0.812112
O O11 0.319408 0.359884 0.736307
O O12 0.905006 0.821170 0.962180
O O13 0.000000 0.741042 0.771951
O O14 0.000000 0.762870 0.510133
#
# Coordination Sequence:
#
# PCOD9352715 Si02
#       8
#     8   8   4   8   4   8   4   4
#     4  12  23  43  70  99 139 184 226 290 355 420
#     4  12  25  42  69 101 133 184 231 282 347 418
#     4  10  22  39  69 102 135 173 222 294 359 417
#     4  11  24  44  66 103 142 176 231 293 353 414
#     4  10  22  42  64  98 136 175 226 284 348 413
#     4  11  23  43  68 102 135 184 232 285 349 421
#     4  12  22  41  68 103 129 184 226 288 349 423
#     4  12  24  46  69  93 144 190 230 270 356 429
#
# _framework density 21.867018999999999
#
# number of rings (size 3 to 8) (size 9 to 14) (size 15 to 20)
#    0.000    0.667    5.000    4.500    2.333    1.333 
#    0.000    5.000    0.000    0.000    0.000    0.000 
#    0.000    0.000    0.000    0.000    0.000    0.000 
#
# Total GULP energy -133897.354698 kJ/mol
# GULP energy per Si atom -5579.056446 kJ/mol
# Density = 2.181725 g / cm^3
# Si number density = 21.867019 Si / 1000 Ang^3
#
#
#
# Elastic Constant Matrix: (Units=GPa)
#
#
# Indices 1 2 3 4 5 6 
#
# 1 178.9847 34.9220 28.9487 0.0000 0.0000 0.0000
# 2 34.9220 68.4365 -1.7898 0.0000 0.0000 0.0000
# 3 28.9487 -1.7898 72.3580 0.0000 0.0000 0.0000
# 4 0.0000 0.0000 0.0000 22.1626 0.0000 0.0000
# 5 0.0000 0.0000 0.0000 0.0000 24.6316 0.0000
# 6 0.0000 0.0000 0.0000 0.0000 0.0000 41.9228
#
#
#
# Elastic Compliance Matrix: (Units=1/GPa)
#
#
# Indices 1 2 3 4 5 6 
#
# 1 0.006719 -0.003501 -0.002775 0.000000 0.000000 0.000000
# 2 -0.003501 0.016446 0.001808 0.000000 0.000000 0.000000
# 3 -0.002775 0.001808 0.014975 0.000000 0.000000 0.000000
# 4 0.000000 0.000000 0.000000 0.045121 0.000000 0.000000
# 5 0.000000 0.000000 0.000000 0.000000 0.040598 0.000000
# 6 0.000000 0.000000 0.000000 0.000000 0.000000 0.023853
#
#
# Mechanical properties :
#
#
# Convention : Reuss Voigt Hill
#
# Bulk Modulus (GPa) = 34.24281 49.32679 41.78480
# Shear Modulus (GPa) = 30.05104 34.92329 32.48717
#
# Velocity S-wave (km/s) = 3.71113 4.00068 3.85862
# Velocity P-wave (km/s) = 5.83582 6.62927 6.24516
#
# Compressibility (1/GPa) = 0.02920321
#
# Stress axis : x y z
#
# Youngs Moduli (GPa) = 148.83263 60.80529 66.77813
#
# Poissons Ratio (x) = 0.21289 0.18529
# Poissons Ratio (y) = 0.52108 -0.12070
# Poissons Ratio (z) = 0.41297 -0.10991
#
# Static dielectric constant tensor:
#      x y z
#    x 1.859270 0.000000 0.000000 
#    y 0.000000 1.808970 0.000000 
#    z 0.000000 0.000000 1.881330 
# 
# From -- ./inp_files/8453.got.cif
#   From: 2010.05.17/outbox.cif.g08.bks.cpg/sg36_5_cif.got.tgz:8453.got - 2010.06.03 17:41:39.
