data_PCOD9352905
_publ_section_title
;
Structure prediction by ZEFSAII (Michael W. Deem and Ramdas Pophale) SiO2 
 PCOD9352905
Probable space group: C M C 21
;
_chemical_formula_sum "Si O2"
_cell_formula_units_Z 56
_cell_length_a 13.587284
_cell_length_b 14.068704
_cell_length_c 13.549230
_cell_angle_alpha 90.000000
_cell_angle_beta 90.000000
_cell_angle_gamma 90.000000
_cell_volume 2590.009520
_symmetry_space_group_name_H-M "C M C 21"
_symmetry_group_IT_number 36
_symmetry_cell_setting 'orthorhombic'
loop_
_space_group_symop_operation_xyz
x,y,z
-x,-y,1/2+z
x,-y,1/2+z
-x,y,z
1/2+x,1/2+y,z
1/2-x,1/2-y,1/2+z
1/2+x,1/2-y,1/2+z
1/2-x,1/2+y,z
loop_
_atom_site_type_symbol
_atom_site_label
_atom_site_fract_x
_atom_site_fract_y
_atom_site_fract_z
Si Si1 0.388475 0.649483 0.286910
Si Si2 0.382418 0.475344 0.616285
Si Si3 0.382516 0.340465 0.251676
Si Si4 0.110884 0.514898 0.310916
Si Si5 0.886525 0.684048 0.913214
Si Si6 0.809687 0.984801 0.400050
Si Si7 0.119050 0.648792 0.136538
O O1 0.500000 0.680953 0.264399
O O2 0.345496 0.611961 0.184164
O O3 0.339578 0.728687 0.354641
O O4 0.390115 0.553741 0.351331
O O5 0.500000 0.464232 0.603073
O O6 0.368301 0.575733 0.671230
O O7 0.329366 0.476734 0.513593
O O8 0.500000 0.334576 0.274563
O O9 0.324216 0.383399 0.345456
O O10 0.351672 0.240474 0.202817
O O11 0.107585 0.403125 0.336317
O O12 0.206658 0.537685 0.376048
O O13 0.134408 0.552674 0.201076
O O14 0.000000 0.551267 0.336273
O O15 0.000000 0.714008 0.933646
O O16 0.846996 0.655504 0.021910
O O17 0.000000 0.654045 0.130365
#
# Coordination Sequence:
#
# PCOD9352905 Si02
#       7
#     8   8   8   8   8   8   8
#     4   9  18  33  57  89 117 141 180 232 288 357
#     4   9  17  31  54  88 123 146 170 220 295 365
#     4   9  18  33  56  86 113 138 177 229 288 358
#     4  10  23  39  53  75 108 150 204 249 272 312
#     4   9  18  36  59  79 106 148 191 234 285 336
#     4  11  20  32  54  82 116 150 181 228 290 346
#     4   9  18  36  59  77 103 147 193 236 284 338
#
# _framework density 21.62154
#
# number of rings (size 3 to 8) (size 9 to 14) (size 15 to 20)
#    0.000    2.571    0.000    3.000    0.000    5.714 
#    0.000    1.429    0.000    6.857    0.000    0.000 
#    0.000    1.143    0.000    0.000    0.000    0.000 
#
# Total GULP energy -155952.445171 kJ/mol
# GULP energy per Si atom -5569.730185 kJ/mol
# Density = 2.157233 g / cm^3
# Si number density = 21.621540 Si / 1000 Ang^3
#
#
#
# Elastic Constant Matrix: (Units=GPa)
#
#
# Indices 1 2 3 4 5 6 
#
# 1 68.1212 1.0258 18.6835 0.0000 0.0000 0.0000
# 2 1.0258 90.9688 61.7683 0.0000 0.0000 0.0000
# 3 18.6835 61.7683 179.9880 0.0000 0.0000 0.0000
# 4 0.0000 0.0000 0.0000 28.2098 0.0000 0.0000
# 5 0.0000 0.0000 0.0000 0.0000 18.8158 0.0000
# 6 0.0000 0.0000 0.0000 0.0000 0.0000 24.0011
#
#
#
# Elastic Compliance Matrix: (Units=1/GPa)
#
#
# Indices 1 2 3 4 5 6 
#
# 1 0.015205 0.001174 -0.001981 0.000000 0.000000 0.000000
# 2 0.001174 0.014423 -0.005072 0.000000 0.000000 0.000000
# 3 -0.001981 -0.005072 0.007502 0.000000 0.000000 0.000000
# 4 0.000000 0.000000 0.000000 0.035449 0.000000 0.000000
# 5 0.000000 0.000000 0.000000 0.000000 0.053147 0.000000
# 6 0.000000 0.000000 0.000000 0.000000 0.000000 0.041665
#
#
# Mechanical properties :
#
#
# Convention : Reuss Voigt Hill
#
# Bulk Modulus (GPa) = 39.41255 55.78147 47.59701
# Shear Modulus (GPa) = 26.65154 31.37871 29.01513
#
# Velocity S-wave (km/s) = 3.51470 3.81369 3.66724
# Velocity P-wave (km/s) = 5.89396 6.72661 6.32401
#
# Compressibility (1/GPa) = 0.02537263
#
# Stress axis : x y z
#
# Youngs Moduli (GPa) = 65.76605 69.33283 133.29691
#
# Poissons Ratio (x) = -0.08138 0.26409
# Poissons Ratio (y) = -0.07720 0.67603
# Poissons Ratio (z) = 0.13030 0.35163
#
# Static dielectric constant tensor:
#      x y z
#    x 1.905540 0.000000 0.000000 
#    y 0.000000 1.797220 0.000000 
#    z 0.000000 0.000000 1.779170 
# 
# From -- ./inp_files/8475.got.cif
#   From: 2010.05.17/outbox.cif.g08.bks.cpg/sg36_5_cif.got.tgz:8475.got - 2010.06.03 17:41:39.
