data_PCOD9352438
_publ_section_title
;
Structure prediction by ZEFSAII (Michael W. Deem and Ramdas Pophale) SiO2 
 PCOD9352438
Probable space group: C M C 21
;
_chemical_formula_sum "Si O2"
_cell_formula_units_Z 52
_cell_length_a 14.300205
_cell_length_b 20.088163
_cell_length_c 8.313512
_cell_angle_alpha 90.000000
_cell_angle_beta 90.000000
_cell_angle_gamma 90.000000
_cell_volume 2388.179769
_symmetry_space_group_name_H-M "C M C 21"
_symmetry_group_IT_number 36
_symmetry_cell_setting 'orthorhombic'
loop_
_space_group_symop_operation_xyz
x,y,z
-x,-y,1/2+z
x,-y,1/2+z
-x,y,z
1/2+x,1/2+y,z
1/2-x,1/2-y,1/2+z
1/2+x,1/2-y,1/2+z
1/2-x,1/2+y,z
loop_
_atom_site_type_symbol
_atom_site_label
_atom_site_fract_x
_atom_site_fract_y
_atom_site_fract_z
Si Si1 0.183913 0.327456 0.367550
Si Si2 0.500000 0.953485 0.696066
Si Si3 0.000000 0.209797 0.887884
Si Si4 0.186269 0.976701 0.116520
Si Si5 0.139263 0.092430 0.909166
Si Si6 0.679536 0.775026 0.718595
Si Si7 0.500000 0.902830 0.322287
Si Si8 0.299655 0.080570 0.336798
O O1 0.251431 0.388166 0.420141
O O2 0.243893 0.282118 0.248250
O O3 0.161998 0.287015 0.530046
O O4 0.090701 0.357983 0.296117
O O5 0.500000 0.927566 0.510979
O O6 0.592425 0.930044 0.790286
O O7 0.500000 0.033297 0.708309
O O8 0.080333 0.156354 0.953808
O O9 0.083907 0.255307 0.807700
O O10 0.125561 0.926138 0.222284
O O11 0.241643 0.027259 0.232118
O O12 0.263454 0.936852 0.014264
O O13 0.123844 0.025613 0.008663
O O14 0.720171 0.843458 0.791199
#
# Coordination Sequence:
#
# PCOD9352438 Si02
#       8
#     8   4   4   8   8   8   4   8
#     4  11  24  42  64  88 133 166 216 255 312 366
#     4  12  21  35  65  92 135 159 198 259 328 370
#     4  10  24  40  63  87 125 167 212 245 314 358
#     4  10  21  38  66  91 124 158 209 258 327 362
#     4  10  21  42  65  93 124 164 204 270 308 377
#     4  11  23  43  66  89 124 176 208 265 300 379
#     4  12  23  43  62 101 130 166 204 264 312 392
#     4  11  21  38  63  95 121 169 205 259 317 385
#
# _framework density 21.773906
#
# number of rings (size 3 to 8) (size 9 to 14) (size 15 to 20)
#    0.000    1.231    3.077    3.692    4.308    0.615 
#    0.000    3.077    0.000    0.000    0.000    0.000 
#    0.000    0.000    0.000    0.000    0.000    0.000 
#
# Total GULP energy -144850.761680 kJ/mol
# GULP energy per Si atom -5571.183142 kJ/mol
# Density = 2.172435 g / cm^3
# Si number density = 21.773906 Si / 1000 Ang^3
#
#
#
# Elastic Constant Matrix: (Units=GPa)
#
#
# Indices 1 2 3 4 5 6 
#
# 1 83.2464 17.1850 -6.6074 0.0000 0.0000 0.0000
# 2 17.1850 76.8101 7.5210 0.0000 0.0000 0.0000
# 3 -6.6074 7.5210 41.0859 0.0000 0.0000 0.0000
# 4 0.0000 0.0000 0.0000 38.9085 0.0000 0.0000
# 5 0.0000 0.0000 0.0000 0.0000 4.3572 0.0000
# 6 0.0000 0.0000 0.0000 0.0000 0.0000 9.3251
#
#
#
# Elastic Compliance Matrix: (Units=1/GPa)
#
#
# Indices 1 2 3 4 5 6 
#
# 1 0.012870 -0.003138 0.002644 0.000000 0.000000 0.000000
# 2 -0.003138 0.014022 -0.003072 0.000000 0.000000 0.000000
# 3 0.002644 -0.003072 0.025327 0.000000 0.000000 0.000000
# 4 0.000000 0.000000 0.000000 0.025701 0.000000 0.000000
# 5 0.000000 0.000000 0.000000 0.000000 0.229507 0.000000
# 6 0.000000 0.000000 0.000000 0.000000 0.000000 0.107238
#
#
# Mechanical properties :
#
#
# Convention : Reuss Voigt Hill
#
# Bulk Modulus (GPa) = 22.17897 26.37107 24.27502
# Shear Modulus (GPa) = 11.44621 22.72106 17.08364
#
# Velocity S-wave (km/s) = 2.29527 3.23383 2.80410
# Velocity P-wave (km/s) = 4.15120 5.10697 4.65369
#
# Compressibility (1/GPa) = 0.04508776
#
# Stress axis : x y z
#
# Youngs Moduli (GPa) = 77.69824 71.31626 39.48392
#
# Poissons Ratio (x) = 0.22382 -0.10441
# Poissons Ratio (y) = 0.24385 0.12128
# Poissons Ratio (z) = -0.20546 0.21905
#
# Static dielectric constant tensor:
#      x y z
#    x 1.779060 0.000000 0.000000 
#    y 0.000000 1.809390 0.000000 
#    z 0.000000 0.000000 1.865360 
# 
# From -- ./inp_files/4161.got.cif
#   From: 2010.05.17/outbox.cif.g08.bks.cpg/sg36_3_cif.got.tgz:4161.got - 2010.06.03 17:41:39.
