data_PCOD9352066
_publ_section_title
;
Structure prediction by ZEFSAII (Michael W. Deem and Ramdas Pophale) SiO2 
 PCOD9352066
Probable space group: C M C 21
;
_chemical_formula_sum "Si O2"
_cell_formula_units_Z 64
_cell_length_a 14.858298
_cell_length_b 10.358175
_cell_length_c 18.928405
_cell_angle_alpha 90.000000
_cell_angle_beta 90.000000
_cell_angle_gamma 90.000000
_cell_volume 2913.173349
_symmetry_space_group_name_H-M "C M C 21"
_symmetry_group_IT_number 36
_symmetry_cell_setting 'orthorhombic'
loop_
_space_group_symop_operation_xyz
x,y,z
-x,-y,1/2+z
x,-y,1/2+z
-x,y,z
1/2+x,1/2+y,z
1/2-x,1/2-y,1/2+z
1/2+x,1/2-y,1/2+z
1/2-x,1/2+y,z
loop_
_atom_site_type_symbol
_atom_site_label
_atom_site_fract_x
_atom_site_fract_y
_atom_site_fract_z
Si Si1 0.896087 0.540050 0.899150
Si Si2 0.650297 0.862532 0.659629
Si Si3 0.890785 0.749376 0.414600
Si Si4 0.635061 0.112754 0.738664
Si Si5 0.603913 0.540050 0.022598
Si Si6 0.109216 0.750624 0.007148
Si Si7 0.349703 0.362531 0.262119
Si Si8 0.364939 0.387246 0.683084
O O1 0.855377 0.398161 0.913199
O O2 0.895550 0.570670 0.816240
O O3 0.000000 0.531448 0.922335
O O4 0.857866 0.661003 0.942811
O O5 0.633455 0.820840 0.579890
O O6 0.614639 0.750000 0.710874
O O7 0.756962 0.874089 0.674139
O O8 0.612494 0.000410 0.683206
O O9 0.857866 0.838997 0.478937
O O10 0.866545 0.820839 0.341858
O O11 0.000000 0.740307 0.417217
O O12 0.743038 0.125911 0.747609
O O13 0.601928 0.250000 0.710874
O O14 0.500000 0.531448 0.999413
O O15 0.644623 0.398161 0.008550
O O16 0.604450 0.570671 0.105508
O O17 0.000000 0.759693 0.004532
O O18 0.387506 0.500410 0.238542
#
# Coordination Sequence:
#
# PCOD9352066 Si02
#       8
#     8   8   8   8   8   8   8   8
#     4  10  22  40  58  83 115 149 190 232 279 336
#     4  10  20  39  59  83 114 146 189 231 280 335
#     4  10  22  39  60  83 113 150 190 234 280 334
#     4  10  22  37  58  86 116 147 185 236 280 332
#     4  10  22  40  58  83 115 149 190 232 279 336
#     4  10  22  39  60  83 113 150 190 234 280 334
#     4  10  20  39  59  83 114 146 189 231 280 335
#     4  10  22  37  58  86 116 147 185 236 280 332
#
# _framework density 21.969169999999998
#
# number of rings (size 3 to 8) (size 9 to 14) (size 15 to 20)
#    0.000    2.000    2.500    0.000    3.500    3.000 
#    0.000    2.500    0.000    0.000    0.000    0.000 
#    0.000    0.000    0.000    0.000    0.000    0.000 
#
# Total GULP energy -178757.656633 kJ/mol
# GULP energy per Si atom -5586.176770 kJ/mol
# Density = 2.191917 g / cm^3
# Si number density = 21.969170 Si / 1000 Ang^3
#
#
#
# Elastic Constant Matrix: (Units=GPa)
#
#
# Indices 1 2 3 4 5 6 
#
# 1 47.3897 12.0273 -13.9779 0.0000 0.0000 0.0000
# 2 12.0273 233.1248 73.6260 0.0000 0.0000 0.0000
# 3 -13.9779 73.6260 85.5893 0.0000 0.0000 0.0000
# 4 0.0000 0.0000 0.0000 44.7646 0.0000 0.0000
# 5 0.0000 0.0000 0.0000 0.0000 27.7712 0.0000
# 6 0.0000 0.0000 0.0000 0.0000 0.0000 -4.0860
#
#
#
# Elastic Compliance Matrix: (Units=1/GPa)
#
#
# Indices 1 2 3 4 5 6 
#
# 1 0.023981 -0.003397 0.006839 0.000000 0.000000 0.000000
# 2 -0.003397 0.006371 -0.006035 0.000000 0.000000 0.000000
# 3 0.006839 -0.006035 0.017992 0.000000 0.000000 0.000000
# 4 0.000000 0.000000 0.000000 0.022339 0.000000 0.000000
# 5 0.000000 0.000000 0.000000 0.000000 0.036009 0.000000
# 6 0.000000 0.000000 0.000000 0.000000 0.000000 -0.244739
#
#
# Mechanical properties :
#
#
# Convention : Reuss Voigt Hill
#
# Bulk Modulus (GPa) = 23.17136 56.60607 39.88872
# Shear Modulus (GPa) = -42.20303 33.31851 -4.44226
#
# Velocity S-wave (km/s) = -4.38769 3.89858 -1.42353
# Velocity P-wave (km/s) = 3.88574 6.78877 3.93627
#
# Compressibility (1/GPa) = 0.04315673
#
# Stress axis : x y z
#
# Youngs Moduli (GPa) = 41.69992 156.96542 55.57993
#
# Poissons Ratio (x) = 0.53321 -0.38009
# Poissons Ratio (y) = 0.14165 0.33543
# Poissons Ratio (z) = -0.28517 0.94731
#
# Static dielectric constant tensor:
#      x y z
#    x 1.865270 0.000000 0.000000 
#    y 0.000000 1.823440 0.000000 
#    z 0.000000 0.000000 1.734470 
# 
# From -- ./inp_files/15055.got.cif
#   From: 2010.05.17/outbox.cif.g08.bks.cpg/sg36_8_cif.got.tgz:15055.got - 2010.06.03 17:41:39.
