data_PCOD9352533
_publ_section_title
;
Structure prediction by ZEFSAII (Michael W. Deem and Ramdas Pophale) SiO2 
 PCOD9352533
Probable space group: C M C 21
;
_chemical_formula_sum "Si O2"
_cell_formula_units_Z 40
_cell_length_a 21.447217
_cell_length_b 9.182154
_cell_length_c 8.459937
_cell_angle_alpha 90.000000
_cell_angle_beta 90.000000
_cell_angle_gamma 90.000000
_cell_volume 1666.029347
_symmetry_space_group_name_H-M "C M C 21"
_symmetry_group_IT_number 36
_symmetry_cell_setting 'orthorhombic'
loop_
_space_group_symop_operation_xyz
x,y,z
-x,-y,1/2+z
x,-y,1/2+z
-x,y,z
1/2+x,1/2+y,z
1/2-x,1/2-y,1/2+z
1/2+x,1/2-y,1/2+z
1/2-x,1/2+y,z
loop_
_atom_site_type_symbol
_atom_site_label
_atom_site_fract_x
_atom_site_fract_y
_atom_site_fract_z
Si Si1 0.407470 0.456876 0.429140
Si Si2 0.000000 0.733082 0.289639
Si Si3 0.500000 0.950359 0.115901
Si Si4 0.228549 0.300188 0.290445
Si Si5 0.911147 0.219251 0.237544
Si Si6 0.762893 0.964959 0.981298
O O1 0.439686 0.339736 0.310277
O O2 0.427630 0.621440 0.388743
O O3 0.427406 0.390209 0.595311
O O4 0.332116 0.475452 0.438076
O O5 0.000000 0.618959 0.439731
O O6 0.000000 0.623046 0.141322
O O7 0.442697 0.872744 0.206351
O O8 0.162122 0.247792 0.230346
O O9 0.260543 0.156548 0.357360
O O10 0.219310 0.398264 0.447247
O O11 0.260691 0.392559 0.152662
#
# Coordination Sequence:
#
# PCOD9352533 Si02
#       6
#     8   4   4   8   8   8
#     4  10  21  40  63  86 119 160 204 244 299 368
#     4  10  23  42  62  88 122 158 201 252 302 360
#     4  10  23  40  60  92 122 152 201 254 306 350
#     4  11  23  38  61  89 123 160 203 251 306 366
#     4  10  22  39  61  88 118 158 203 251 301 361
#     4  11  22  40  62  91 124 163 204 251 306 366
#
# _framework density 24.009181999999999
#
# number of rings (size 3 to 8) (size 9 to 14) (size 15 to 20)
#    0.000    1.600    0.000    5.400    0.000    6.400 
#    0.000    2.000    0.000    0.000    0.000    0.000 
#    0.000    0.000    0.000    0.000    0.000    0.000 
#
# Total GULP energy -111599.022001 kJ/mol
# GULP energy per Si atom -5579.951100 kJ/mol
# Density = 2.395454 g / cm^3
# Si number density = 24.009182 Si / 1000 Ang^3
#
#
#
# Elastic Constant Matrix: (Units=GPa)
#
#
# Indices 1 2 3 4 5 6 
#
# 1 46.9640 21.4943 22.9724 0.0000 0.0000 0.0000
# 2 21.4943 144.1524 47.2569 0.0000 0.0000 0.0000
# 3 22.9724 47.2569 67.7406 0.0000 0.0000 0.0000
# 4 0.0000 0.0000 0.0000 59.2076 0.0000 0.0000
# 5 0.0000 0.0000 0.0000 0.0000 10.7470 0.0000
# 6 0.0000 0.0000 0.0000 0.0000 0.0000 29.7899
#
#
#
# Elastic Compliance Matrix: (Units=1/GPa)
#
#
# Indices 1 2 3 4 5 6 
#
# 1 0.025704 -0.001264 -0.007835 0.000000 0.000000 0.000000
# 2 -0.001264 0.009056 -0.005889 0.000000 0.000000 0.000000
# 3 -0.007835 -0.005889 0.021527 0.000000 0.000000 0.000000
# 4 0.000000 0.000000 0.000000 0.016890 0.000000 0.000000
# 5 0.000000 0.000000 0.000000 0.000000 0.093049 0.000000
# 6 0.000000 0.000000 0.000000 0.000000 0.000000 0.033568
#
#
# Mechanical properties :
#
#
# Convention : Reuss Voigt Hill
#
# Bulk Modulus (GPa) = 38.00635 49.14492 43.57564
# Shear Modulus (GPa) = 20.96071 31.09113 26.02592
#
# Velocity S-wave (km/s) = 2.95791 3.60247 3.29599
# Velocity P-wave (km/s) = 5.24690 6.14958 5.71609
#
# Compressibility (1/GPa) = 0.02631139
#
# Stress axis : x y z
#
# Youngs Moduli (GPa) = 38.90464 110.42183 46.45234
#
# Poissons Ratio (x) = 0.13960 0.36395
# Poissons Ratio (y) = 0.04918 0.27356
# Poissons Ratio (z) = 0.30481 0.65028
#
# Static dielectric constant tensor:
#      x y z
#    x 1.942060 0.000000 0.000000 
#    y 0.000000 1.876460 0.000000 
#    z 0.000000 0.000000 1.988340 
# 
# From -- ./inp_files/5491.got.cif
#   From: 2010.05.17/outbox.cif.g08.bks.cpg/sg36_3_cif.got.tgz:5491.got - 2010.06.03 17:41:39.
