data_PCOD9352369
_publ_section_title
;
Structure prediction by ZEFSAII (Michael W. Deem and Ramdas Pophale) SiO2 
 PCOD9352369
Probable space group: C M C 21
;
_chemical_formula_sum "Si O2"
_cell_formula_units_Z 48
_cell_length_a 28.737776
_cell_length_b 16.029093
_cell_length_c 4.975401
_cell_angle_alpha 90.000000
_cell_angle_beta 90.000000
_cell_angle_gamma 90.000000
_cell_volume 2291.871125
_symmetry_space_group_name_H-M "C M C 21"
_symmetry_group_IT_number 36
_symmetry_cell_setting 'orthorhombic'
loop_
_space_group_symop_operation_xyz
x,y,z
-x,-y,1/2+z
x,-y,1/2+z
-x,y,z
1/2+x,1/2+y,z
1/2-x,1/2-y,1/2+z
1/2+x,1/2-y,1/2+z
1/2-x,1/2+y,z
loop_
_atom_site_type_symbol
_atom_site_label
_atom_site_fract_x
_atom_site_fract_y
_atom_site_fract_z
Si Si1 0.267520 0.199363 0.583870
Si Si2 0.624841 0.206475 0.659235
Si Si3 0.700891 0.557347 0.766961
Si Si4 0.946526 0.442562 0.242325
Si Si5 0.944322 0.048978 0.391552
Si Si6 0.115659 0.183046 0.668579
O O1 0.245177 0.229465 0.303607
O O2 0.322815 0.189636 0.557673
O O3 0.244982 0.114352 0.693400
O O4 0.591250 0.127427 0.679283
O O5 0.603746 0.272523 0.447411
O O6 0.629997 0.247265 0.952461
O O7 0.699730 0.478767 0.566174
O O8 0.657368 0.618157 0.716968
O O9 0.941064 0.479821 0.539427
O O10 0.000000 0.411599 0.211383
O O11 0.924853 0.131807 0.523050
O O12 0.000000 0.051732 0.391115
O O13 0.928818 0.974270 0.592315
#
# Coordination Sequence:
#
# PCOD9352369 Si02
#       6
#     8   8   8   8   8   8
#     4  12  23  44  62  87 130 168 206 268 323 367
#     4  12  24  40  68  92 124 170 206 253 329 381
#     4  12  24  39  63  90 119 162 211 252 307 373
#     4  10  23  44  68  96 131 165 210 272 328 383
#     4  10  21  38  58  84 122 165 204 250 300 352
#     4  12  23  39  61  93 126 162 205 259 307 374
#
# _framework density 20.943586
#
# number of rings (size 3 to 8) (size 9 to 14) (size 15 to 20)
#    0.000    0.667    3.333    5.000    0.000    2.667 
#    0.000    0.000    0.000    0.000    0.000    0.000 
#    0.000    0.000    0.000    0.000    0.000    0.000 
#
# Total GULP energy -134298.807017 kJ/mol
# GULP energy per Si atom -5595.783626 kJ/mol
# Density = 2.089592 g / cm^3
# Si number density = 20.943586 Si / 1000 Ang^3
#
#
#
# Elastic Constant Matrix: (Units=GPa)
#
#
# Indices 1 2 3 4 5 6 
#
# 1 78.4512 33.0570 -7.8852 0.0000 0.0000 0.0000
# 2 33.0570 64.0525 -14.9665 0.0000 0.0000 0.0000
# 3 -7.8852 -14.9665 55.7441 0.0000 0.0000 0.0000
# 4 0.0000 0.0000 0.0000 32.8533 0.0000 0.0000
# 5 0.0000 0.0000 0.0000 0.0000 18.7792 0.0000
# 6 0.0000 0.0000 0.0000 0.0000 0.0000 39.7125
#
#
#
# Elastic Compliance Matrix: (Units=1/GPa)
#
#
# Indices 1 2 3 4 5 6 
#
# 1 0.016289 -0.008395 0.000050 0.000000 0.000000 0.000000
# 2 -0.008395 0.020984 0.004446 0.000000 0.000000 0.000000
# 3 0.000050 0.004446 0.019140 0.000000 0.000000 0.000000
# 4 0.000000 0.000000 0.000000 0.030438 0.000000 0.000000
# 5 0.000000 0.000000 0.000000 0.000000 0.053250 0.000000
# 6 0.000000 0.000000 0.000000 0.000000 0.000000 0.025181
#
#
# Mechanical properties :
#
#
# Convention : Reuss Voigt Hill
#
# Bulk Modulus (GPa) = 20.56937 24.29540 22.43239
# Shear Modulus (GPa) = 26.41518 30.80515 28.61017
#
# Velocity S-wave (km/s) = 3.55527 3.83934 3.70003
# Velocity P-wave (km/s) = 5.16680 5.59282 5.38403
#
# Compressibility (1/GPa) = 0.04861598
#
# Stress axis : x y z
#
# Youngs Moduli (GPa) = 61.39017 47.65600 52.24663
#
# Poissons Ratio (x) = 0.40007 -0.00262
# Poissons Ratio (y) = 0.51537 -0.23230
# Poissons Ratio (z) = -0.00308 -0.21189
#
# Static dielectric constant tensor:
#      x y z
#    x 1.747090 0.000000 0.000000 
#    y 0.000000 1.736620 0.000000 
#    z 0.000000 0.000000 1.725230 
# 
# From -- ./inp_files/1724.got.cif
#   From: 2010.05.17/outbox.cif.g08.bks.cpg/sg36_1_cif.got.tgz:1724.got - 2010.06.03 17:41:39.
