data_PCOD9352088
_publ_section_title
;
Structure prediction by ZEFSAII (Michael W. Deem and Ramdas Pophale) SiO2 
 PCOD9352088
Probable space group: C M C 21
;
_chemical_formula_sum "Si O2"
_cell_formula_units_Z 64
_cell_length_a 16.112222
_cell_length_b 11.061292
_cell_length_c 17.183561
_cell_angle_alpha 90.000000
_cell_angle_beta 90.000000
_cell_angle_gamma 90.000000
_cell_volume 3062.488476
_symmetry_space_group_name_H-M "C M C 21"
_symmetry_group_IT_number 36
_symmetry_cell_setting 'orthorhombic'
loop_
_space_group_symop_operation_xyz
x,y,z
-x,-y,1/2+z
x,-y,1/2+z
-x,y,z
1/2+x,1/2+y,z
1/2-x,1/2-y,1/2+z
1/2+x,1/2-y,1/2+z
1/2-x,1/2+y,z
loop_
_atom_site_type_symbol
_atom_site_label
_atom_site_fract_x
_atom_site_fract_y
_atom_site_fract_z
Si Si1 0.904048 0.766259 0.505790
Si Si2 0.593499 0.094233 0.817429
Si Si3 0.659564 0.478677 0.043020
Si Si4 0.325393 0.325968 0.188023
Si Si5 0.141365 0.369111 0.158250
Si Si6 0.597202 0.258419 0.948633
Si Si7 0.399288 0.184682 0.332779
Si Si8 0.337277 0.096870 0.079200
O O1 0.859171 0.713996 0.582345
O O2 0.874219 0.720327 0.421287
O O3 0.000000 0.729770 0.512417
O O4 0.894630 0.909720 0.513923
O O5 0.500000 0.079899 0.849558
O O6 0.588440 0.156423 0.733496
O O7 0.634261 0.194198 0.872645
O O8 0.626449 0.955832 0.816314
O O9 0.633203 0.422545 0.127627
O O10 0.753639 0.529909 0.049682
O O11 0.649161 0.370490 0.981734
O O12 0.232974 0.377437 0.195760
O O13 0.365353 0.280016 0.268388
O O14 0.315600 0.204871 0.136972
O O15 0.113003 0.497902 0.126727
O O16 0.500000 0.293974 0.940535
O O17 0.607747 0.153065 0.012058
O O18 0.500000 0.190303 0.328110
#
# Coordination Sequence:
#
# PCOD9352088 Si02
#       8
#     8   8   8   8   8   8   8   8
#     4  11  23  40  62  92 128 166 206 259 319 385
#     4  10  21  39  60  89 124 159 207 264 313 369
#     4  10  22  41  63  89 129 166 208 259 320 393
#     4  10  21  40  64  90 122 163 210 261 311 381
#     4  11  21  38  62  90 124 159 207 258 317 377
#     4  10  22  40  63  93 124 165 216 261 314 386
#     4  10  22  41  65  93 125 163 214 265 321 383
#     4  10  20  39  65  88 122 161 208 263 315 374
#
# _framework density 20.898039000000001
#
# number of rings (size 3 to 8) (size 9 to 14) (size 15 to 20)
#    0.000    1.750    2.500    1.500    0.000    5.500 
#    4.500    0.000    0.000    0.000    0.000    0.000 
#    0.000    0.000    0.000    0.000    0.000    0.000 
#
# Total GULP energy -178294.370827 kJ/mol
# GULP energy per Si atom -5571.699088 kJ/mol
# Density = 2.085047 g / cm^3
# Si number density = 20.898039 Si / 1000 Ang^3
#
#
#
# Elastic Constant Matrix: (Units=GPa)
#
#
# Indices 1 2 3 4 5 6 
#
# 1 35.4730 1.2514 23.8746 0.0000 0.0000 0.0000
# 2 1.2514 83.2280 58.3088 0.0000 0.0000 0.0000
# 3 23.8746 58.3088 144.2834 0.0000 0.0000 0.0000
# 4 0.0000 0.0000 0.0000 27.2856 0.0000 0.0000
# 5 0.0000 0.0000 0.0000 0.0000 26.9544 0.0000
# 6 0.0000 0.0000 0.0000 0.0000 0.0000 24.6990
#
#
#
# Elastic Compliance Matrix: (Units=1/GPa)
#
#
# Indices 1 2 3 4 5 6 
#
# 1 0.032959 0.004639 -0.007328 0.000000 0.000000 0.000000
# 2 0.004639 0.017413 -0.007805 0.000000 0.000000 0.000000
# 3 -0.007328 -0.007805 0.011298 0.000000 0.000000 0.000000
# 4 0.000000 0.000000 0.000000 0.036649 0.000000 0.000000
# 5 0.000000 0.000000 0.000000 0.000000 0.037100 0.000000
# 6 0.000000 0.000000 0.000000 0.000000 0.000000 0.040487
#
#
# Mechanical properties :
#
#
# Convention : Reuss Voigt Hill
#
# Bulk Modulus (GPa) = 24.58153 47.76155 36.17154
# Shear Modulus (GPa) = 23.75796 27.75777 25.75787
#
# Velocity S-wave (km/s) = 3.37538 3.64847 3.51458
# Velocity P-wave (km/s) = 5.19414 6.37594 5.81514
#
# Compressibility (1/GPa) = 0.04068096
#
# Stress axis : x y z
#
# Youngs Moduli (GPa) = 30.34072 57.42709 88.51493
#
# Poissons Ratio (x) = -0.26638 0.64866
# Poissons Ratio (y) = -0.14074 0.69084
# Poissons Ratio (z) = 0.22235 0.44820
#
# Static dielectric constant tensor:
#      x y z
#    x 1.798880 0.000000 0.000000 
#    y 0.000000 1.766410 0.000000 
#    z 0.000000 0.000000 1.795490 
# 
# From -- ./inp_files/12627.got.cif
#   From: 2010.05.17/outbox.cif.g08.bks.cpg/sg36_7_cif.got.tgz:12627.got - 2010.06.03 17:41:39.
