data_PCOD9352495
_publ_section_title
;
Structure prediction by ZEFSAII (Michael W. Deem and Ramdas Pophale) SiO2 
 PCOD9352495
Probable space group: C M C 21
;
_chemical_formula_sum "Si O2"
_cell_formula_units_Z 64
_cell_length_a 9.148118
_cell_length_b 24.498383
_cell_length_c 15.289216
_cell_angle_alpha 90.000000
_cell_angle_beta 90.000000
_cell_angle_gamma 90.000000
_cell_volume 3426.528861
_symmetry_space_group_name_H-M "C M C 21"
_symmetry_group_IT_number 36
_symmetry_cell_setting 'orthorhombic'
loop_
_space_group_symop_operation_xyz
x,y,z
-x,-y,1/2+z
x,-y,1/2+z
-x,y,z
1/2+x,1/2+y,z
1/2-x,1/2-y,1/2+z
1/2+x,1/2-y,1/2+z
1/2-x,1/2+y,z
loop_
_atom_site_type_symbol
_atom_site_label
_atom_site_fract_x
_atom_site_fract_y
_atom_site_fract_z
Si Si1 0.832316 0.371285 0.520300
Si Si2 0.332233 0.873309 0.726332
Si Si3 0.170663 0.021983 0.969772
Si Si4 0.675751 0.046861 0.621042
Si Si5 0.675286 0.249531 0.272329
Si Si6 0.175278 0.759011 0.478004
Si Si7 0.175577 0.674724 0.629845
Si Si8 0.330153 0.479245 0.773064
O O1 0.832683 0.385017 0.623144
O O2 0.739499 0.417937 0.474032
O O3 0.759825 0.312518 0.509096
O O4 0.000000 0.370749 0.489503
O O5 0.500000 0.878011 0.758828
O O6 0.284219 0.811080 0.739963
O O7 0.230471 0.917881 0.770055
O O8 0.000000 0.023941 0.994747
O O9 0.182604 0.000757 0.871298
O O10 0.256231 0.983109 0.036937
O O11 0.500000 0.042303 0.618554
O O12 0.716113 0.111019 0.623541
O O13 0.737705 0.015948 0.706042
O O14 0.500000 0.255512 0.261980
O O15 0.709084 0.251683 0.375441
O O16 0.752307 0.294671 0.212317
O O17 0.213972 0.708405 0.541467
O O18 0.000000 0.767054 0.485430
O O19 0.000000 0.677286 0.639351
O O20 0.500000 0.480608 0.746522
#
# Coordination Sequence:
#
# PCOD9352495 Si02
#       8
#     8   8   8   8   8   8   8   8
#     4  11  22  39  64  92 120 157 204 254 304 356
#     4  10  21  39  64  91 119 156 204 255 305 358
#     4  11  25  43  63  91 124 162 205 251 307 365
#     4  11  24  42  64  91 123 163 205 251 305 361
#     4  10  22  40  63  89 120 160 202 245 300 359
#     4  10  22  40  62  89 122 161 200 246 303 360
#     4  10  23  41  61  88 123 159 200 249 302 358
#     4  11  25  42  63  91 123 162 204 251 308 365
#
# _framework density 18.677793999999999
#
# number of rings (size 3 to 8) (size 9 to 14) (size 15 to 20)
#    0.000    1.500    2.500    1.500    3.500    4.500 
#    0.000    0.000    0.000    0.000    0.000    0.000 
#    0.000    0.000    0.000    0.000    0.000    0.000 
#
# Total GULP energy -178795.548296 kJ/mol
# GULP energy per Si atom -5587.360884 kJ/mol
# Density = 1.863528 g / cm^3
# Si number density = 18.677794 Si / 1000 Ang^3
#
#
#
# Elastic Constant Matrix: (Units=GPa)
#
#
# Indices 1 2 3 4 5 6 
#
# 1 75.6562 48.1178 35.3559 0.0000 0.0000 0.0000
# 2 48.1178 109.7218 17.9348 0.0000 0.0000 0.0000
# 3 35.3559 17.9348 62.6148 0.0000 0.0000 0.0000
# 4 0.0000 0.0000 0.0000 29.7587 0.0000 0.0000
# 5 0.0000 0.0000 0.0000 0.0000 12.3912 0.0000
# 6 0.0000 0.0000 0.0000 0.0000 0.0000 32.7305
#
#
#
# Elastic Compliance Matrix: (Units=1/GPa)
#
#
# Indices 1 2 3 4 5 6 
#
# 1 0.023871 -0.008671 -0.010995 0.000000 0.000000 0.000000
# 2 -0.008671 0.012711 0.001255 0.000000 0.000000 0.000000
# 3 -0.010995 0.001255 0.021820 0.000000 0.000000 0.000000
# 4 0.000000 0.000000 0.000000 0.033604 0.000000 0.000000
# 5 0.000000 0.000000 0.000000 0.000000 0.080702 0.000000
# 6 0.000000 0.000000 0.000000 0.000000 0.000000 0.030553
#
#
# Mechanical properties :
#
#
# Convention : Reuss Voigt Hill
#
# Bulk Modulus (GPa) = 46.33957 50.08998 48.21477
# Shear Modulus (GPa) = 20.22034 24.74836 22.48435
#
# Velocity S-wave (km/s) = 3.29384 3.64402 3.47335
# Velocity P-wave (km/s) = 6.27134 6.67693 6.47731
#
# Compressibility (1/GPa) = 0.02157983
#
# Stress axis : x y z
#
# Youngs Moduli (GPa) = 41.89199 78.66908 45.83036
#
# Poissons Ratio (x) = 0.68216 0.50391
# Poissons Ratio (y) = 0.36325 -0.05753
# Poissons Ratio (z) = 0.46061 -0.09875
#
# Static dielectric constant tensor:
#      x y z
#    x 1.633740 0.000000 0.000000 
#    y 0.000000 1.621980 0.000000 
#    z 0.000000 0.000000 1.642740 
# 
# From -- ./inp_files/10970.got.cif
#   From: 2010.05.17/outbox.cif.g08.bks.cpg/sg36_6_cif.got.tgz:10970.got - 2010.06.03 17:41:39.
