data_PCOD9352216
_publ_section_title
;
Structure prediction by ZEFSAII (Michael W. Deem and Ramdas Pophale) SiO2 
 PCOD9352216
Probable space group: C M C 21
;
_chemical_formula_sum "Si O2"
_cell_formula_units_Z 64
_cell_length_a 7.879284
_cell_length_b 25.639888
_cell_length_c 14.060184
_cell_angle_alpha 90.000000
_cell_angle_beta 90.000000
_cell_angle_gamma 90.000000
_cell_volume 2840.494040
_symmetry_space_group_name_H-M "C M C 21"
_symmetry_group_IT_number 36
_symmetry_cell_setting 'orthorhombic'
loop_
_space_group_symop_operation_xyz
x,y,z
-x,-y,1/2+z
x,-y,1/2+z
-x,y,z
1/2+x,1/2+y,z
1/2-x,1/2-y,1/2+z
1/2+x,1/2-y,1/2+z
1/2-x,1/2+y,z
loop_
_atom_site_type_symbol
_atom_site_label
_atom_site_fract_x
_atom_site_fract_y
_atom_site_fract_z
Si Si1 0.701248 0.837552 0.379110
Si Si2 0.201055 0.869229 0.745246
Si Si3 0.303523 0.954218 0.399113
Si Si4 0.296725 0.531002 0.114144
Si Si5 0.195123 0.080103 0.627650
Si Si6 0.198201 0.794230 0.584555
Si Si7 0.699382 0.932307 0.915765
Si Si8 0.799608 0.808681 0.180860
O O1 0.500000 0.840144 0.365877
O O2 0.771702 0.897497 0.372130
O O3 0.731035 0.813634 0.483877
O O4 0.773798 0.802229 0.293987
O O5 0.225609 0.921381 0.683777
O O6 0.271418 0.824243 0.677056
O O7 0.280945 0.883924 0.845373
O O8 0.000000 0.860423 0.761193
O O9 0.500000 0.953037 0.369590
O O10 0.289906 0.956310 0.514062
O O11 0.234249 0.012029 0.373276
O O12 0.500000 0.525456 0.095997
O O13 0.231255 0.476043 0.155611
O O14 0.204403 0.078405 0.513438
O O15 0.275147 0.133801 0.660846
O O16 0.000000 0.080867 0.660612
O O17 0.219290 0.734106 0.612099
O O18 0.000000 0.808151 0.580447
O O19 0.500000 0.939774 0.937178
O O20 0.000000 0.808374 0.160014
#
# Coordination Sequence:
#
# PCOD9352216 Si02
#       8
#     8   8   8   8   8   8   8   8
#     4  11  23  41  65  92 123 160 202 252 305 363
#     4  10  21  36  58  88 120 158 202 247 300 360
#     4   9  19  35  55  86 124 159 197 244 301 359
#     4   9  17  33  57  85 116 154 196 243 298 355
#     4   9  20  39  60  85 120 158 200 249 301 359
#     4  11  24  44  66  90 122 161 208 258 308 362
#     4  10  21  35  56  89 127 166 203 244 303 367
#     4  11  25  43  65  93 122 160 208 255 308 365
#
# _framework density 22.531292000000001
#
# number of rings (size 3 to 8) (size 9 to 14) (size 15 to 20)
#    0.000    2.000    1.250    1.500    1.750    4.500 
#    0.000    1.250    0.000    0.000    0.000    0.000 
#    0.000    0.000    0.000    0.000    0.000    0.000 
#
# Total GULP energy -178620.365904 kJ/mol
# GULP energy per Si atom -5581.886435 kJ/mol
# Density = 2.248001 g / cm^3
# Si number density = 22.531292 Si / 1000 Ang^3
#
#
#
# Elastic Constant Matrix: (Units=GPa)
#
#
# Indices 1 2 3 4 5 6 
#
# 1 34.7228 4.4335 -3.4043 0.0000 0.0000 0.0000
# 2 4.4335 76.4662 18.5350 0.0000 0.0000 0.0000
# 3 -3.4043 18.5350 64.8205 0.0000 0.0000 0.0000
# 4 0.0000 0.0000 0.0000 30.2206 0.0000 0.0000
# 5 0.0000 0.0000 0.0000 0.0000 16.6130 0.0000
# 6 0.0000 0.0000 0.0000 0.0000 0.0000 13.9158
#
#
#
# Elastic Compliance Matrix: (Units=1/GPa)
#
#
# Indices 1 2 3 4 5 6 
#
# 1 0.029297 -0.002226 0.002175 0.000000 0.000000 0.000000
# 2 -0.002226 0.014221 -0.004183 0.000000 0.000000 0.000000
# 3 0.002175 -0.004183 0.016738 0.000000 0.000000 0.000000
# 4 0.000000 0.000000 0.000000 0.033090 0.000000 0.000000
# 5 0.000000 0.000000 0.000000 0.000000 0.060194 0.000000
# 6 0.000000 0.000000 0.000000 0.000000 0.000000 0.071861
#
#
# Mechanical properties :
#
#
# Convention : Reuss Voigt Hill
#
# Bulk Modulus (GPa) = 19.30972 23.90422 21.60697
# Shear Modulus (GPa) = 19.90996 22.57955 21.24475
#
# Velocity S-wave (km/s) = 2.97586 3.16910 3.07400
# Velocity P-wave (km/s) = 4.51625 4.90135 4.71274
#
# Compressibility (1/GPa) = 0.05178738
#
# Stress axis : x y z
#
# Youngs Moduli (GPa) = 34.13317 70.31994 59.74564
#
# Poissons Ratio (x) = 0.15652 -0.12995
# Poissons Ratio (y) = 0.07598 0.24993
# Poissons Ratio (z) = -0.07424 0.29416
#
# Static dielectric constant tensor:
#      x y z
#    x 1.827350 0.000000 0.000000 
#    y 0.000000 1.875550 0.000000 
#    z 0.000000 0.000000 1.832670 
# 
# From -- ./inp_files/11083.got.cif
#   From: 2010.05.17/outbox.cif.g08.bks.cpg/sg36_6_cif.got.tgz:11083.got - 2010.06.03 17:41:39.
