data_PCOD9352110
_publ_section_title
;
Structure prediction by ZEFSAII (Michael W. Deem and Ramdas Pophale) SiO2 
 PCOD9352110
Probable space group: C M C 21
;
_chemical_formula_sum "Si O2"
_cell_formula_units_Z 60
_cell_length_a 11.646370
_cell_length_b 31.905398
_cell_length_c 9.037129
_cell_angle_alpha 90.000000
_cell_angle_beta 90.000000
_cell_angle_gamma 90.000000
_cell_volume 3358.035102
_symmetry_space_group_name_H-M "C M C 21"
_symmetry_group_IT_number 36
_symmetry_cell_setting 'orthorhombic'
loop_
_space_group_symop_operation_xyz
x,y,z
-x,-y,1/2+z
x,-y,1/2+z
-x,y,z
1/2+x,1/2+y,z
1/2-x,1/2-y,1/2+z
1/2+x,1/2-y,1/2+z
1/2-x,1/2+y,z
loop_
_atom_site_type_symbol
_atom_site_label
_atom_site_fract_x
_atom_site_fract_y
_atom_site_fract_z
Si Si1 0.864031 0.948886 0.802290
Si Si2 0.728029 0.853588 0.213540
Si Si3 0.632542 0.057502 0.780260
Si Si4 0.863097 0.854788 0.904957
Si Si5 0.734199 0.004093 0.042477
Si Si6 0.696355 0.272091 0.724530
Si Si7 0.637332 0.284493 0.384707
Si Si8 0.000000 0.297287 0.245311
O O1 0.840625 0.899804 0.829773
O O2 0.804230 0.966860 0.655931
O O3 0.000000 0.954599 0.791171
O O4 0.816155 0.975293 0.941129
O O5 0.710395 0.901379 0.262747
O O6 0.809721 0.827515 0.323851
O O7 0.603569 0.831432 0.211541
O O8 0.789122 0.851763 0.054203
O O9 0.500000 0.069749 0.781166
O O10 0.657858 0.026523 0.643362
O O11 0.663039 0.032576 0.929364
O O12 0.828046 0.816622 0.798942
O O13 0.000000 0.852223 0.936885
O O14 0.685472 0.275543 0.548195
O O15 0.816328 0.252340 0.777944
O O16 0.599918 0.238852 0.773406
O O17 0.500000 0.285304 0.391160
#
# Coordination Sequence:
#
# PCOD9352110 Si02
#       8
#     8   8   8   8   8   8   8   4
#     4  10  21  38  62  93 126 164 202 253 312 370
#     4  11  23  39  63  93 128 163 212 257 309 370
#     4  11  22  42  65  92 124 165 207 258 309 371
#     4  11  22  39  63  93 127 167 211 259 310 372
#     4  10  22  40  64  91 126 162 210 249 312 375
#     4  11  22  42  66  89 126 163 211 258 314 371
#     4  11  24  42  63  94 124 165 210 260 316 377
#     4  10  20  40  62  86 118 168 196 252 314 354
#
# _framework density 17.867591999999998
#
# number of rings (size 3 to 8) (size 9 to 14) (size 15 to 20)
#    0.000    1.333    3.333    2.800    1.867    0.000 
#    4.800    1.333    1.467    0.000    0.000    0.000 
#    0.000    0.000    0.000    0.000    0.000    0.000 
#
# Total GULP energy -167002.748970 kJ/mol
# GULP energy per Si atom -5566.758299 kJ/mol
# Density = 1.782692 g / cm^3
# Si number density = 17.867592 Si / 1000 Ang^3
#
#
#
# Elastic Constant Matrix: (Units=GPa)
#
#
# Indices 1 2 3 4 5 6 
#
# 1 75.6483 56.7369 69.9097 0.0000 0.0000 0.0000
# 2 56.7369 127.3778 57.4626 0.0000 0.0000 0.0000
# 3 69.9097 57.4626 111.9667 0.0000 0.0000 0.0000
# 4 0.0000 0.0000 0.0000 7.5891 0.0000 0.0000
# 5 0.0000 0.0000 0.0000 0.0000 9.5158 0.0000
# 6 0.0000 0.0000 0.0000 0.0000 0.0000 27.7149
#
#
#
# Elastic Compliance Matrix: (Units=1/GPa)
#
#
# Indices 1 2 3 4 5 6 
#
# 1 0.036293 -0.007734 -0.018692 0.000000 0.000000 0.000000
# 2 -0.007734 0.011864 -0.001260 0.000000 0.000000 0.000000
# 3 -0.018692 -0.001260 0.021249 0.000000 0.000000 0.000000
# 4 0.000000 0.000000 0.000000 0.131769 0.000000 0.000000
# 5 0.000000 0.000000 0.000000 0.000000 0.105089 0.000000
# 6 0.000000 0.000000 0.000000 0.000000 0.000000 0.036082
#
#
# Mechanical properties :
#
#
# Convention : Reuss Voigt Hill
#
# Bulk Modulus (GPa) = 71.25049 75.91236 73.58143
# Shear Modulus (GPa) = 12.42566 17.68950 15.05758
#
# Velocity S-wave (km/s) = 2.63996 3.14989 2.90613
# Velocity P-wave (km/s) = 7.01826 7.47043 7.24788
#
# Compressibility (1/GPa) = 0.01403499
#
# Stress axis : x y z
#
# Youngs Moduli (GPa) = 27.55340 84.29041 47.06193
#
# Poissons Ratio (x) = 0.65186 0.87967
# Poissons Ratio (y) = 0.21309 0.05930
# Poissons Ratio (z) = 0.51502 0.10620
#
# Static dielectric constant tensor:
#      x y z
#    x 1.585640 0.000000 0.000000 
#    y 0.000000 1.609210 0.000000 
#    z 0.000000 0.000000 1.597490 
# 
# From -- ./inp_files/3559.got.cif
#   From: 2010.05.17/outbox.cif.g08.bks.cpg/sg36_2_cif.got.tgz:3559.got - 2010.06.03 17:41:39.
