data_PCOD9352105
_publ_section_title
;
Structure prediction by ZEFSAII (Michael W. Deem and Ramdas Pophale) SiO2 
 PCOD9352105
Probable space group: C M C 21
;
_chemical_formula_sum "Si O2"
_cell_formula_units_Z 60
_cell_length_a 18.821118
_cell_length_b 16.757317
_cell_length_c 8.932628
_cell_angle_alpha 90.000000
_cell_angle_beta 90.000000
_cell_angle_gamma 90.000000
_cell_volume 2817.274413
_symmetry_space_group_name_H-M "C M C 21"
_symmetry_group_IT_number 36
_symmetry_cell_setting 'orthorhombic'
loop_
_space_group_symop_operation_xyz
x,y,z
-x,-y,1/2+z
x,-y,1/2+z
-x,y,z
1/2+x,1/2+y,z
1/2-x,1/2-y,1/2+z
1/2+x,1/2-y,1/2+z
1/2-x,1/2+y,z
loop_
_atom_site_type_symbol
_atom_site_label
_atom_site_fract_x
_atom_site_fract_y
_atom_site_fract_z
Si Si1 0.704361 0.730327 0.601880
Si Si2 0.291088 0.341480 0.779704
Si Si3 0.238060 0.494655 0.957223
Si Si4 0.418376 0.691145 0.818521
Si Si5 0.822085 0.606798 0.712515
Si Si6 0.500000 0.549176 0.289466
Si Si7 0.897056 0.028707 0.004400
Si Si8 0.916833 0.747582 0.639747
O O1 0.709938 0.715712 0.426763
O O2 0.732715 0.814821 0.658123
O O3 0.630011 0.710049 0.677844
O O4 0.758683 0.667816 0.675585
O O5 0.267506 0.426167 0.844394
O O6 0.366102 0.315835 0.707212
O O7 0.197549 0.561967 0.864101
O O8 0.313038 0.521083 0.030070
O O9 0.185129 0.456424 0.077852
O O10 0.500000 0.697674 0.776074
O O11 0.407840 0.603249 0.889957
O O12 0.404360 0.749414 0.960402
O O13 0.891697 0.662438 0.703887
O O14 0.563171 0.543696 0.419982
O O15 0.439178 0.541545 0.156727
O O16 0.000000 0.765846 0.668031
#
# Coordination Sequence:
#
# PCOD9352105 Si02
#       8
#     8   8   8   8   8   4   8   8
#     4  10  20  40  57  89 122 159 208 254 304 370
#     4  10  23  37  64  88 120 157 204 260 306 372
#     4  11  22  35  60  91 119 155 203 252 307 354
#     4  11  21  36  58  81 120 169 206 246 309 361
#     4  10  22  40  61  90 121 159 203 259 307 369
#     4  10  22  36  46  78 128 168 194 232 316 358
#     4  11  22  34  53  81 123 163 201 252 293 379
#     4  10  24  44  64  88 122 165 211 258 314 379
#
# _framework density 21.297180000000001
#
# number of rings (size 3 to 8) (size 9 to 14) (size 15 to 20)
#    0.000    1.600    2.667    3.200    5.600    2.667 
#    1.200    0.667    0.000    0.800    0.000    0.000 
#    0.000    0.000    0.000    0.000    0.000    0.000 
#
# Total GULP energy -167180.773181 kJ/mol
# GULP energy per Si atom -5572.692439 kJ/mol
# Density = 2.124871 g / cm^3
# Si number density = 21.297180 Si / 1000 Ang^3
#
#
#
# Elastic Constant Matrix: (Units=GPa)
#
#
# Indices 1 2 3 4 5 6 
#
# 1 59.8749 6.0266 15.0686 0.0000 0.0000 0.0000
# 2 6.0266 26.2683 12.4059 0.0000 0.0000 0.0000
# 3 15.0686 12.4059 67.9108 0.0000 0.0000 0.0000
# 4 0.0000 0.0000 0.0000 36.2210 0.0000 0.0000
# 5 0.0000 0.0000 0.0000 0.0000 34.2203 0.0000
# 6 0.0000 0.0000 0.0000 0.0000 0.0000 93.8021
#
#
#
# Elastic Compliance Matrix: (Units=1/GPa)
#
#
# Indices 1 2 3 4 5 6 
#
# 1 0.017830 -0.002432 -0.003512 0.000000 0.000000 0.000000
# 2 -0.002432 0.041995 -0.007132 0.000000 0.000000 0.000000
# 3 -0.003512 -0.007132 0.016807 0.000000 0.000000 0.000000
# 4 0.000000 0.000000 0.000000 0.027608 0.000000 0.000000
# 5 0.000000 0.000000 0.000000 0.000000 0.029222 0.000000
# 6 0.000000 0.000000 0.000000 0.000000 0.000000 0.010661
#
#
# Mechanical properties :
#
#
# Convention : Reuss Voigt Hill
#
# Bulk Modulus (GPa) = 19.80966 24.56178 22.18572
# Shear Modulus (GPa) = 26.72328 40.88555 33.80442
#
# Velocity S-wave (km/s) = 3.54613 4.38626 3.98838
# Velocity P-wave (km/s) = 5.10769 6.10003 5.62578
#
# Compressibility (1/GPa) = 0.05048042
#
# Stress axis : x y z
#
# Youngs Moduli (GPa) = 56.08479 23.81236 59.49785
#
# Poissons Ratio (x) = 0.05791 0.20896
# Poissons Ratio (y) = 0.13640 0.42434
# Poissons Ratio (z) = 0.19697 0.16983
#
# Static dielectric constant tensor:
#      x y z
#    x 1.755750 0.000000 0.000000 
#    y 0.000000 1.897350 0.000000 
#    z 0.000000 0.000000 1.781760 
# 
# From -- ./inp_files/4809.got.cif
#   From: 2010.05.17/outbox.cif.g08.bks.cpg/sg36_3_cif.got.tgz:4809.got - 2010.06.03 17:41:39.
