data_PCOD9352927
_publ_section_title
;
Structure prediction by ZEFSAII (Michael W. Deem and Ramdas Pophale) SiO2 
 PCOD9352927
Probable space group: C M C 21
;
_chemical_formula_sum "Si O2"
_cell_formula_units_Z 40
_cell_length_a 17.989946
_cell_length_b 19.498673
_cell_length_c 4.937682
_cell_angle_alpha 90.000000
_cell_angle_beta 90.000000
_cell_angle_gamma 90.000000
_cell_volume 1732.040459
_symmetry_space_group_name_H-M "C M C 21"
_symmetry_group_IT_number 36
_symmetry_cell_setting 'orthorhombic'
loop_
_space_group_symop_operation_xyz
x,y,z
-x,-y,1/2+z
x,-y,1/2+z
-x,y,z
1/2+x,1/2+y,z
1/2-x,1/2-y,1/2+z
1/2+x,1/2-y,1/2+z
1/2-x,1/2+y,z
loop_
_atom_site_type_symbol
_atom_site_label
_atom_site_fract_x
_atom_site_fract_y
_atom_site_fract_z
Si Si1 0.087626 0.047564 0.978860
Si Si2 0.691053 0.345681 0.192132
Si Si3 0.412368 0.854665 0.878391
Si Si4 0.843186 0.715535 0.873279
Si Si5 0.788880 0.456512 0.890831
O O1 0.136381 0.111468 0.883205
O O2 0.000000 0.064522 0.958472
O O3 0.102085 0.984105 0.773191
O O4 0.756525 0.306191 0.354582
O O5 0.650989 0.290516 0.001004
O O6 0.733997 0.398440 0.996829
O O7 0.500000 0.858853 0.900187
O O8 0.379628 0.797298 0.082127
O O9 0.370379 0.925471 0.943580
O O10 0.385571 0.834471 0.579550
O O11 0.778164 0.522479 0.081283
#
# Coordination Sequence:
#
# PCOD9352927 Si02
#       5
#     8   8   8   8   8
#     4  10  23  41  63  93 127 166 209 257 318 381
#     4  11  23  43  65  94 131 165 212 272 312 379
#     4  11  25  45  65  94 134 169 215 269 316 384
#     4  11  25  41  67  97 126 174 218 260 327 380
#     4  11  23  38  63  94 122 166 214 258 322 378
#
# _framework density 23.094149999999999
#
# number of rings (size 3 to 8) (size 9 to 14) (size 15 to 20)
#    0.000    1.200    0.000    6.600    0.000   10.400 
#    0.000    2.000    0.000    0.000    0.000    0.000 
#    0.000    0.000    0.000    0.000    0.000    0.000 
#
# Total GULP energy -112143.316265 kJ/mol
# GULP energy per Si atom -5607.165813 kJ/mol
# Density = 2.304159 g / cm^3
# Si number density = 23.094150 Si / 1000 Ang^3
#
#
#
# Elastic Constant Matrix: (Units=GPa)
#
#
# Indices 1 2 3 4 5 6 
#
# 1 93.1207 15.7727 14.4876 0.0000 0.0000 0.0000
# 2 15.7727 74.8846 1.4454 0.0000 0.0000 0.0000
# 3 14.4876 1.4454 82.5066 0.0000 0.0000 0.0000
# 4 0.0000 0.0000 0.0000 23.3379 0.0000 0.0000
# 5 0.0000 0.0000 0.0000 0.0000 29.8206 0.0000
# 6 0.0000 0.0000 0.0000 0.0000 0.0000 23.7729
#
#
#
# Elastic Compliance Matrix: (Units=1/GPa)
#
#
# Indices 1 2 3 4 5 6 
#
# 1 0.011447 -0.002373 -0.001968 0.000000 0.000000 0.000000
# 2 -0.002373 0.013850 0.000174 0.000000 0.000000 0.000000
# 3 -0.001968 0.000174 0.012463 0.000000 0.000000 0.000000
# 4 0.000000 0.000000 0.000000 0.042849 0.000000 0.000000
# 5 0.000000 0.000000 0.000000 0.000000 0.033534 0.000000
# 6 0.000000 0.000000 0.000000 0.000000 0.000000 0.042065
#
#
# Mechanical properties :
#
#
# Convention : Reuss Voigt Hill
#
# Bulk Modulus (GPa) = 33.98438 34.88037 34.43237
# Shear Modulus (GPa) = 28.67783 29.97336 29.32559
#
# Velocity S-wave (km/s) = 3.52771 3.60651 3.56733
# Velocity P-wave (km/s) = 5.59826 5.69903 5.64887
#
# Compressibility (1/GPa) = 0.02942528
#
# Stress axis : x y z
#
# Youngs Moduli (GPa) = 87.35956 72.20035 80.23855
#
# Poissons Ratio (x) = 0.17133 0.15794
# Poissons Ratio (y) = 0.20731 -0.01397
# Poissons Ratio (z) = 0.17196 -0.01257
#
# Static dielectric constant tensor:
#      x y z
#    x 1.845370 0.000000 0.000000 
#    y 0.000000 1.866130 0.000000 
#    z 0.000000 0.000000 1.840050 
# 
# From -- ./inp_files/1043.got.cif
#   From: 2010.05.17/outbox.cif.g08.bks.cpg/sg36_1_cif.got.tgz:1043.got - 2010.06.03 17:41:39.
