data_PCOD9352803
_publ_section_title
;
Structure prediction by ZEFSAII (Michael W. Deem and Ramdas Pophale) SiO2 
 PCOD9352803
Probable space group: C M C 21
;
_chemical_formula_sum "Si O2"
_cell_formula_units_Z 48
_cell_length_a 22.465796
_cell_length_b 11.056265
_cell_length_c 8.087346
_cell_angle_alpha 90.000000
_cell_angle_beta 90.000000
_cell_angle_gamma 90.000000
_cell_volume 2008.798032
_symmetry_space_group_name_H-M "C M C 21"
_symmetry_group_IT_number 36
_symmetry_cell_setting 'orthorhombic'
loop_
_space_group_symop_operation_xyz
x,y,z
-x,-y,1/2+z
x,-y,1/2+z
-x,y,z
1/2+x,1/2+y,z
1/2-x,1/2-y,1/2+z
1/2+x,1/2-y,1/2+z
1/2-x,1/2+y,z
loop_
_atom_site_type_symbol
_atom_site_label
_atom_site_fract_x
_atom_site_fract_y
_atom_site_fract_z
Si Si1 0.000000 0.466222 0.239980
Si Si2 0.772385 0.322571 0.573823
Si Si3 0.500000 0.798546 0.568154
Si Si4 0.635334 0.629202 0.105155
Si Si5 0.104291 0.368560 0.013632
Si Si6 0.675251 0.985480 0.285204
Si Si7 0.378117 0.647855 0.502205
O O1 0.000000 0.391798 0.411557
O O2 0.053588 0.418144 0.128211
O O3 0.000000 0.613062 0.228224
O O4 0.702043 0.330115 0.557082
O O5 0.783665 0.402332 0.737557
O O6 0.798200 0.397952 0.420122
O O7 0.816958 0.208085 0.574443
O O8 0.438562 0.720310 0.554738
O O9 0.597276 0.725866 0.000354
O O10 0.621823 0.491215 0.060352
O O11 0.625252 0.650284 0.301373
O O12 0.161914 0.405198 0.125503
O O13 0.116352 0.448411 0.853911
#
# Coordination Sequence:
#
# PCOD9352803 Si02
#       7
#     4   8   4   8   8   8   8
#     4  12  22  45  77 105 131 186 234 313 355 423
#     4  11  24  44  72 102 146 185 248 298 366 436
#     4  12  26  53  79 107 153 180 260 301 369 445
#     4  12  28  45  70 106 151 194 245 293 377 444
#     4  11  23  41  69 105 140 180 241 300 367 428
#     4  10  22  41  68 104 134 184 232 304 359 421
#     4  12  29  49  71 110 148 206 241 307 366 444
#
# _framework density 23.894886
#
# number of rings (size 3 to 8) (size 9 to 14) (size 15 to 20)
#    0.000    0.667    3.333    4.000    9.333    1.333 
#    0.000    0.000    0.000    0.000    0.000    0.000 
#    0.000    0.000    0.000    0.000    0.000    0.000 
#
# Total GULP energy -134164.387918 kJ/mol
# GULP energy per Si atom -5590.182830 kJ/mol
# Density = 2.384050 g / cm^3
# Si number density = 23.894886 Si / 1000 Ang^3
#
#
#
# Elastic Constant Matrix: (Units=GPa)
#
#
# Indices 1 2 3 4 5 6 
#
# 1 101.3382 63.7958 11.1911 0.0000 0.0000 0.0000
# 2 63.7958 208.5616 39.9480 0.0000 0.0000 0.0000
# 3 11.1911 39.9480 36.2730 0.0000 0.0000 0.0000
# 4 0.0000 0.0000 0.0000 43.5948 0.0000 0.0000
# 5 0.0000 0.0000 0.0000 0.0000 -65.7595 0.0000
# 6 0.0000 0.0000 0.0000 0.0000 0.0000 -0.9290
#
#
#
# Elastic Compliance Matrix: (Units=1/GPa)
#
#
# Indices 1 2 3 4 5 6 
#
# 1 0.012227 -0.003824 0.000439 0.000000 0.000000 0.000000
# 2 -0.003824 0.007273 -0.006830 0.000000 0.000000 0.000000
# 3 0.000439 -0.006830 0.034955 0.000000 0.000000 0.000000
# 4 0.000000 0.000000 0.000000 0.022938 0.000000 0.000000
# 5 0.000000 0.000000 0.000000 0.000000 -0.015207 0.000000
# 6 0.000000 0.000000 0.000000 0.000000 0.000000 -1.076455
#
#
# Mechanical properties :
#
#
# Convention : Reuss Voigt Hill
#
# Bulk Modulus (GPa) = 29.38989 64.00475 46.69732
# Shear Modulus (GPa) = -5.08906 10.79714 2.85404
#
# Velocity S-wave (km/s) = -1.46096 2.12801 1.09408
# Velocity P-wave (km/s) = 3.07904 5.73428 4.60231
#
# Compressibility (1/GPa) = 0.03402531
#
# Stress axis : x y z
#
# Youngs Moduli (GPa) = 81.78708 137.50151 28.60843
#
# Poissons Ratio (x) = 0.52583 -0.01257
# Poissons Ratio (y) = 0.31277 0.19538
# Poissons Ratio (z) = -0.03593 0.93908
#
# Static dielectric constant tensor:
#      x y z
#    x 2.219230 0.000000 0.000000 
#    y 0.000000 1.906050 0.000000 
#    z 0.000000 0.000000 1.955000 
# 
# From -- ./inp_files/5569.got.cif
#   From: 2010.05.17/outbox.cif.g08.bks.cpg/sg36_3_cif.got.tgz:5569.got - 2010.06.03 17:41:39.
