data_PCOD9352712
_publ_section_title
;
Structure prediction by ZEFSAII (Michael W. Deem and Ramdas Pophale) SiO2 
 PCOD9352712
Probable space group: C M C 21
;
_chemical_formula_sum "Si O2"
_cell_formula_units_Z 48
_cell_length_a 19.711963
_cell_length_b 17.288139
_cell_length_c 5.701276
_cell_angle_alpha 90.000000
_cell_angle_beta 90.000000
_cell_angle_gamma 90.000000
_cell_volume 1942.898830
_symmetry_space_group_name_H-M "C M C 21"
_symmetry_group_IT_number 36
_symmetry_cell_setting 'orthorhombic'
loop_
_space_group_symop_operation_xyz
x,y,z
-x,-y,1/2+z
x,-y,1/2+z
-x,y,z
1/2+x,1/2+y,z
1/2-x,1/2-y,1/2+z
1/2+x,1/2-y,1/2+z
1/2-x,1/2+y,z
loop_
_atom_site_type_symbol
_atom_site_label
_atom_site_fract_x
_atom_site_fract_y
_atom_site_fract_z
Si Si1 0.743704 0.959484 0.398260
Si Si2 0.160613 0.812584 0.805957
Si Si3 0.813790 0.320756 0.625276
Si Si4 0.421674 0.809384 0.003077
Si Si5 0.077245 0.527694 0.711064
Si Si6 0.607050 0.485359 0.876704
O O1 0.707423 0.876796 0.410823
O O2 0.574354 0.879759 0.188256
O O3 0.728901 0.000875 0.151417
O O4 0.826024 0.959065 0.391672
O O5 0.240721 0.815994 0.749051
O O6 0.117070 0.764468 0.614041
O O7 0.132547 0.897241 0.854429
O O8 0.159685 0.760926 0.036939
O O9 0.874047 0.344562 0.798457
O O10 0.500000 0.792200 0.933660
O O11 0.105658 0.495698 0.464003
O O12 0.000000 0.496065 0.717619
O O13 0.573067 0.495092 0.129302
#
# Coordination Sequence:
#
# PCOD9352712 Si02
#       6
#     8   8   8   8   8   8
#     4  10  22  39  65 103 146 188 241 307 373 439
#     4  12  26  43  73 106 146 191 248 316 383 457
#     4  12  26  41  72 104 146 190 249 311 380 454
#     4  11  28  48  69 105 152 204 253 312 393 467
#     4   9  20  42  68  95 139 198 250 291 346 440
#     4  10  22  41  69 103 144 183 241 313 384 445
#
# _framework density 24.705354
#
# number of rings (size 3 to 8) (size 9 to 14) (size 15 to 20)
#    0.000    1.333    5.000    0.000   11.667    2.000 
#    0.000    0.000    0.000    1.000    0.000    0.000 
#    0.000    0.000    0.000    0.000    0.000    0.000 
#
# Total GULP energy -134146.424653 kJ/mol
# GULP energy per Si atom -5589.434361 kJ/mol
# Density = 2.464912 g / cm^3
# Si number density = 24.705354 Si / 1000 Ang^3
#
#
#
# Elastic Constant Matrix: (Units=GPa)
#
#
# Indices 1 2 3 4 5 6 
#
# 1 165.0822 32.4228 63.0008 0.0000 0.0000 0.0000
# 2 32.4228 87.1063 14.0466 0.0000 0.0000 0.0000
# 3 63.0008 14.0466 168.0634 0.0000 0.0000 0.0000
# 4 0.0000 0.0000 0.0000 50.2693 0.0000 0.0000
# 5 0.0000 0.0000 0.0000 0.0000 -14.0894 0.0000
# 6 0.0000 0.0000 0.0000 0.0000 0.0000 -5.4038
#
#
#
# Elastic Compliance Matrix: (Units=1/GPa)
#
#
# Indices 1 2 3 4 5 6 
#
# 1 0.007525 -0.002378 -0.002622 0.000000 0.000000 0.000000
# 2 -0.002378 0.012389 -0.000144 0.000000 0.000000 0.000000
# 3 -0.002622 -0.000144 0.006945 0.000000 0.000000 0.000000
# 4 0.000000 0.000000 0.000000 0.019893 0.000000 0.000000
# 5 0.000000 0.000000 0.000000 0.000000 -0.070975 0.000000
# 6 0.000000 0.000000 0.000000 0.000000 0.000000 -0.185053
#
#
# Mechanical properties :
#
#
# Convention : Reuss Voigt Hill
#
# Bulk Modulus (GPa) = 60.34850 71.02137 65.68493
# Shear Modulus (GPa) = -25.84455 26.87399 0.51472
#
# Velocity S-wave (km/s) = -3.23787 3.30173 0.45694
# Velocity P-wave (km/s) = 3.24066 6.58369 5.18878
#
# Compressibility (1/GPa) = 0.01657042
#
# Stress axis : x y z
#
# Youngs Moduli (GPa) = 132.88303 80.71892 143.98558
#
# Poissons Ratio (x) = 0.19197 0.37756
# Poissons Ratio (y) = 0.31603 0.02072
# Poissons Ratio (z) = 0.34845 0.01162
#
# Static dielectric constant tensor:
#      x y z
#    x 2.032900 0.000000 0.000000 
#    y 0.000000 2.076190 0.000000 
#    z 0.000000 0.000000 2.002130 
# 
# From -- ./inp_files/1356.got.cif
#   From: 2010.05.17/outbox.cif.g08.bks.cpg/sg36_1_cif.got.tgz:1356.got - 2010.06.03 17:41:39.
