data_PCOD9352877
_publ_section_title
;
Structure prediction by ZEFSAII (Michael W. Deem and Ramdas Pophale) SiO2 
 PCOD9352877
Probable space group: C M C 21
;
_chemical_formula_sum "Si O2"
_cell_formula_units_Z 36
_cell_length_a 7.830795
_cell_length_b 10.583457
_cell_length_c 17.321112
_cell_angle_alpha 90.000000
_cell_angle_beta 90.000000
_cell_angle_gamma 90.000000
_cell_volume 1435.519758
_symmetry_space_group_name_H-M "C M C 21"
_symmetry_group_IT_number 36
_symmetry_cell_setting 'orthorhombic'
loop_
_space_group_symop_operation_xyz
x,y,z
-x,-y,1/2+z
x,-y,1/2+z
-x,y,z
1/2+x,1/2+y,z
1/2-x,1/2-y,1/2+z
1/2+x,1/2-y,1/2+z
1/2-x,1/2+y,z
loop_
_atom_site_type_symbol
_atom_site_label
_atom_site_fract_x
_atom_site_fract_y
_atom_site_fract_z
Si Si1 0.500000 0.000000 0.334230
Si Si2 0.307767 0.104196 0.492057
Si Si3 0.692233 0.104195 0.676403
Si Si4 0.809374 0.866617 0.759095
Si Si5 0.190626 0.866618 0.409365
O O1 0.344277 0.893968 0.351567
O O2 0.344277 0.106033 0.316894
O O3 0.500000 0.066247 0.460652
O O4 0.313338 0.109506 0.584230
O O5 0.271733 0.242845 0.460313
O O6 0.193282 0.989554 0.464804
O O7 0.500000 0.066247 0.707807
O O8 0.728268 0.242844 0.708147
O O9 0.806717 0.989553 0.703656
O O10 0.000000 0.859057 0.792697
O O11 0.000000 0.859058 0.375762
#
# Coordination Sequence:
#
# PCOD9352877 Si02
#       5
#     4   8   8   8   8
#     4  12  26  48  66  96 144 184 226 268 332 414
#     4  10  22  44  71 102 136 172 226 284 339 396
#     4  10  22  44  71 102 136 172 226 284 339 396
#     4  11  25  45  68 102 134 181 226 276 337 398
#     4  11  25  45  68 102 134 181 226 276 337 398
#
# _framework density 25.078025
#
# number of rings (size 3 to 8) (size 9 to 14) (size 15 to 20)
#    0.000    1.333    2.222    2.000    3.111    4.444 
#    0.000    0.000    0.000    0.000    0.000    0.000 
#    0.000    0.000    0.000    0.000    0.000    0.000 
#
# Total GULP energy -100500.534406 kJ/mol
# GULP energy per Si atom -5583.363023 kJ/mol
# Density = 2.502095 g / cm^3
# Si number density = 25.078025 Si / 1000 Ang^3
#
#
#
# Elastic Constant Matrix: (Units=GPa)
#
#
# Indices 1 2 3 4 5 6 
#
# 1 196.1023 74.1800 71.2453 0.0000 0.0000 0.0000
# 2 74.1800 211.9042 54.8090 0.0000 0.0000 0.0000
# 3 71.2453 54.8090 93.7921 0.0000 0.0000 0.0000
# 4 0.0000 0.0000 0.0000 52.4775 0.0000 0.0000
# 5 0.0000 0.0000 0.0000 0.0000 34.1722 0.0000
# 6 0.0000 0.0000 0.0000 0.0000 0.0000 43.9613
#
#
#
# Elastic Compliance Matrix: (Units=1/GPa)
#
#
# Indices 1 2 3 4 5 6 
#
# 1 0.007348 -0.001330 -0.004805 0.000000 0.000000 0.000000
# 2 -0.001330 0.005800 -0.002379 0.000000 0.000000 0.000000
# 3 -0.004805 -0.002379 0.015702 0.000000 0.000000 0.000000
# 4 0.000000 0.000000 0.000000 0.019056 0.000000 0.000000
# 5 0.000000 0.000000 0.000000 0.000000 0.029264 0.000000
# 6 0.000000 0.000000 0.000000 0.000000 0.000000 0.022747
#
#
# Mechanical properties :
#
#
# Convention : Reuss Voigt Hill
#
# Bulk Modulus (GPa) = 84.58257 100.25190 92.41724
# Shear Modulus (GPa) = 41.36192 46.22649 43.79420
#
# Velocity S-wave (km/s) = 4.06560 4.29803 4.18343
# Velocity P-wave (km/s) = 7.47260 8.04323 7.76316
#
# Compressibility (1/GPa) = 0.01182277
#
# Stress axis : x y z
#
# Youngs Moduli (GPa) = 136.09473 172.41507 63.68660
#
# Poissons Ratio (x) = 0.22923 0.30599
# Poissons Ratio (y) = 0.18094 0.15154
# Poissons Ratio (z) = 0.65387 0.41024
#
# Static dielectric constant tensor:
#      x y z
#    x 1.956990 0.000000 0.000000 
#    y 0.000000 1.959310 0.000000 
#    z 0.000000 0.000000 1.400240 
# 
# From -- ./inp_files/15266.got.cif
#   From: 2010.05.17/outbox.cif.g08.bks.cpg/sg36_8_cif.got.tgz:15266.got - 2010.06.03 17:41:39.
