data_PCOD9352049
_publ_section_title
;
Structure prediction by ZEFSAII (Michael W. Deem and Ramdas Pophale) SiO2 
 PCOD9352049
Probable space group: C M C 21
;
_chemical_formula_sum "Si O2"
_cell_formula_units_Z 40
_cell_length_a 10.844286
_cell_length_b 17.316655
_cell_length_c 10.589577
_cell_angle_alpha 90.000000
_cell_angle_beta 90.000000
_cell_angle_gamma 90.000000
_cell_volume 1988.582348
_symmetry_space_group_name_H-M "C M C 21"
_symmetry_group_IT_number 36
_symmetry_cell_setting 'orthorhombic'
loop_
_space_group_symop_operation_xyz
x,y,z
-x,-y,1/2+z
x,-y,1/2+z
-x,y,z
1/2+x,1/2+y,z
1/2-x,1/2-y,1/2+z
1/2+x,1/2-y,1/2+z
1/2-x,1/2+y,z
loop_
_atom_site_type_symbol
_atom_site_label
_atom_site_fract_x
_atom_site_fract_y
_atom_site_fract_z
Si Si1 0.356842 0.178231 0.262390
Si Si2 0.247334 0.345499 0.278559
Si Si3 0.271876 0.903371 0.008757
Si Si4 0.500000 0.442233 0.274862
Si Si5 0.000000 0.069039 0.491602
Si Si6 0.645156 0.076966 0.022170
O O1 0.500000 0.199252 0.239168
O O2 0.276832 0.255271 0.272465
O O3 0.345780 0.131941 0.392916
O O4 0.315819 0.123614 0.147031
O O5 0.377868 0.390707 0.290456
O O6 0.169252 0.371421 0.398970
O O7 0.189757 0.372275 0.145615
O O8 0.127070 0.883568 0.988961
O O9 0.284976 0.995844 0.009239
O O10 0.500000 0.509915 0.376373
O O11 0.500000 0.471226 0.129795
O O12 0.500000 0.059513 0.033992
#
# Coordination Sequence:
#
# PCOD9352049 Si02
#       6
#     8   8   8   4   4   8
#     4  11  24  42  63  90 126 164 202 255 313 366
#     4  11  22  42  63  90 127 162 203 252 307 370
#     4  11  23  40  65  92 123 163 209 252 307 367
#     4  10  20  38  64  90 122 156 202 254 304 362
#     4  10  22  36  64  94 118 154 206 258 300 358
#     4  11  24  41  65  92 125 162 207 256 306 365
#
# _framework density 20.114832
#
# number of rings (size 3 to 8) (size 9 to 14) (size 15 to 20)
#    0.000    1.200    3.000    3.000    2.800    3.200 
#    1.800    0.000    0.000    0.000    0.000    0.000 
#    0.000    0.000    0.000    0.000    0.000    0.000 
#
# Total GULP energy -111803.510724 kJ/mol
# GULP energy per Si atom -5590.175536 kJ/mol
# Density = 2.006905 g / cm^3
# Si number density = 20.114832 Si / 1000 Ang^3
#
#
#
# Elastic Constant Matrix: (Units=GPa)
#
#
# Indices 1 2 3 4 5 6 
#
# 1 33.5476 -9.8635 -2.2051 0.0000 0.0000 0.0000
# 2 -9.8635 92.0421 42.3415 0.0000 0.0000 0.0000
# 3 -2.2051 42.3415 139.2489 0.0000 0.0000 0.0000
# 4 0.0000 0.0000 0.0000 27.7491 0.0000 0.0000
# 5 0.0000 0.0000 0.0000 0.0000 5.3337 0.0000
# 6 0.0000 0.0000 0.0000 0.0000 0.0000 42.2352
#
#
#
# Elastic Compliance Matrix: (Units=1/GPa)
#
#
# Indices 1 2 3 4 5 6 
#
# 1 0.030821 0.003579 -0.000600 0.000000 0.000000 0.000000
# 2 0.003579 0.013047 -0.003911 0.000000 0.000000 0.000000
# 3 -0.000600 -0.003911 0.008361 0.000000 0.000000 0.000000
# 4 0.000000 0.000000 0.000000 0.036037 0.000000 0.000000
# 5 0.000000 0.000000 0.000000 0.000000 0.187486 0.000000
# 6 0.000000 0.000000 0.000000 0.000000 0.000000 0.023677
#
#
# Mechanical properties :
#
#
# Convention : Reuss Voigt Hill
#
# Bulk Modulus (GPa) = 19.85476 36.15384 28.00430
# Shear Modulus (GPa) = 15.71925 30.70132 23.21028
#
# Velocity S-wave (km/s) = 2.79852 3.91103 3.40058
# Velocity P-wave (km/s) = 4.50937 6.19739 5.41950
#
# Compressibility (1/GPa) = 0.05036575
#
# Stress axis : x y z
#
# Youngs Moduli (GPa) = 32.44515 76.64556 119.60336
#
# Poissons Ratio (x) = -0.27431 0.07179
# Poissons Ratio (y) = -0.11612 0.46772
# Poissons Ratio (z) = 0.01947 0.29973
#
# Static dielectric constant tensor:
#      x y z
#    x 1.713170 0.000000 0.000000 
#    y 0.000000 1.666310 0.000000 
#    z 0.000000 0.000000 1.692640 
# 
# From -- ./inp_files/3072.got.cif
#   From: 2010.05.17/outbox.cif.g08.bks.cpg/sg36_2_cif.got.tgz:3072.got - 2010.06.03 17:41:39.
