data_PCOD9352683
_publ_section_title
;
Structure prediction by ZEFSAII (Michael W. Deem and Ramdas Pophale) SiO2 
 PCOD9352683
Probable space group: C M C 21
;
_chemical_formula_sum "Si O2"
_cell_formula_units_Z 48
_cell_length_a 18.247153
_cell_length_b 13.973768
_cell_length_c 8.510354
_cell_angle_alpha 90.000000
_cell_angle_beta 90.000000
_cell_angle_gamma 90.000000
_cell_volume 2169.982681
_symmetry_space_group_name_H-M "C M C 21"
_symmetry_group_IT_number 36
_symmetry_cell_setting 'orthorhombic'
loop_
_space_group_symop_operation_xyz
x,y,z
-x,-y,1/2+z
x,-y,1/2+z
-x,y,z
1/2+x,1/2+y,z
1/2-x,1/2-y,1/2+z
1/2+x,1/2-y,1/2+z
1/2-x,1/2+y,z
loop_
_atom_site_type_symbol
_atom_site_label
_atom_site_fract_x
_atom_site_fract_y
_atom_site_fract_z
Si Si1 0.794927 0.547813 0.682630
Si Si2 0.821496 0.328700 0.642597
Si Si3 0.804200 0.821292 0.406144
Si Si4 0.416171 0.389952 0.813505
Si Si5 0.651100 0.500990 0.552941
Si Si6 0.587141 0.830213 0.323840
O O1 0.809001 0.435432 0.708119
O O2 0.750792 0.612289 0.806123
O O3 0.734284 0.540523 0.543175
O O4 0.872877 0.601165 0.697279
O O5 0.834379 0.259108 0.790177
O O6 0.747637 0.290749 0.552512
O O7 0.880978 0.339105 0.502222
O O8 0.861812 0.898146 0.470468
O O9 0.500000 0.406669 0.769457
O O10 0.364120 0.466120 0.729187
O O11 0.397426 0.280563 0.781874
O O12 0.402356 0.416534 0.995073
O O13 0.500000 0.844896 0.324567
#
# Coordination Sequence:
#
# PCOD9352683 Si02
#       6
#     8   8   8   8   8   8
#     4  10  22  39  64  96 130 175 220 273 322 386
#     4  10  23  39  64  97 132 173 222 276 341 392
#     4  10  22  38  63  97 131 164 218 287 328 396
#     4  11  24  44  67  95 137 177 219 278 346 411
#     4  11  22  42  64 101 133 170 223 274 342 403
#     4  10  24  44  66  96 136 181 226 278 338 400
#
# _framework density 22.119993999999998
#
# number of rings (size 3 to 8) (size 9 to 14) (size 15 to 20)
#    0.000    1.667    1.667    1.500    9.333    4.667 
#    0.000    0.833    0.000    0.000    0.000    0.000 
#    0.000    0.000    0.000    0.000    0.000    0.000 
#
# Total GULP energy -133695.795266 kJ/mol
# GULP energy per Si atom -5570.658136 kJ/mol
# Density = 2.206965 g / cm^3
# Si number density = 22.119994 Si / 1000 Ang^3
#
#
#
# Elastic Constant Matrix: (Units=GPa)
#
#
# Indices 1 2 3 4 5 6 
#
# 1 87.6080 42.4813 20.6320 0.0000 0.0000 0.0000
# 2 42.4813 101.6476 41.9496 0.0000 0.0000 0.0000
# 3 20.6320 41.9496 43.6221 0.0000 0.0000 0.0000
# 4 0.0000 0.0000 0.0000 46.3249 0.0000 0.0000
# 5 0.0000 0.0000 0.0000 0.0000 25.5903 0.0000
# 6 0.0000 0.0000 0.0000 0.0000 0.0000 27.6649
#
#
#
# Elastic Compliance Matrix: (Units=1/GPa)
#
#
# Indices 1 2 3 4 5 6 
#
# 1 0.014391 -0.005315 -0.001696 0.000000 0.000000 0.000000
# 2 -0.005315 0.018274 -0.015060 0.000000 0.000000 0.000000
# 3 -0.001696 -0.015060 0.038209 0.000000 0.000000 0.000000
# 4 0.000000 0.000000 0.000000 0.021587 0.000000 0.000000
# 5 0.000000 0.000000 0.000000 0.000000 0.039077 0.000000
# 6 0.000000 0.000000 0.000000 0.000000 0.000000 0.036147
#
#
# Mechanical properties :
#
#
# Convention : Reuss Voigt Hill
#
# Bulk Modulus (GPa) = 37.40635 49.22260 43.31447
# Shear Modulus (GPa) = 22.65150 28.43700 25.54425
#
# Velocity S-wave (km/s) = 3.20352 3.58939 3.40193
# Velocity P-wave (km/s) = 5.53450 6.28324 5.92072
#
# Compressibility (1/GPa) = 0.02673343
#
# Stress axis : x y z
#
# Youngs Moduli (GPa) = 69.48860 54.72214 26.17209
#
# Poissons Ratio (x) = 0.29082 0.04438
# Poissons Ratio (y) = 0.36930 0.39415
# Poissons Ratio (z) = 0.11783 0.82411
#
# Static dielectric constant tensor:
#      x y z
#    x 1.827240 0.000000 0.000000 
#    y 0.000000 1.808270 0.000000 
#    z 0.000000 0.000000 1.956420 
# 
# From -- ./inp_files/5131.got.cif
#   From: 2010.05.17/outbox.cif.g08.bks.cpg/sg36_3_cif.got.tgz:5131.got - 2010.06.03 17:41:39.
