data_PCOD9352908
_publ_section_title
;
Structure prediction by ZEFSAII (Michael W. Deem and Ramdas Pophale) SiO2 
 PCOD9352908
Probable space group: C M C 21
;
_chemical_formula_sum "Si O2"
_cell_formula_units_Z 64
_cell_length_a 15.765855
_cell_length_b 22.556271
_cell_length_c 8.271685
_cell_angle_alpha 90.000000
_cell_angle_beta 90.000000
_cell_angle_gamma 90.000000
_cell_volume 2941.567504
_symmetry_space_group_name_H-M "C M C 21"
_symmetry_group_IT_number 36
_symmetry_cell_setting 'orthorhombic'
loop_
_space_group_symop_operation_xyz
x,y,z
-x,-y,1/2+z
x,-y,1/2+z
-x,y,z
1/2+x,1/2+y,z
1/2-x,1/2-y,1/2+z
1/2+x,1/2-y,1/2+z
1/2-x,1/2+y,z
loop_
_atom_site_type_symbol
_atom_site_label
_atom_site_fract_x
_atom_site_fract_y
_atom_site_fract_z
Si Si1 0.907563 0.249765 0.827710
Si Si2 0.905482 0.362390 0.027534
Si Si3 0.228868 0.964217 0.348206
Si Si4 0.400205 0.680890 0.362346
Si Si5 0.846486 0.146118 0.003420
Si Si6 0.337456 0.797615 0.519622
Si Si7 0.726439 0.586078 0.486082
Si Si8 0.093169 0.411117 0.393078
O O1 0.839742 0.268353 0.695587
O O2 0.000000 0.261899 0.753846
O O3 0.899409 0.292738 0.983285
O O4 0.902966 0.181994 0.877395
O O5 0.822146 0.391687 0.951092
O O6 0.901721 0.379319 0.216633
O O7 0.000000 0.381531 0.970813
O O8 0.170565 0.921524 0.457336
O O9 0.224285 0.940678 0.165982
O O10 0.326905 0.954774 0.405092
O O11 0.205436 0.032403 0.366174
O O12 0.500000 0.675439 0.397892
O O13 0.381810 0.659184 0.180455
O O14 0.371337 0.748290 0.396210
O O15 0.339746 0.639228 0.470075
O O16 0.755854 0.178955 0.983240
O O17 0.394150 0.856851 0.515985
O O18 0.000000 0.438560 0.410390
#
# Coordination Sequence:
#
# PCOD9352908 Si02
#       8
#     8   8   8   8   8   8   8   8
#     4  11  21  34  54  85 117 146 182 229 281 342
#     4   9  19  35  59  88 121 158 194 234 292 360
#     4  10  23  39  62  84 112 154 201 249 301 353
#     4  12  25  41  62  89 120 160 203 244 292 350
#     4  11  22  39  60  85 114 153 195 240 292 346
#     4  11  21  35  58  88 121 152 186 236 294 351
#     4  11  22  42  61  84 117 154 199 253 299 348
#     4   9  18  35  57  87 122 155 190 235 293 362
#
# _framework density 21.757106
#
# number of rings (size 3 to 8) (size 9 to 14) (size 15 to 20)
#    0.000    1.500    0.000    6.000    0.000    4.500 
#    0.000    3.750    0.000    0.000    0.000    0.000 
#    0.000    0.000    0.000    0.000    0.000    0.000 
#
# Total GULP energy -178851.782853 kJ/mol
# GULP energy per Si atom -5589.118214 kJ/mol
# Density = 2.170759 g / cm^3
# Si number density = 21.757106 Si / 1000 Ang^3
#
#
#
# Elastic Constant Matrix: (Units=GPa)
#
#
# Indices 1 2 3 4 5 6 
#
# 1 91.1065 22.9314 -1.3070 0.0000 0.0000 0.0000
# 2 22.9314 62.2826 -10.6923 0.0000 0.0000 0.0000
# 3 -1.3070 -10.6923 37.0931 0.0000 0.0000 0.0000
# 4 0.0000 0.0000 0.0000 31.0536 0.0000 0.0000
# 5 0.0000 0.0000 0.0000 0.0000 26.5719 0.0000
# 6 0.0000 0.0000 0.0000 0.0000 0.0000 14.3667
#
#
#
# Elastic Compliance Matrix: (Units=1/GPa)
#
#
# Indices 1 2 3 4 5 6 
#
# 1 0.012126 -0.004620 -0.000904 0.000000 0.000000 0.000000
# 2 -0.004620 0.018652 0.005214 0.000000 0.000000 0.000000
# 3 -0.000904 0.005214 0.028430 0.000000 0.000000 0.000000
# 4 0.000000 0.000000 0.000000 0.032202 0.000000 0.000000
# 5 0.000000 0.000000 0.000000 0.000000 0.037634 0.000000
# 6 0.000000 0.000000 0.000000 0.000000 0.000000 0.069605
#
#
# Mechanical properties :
#
#
# Convention : Reuss Voigt Hill
#
# Bulk Modulus (GPa) = 17.06864 23.59405 20.33135
# Shear Modulus (GPa) = 22.85197 26.36846 24.61021
#
# Velocity S-wave (km/s) = 3.24438 3.48508 3.36688
# Velocity P-wave (km/s) = 4.67940 5.20214 4.94768
#
# Compressibility (1/GPa) = 0.05858696
#
# Stress axis : x y z
#
# Youngs Moduli (GPa) = 82.46740 53.61395 35.17384
#
# Poissons Ratio (x) = 0.24769 0.03181
# Poissons Ratio (y) = 0.38099 -0.18339
# Poissons Ratio (z) = 0.07459 -0.27953
#
# Static dielectric constant tensor:
#      x y z
#    x 1.816960 0.000000 0.000000 
#    y 0.000000 1.755610 0.000000 
#    z 0.000000 0.000000 1.805640 
# 
# From -- ./inp_files/4329.got.cif
#   From: 2010.05.17/outbox.cif.g08.bks.cpg/sg36_3_cif.got.tgz:4329.got - 2010.06.03 17:41:39.
