data_PCOD9352470
_publ_section_title
;
Structure prediction by ZEFSAII (Michael W. Deem and Ramdas Pophale) SiO2 
 PCOD9352470
Probable space group: C M C 21
;
_chemical_formula_sum "Si O2"
_cell_formula_units_Z 64
_cell_length_a 9.281268
_cell_length_b 22.923799
_cell_length_c 16.178799
_cell_angle_alpha 90.000000
_cell_angle_beta 90.000000
_cell_angle_gamma 90.000000
_cell_volume 3442.232372
_symmetry_space_group_name_H-M "C M C 21"
_symmetry_group_IT_number 36
_symmetry_cell_setting 'orthorhombic'
loop_
_space_group_symop_operation_xyz
x,y,z
-x,-y,1/2+z
x,-y,1/2+z
-x,y,z
1/2+x,1/2+y,z
1/2-x,1/2-y,1/2+z
1/2+x,1/2-y,1/2+z
1/2-x,1/2+y,z
loop_
_atom_site_type_symbol
_atom_site_label
_atom_site_fract_x
_atom_site_fract_y
_atom_site_fract_z
Si Si1 0.826567 0.468860 0.501840
Si Si2 0.668969 0.330478 0.123247
Si Si3 0.670149 0.221014 0.466004
Si Si4 0.327058 0.533903 0.655371
Si Si5 0.163587 0.331875 0.504446
Si Si6 0.838587 0.710994 0.193849
Si Si7 0.169062 0.987303 0.837148
Si Si8 0.335060 0.348096 0.828001
O O1 0.754630 0.500687 0.581067
O O2 0.795264 0.399533 0.503720
O O3 0.761265 0.492571 0.415867
O O4 0.000000 0.476578 0.504678
O O5 0.500000 0.327398 0.097356
O O6 0.767251 0.309570 0.048106
O O7 0.699161 0.396650 0.148366
O O8 0.685643 0.280709 0.193016
O O9 0.500000 0.222711 0.468602
O O10 0.733257 0.286351 0.459316
O O11 0.730018 0.182420 0.392136
O O12 0.500000 0.524096 0.646086
O O13 0.286044 0.512633 0.747565
O O14 0.161110 0.310083 0.599232
O O15 0.000000 0.326585 0.471968
O O16 0.715704 0.676393 0.240478
O O17 0.000000 0.699213 0.227406
O O18 0.177816 0.917481 0.831345
O O19 0.000000 0.003123 0.850152
O O20 0.500000 0.332460 0.846545
#
# Coordination Sequence:
#
# PCOD9352470 Si02
#       8
#     8   8   8   8   8   8   8   8
#     4  11  23  38  60  89 119 152 190 238 292 341
#     4   9  19  37  58  81 113 148 181 225 284 337
#     4  11  22  35  56  83 108 141 188 234 275 332
#     4  10  21  39  62  85 115 157 198 235 280 339
#     4   9  20  39  58  80 113 147 179 223 286 344
#     4   9  18  34  56  80 107 141 183 230 279 335
#     4  10  23  40  58  84 117 156 199 237 279 342
#     4  11  22  36  54  78 112 148 184 230 283 332
#
# _framework density 18.592587000000002
#
# number of rings (size 3 to 8) (size 9 to 14) (size 15 to 20)
#    0.000    2.000    0.000    4.125    0.000    9.000 
#    0.000    1.250    0.000    0.000    0.000    0.000 
#    0.000    0.000    0.000    0.000    0.000    0.000 
#
# Total GULP energy -178594.384886 kJ/mol
# GULP energy per Si atom -5581.074528 kJ/mol
# Density = 1.855027 g / cm^3
# Si number density = 18.592587 Si / 1000 Ang^3
#
#
#
# Elastic Constant Matrix: (Units=GPa)
#
#
# Indices 1 2 3 4 5 6 
#
# 1 76.5401 60.3127 39.3190 0.0000 0.0000 0.0000
# 2 60.3127 121.8098 43.1759 0.0000 0.0000 0.0000
# 3 39.3190 43.1759 81.5793 0.0000 0.0000 0.0000
# 4 0.0000 0.0000 0.0000 26.3644 0.0000 0.0000
# 5 0.0000 0.0000 0.0000 0.0000 12.2084 0.0000
# 6 0.0000 0.0000 0.0000 0.0000 0.0000 10.3066
#
#
#
# Elastic Compliance Matrix: (Units=1/GPa)
#
#
# Indices 1 2 3 4 5 6 
#
# 1 0.023912 -0.009545 -0.006473 0.000000 0.000000 0.000000
# 2 -0.009545 0.013916 -0.002764 0.000000 0.000000 0.000000
# 3 -0.006473 -0.002764 0.016841 0.000000 0.000000 0.000000
# 4 0.000000 0.000000 0.000000 0.037930 0.000000 0.000000
# 5 0.000000 0.000000 0.000000 0.000000 0.081911 0.000000
# 6 0.000000 0.000000 0.000000 0.000000 0.000000 0.097026
#
#
# Mechanical properties :
#
#
# Convention : Reuss Voigt Hill
#
# Bulk Modulus (GPa) = 58.46887 62.83827 60.65357
# Shear Modulus (GPa) = 15.88308 18.91731 17.40019
#
# Velocity S-wave (km/s) = 2.92596 3.19323 3.06251
# Velocity P-wave (km/s) = 6.55215 6.88959 6.72299
#
# Compressibility (1/GPa) = 0.01710312
#
# Stress axis : x y z
#
# Youngs Moduli (GPa) = 41.82027 71.86198 59.37959
#
# Poissons Ratio (x) = 0.68594 0.38436
# Poissons Ratio (y) = 0.39919 0.16414
# Poissons Ratio (z) = 0.27070 0.19864
#
# Static dielectric constant tensor:
#      x y z
#    x 1.649090 0.000000 0.000000 
#    y 0.000000 1.634150 0.000000 
#    z 0.000000 0.000000 1.651680 
# 
# From -- ./inp_files/10982.got.cif
#   From: 2010.05.17/outbox.cif.g08.bks.cpg/sg36_6_cif.got.tgz:10982.got - 2010.06.03 17:41:39.
