data_PCOD9352471
_publ_section_title
;
Structure prediction by ZEFSAII (Michael W. Deem and Ramdas Pophale) SiO2 
 PCOD9352471
Probable space group: C M C 21
;
_chemical_formula_sum "Si O2"
_cell_formula_units_Z 48
_cell_length_a 8.123208
_cell_length_b 24.494312
_cell_length_c 12.186689
_cell_angle_alpha 90.000000
_cell_angle_beta 90.000000
_cell_angle_gamma 90.000000
_cell_volume 2424.814651
_symmetry_space_group_name_H-M "C M C 21"
_symmetry_group_IT_number 36
_symmetry_cell_setting 'orthorhombic'
loop_
_space_group_symop_operation_xyz
x,y,z
-x,-y,1/2+z
x,-y,1/2+z
-x,y,z
1/2+x,1/2+y,z
1/2-x,1/2-y,1/2+z
1/2+x,1/2-y,1/2+z
1/2-x,1/2+y,z
loop_
_atom_site_type_symbol
_atom_site_label
_atom_site_fract_x
_atom_site_fract_y
_atom_site_fract_z
Si Si1 0.700793 0.612734 0.336520
Si Si2 0.190277 0.351017 0.505756
Si Si3 0.199143 0.956129 0.627556
Si Si4 0.307765 0.717831 0.203917
Si Si5 0.692573 0.335117 0.261824
Si Si6 0.201697 0.920738 0.078908
O O1 0.500000 0.613168 0.336763
O O2 0.751198 0.567909 0.245859
O O3 0.752033 0.671843 0.290401
O O4 0.756405 0.598588 0.458493
O O5 0.241239 0.412422 0.538219
O O6 0.289419 0.310342 0.585288
O O7 0.220452 0.339801 0.378736
O O8 0.000000 0.343108 0.533069
O O9 0.000000 0.955842 0.625626
O O10 0.254488 0.017513 0.604491
O O11 0.500000 0.728466 0.225573
O O12 0.214436 0.774461 0.214670
O O13 0.500000 0.346270 0.280684
O O14 0.754929 0.378941 0.173228
O O15 0.000000 0.920295 0.077811
#
# Coordination Sequence:
#
# PCOD9352471 Si02
#       6
#     8   8   8   8   8   8
#     4   8  16  32  55  84 114 146 185 233 290 348
#     4  11  23  40  60  83 118 160 198 243 296 349
#     4   9  18  35  61  87 113 148 194 242 292 352
#     4  10  21  39  62  86 117 155 195 244 299 355
#     4  11  23  37  59  91 121 154 198 243 294 357
#     4   9  19  33  57  89 117 149 190 239 291 357
#
# _framework density 19.795325999999999
#
# number of rings (size 3 to 8) (size 9 to 14) (size 15 to 20)
#    0.000    2.333    0.000    3.500    4.667    0.000 
#    0.000    1.667    0.000    2.000    0.000    0.000 
#    0.000    0.000    0.000    0.000    0.000    0.000 
#
# Total GULP energy -134017.689586 kJ/mol
# GULP energy per Si atom -5584.070399 kJ/mol
# Density = 1.975027 g / cm^3
# Si number density = 19.795326 Si / 1000 Ang^3
#
#
#
# Elastic Constant Matrix: (Units=GPa)
#
#
# Indices 1 2 3 4 5 6 
#
# 1 21.2095 -6.4777 -8.0214 0.0000 0.0000 0.0000
# 2 -6.4777 131.5543 60.1024 0.0000 0.0000 0.0000
# 3 -8.0214 60.1024 104.9194 0.0000 0.0000 0.0000
# 4 0.0000 0.0000 0.0000 12.1490 0.0000 0.0000
# 5 0.0000 0.0000 0.0000 0.0000 11.6729 0.0000
# 6 0.0000 0.0000 0.0000 0.0000 0.0000 20.1562
#
#
#
# Elastic Compliance Matrix: (Units=1/GPa)
#
#
# Indices 1 2 3 4 5 6 
#
# 1 0.048639 0.000943 0.003178 0.000000 0.000000 0.000000
# 2 0.000943 0.010314 -0.005836 0.000000 0.000000 0.000000
# 3 0.003178 -0.005836 0.013117 0.000000 0.000000 0.000000
# 4 0.000000 0.000000 0.000000 0.082311 0.000000 0.000000
# 5 0.000000 0.000000 0.000000 0.000000 0.085669 0.000000
# 6 0.000000 0.000000 0.000000 0.000000 0.000000 0.049612
#
#
# Mechanical properties :
#
#
# Convention : Reuss Voigt Hill
#
# Bulk Modulus (GPa) = 14.56868 38.76553 26.66710
# Shear Modulus (GPa) = 15.82413 22.93428 19.37921
#
# Velocity S-wave (km/s) = 2.83041 3.40747 3.13226
# Velocity P-wave (km/s) = 4.24938 5.92510 5.15578
#
# Compressibility (1/GPa) = 0.06864039
#
# Stress axis : x y z
#
# Youngs Moduli (GPa) = 20.55973 96.95287 76.23415
#
# Poissons Ratio (x) = -0.09141 -0.24231
# Poissons Ratio (y) = -0.01938 0.44493
# Poissons Ratio (z) = -0.06535 0.56586
#
# Static dielectric constant tensor:
#      x y z
#    x 1.692820 0.000000 0.000000 
#    y 0.000000 1.666240 0.000000 
#    z 0.000000 0.000000 1.667790 
# 
# From -- ./inp_files/6719.got.cif
#   From: 2010.05.17/outbox.cif.g08.bks.cpg/sg36_4_cif.got.tgz:6719.got - 2010.06.03 17:41:39.
