data_PCOD9352708
_publ_section_title
;
Structure prediction by ZEFSAII (Michael W. Deem and Ramdas Pophale) SiO2 
 PCOD9352708
Probable space group: C M C 21
;
_chemical_formula_sum "Si O2"
_cell_formula_units_Z 64
_cell_length_a 7.809794
_cell_length_b 31.419283
_cell_length_c 12.298415
_cell_angle_alpha 90.000000
_cell_angle_beta 90.000000
_cell_angle_gamma 90.000000
_cell_volume 3017.762048
_symmetry_space_group_name_H-M "C M C 21"
_symmetry_group_IT_number 36
_symmetry_cell_setting 'orthorhombic'
loop_
_space_group_symop_operation_xyz
x,y,z
-x,-y,1/2+z
x,-y,1/2+z
-x,y,z
1/2+x,1/2+y,z
1/2-x,1/2-y,1/2+z
1/2+x,1/2-y,1/2+z
1/2-x,1/2+y,z
loop_
_atom_site_type_symbol
_atom_site_label
_atom_site_fract_x
_atom_site_fract_y
_atom_site_fract_z
Si Si1 0.792637 0.052372 0.866080
Si Si2 0.209123 0.328350 0.131498
Si Si3 0.703576 0.213042 0.415630
Si Si4 0.198784 0.307255 0.369839
Si Si5 0.698702 0.458245 0.903783
Si Si6 0.201638 0.877110 0.536177
Si Si7 0.708229 0.627427 0.284785
Si Si8 0.203598 0.423408 0.121766
O O1 0.728594 0.084924 0.959110
O O2 0.747267 0.068600 0.746506
O O3 0.000000 0.051448 0.874940
O O4 0.725453 0.004142 0.875262
O O5 0.272962 0.320579 0.252903
O O6 0.258933 0.375426 0.095116
O O7 0.000000 0.326845 0.134706
O O8 0.265074 0.296214 0.038465
O O9 0.500000 0.219975 0.417914
O O10 0.785956 0.256608 0.376212
O O11 0.736989 0.171025 0.343866
O O12 0.279481 0.333246 0.469143
O O13 0.000000 0.319655 0.371248
O O14 0.500000 0.459606 0.870261
O O15 0.769755 0.415355 0.847499
O O16 0.710511 0.453441 0.033575
O O17 0.268998 0.874100 0.659193
O O18 0.000000 0.885686 0.548389
O O19 0.500000 0.627702 0.286881
O O20 0.000000 0.426736 0.107735
#
# Coordination Sequence:
#
# PCOD9352708 Si02
#       8
#     8   8   8   8   8   8   8   8
#     4  10  22  39  63  91 121 158 203 251 298 352
#     4   9  20  39  61  82 117 156 189 242 301 348
#     4  11  23  41  62  88 119 156 199 245 299 356
#     4  11  23  41  62  88 119 156 199 245 299 356
#     4  10  22  39  63  91 121 158 203 251 298 352
#     4  10  22  40  60  86 121 160 199 245 300 354
#     4  10  22  40  60  86 121 160 199 245 300 354
#     4  11  21  39  63  88 121 158 199 248 303 358
#
# _framework density 21.207768999999999
#
# number of rings (size 3 to 8) (size 9 to 14) (size 15 to 20)
#    0.000    1.750    2.500    1.125    3.500    1.000 
#    0.000    1.875    0.000    0.000    0.000    0.000 
#    0.000    0.000    0.000    0.000    0.000    0.000 
#
# Total GULP energy -178697.023017 kJ/mol
# GULP energy per Si atom -5584.281969 kJ/mol
# Density = 2.115950 g / cm^3
# Si number density = 21.207769 Si / 1000 Ang^3
#
#
#
# Elastic Constant Matrix: (Units=GPa)
#
#
# Indices 1 2 3 4 5 6 
#
# 1 29.6935 -7.7917 -7.7870 0.0000 0.0000 0.0000
# 2 -7.7917 102.0877 24.0346 0.0000 0.0000 0.0000
# 3 -7.7870 24.0346 113.2383 0.0000 0.0000 0.0000
# 4 0.0000 0.0000 0.0000 28.8277 0.0000 0.0000
# 5 0.0000 0.0000 0.0000 0.0000 17.9632 0.0000
# 6 0.0000 0.0000 0.0000 0.0000 0.0000 16.4179
#
#
#
# Elastic Compliance Matrix: (Units=1/GPa)
#
#
# Indices 1 2 3 4 5 6 
#
# 1 0.034759 0.002200 0.001923 0.000000 0.000000 0.000000
# 2 0.002200 0.010450 -0.002067 0.000000 0.000000 0.000000
# 3 0.001923 -0.002067 0.009402 0.000000 0.000000 0.000000
# 4 0.000000 0.000000 0.000000 0.034689 0.000000 0.000000
# 5 0.000000 0.000000 0.000000 0.000000 0.055669 0.000000
# 6 0.000000 0.000000 0.000000 0.000000 0.000000 0.060909
#
#
# Mechanical properties :
#
#
# Convention : Reuss Voigt Hill
#
# Bulk Modulus (GPa) = 17.02872 29.10347 23.06609
# Shear Modulus (GPa) = 22.58972 28.41266 25.50119
#
# Velocity S-wave (km/s) = 3.26722 3.66420 3.47139
# Velocity P-wave (km/s) = 4.72016 5.62625 5.19300
#
# Compressibility (1/GPa) = 0.05872433
#
# Stress axis : x y z
#
# Youngs Moduli (GPa) = 28.76949 95.69390 106.36210
#
# Poissons Ratio (x) = -0.21054 -0.20457
# Poissons Ratio (y) = -0.06330 0.21982
# Poissons Ratio (z) = -0.05533 0.19777
#
# Static dielectric constant tensor:
#      x y z
#    x 1.788160 0.000000 0.000000 
#    y 0.000000 1.746790 0.000000 
#    z 0.000000 0.000000 1.737890 
# 
# From -- ./inp_files/7171.got.cif
#   From: 2010.05.17/outbox.cif.g08.bks.cpg/sg36_4_cif.got.tgz:7171.got - 2010.06.03 17:41:39.
