data_PCOD9352378
_publ_section_title
;
Structure prediction by ZEFSAII (Michael W. Deem and Ramdas Pophale) SiO2 
 PCOD9352378
Probable space group: C M C 21
;
_chemical_formula_sum "Si O2"
_cell_formula_units_Z 64
_cell_length_a 7.721694
_cell_length_b 22.085001
_cell_length_c 14.437723
_cell_angle_alpha 90.000000
_cell_angle_beta 90.000000
_cell_angle_gamma 90.000000
_cell_volume 2462.117164
_symmetry_space_group_name_H-M "C M C 21"
_symmetry_group_IT_number 36
_symmetry_cell_setting 'orthorhombic'
loop_
_space_group_symop_operation_xyz
x,y,z
-x,-y,1/2+z
x,-y,1/2+z
-x,y,z
1/2+x,1/2+y,z
1/2-x,1/2-y,1/2+z
1/2+x,1/2-y,1/2+z
1/2-x,1/2+y,z
loop_
_atom_site_type_symbol
_atom_site_label
_atom_site_fract_x
_atom_site_fract_y
_atom_site_fract_z
Si Si1 0.697586 0.600424 0.579400
Si Si2 0.208675 0.214298 0.792526
Si Si3 0.208027 0.354057 0.459299
Si Si4 0.200611 0.967698 0.253635
Si Si5 0.206599 0.670331 0.406288
Si Si6 0.706236 0.779101 0.619326
Si Si7 0.797844 0.485003 0.464598
Si Si8 0.705738 0.903531 0.735476
O O1 0.500000 0.614724 0.601421
O O2 0.776420 0.579038 0.677573
O O3 0.758417 0.654500 0.512444
O O4 0.708125 0.541287 0.513202
O O5 0.276292 0.269158 0.857881
O O6 0.274142 0.227895 0.689236
O O7 0.000000 0.217695 0.788050
O O8 0.253328 0.155740 0.851529
O O9 0.281232 0.298649 0.520467
O O10 0.270796 0.418992 0.493824
O O11 0.000000 0.354884 0.469626
O O12 0.287963 0.979977 0.352801
O O13 0.000000 0.952357 0.272010
O O14 0.206935 0.034366 0.206239
O O15 0.266518 0.616399 0.338187
O O16 0.000000 0.672372 0.395873
O O17 0.500000 0.767648 0.607319
O O18 0.725460 0.842654 0.675431
O O19 0.000000 0.490927 0.490177
O O20 0.500000 0.915775 0.736689
#
# Coordination Sequence:
#
# PCOD9352378 Si02
#       8
#     8   8   8   8   8   8   8   8
#     4  11  23  37  56  85 119 152 188 234 289 345
#     4   9  19  37  60  84 111 146 187 234 287 340
#     4  10  21  38  59  84 114 149 192 238 282 335
#     4  11  23  36  52  82 120 154 187 228 287 348
#     4   9  18  34  57  82 107 141 187 232 280 337
#     4   8  16  34  59  84 109 144 189 232 281 338
#     4  11  23  39  60  85 115 155 195 237 288 343
#     4   9  16  31  57  82 105 141 189 235 276 330
#
# _framework density 25.993887999999998
#
# number of rings (size 3 to 8) (size 9 to 14) (size 15 to 20)
#    0.000    2.250    1.250    3.375    0.000    4.500 
#    2.250    3.125    0.000    0.000    0.000    0.000 
#    0.000    0.000    0.000    0.000    0.000    0.000 
#
# Total GULP energy -178841.770513 kJ/mol
# GULP energy per Si atom -5588.805329 kJ/mol
# Density = 2.593472 g / cm^3
# Si number density = 25.993888 Si / 1000 Ang^3
#
#
#
# Elastic Constant Matrix: (Units=GPa)
#
#
# Indices 1 2 3 4 5 6 
#
# 1 42.4765 -3.1632 -10.0879 0.0000 0.0000 0.0000
# 2 -3.1632 79.6527 28.8697 0.0000 0.0000 0.0000
# 3 -10.0879 28.8697 151.1367 0.0000 0.0000 0.0000
# 4 0.0000 0.0000 0.0000 56.2734 0.0000 0.0000
# 5 0.0000 0.0000 0.0000 0.0000 11.1408 0.0000
# 6 0.0000 0.0000 0.0000 0.0000 0.0000 -40.6130
#
#
#
# Elastic Compliance Matrix: (Units=1/GPa)
#
#
# Indices 1 2 3 4 5 6 
#
# 1 0.023933 0.000399 0.001521 0.000000 0.000000 0.000000
# 2 0.000399 0.013495 -0.002551 0.000000 0.000000 0.000000
# 3 0.001521 -0.002551 0.007205 0.000000 0.000000 0.000000
# 4 0.000000 0.000000 0.000000 0.017770 0.000000 0.000000
# 5 0.000000 0.000000 0.000000 0.000000 0.089760 0.000000
# 6 0.000000 0.000000 0.000000 0.000000 0.000000 -0.024623
#
#
# Mechanical properties :
#
#
# Convention : Reuss Voigt Hill
#
# Bulk Modulus (GPa) = 23.05622 33.83365 28.44494
# Shear Modulus (GPa) = 34.90149 22.53673 28.71911
#
# Velocity S-wave (km/s) = 3.66824 2.94768 3.32752
# Velocity P-wave (km/s) = 5.17981 4.96280 5.07246
#
# Compressibility (1/GPa) = 0.04337225
#
# Stress axis : x y z
#
# Youngs Moduli (GPa) = 41.78253 74.10157 138.78525
#
# Poissons Ratio (x) = -0.02957 -0.21113
# Poissons Ratio (y) = -0.01668 0.35406
# Poissons Ratio (z) = -0.06356 0.18904
#
# Static dielectric constant tensor:
#      x y z
#    x 1.946710 0.000000 0.000000 
#    y 0.000000 2.096850 0.000000 
#    z 0.000000 0.000000 2.111400 
# 
# From -- ./inp_files/11121.got.cif
#   From: 2010.05.17/outbox.cif.g08.bks.cpg/sg36_6_cif.got.tgz:11121.got - 2010.06.03 17:41:39.
