data_PCOD9352947
_publ_section_title
;
Structure prediction by ZEFSAII (Michael W. Deem and Ramdas Pophale) SiO2 
 PCOD9352947
Probable space group: C M C 21
;
_chemical_formula_sum "Si O2"
_cell_formula_units_Z 64
_cell_length_a 23.766253
_cell_length_b 14.781132
_cell_length_c 8.034958
_cell_angle_alpha 90.000000
_cell_angle_beta 90.000000
_cell_angle_gamma 90.000000
_cell_volume 2822.617452
_symmetry_space_group_name_H-M "C M C 21"
_symmetry_group_IT_number 36
_symmetry_cell_setting 'orthorhombic'
loop_
_space_group_symop_operation_xyz
x,y,z
-x,-y,1/2+z
x,-y,1/2+z
-x,y,z
1/2+x,1/2+y,z
1/2-x,1/2-y,1/2+z
1/2+x,1/2-y,1/2+z
1/2-x,1/2+y,z
loop_
_atom_site_type_symbol
_atom_site_label
_atom_site_fract_x
_atom_site_fract_y
_atom_site_fract_z
Si Si1 0.853097 0.367372 0.004260
Si Si2 0.934587 0.779125 0.651727
Si Si3 0.157931 0.546461 0.870596
Si Si4 0.601673 0.546176 0.993308
Si Si5 0.064136 0.132892 0.657906
Si Si6 0.872344 0.733993 0.976864
Si Si7 0.227666 0.107665 0.964026
Si Si8 0.745946 0.288138 0.816842
O O1 0.894976 0.283352 0.034501
O O2 0.845135 0.412142 0.186678
O O3 0.872991 0.451795 0.892599
O O4 0.794581 0.334427 0.925341
O O5 0.916660 0.883467 0.635739
O O6 0.920012 0.748999 0.837972
O O7 0.000000 0.768106 0.612338
O O8 0.136840 0.627308 0.989739
O O9 0.222856 0.537229 0.926255
O O10 0.570097 0.585859 0.834797
O O11 0.668106 0.559016 0.967975
O O12 0.584331 0.444877 0.031864
O O13 0.106058 0.216780 0.639805
O O14 0.000000 0.158890 0.627696
O O15 0.815142 0.778896 0.904468
O O16 0.233211 0.183351 0.818617
O O17 0.238131 0.161764 0.139238
#
# Coordination Sequence:
#
# PCOD9352947 Si02
#       8
#     8   8   8   8   8   8   8   8
#     4  11  23  42  65  99 134 176 220 276 335 395
#     4  11  22  45  70  94 132 178 225 273 329 394
#     4  10  24  39  65  96 138 172 215 276 342 397
#     4  12  26  43  65  97 129 172 228 268 337 397
#     4  12  27  44  65  93 132 179 226 282 330 393
#     4  10  23  42  68  96 127 176 223 275 335 394
#     4  11  23  39  66 100 130 177 209 272 338 409
#     4  11  21  40  64  99 134 168 219 272 334 405
#
# _framework density 22.673988999999999
#
# number of rings (size 3 to 8) (size 9 to 14) (size 15 to 20)
#    0.000    1.000    2.500    4.500    7.000    1.000 
#    0.000    3.125    0.000    0.000    0.000    0.000 
#    0.000    0.000    0.000    0.000    0.000    0.000 
#
# Total GULP energy -179057.151158 kJ/mol
# GULP energy per Si atom -5595.535974 kJ/mol
# Density = 2.262238 g / cm^3
# Si number density = 22.673989 Si / 1000 Ang^3
#
#
#
# Elastic Constant Matrix: (Units=GPa)
#
#
# Indices 1 2 3 4 5 6 
#
# 1 95.7550 1.6602 10.7319 0.0000 0.0000 0.0000
# 2 1.6602 58.9952 -6.2312 0.0000 0.0000 0.0000
# 3 10.7319 -6.2312 46.5434 0.0000 0.0000 0.0000
# 4 0.0000 0.0000 0.0000 31.2922 0.0000 0.0000
# 5 0.0000 0.0000 0.0000 0.0000 32.8895 0.0000
# 6 0.0000 0.0000 0.0000 0.0000 0.0000 17.5211
#
#
#
# Elastic Compliance Matrix: (Units=1/GPa)
#
#
# Indices 1 2 3 4 5 6 
#
# 1 0.010739 -0.000572 -0.002553 0.000000 0.000000 0.000000
# 2 -0.000572 0.017224 0.002438 0.000000 0.000000 0.000000
# 3 -0.002553 0.002438 0.022400 0.000000 0.000000 0.000000
# 4 0.000000 0.000000 0.000000 0.031957 0.000000 0.000000
# 5 0.000000 0.000000 0.000000 0.000000 0.030405 0.000000
# 6 0.000000 0.000000 0.000000 0.000000 0.000000 0.057074
#
#
# Mechanical properties :
#
#
# Convention : Reuss Voigt Hill
#
# Bulk Modulus (GPa) = 20.41230 23.73504 22.07367
# Shear Modulus (GPa) = 26.66621 29.34942 28.00781
#
# Velocity S-wave (km/s) = 3.43311 3.60169 3.51841
# Velocity P-wave (km/s) = 4.97363 5.27133 5.12465
#
# Compressibility (1/GPa) = 0.04899007
#
# Stress axis : x y z
#
# Youngs Moduli (GPa) = 93.11557 58.05816 44.64220
#
# Poissons Ratio (x) = 0.03320 0.11396
# Poissons Ratio (y) = 0.05325 -0.10883
# Poissons Ratio (z) = 0.23771 -0.14154
#
# Static dielectric constant tensor:
#      x y z
#    x 1.805240 0.000000 0.000000 
#    y 0.000000 1.883600 0.000000 
#    z 0.000000 0.000000 1.921330 
# 
# From -- ./inp_files/5678.got.cif
#   From: 2010.05.17/outbox.cif.g08.bks.cpg/sg36_3_cif.got.tgz:5678.got - 2010.06.03 17:41:39.
