data_PCOD9352856
_publ_section_title
;
Structure prediction by ZEFSAII (Michael W. Deem and Ramdas Pophale) SiO2 
 PCOD9352856
Probable space group: C M C 21
;
_chemical_formula_sum "Si O2"
_cell_formula_units_Z 40
_cell_length_a 10.148649
_cell_length_b 18.721780
_cell_length_c 10.165522
_cell_angle_alpha 90.000000
_cell_angle_beta 90.000000
_cell_angle_gamma 90.000000
_cell_volume 1931.457047
_symmetry_space_group_name_H-M "C M C 21"
_symmetry_group_IT_number 36
_symmetry_cell_setting 'orthorhombic'
loop_
_space_group_symop_operation_xyz
x,y,z
-x,-y,1/2+z
x,-y,1/2+z
-x,y,z
1/2+x,1/2+y,z
1/2-x,1/2-y,1/2+z
1/2+x,1/2-y,1/2+z
1/2-x,1/2+y,z
loop_
_atom_site_type_symbol
_atom_site_label
_atom_site_fract_x
_atom_site_fract_y
_atom_site_fract_z
Si Si1 0.651509 0.187946 0.446140
Si Si2 0.141071 0.363255 0.335765
Si Si3 0.151312 0.911297 0.543093
Si Si4 0.721755 0.726211 0.186640
Si Si5 0.149348 0.459842 0.078330
O O1 0.500000 0.203203 0.486369
O O2 0.743359 0.233733 0.546233
O O3 0.666546 0.206923 0.293199
O O4 0.676288 0.104290 0.474818
O O5 0.269589 0.376458 0.421809
O O6 0.144044 0.286505 0.266688
O O7 0.146307 0.421201 0.219351
O O8 0.000000 0.369885 0.407115
O O9 0.155424 0.849092 0.652573
O O10 0.000000 0.929341 0.514015
O O11 0.240438 0.979661 0.577097
O O12 0.000000 0.486494 0.052816
#
# Coordination Sequence:
#
# PCOD9352856 Si02
#       5
#     8   8   8   8   8
#     4  10  22  44  68  96 133 172 221 272 320 388
#     4  10  22  43  68  92 124 173 224 267 316 388
#     4  12  25  41  64  97 136 167 207 275 337 385
#     4  11  22  42  68  97 131 170 214 275 330 378
#     4   9  22  44  68  92 127 174 223 267 312 389
#
# _framework density 20.709754
#
# number of rings (size 3 to 8) (size 9 to 14) (size 15 to 20)
#    0.000    1.600    2.000    3.600    2.800    2.400 
#    0.000    5.000    0.000    0.000    0.000    0.000 
#    0.000    0.000    0.000    0.000    0.000    0.000 
#
# Total GULP energy -111464.647348 kJ/mol
# GULP energy per Si atom -5573.232367 kJ/mol
# Density = 2.066262 g / cm^3
# Si number density = 20.709754 Si / 1000 Ang^3
#
#
#
# Elastic Constant Matrix: (Units=GPa)
#
#
# Indices 1 2 3 4 5 6 
#
# 1 148.0172 79.1935 47.9463 0.0000 0.0000 0.0000
# 2 79.1935 144.0685 39.4092 0.0000 0.0000 0.0000
# 3 47.9463 39.4092 77.4713 0.0000 0.0000 0.0000
# 4 0.0000 0.0000 0.0000 27.2109 0.0000 0.0000
# 5 0.0000 0.0000 0.0000 0.0000 25.2667 0.0000
# 6 0.0000 0.0000 0.0000 0.0000 0.0000 -9.4092
#
#
#
# Elastic Compliance Matrix: (Units=1/GPa)
#
#
# Indices 1 2 3 4 5 6 
#
# 1 0.010624 -0.004695 -0.004187 0.000000 0.000000 0.000000
# 2 -0.004695 0.010138 -0.002252 0.000000 0.000000 0.000000
# 3 -0.004187 -0.002252 0.016645 0.000000 0.000000 0.000000
# 4 0.000000 0.000000 0.000000 0.036750 0.000000 0.000000
# 5 0.000000 0.000000 0.000000 0.000000 0.039578 0.000000
# 6 0.000000 0.000000 0.000000 0.000000 0.000000 -0.106279
#
#
# Mechanical properties :
#
#
# Convention : Reuss Voigt Hill
#
# Bulk Modulus (GPa) = 66.04991 78.07279 72.06135
# Shear Modulus (GPa) = 143.81087 22.14755 82.97921
#
# Velocity S-wave (km/s) = 8.34217 3.27376 6.33677
# Velocity P-wave (km/s) = 11.16922 7.21598 9.40271
#
# Compressibility (1/GPa) = 0.01514007
#
# Stress axis : x y z
#
# Youngs Moduli (GPa) = 94.12672 98.64245 60.07948
#
# Poissons Ratio (x) = 0.46309 0.25155
# Poissons Ratio (y) = 0.44189 0.13527
# Poissons Ratio (z) = 0.39410 0.22209
#
# Static dielectric constant tensor:
#      x y z
#    x 1.728660 0.000000 0.000000 
#    y 0.000000 1.764590 0.000000 
#    z 0.000000 0.000000 1.787730 
# 
# From -- ./inp_files/6620.got.cif
#   From: 2010.05.17/outbox.cif.g08.bks.cpg/sg36_4_cif.got.tgz:6620.got - 2010.06.03 17:41:39.
