data_PCOD9352004
_publ_section_title
;
Structure prediction by ZEFSAII (Michael W. Deem and Ramdas Pophale) SiO2 
 PCOD9352004
Probable space group: C M C 21
;
_chemical_formula_sum "Si O2"
_cell_formula_units_Z 60
_cell_length_a 11.842866
_cell_length_b 8.612837
_cell_length_c 28.741729
_cell_angle_alpha 90.000000
_cell_angle_beta 90.000000
_cell_angle_gamma 90.000000
_cell_volume 2931.675743
_symmetry_space_group_name_H-M "C M C 21"
_symmetry_group_IT_number 36
_symmetry_cell_setting 'orthorhombic'
loop_
_space_group_symop_operation_xyz
x,y,z
-x,-y,1/2+z
x,-y,1/2+z
-x,y,z
1/2+x,1/2+y,z
1/2-x,1/2-y,1/2+z
1/2+x,1/2-y,1/2+z
1/2-x,1/2+y,z
loop_
_atom_site_type_symbol
_atom_site_label
_atom_site_fract_x
_atom_site_fract_y
_atom_site_fract_z
Si Si1 0.210503 0.753613 0.681390
Si Si2 0.368410 0.670686 0.766963
Si Si3 0.710752 0.306753 0.971977
Si Si4 0.315984 0.014758 0.307489
Si Si5 0.500000 0.115254 0.734173
Si Si6 0.368573 0.549773 0.630818
Si Si7 0.630327 0.024326 0.911932
Si Si8 0.626353 0.592640 0.028719
O O1 0.303706 0.740634 0.722266
O O2 0.100906 0.656887 0.696447
O O3 0.278837 0.686836 0.637317
O O4 0.166478 0.925531 0.670419
O O5 0.500000 0.648598 0.757316
O O6 0.350191 0.805230 0.805167
O O7 0.307291 0.517389 0.785699
O O8 0.643536 0.180810 0.941969
O O9 0.798060 0.393117 0.937945
O O10 0.638190 0.440686 0.996196
O O11 0.781278 0.214120 0.011115
O O12 0.402202 0.926478 0.273475
O O13 0.324099 0.954750 0.359747
O O14 0.500000 0.596934 0.636537
O O15 0.358133 0.465861 0.581314
O O16 0.500000 0.979563 0.908824
O O17 0.500000 0.658594 0.024421
#
# Coordination Sequence:
#
# PCOD9352004 Si02
#       8
#     8   8   8   8   4   8   8   8
#     4  11  22  39  62  86 121 160 204 246 299 354
#     4  11  23  40  59  84 122 160 205 250 300 350
#     4  10  22  38  62  91 118 159 195 247 303 369
#     4  11  22  40  60  88 120 163 200 254 298 350
#     4  10  20  38  60  82 120 160 192 244 300 342
#     4  11  23  40  62  92 120 159 204 250 297 368
#     4  11  21  38  62  88 121 155 204 244 300 360
#     4  10  21  40  62  87 124 154 195 248 307 353
#
# _framework density 20.466111000000001
#
# number of rings (size 3 to 8) (size 9 to 14) (size 15 to 20)
#    0.000    1.333    2.000    4.400    0.000    0.000 
#    6.000    3.333    2.933    0.000    0.000    0.000 
#    0.000    0.000    0.000    0.000    0.000    0.000 
#
# Total GULP energy -167129.620135 kJ/mol
# GULP energy per Si atom -5570.987338 kJ/mol
# Density = 2.041953 g / cm^3
# Si number density = 20.466111 Si / 1000 Ang^3
#
#
#
# Elastic Constant Matrix: (Units=GPa)
#
#
# Indices 1 2 3 4 5 6 
#
# 1 129.2387 7.0451 35.3920 0.0000 0.0000 0.0000
# 2 7.0451 27.1488 -1.7741 0.0000 0.0000 0.0000
# 3 35.3920 -1.7741 60.3325 0.0000 0.0000 0.0000
# 4 0.0000 0.0000 0.0000 20.3127 0.0000 0.0000
# 5 0.0000 0.0000 0.0000 0.0000 25.8275 0.0000
# 6 0.0000 0.0000 0.0000 0.0000 0.0000 9.7198
#
#
#
# Elastic Compliance Matrix: (Units=1/GPa)
#
#
# Indices 1 2 3 4 5 6 
#
# 1 0.009428 -0.002813 -0.005613 0.000000 0.000000 0.000000
# 2 -0.002813 0.037744 0.002760 0.000000 0.000000 0.000000
# 3 -0.005613 0.002760 0.019949 0.000000 0.000000 0.000000
# 4 0.000000 0.000000 0.000000 0.049230 0.000000 0.000000
# 5 0.000000 0.000000 0.000000 0.000000 0.038718 0.000000
# 6 0.000000 0.000000 0.000000 0.000000 0.000000 0.102882
#
#
# Mechanical properties :
#
#
# Convention : Reuss Voigt Hill
#
# Bulk Modulus (GPa) = 17.92489 33.11625 25.52057
# Shear Modulus (GPa) = 17.36822 22.90915 20.13868
#
# Velocity S-wave (km/s) = 2.91629 3.34933 3.14028
# Velocity P-wave (km/s) = 4.48520 5.58332 5.06411
#
# Compressibility (1/GPa) = 0.05578836
#
# Stress axis : x y z
#
# Youngs Moduli (GPa) = 106.06430 26.49394 50.12798
#
# Poissons Ratio (x) = 0.07454 0.28139
# Poissons Ratio (y) = 0.29841 -0.13837
# Poissons Ratio (z) = 0.59539 -0.07313
#
# Static dielectric constant tensor:
#      x y z
#    x 1.698290 0.000000 0.000000 
#    y 0.000000 1.777150 0.000000 
#    z 0.000000 0.000000 1.732020 
# 
# From -- ./inp_files/17170.got.cif
#   From: 2010.05.17/outbox.cif.g08.bks.cpg/sg36_9_cif.got.tgz:17170.got - 2010.06.03 17:41:39.
