data_PCOD9352609
_publ_section_title
;
Structure prediction by ZEFSAII (Michael W. Deem and Ramdas Pophale) SiO2 
 PCOD9352609
Probable space group: C M C 21
;
_chemical_formula_sum "Si O2"
_cell_formula_units_Z 48
_cell_length_a 8.701569
_cell_length_b 20.227638
_cell_length_c 14.257960
_cell_angle_alpha 90.000000
_cell_angle_beta 90.000000
_cell_angle_gamma 90.000000
_cell_volume 2509.574733
_symmetry_space_group_name_H-M "C M C 21"
_symmetry_group_IT_number 36
_symmetry_cell_setting 'orthorhombic'
loop_
_space_group_symop_operation_xyz
x,y,z
-x,-y,1/2+z
x,-y,1/2+z
-x,y,z
1/2+x,1/2+y,z
1/2-x,1/2-y,1/2+z
1/2+x,1/2-y,1/2+z
1/2-x,1/2+y,z
loop_
_atom_site_type_symbol
_atom_site_label
_atom_site_fract_x
_atom_site_fract_y
_atom_site_fract_z
Si Si1 0.183327 0.569964 0.425980
Si Si2 0.817725 0.057280 0.829853
Si Si3 0.319424 0.820916 0.439503
Si Si4 0.319711 0.792293 0.819868
Si Si5 0.316943 0.263888 0.628828
Si Si6 0.685333 0.107579 0.634476
O O1 0.269716 0.514575 0.366866
O O2 0.206911 0.641608 0.379216
O O3 0.230237 0.574814 0.535203
O O4 0.000000 0.556373 0.422923
O O5 0.740580 0.110021 0.899848
O O6 0.757972 0.073507 0.725264
O O7 0.000000 0.065303 0.831812
O O8 0.500000 0.824087 0.458486
O O9 0.282960 0.766650 0.360181
O O10 0.229943 0.796017 0.530793
O O11 0.500000 0.774838 0.828512
O O12 0.272869 0.799912 0.712207
O O13 0.500000 0.268686 0.642290
O O14 0.275175 0.185763 0.630364
O O15 0.500000 0.103715 0.642133
#
# Coordination Sequence:
#
# PCOD9352609 Si02
#       6
#     8   8   8   8   8   8
#     4  10  23  44  67  91 128 170 211 258 318 385
#     4  12  26  42  64  95 131 168 214 267 318 381
#     4  12  24  40  64  93 127 169 214 263 315 372
#     4  11  22  40  65  96 128 165 211 261 315 378
#     4  11  22  39  65  98 130 166 213 265 317 379
#     4  10  21  41  67  93 124 168 211 258 323 387
#
# _framework density 19.126747000000002
#
# number of rings (size 3 to 8) (size 9 to 14) (size 15 to 20)
#    0.000    1.000    3.333    4.000    0.000    4.000 
#    0.000    1.667    0.000    0.000    0.000    0.000 
#    0.000    0.000    0.000    0.000    0.000    0.000 
#
# Total GULP energy -134222.621147 kJ/mol
# GULP energy per Si atom -5592.609214 kJ/mol
# Density = 1.908321 g / cm^3
# Si number density = 19.126747 Si / 1000 Ang^3
#
#
#
# Elastic Constant Matrix: (Units=GPa)
#
#
# Indices 1 2 3 4 5 6 
#
# 1 58.3940 28.1979 8.1544 0.0000 0.0000 0.0000
# 2 28.1979 37.3100 2.6573 0.0000 0.0000 0.0000
# 3 8.1544 2.6573 85.0467 0.0000 0.0000 0.0000
# 4 0.0000 0.0000 0.0000 31.0156 0.0000 0.0000
# 5 0.0000 0.0000 0.0000 0.0000 36.4661 0.0000
# 6 0.0000 0.0000 0.0000 0.0000 0.0000 23.2285
#
#
#
# Elastic Compliance Matrix: (Units=1/GPa)
#
#
# Indices 1 2 3 4 5 6 
#
# 1 0.027294 -0.020487 -0.001977 0.000000 0.000000 0.000000
# 2 -0.020487 0.042240 0.000645 0.000000 0.000000 0.000000
# 3 -0.001977 0.000645 0.011928 0.000000 0.000000 0.000000
# 4 0.000000 0.000000 0.000000 0.032242 0.000000 0.000000
# 5 0.000000 0.000000 0.000000 0.000000 0.027423 0.000000
# 6 0.000000 0.000000 0.000000 0.000000 0.000000 0.043051
#
#
# Mechanical properties :
#
#
# Convention : Reuss Voigt Hill
#
# Bulk Modulus (GPa) = 26.43911 28.75222 27.59566
# Shear Modulus (GPa) = 20.79653 27.59146 24.19399
#
# Velocity S-wave (km/s) = 3.30100 3.80222 3.56044
# Velocity P-wave (km/s) = 5.32747 5.86012 5.60013
#
# Compressibility (1/GPa) = 0.03782275
#
# Stress axis : x y z
#
# Youngs Moduli (GPa) = 36.63767 23.67402 83.83881
#
# Poissons Ratio (x) = 0.48502 0.16574
# Poissons Ratio (y) = 0.75061 -0.05404
# Poissons Ratio (z) = 0.07243 -0.01526
#
# Static dielectric constant tensor:
#      x y z
#    x 1.636960 0.000000 0.000000 
#    y 0.000000 1.635710 0.000000 
#    z 0.000000 0.000000 1.652470 
# 
# From -- ./inp_files/10342.got.cif
#   From: 2010.05.17/outbox.cif.g08.bks.cpg/sg36_6_cif.got.tgz:10342.got - 2010.06.03 17:41:39.
