data_PCOD9352080
_publ_section_title
;
Structure prediction by ZEFSAII (Michael W. Deem and Ramdas Pophale) SiO2 
 PCOD9352080
Probable space group: C M C 21
;
_chemical_formula_sum "Si O2"
_cell_formula_units_Z 44
_cell_length_a 10.443919
_cell_length_b 12.726326
_cell_length_c 13.537249
_cell_angle_alpha 90.000000
_cell_angle_beta 90.000000
_cell_angle_gamma 90.000000
_cell_volume 1799.272558
_symmetry_space_group_name_H-M "C M C 21"
_symmetry_group_IT_number 36
_symmetry_cell_setting 'orthorhombic'
loop_
_space_group_symop_operation_xyz
x,y,z
-x,-y,1/2+z
x,-y,1/2+z
-x,y,z
1/2+x,1/2+y,z
1/2-x,1/2-y,1/2+z
1/2+x,1/2-y,1/2+z
1/2-x,1/2+y,z
loop_
_atom_site_type_symbol
_atom_site_label
_atom_site_fract_x
_atom_site_fract_y
_atom_site_fract_z
Si Si1 0.000000 0.759421 0.989671
Si Si2 0.000000 0.948326 0.138929
Si Si3 0.000000 0.269668 0.848010
Si Si4 0.000000 0.148308 0.027757
Si Si5 0.500000 0.894346 0.662270
Si Si6 0.740219 0.973676 0.254894
Si Si7 0.257323 0.624090 0.428660
Si Si8 0.643680 0.826212 0.122993
O O1 0.876244 0.795123 0.926165
O O2 0.000000 0.646568 0.047857
O O3 0.000000 0.839155 0.082189
O O4 0.877695 0.975186 0.204737
O O5 0.000000 0.028767 0.049014
O O6 0.872661 0.323863 0.889175
O O7 0.000000 0.163697 0.910431
O O8 0.000000 0.290917 0.733300
O O9 0.120497 0.207772 0.082974
O O10 0.370988 0.956166 0.699756
O O11 0.761698 0.018390 0.364380
O O12 0.692506 0.854106 0.231768
O O13 0.230102 0.612325 0.544936
O O14 0.500000 0.868539 0.113569
#
# Coordination Sequence:
#
# PCOD9352080 Si02
#       8
#     4   4   4   4   4   8   8   8
#     4  12  25  40  61  94 133 168 198 264 317 377
#     4  12  25  36  61  88 129 171 197 250 327 364
#     4   8  18  40  66  90 110 170 209 258 299 381
#     4   8  19  37  63  86 123 158 212 244 312 367
#     4  10  23  39  67  90 123 161 224 252 307 371
#     4  11  22  40  65  95 120 163 208 264 312 376
#     4  10  20  39  63  88 129 160 201 258 323 355
#     4   9  18  37  67  90 116 162 209 259 305 368
#
# _framework density 24.454328
#
# number of rings (size 3 to 8) (size 9 to 14) (size 15 to 20)
#    0.545    1.455    3.636    0.545    5.091    0.000 
#    3.273    0.000   12.000    0.000    0.000    0.000 
#    0.000    0.000    0.000    0.000    0.000    0.000 
#
# Total GULP energy -122536.089236 kJ/mol
# GULP energy per Si atom -5569.822238 kJ/mol
# Density = 2.439867 g / cm^3
# Si number density = 24.454328 Si / 1000 Ang^3
#
#
#
# Elastic Constant Matrix: (Units=GPa)
#
#
# Indices 1 2 3 4 5 6 
#
# 1 164.6151 8.4413 28.2094 0.0000 0.0000 0.0000
# 2 8.4413 53.6389 28.3155 0.0000 0.0000 0.0000
# 3 28.2094 28.3155 63.1904 0.0000 0.0000 0.0000
# 4 0.0000 0.0000 0.0000 38.6653 0.0000 0.0000
# 5 0.0000 0.0000 0.0000 0.0000 -5.9834 0.0000
# 6 0.0000 0.0000 0.0000 0.0000 0.0000 7.4870
#
#
#
# Elastic Compliance Matrix: (Units=1/GPa)
#
#
# Indices 1 2 3 4 5 6 
#
# 1 0.006597 0.000676 -0.003248 0.000000 0.000000 0.000000
# 2 0.000676 0.024489 -0.011275 0.000000 0.000000 0.000000
# 3 -0.003248 -0.011275 0.022328 0.000000 0.000000 0.000000
# 4 0.000000 0.000000 0.000000 0.025863 0.000000 0.000000
# 5 0.000000 0.000000 0.000000 0.000000 -0.167130 0.000000
# 6 0.000000 0.000000 0.000000 0.000000 0.000000 0.133564
#
#
# Mechanical properties :
#
#
# Convention : Reuss Voigt Hill
#
# Bulk Modulus (GPa) = 38.88128 45.70853 42.29491
# Shear Modulus (GPa) = 60.99199 22.46568 41.72883
#
# Velocity S-wave (km/s) = 4.99953 3.03426 4.13534
# Velocity P-wave (km/s) = 7.01863 5.56845 6.33517
#
# Compressibility (1/GPa) = 0.02571932
#
# Stress axis : x y z
#
# Youngs Moduli (GPa) = 151.59132 40.83479 44.78750
#
# Poissons Ratio (x) = -0.02762 0.14547
# Poissons Ratio (y) = -0.10254 0.50500
# Poissons Ratio (z) = 0.49237 0.46043
#
# Static dielectric constant tensor:
#      x y z
#    x 2.204780 0.000000 0.000000 
#    y 0.000000 2.004100 0.000000 
#    z 0.000000 0.000000 1.978780 
# 
# From -- ./inp_files/11518.got.cif
#   From: 2010.05.17/outbox.cif.g08.bks.cpg/sg36_6_cif.got.tgz:11518.got - 2010.06.03 17:41:39.
