data_PCOD9352403
_publ_section_title
;
Structure prediction by ZEFSAII (Michael W. Deem and Ramdas Pophale) SiO2 
 PCOD9352403
Probable space group: C M C 21
;
_chemical_formula_sum "Si O2"
_cell_formula_units_Z 64
_cell_length_a 12.951430
_cell_length_b 26.289965
_cell_length_c 8.487366
_cell_angle_alpha 90.000000
_cell_angle_beta 90.000000
_cell_angle_gamma 90.000000
_cell_volume 2889.885668
_symmetry_space_group_name_H-M "C M C 21"
_symmetry_group_IT_number 36
_symmetry_cell_setting 'orthorhombic'
loop_
_space_group_symop_operation_xyz
x,y,z
-x,-y,1/2+z
x,-y,1/2+z
-x,y,z
1/2+x,1/2+y,z
1/2-x,1/2-y,1/2+z
1/2+x,1/2-y,1/2+z
1/2-x,1/2+y,z
loop_
_atom_site_type_symbol
_atom_site_label
_atom_site_fract_x
_atom_site_fract_y
_atom_site_fract_z
Si Si1 0.734116 0.297773 0.009300
Si Si2 0.183329 0.358462 0.732116
Si Si3 0.883404 0.469616 0.801494
Si Si4 0.812243 0.888325 0.247876
Si Si5 0.734871 0.512034 0.572726
Si Si6 0.386398 0.249751 0.729407
Si Si7 0.116357 0.905331 0.582905
Si Si8 0.390155 0.142918 0.896543
O O1 0.690496 0.339025 0.134434
O O2 0.795727 0.252786 0.099634
O O3 0.814011 0.325437 0.889632
O O4 0.648224 0.277697 0.888649
O O5 0.120879 0.409942 0.762768
O O6 0.301638 0.373139 0.685055
O O7 0.134785 0.337231 0.571429
O O8 0.847145 0.501247 0.650687
O O9 0.000000 0.482637 0.852099
O O10 0.777198 0.476286 0.900507
O O11 0.822198 0.939386 0.146492
O O12 0.883227 0.885378 0.401856
O O13 0.700087 0.892202 0.332879
O O14 0.663287 0.462379 0.576576
O O15 0.500000 0.266856 0.674877
O O16 0.393318 0.190776 0.780948
O O17 0.000000 0.904574 0.645160
O O18 0.500000 0.116281 0.896874
#
# Coordination Sequence:
#
# PCOD9352403 Si02
#       8
#     8   8   8   8   8   8   8   8
#     4  11  22  42  66  90 130 163 198 270 311 374
#     4  10  21  38  61  90 123 156 209 253 309 370
#     4  11  22  35  57  86 123 162 199 251 312 372
#     4  10  21  39  60  86 120 164 211 259 305 367
#     4  11  21  40  54  87 125 161 212 255 306 367
#     4  10  23  41  64  95 124 162 206 250 323 388
#     4  10  23  42  62  83 120 169 218 263 304 354
#     4   9  19  37  60  87 121 157 197 251 312 378
#
# _framework density 22.146205999999999
#
# number of rings (size 3 to 8) (size 9 to 14) (size 15 to 20)
#    0.000    1.750    2.500    1.500    0.000    3.500 
#    0.000    0.625    0.000    0.000    0.000    0.000 
#    0.000    0.000    0.000    0.000    0.000    0.000 
#
# Total GULP energy -178496.676065 kJ/mol
# GULP energy per Si atom -5578.021127 kJ/mol
# Density = 2.209580 g / cm^3
# Si number density = 22.146206 Si / 1000 Ang^3
#
#
#
# Elastic Constant Matrix: (Units=GPa)
#
#
# Indices 1 2 3 4 5 6 
#
# 1 105.2984 10.6321 12.4087 0.0000 0.0000 0.0000
# 2 10.6321 46.1486 13.2003 0.0000 0.0000 0.0000
# 3 12.4087 13.2003 62.4014 0.0000 0.0000 0.0000
# 4 0.0000 0.0000 0.0000 38.8273 0.0000 0.0000
# 5 0.0000 0.0000 0.0000 0.0000 18.0154 0.0000
# 6 0.0000 0.0000 0.0000 0.0000 0.0000 3.1201
#
#
#
# Elastic Compliance Matrix: (Units=1/GPa)
#
#
# Indices 1 2 3 4 5 6 
#
# 1 0.009867 -0.001822 -0.001577 0.000000 0.000000 0.000000
# 2 -0.001822 0.023401 -0.004588 0.000000 0.000000 0.000000
# 3 -0.001577 -0.004588 0.017309 0.000000 0.000000 0.000000
# 4 0.000000 0.000000 0.000000 0.025755 0.000000 0.000000
# 5 0.000000 0.000000 0.000000 0.000000 0.055508 0.000000
# 6 0.000000 0.000000 0.000000 0.000000 0.000000 0.320500
#
#
# Mechanical properties :
#
#
# Convention : Reuss Voigt Hill
#
# Bulk Modulus (GPa) = 28.89852 31.81451 30.35652
# Shear Modulus (GPa) = 10.41996 23.83304 17.12650
#
# Velocity S-wave (km/s) = 2.17147 3.28406 2.78391
# Velocity P-wave (km/s) = 4.40049 5.36441 4.90618
#
# Compressibility (1/GPa) = 0.03460385
#
# Stress axis : x y z
#
# Youngs Moduli (GPa) = 101.35212 42.73274 57.77238
#
# Poissons Ratio (x) = 0.07787 0.09108
# Poissons Ratio (y) = 0.18468 0.26506
# Poissons Ratio (z) = 0.15979 0.19605
#
# Static dielectric constant tensor:
#      x y z
#    x 1.852550 0.000000 0.000000 
#    y 0.000000 1.839330 0.000000 
#    z 0.000000 0.000000 1.865340 
# 
# From -- ./inp_files/3589.got.cif
#   From: 2010.05.17/outbox.cif.g08.bks.cpg/sg36_2_cif.got.tgz:3589.got - 2010.06.03 17:41:39.
