data_PCOD9352917
_publ_section_title
;
Structure prediction by ZEFSAII (Michael W. Deem and Ramdas Pophale) SiO2 
 PCOD9352917
Probable space group: C M C 21
;
_chemical_formula_sum "Si O2"
_cell_formula_units_Z 48
_cell_length_a 15.339114
_cell_length_b 27.024720
_cell_length_c 5.449096
_cell_angle_alpha 90.000000
_cell_angle_beta 90.000000
_cell_angle_gamma 90.000000
_cell_volume 2258.842432
_symmetry_space_group_name_H-M "C M C 21"
_symmetry_group_IT_number 36
_symmetry_cell_setting 'orthorhombic'
loop_
_space_group_symop_operation_xyz
x,y,z
-x,-y,1/2+z
x,-y,1/2+z
-x,y,z
1/2+x,1/2+y,z
1/2-x,1/2-y,1/2+z
1/2+x,1/2-y,1/2+z
1/2-x,1/2+y,z
loop_
_atom_site_type_symbol
_atom_site_label
_atom_site_fract_x
_atom_site_fract_y
_atom_site_fract_z
Si Si1 0.166838 0.869170 0.980420
Si Si2 0.312165 0.184585 0.191839
Si Si3 0.814485 0.016618 0.389411
Si Si4 0.000000 0.252779 0.159800
Si Si5 0.347105 0.294794 0.380155
Si Si6 0.000000 0.962060 0.283866
Si Si7 0.500000 0.185288 0.160020
Si Si8 0.000000 0.898936 0.773054
O O1 0.254564 0.840780 0.903252
O O2 0.187061 0.927670 0.997796
O O3 0.122411 0.838165 0.199562
O O4 0.091009 0.870779 0.777423
O O5 0.330786 0.242499 0.243966
O O6 0.405525 0.160013 0.140162
O O7 0.245489 0.185240 0.969342
O O8 0.775070 0.984368 0.613099
O O9 0.910848 0.994102 0.315082
O O10 0.000000 0.274817 0.433592
O O11 0.913374 0.222142 0.093154
O O12 0.000000 0.293541 0.939558
O O13 0.000000 0.928988 0.036609
O O14 0.000000 0.928789 0.523508
#
# Coordination Sequence:
#
# PCOD9352917 Si02
#       8
#     8   8   8   4   8   4   4   4
#     4  12  26  39  64 101 131 189 226 278 337 422
#     4  11  24  43  66  90 136 176 232 292 347 401
#     4  12  23  41  62  92 134 182 226 267 333 407
#     4  10  23  40  67  92 128 176 224 274 344 398
#     4  11  23  42  62  95 137 175 227 289 340 408
#     4  12  21  45  61  90 144 192 208 275 329 407
#     4  10  24  44  68  88 120 182 227 278 355 406
#     4  12  26  41  66  98 144 182 229 261 336 411
#
# _framework density 21.249822999999999
#
# number of rings (size 3 to 8) (size 9 to 14) (size 15 to 20)
#    0.000    0.667    5.000    2.500    9.333    0.667 
#    0.000    0.000    0.000    0.000    0.000    1.167 
#    0.000    0.000    0.000    0.000    0.000    0.000 
#
# Total GULP energy -133732.314785 kJ/mol
# GULP energy per Si atom -5572.179783 kJ/mol
# Density = 2.120146 g / cm^3
# Si number density = 21.249823 Si / 1000 Ang^3
#
#
#
# Elastic Constant Matrix: (Units=GPa)
#
#
# Indices 1 2 3 4 5 6 
#
# 1 116.6553 -2.4228 8.4226 0.0000 0.0000 0.0000
# 2 -2.4228 82.3616 27.0114 0.0000 0.0000 0.0000
# 3 8.4226 27.0114 108.4863 0.0000 0.0000 0.0000
# 4 0.0000 0.0000 0.0000 46.7775 0.0000 0.0000
# 5 0.0000 0.0000 0.0000 0.0000 32.1259 0.0000
# 6 0.0000 0.0000 0.0000 0.0000 0.0000 58.7523
#
#
#
# Elastic Compliance Matrix: (Units=1/GPa)
#
#
# Indices 1 2 3 4 5 6 
#
# 1 0.008641 0.000516 -0.000799 0.000000 0.000000 0.000000
# 2 0.000516 0.013252 -0.003340 0.000000 0.000000 0.000000
# 3 -0.000799 -0.003340 0.010111 0.000000 0.000000 0.000000
# 4 0.000000 0.000000 0.000000 0.021378 0.000000 0.000000
# 5 0.000000 0.000000 0.000000 0.000000 0.031128 0.000000
# 6 0.000000 0.000000 0.000000 0.000000 0.000000 0.017021
#
#
# Mechanical properties :
#
#
# Convention : Reuss Voigt Hill
#
# Bulk Modulus (GPa) = 40.38983 41.50284 40.94633
# Shear Modulus (GPa) = 42.72470 45.83060 44.27765
#
# Velocity S-wave (km/s) = 4.48883 4.64912 4.56968
# Velocity P-wave (km/s) = 6.77602 6.95647 6.86684
#
# Compressibility (1/GPa) = 0.02475871
#
# Stress axis : x y z
#
# Youngs Moduli (GPa) = 115.73128 75.46002 98.89885
#
# Poissons Ratio (x) = -0.03896 0.07906
# Poissons Ratio (y) = -0.05976 0.33029
# Poissons Ratio (z) = 0.09252 0.25201
#
# Static dielectric constant tensor:
#      x y z
#    x 1.795490 0.000000 0.000000 
#    y 0.000000 1.857720 0.000000 
#    z 0.000000 0.000000 1.873220 
# 
# From -- ./inp_files/866.got.cif
#   From: 2010.05.17/outbox.cif.g08.bks.cpg/sg36_1_cif.got.tgz:866.got - 2010.06.03 17:41:39.
