data_PCOD9352985
_publ_section_title
;
Structure prediction by ZEFSAII (Michael W. Deem and Ramdas Pophale) SiO2 
 PCOD9352985
Probable space group: C M C 21
;
_chemical_formula_sum "Si O2"
_cell_formula_units_Z 48
_cell_length_a 29.524723
_cell_length_b 8.500833
_cell_length_c 7.851731
_cell_angle_alpha 90.000000
_cell_angle_beta 90.000000
_cell_angle_gamma 90.000000
_cell_volume 1970.664660
_symmetry_space_group_name_H-M "C M C 21"
_symmetry_group_IT_number 36
_symmetry_cell_setting 'orthorhombic'
loop_
_space_group_symop_operation_xyz
x,y,z
-x,-y,1/2+z
x,-y,1/2+z
-x,y,z
1/2+x,1/2+y,z
1/2-x,1/2-y,1/2+z
1/2+x,1/2-y,1/2+z
1/2-x,1/2+y,z
loop_
_atom_site_type_symbol
_atom_site_label
_atom_site_fract_x
_atom_site_fract_y
_atom_site_fract_z
Si Si1 0.676135 0.277739 0.884450
Si Si2 0.500000 0.276689 0.037773
Si Si3 0.905695 0.631488 0.072213
Si Si4 0.596180 0.776996 0.973339
Si Si5 0.811373 0.120752 0.970668
Si Si6 0.757723 0.277552 0.691482
Si Si7 0.000000 0.870151 0.433562
O O1 0.629030 0.205254 0.936901
O O2 0.675526 0.466663 0.862648
O O3 0.709790 0.195135 0.747990
O O4 0.704983 0.263775 0.056257
O O5 0.455289 0.177600 0.007285
O O6 0.500000 0.442086 0.942545
O O7 0.500000 0.318373 0.237733
O O8 0.901439 0.444828 0.063793
O O9 0.899421 0.695630 0.266522
O O10 0.639748 0.678334 0.035599
O O11 0.547466 0.696031 0.007810
O O12 0.787848 0.262043 0.862120
O O13 0.769086 0.079582 0.096753
#
# Coordination Sequence:
#
# PCOD9352985 Si02
#       7
#     8   4   8   8   8   8   4
#     4  11  23  43  66  93 129 170 222 266 324 380
#     4  10  23  46  72 100 130 170 215 262 318 386
#     4  11  25  43  66  98 134 169 213 266 325 384
#     4  11  25  43  66  98 134 169 213 266 325 384
#     4  11  23  43  66  93 129 170 222 266 324 380
#     4  10  24  40  62  96 126 172 214 276 318 380
#     4  10  23  46  72 100 130 170 215 262 318 386
#
# _framework density 24.357263
#
# number of rings (size 3 to 8) (size 9 to 14) (size 15 to 20)
#    0.000    1.333    1.667    2.500    2.333    9.333 
#    0.000    0.000    0.000    0.000    0.000    0.000 
#    0.000    0.000    0.000    0.000    0.000    0.000 
#
# Total GULP energy -133743.490149 kJ/mol
# GULP energy per Si atom -5572.645423 kJ/mol
# Density = 2.430182 g / cm^3
# Si number density = 24.357263 Si / 1000 Ang^3
#
#
#
# Elastic Constant Matrix: (Units=GPa)
#
#
# Indices 1 2 3 4 5 6 
#
# 1 198.4923 54.9353 30.9526 0.0000 0.0000 0.0000
# 2 54.9353 89.4760 3.1750 0.0000 0.0000 0.0000
# 3 30.9526 3.1750 44.8202 0.0000 0.0000 0.0000
# 4 0.0000 0.0000 0.0000 23.5038 0.0000 0.0000
# 5 0.0000 0.0000 0.0000 0.0000 35.2657 0.0000
# 6 0.0000 0.0000 0.0000 0.0000 0.0000 39.1480
#
#
#
# Elastic Compliance Matrix: (Units=1/GPa)
#
#
# Indices 1 2 3 4 5 6 
#
# 1 0.006852 -0.004049 -0.004445 0.000000 0.000000 0.000000
# 2 -0.004049 0.013597 0.001833 0.000000 0.000000 0.000000
# 3 -0.004445 0.001833 0.025251 0.000000 0.000000 0.000000
# 4 0.000000 0.000000 0.000000 0.042546 0.000000 0.000000
# 5 0.000000 0.000000 0.000000 0.000000 0.028356 0.000000
# 6 0.000000 0.000000 0.000000 0.000000 0.000000 0.025544
#
#
# Mechanical properties :
#
#
# Convention : Reuss Voigt Hill
#
# Bulk Modulus (GPa) = 30.88502 56.76826 43.82664
# Shear Modulus (GPa) = 30.07318 35.83188 32.95253
#
# Velocity S-wave (km/s) = 3.51760 3.83965 3.68215
# Velocity P-wave (km/s) = 5.40421 6.55853 6.00915
#
# Compressibility (1/GPa) = 0.03237815
#
# Stress axis : x y z
#
# Youngs Moduli (GPa) = 145.94845 73.54511 39.60213
#
# Poissons Ratio (x) = 0.29779 0.17603
# Poissons Ratio (y) = 0.59095 -0.07259
# Poissons Ratio (z) = 0.64873 -0.13481
#
# Static dielectric constant tensor:
#      x y z
#    x 1.871760 0.000000 0.000000 
#    y 0.000000 2.094050 0.000000 
#    z 0.000000 0.000000 2.164850 
# 
# From -- ./inp_files/5998.got.cif
#   From: 2010.05.17/outbox.cif.g08.bks.cpg/sg36_3_cif.got.tgz:5998.got - 2010.06.03 17:41:39.
