data_PCOD9352019
_publ_section_title
;
Structure prediction by ZEFSAII (Michael W. Deem and Ramdas Pophale) SiO2 
 PCOD9352019
Probable space group: C M C 21
;
_chemical_formula_sum "Si O2"
_cell_formula_units_Z 40
_cell_length_a 13.989075
_cell_length_b 13.602269
_cell_length_c 8.341486
_cell_angle_alpha 90.000000
_cell_angle_beta 90.000000
_cell_angle_gamma 90.000000
_cell_volume 1587.244325
_symmetry_space_group_name_H-M "C M C 21"
_symmetry_group_IT_number 36
_symmetry_cell_setting 'orthorhombic'
loop_
_space_group_symop_operation_xyz
x,y,z
-x,-y,1/2+z
x,-y,1/2+z
-x,y,z
1/2+x,1/2+y,z
1/2-x,1/2-y,1/2+z
1/2+x,1/2-y,1/2+z
1/2-x,1/2+y,z
loop_
_atom_site_type_symbol
_atom_site_label
_atom_site_fract_x
_atom_site_fract_y
_atom_site_fract_z
Si Si1 0.794042 0.644594 0.726150
Si Si2 0.277897 0.461741 0.925792
Si Si3 0.000000 0.422731 0.882594
Si Si4 0.893290 0.244385 0.820747
Si Si5 0.110515 0.888620 0.629083
Si Si6 0.000000 0.637293 0.754468
O O1 0.787659 0.594546 0.552298
O O2 0.775484 0.554724 0.848417
O O3 0.700083 0.711761 0.728846
O O4 0.897204 0.687343 0.777319
O O5 0.321992 0.396769 0.783771
O O6 0.363145 0.512928 0.027960
O O7 0.912213 0.360737 0.806559
O O8 0.000000 0.536588 0.853338
O O9 0.000000 0.395928 0.068995
O O10 0.000000 0.203094 0.774890
O O11 0.876780 0.200071 0.999945
O O12 0.000000 0.889198 0.676393
#
# Coordination Sequence:
#
# PCOD9352019 Si02
#       6
#     8   8   4   8   8   4
#     4  10  20  38  62 101 131 180 224 278 330 391
#     4   9  18  29  53  91 137 169 222 265 328 395
#     4  10  24  48  70  98 132 180 222 276 338 392
#     4   8  19  41  68  94 139 174 209 284 347 380
#     4   9  15  28  52  89 131 179 210 267 333 399
#     4  12  24  44  74  96 130 180 232 268 320 410
#
# _framework density 25.20091
#
# number of rings (size 3 to 8) (size 9 to 14) (size 15 to 20)
#    0.600    2.000    0.000    1.800    0.000    5.600 
#    0.000   12.000    0.000    0.000    2.600    0.000 
#    0.000    0.000    0.000    0.000    0.000    0.000 
#
# Total GULP energy -111780.850802 kJ/mol
# GULP energy per Si atom -5589.042540 kJ/mol
# Density = 2.514355 g / cm^3
# Si number density = 25.200910 Si / 1000 Ang^3
#
#
#
# Elastic Constant Matrix: (Units=GPa)
#
#
# Indices 1 2 3 4 5 6 
#
# 1 183.5298 25.2166 27.4631 0.0000 0.0000 0.0000
# 2 25.2166 64.5920 -6.1738 0.0000 0.0000 0.0000
# 3 27.4631 -6.1738 52.6273 0.0000 0.0000 0.0000
# 4 0.0000 0.0000 0.0000 25.4126 0.0000 0.0000
# 5 0.0000 0.0000 0.0000 0.0000 28.4755 0.0000
# 6 0.0000 0.0000 0.0000 0.0000 0.0000 43.0249
#
#
#
# Elastic Compliance Matrix: (Units=1/GPa)
#
#
# Indices 1 2 3 4 5 6 
#
# 1 0.006388 -0.002845 -0.003667 0.000000 0.000000 0.000000
# 2 -0.002845 0.016924 0.003470 0.000000 0.000000 0.000000
# 3 -0.003667 0.003470 0.021322 0.000000 0.000000 0.000000
# 4 0.000000 0.000000 0.000000 0.039351 0.000000 0.000000
# 5 0.000000 0.000000 0.000000 0.000000 0.035118 0.000000
# 6 0.000000 0.000000 0.000000 0.000000 0.000000 0.023242
#
#
# Mechanical properties :
#
#
# Convention : Reuss Voigt Hill
#
# Bulk Modulus (GPa) = 25.94013 43.75123 34.84568
# Shear Modulus (GPa) = 31.00201 36.33214 33.66707
#
# Velocity S-wave (km/s) = 3.51122 3.80109 3.65903
# Velocity P-wave (km/s) = 5.17241 6.05500 5.63103
#
# Compressibility (1/GPa) = 0.03855031
#
# Stress axis : x y z
#
# Youngs Moduli (GPa) = 156.53569 59.08793 46.89910
#
# Poissons Ratio (x) = 0.16808 0.17200
# Poissons Ratio (y) = 0.44527 -0.16273
# Poissons Ratio (z) = 0.57408 -0.20502
#
# Static dielectric constant tensor:
#      x y z
#    x 2.035200 0.000000 0.000000 
#    y 0.000000 2.048530 0.000000 
#    z 0.000000 0.000000 1.972500 
# 
# From -- ./inp_files/3903.got.cif
#   From: 2010.05.17/outbox.cif.g08.bks.cpg/sg36_2_cif.got.tgz:3903.got - 2010.06.03 17:41:39.
