data_PCOD9352674
_publ_section_title
;
Structure prediction by ZEFSAII (Michael W. Deem and Ramdas Pophale) SiO2 
 PCOD9352674
Probable space group: C M C 21
;
_chemical_formula_sum "Si O2"
_cell_formula_units_Z 56
_cell_length_a 13.245341
_cell_length_b 14.111564
_cell_length_c 16.977479
_cell_angle_alpha 90.000000
_cell_angle_beta 90.000000
_cell_angle_gamma 90.000000
_cell_volume 3173.302657
_symmetry_space_group_name_H-M "C M C 21"
_symmetry_group_IT_number 36
_symmetry_cell_setting 'orthorhombic'
loop_
_space_group_symop_operation_xyz
x,y,z
-x,-y,1/2+z
x,-y,1/2+z
-x,y,z
1/2+x,1/2+y,z
1/2-x,1/2-y,1/2+z
1/2+x,1/2-y,1/2+z
1/2-x,1/2+y,z
loop_
_atom_site_type_symbol
_atom_site_label
_atom_site_fract_x
_atom_site_fract_y
_atom_site_fract_z
Si Si1 0.791410 0.157538 0.104280
Si Si2 0.618397 0.193655 0.483991
Si Si3 0.289417 0.447543 0.043346
Si Si4 0.382481 0.322126 0.776793
Si Si5 0.882751 0.993103 0.382139
Si Si6 0.882526 0.207845 0.655150
Si Si7 0.696555 0.704172 0.832060
O O1 0.852760 0.165314 0.185720
O O2 0.685181 0.208784 0.119341
O O3 0.771826 0.051065 0.078126
O O4 0.852012 0.216393 0.038415
O O5 0.500000 0.172707 0.490595
O O6 0.689690 0.108334 0.514176
O O7 0.646453 0.225057 0.395336
O O8 0.343558 0.385367 0.110166
O O9 0.359520 0.462557 0.967100
O O10 0.500000 0.296924 0.785081
O O11 0.366140 0.422918 0.819666
O O12 0.308545 0.243847 0.814720
O O13 0.000000 0.962176 0.377661
O O14 0.813039 0.902058 0.365886
O O15 0.859797 0.203139 0.748128
O O16 0.000000 0.221113 0.641412
#
# Coordination Sequence:
#
# PCOD9352674 Si02
#       7
#     8   8   8   8   8   8   8
#     4  10  22  38  60  83 116 151 193 236 290 353
#     4  11  22  37  59  85 117 157 195 240 295 350
#     4  11  22  38  56  88 119 149 195 247 285 351
#     4  10  22  40  61  86 118 152 192 243 295 347
#     4  11  21  35  60  86 115 153 193 241 291 341
#     4  10  22  38  59  85 114 150 193 242 289 340
#     4  11  21  38  61  87 117 152 199 241 287 352
#
# _framework density 17.64723
#
# number of rings (size 3 to 8) (size 9 to 14) (size 15 to 20)
#    0.000    1.429    2.857    3.000    0.000    3.429 
#    0.000    0.714    0.000    3.429    0.000    0.000 
#    0.000    0.000    0.000    0.000    0.000    0.000 
#
# Total GULP energy -156369.984364 kJ/mol
# GULP energy per Si atom -5584.642299 kJ/mol
# Density = 1.760706 g / cm^3
# Si number density = 17.647230 Si / 1000 Ang^3
#
#
#
# Elastic Constant Matrix: (Units=GPa)
#
#
# Indices 1 2 3 4 5 6 
#
# 1 116.6481 49.5469 30.1918 0.0000 0.0000 0.0000
# 2 49.5469 74.5505 18.4113 0.0000 0.0000 0.0000
# 3 30.1918 18.4113 83.2400 0.0000 0.0000 0.0000
# 4 0.0000 0.0000 0.0000 20.6808 0.0000 0.0000
# 5 0.0000 0.0000 0.0000 0.0000 15.3473 0.0000
# 6 0.0000 0.0000 0.0000 0.0000 0.0000 11.3727
#
#
#
# Elastic Compliance Matrix: (Units=1/GPa)
#
#
# Indices 1 2 3 4 5 6 
#
# 1 0.012559 -0.007639 -0.002866 0.000000 0.000000 0.000000
# 2 -0.007639 0.018835 -0.001395 0.000000 0.000000 0.000000
# 3 -0.002866 -0.001395 0.013361 0.000000 0.000000 0.000000
# 4 0.000000 0.000000 0.000000 0.048354 0.000000 0.000000
# 5 0.000000 0.000000 0.000000 0.000000 0.065158 0.000000
# 6 0.000000 0.000000 0.000000 0.000000 0.000000 0.087930
#
#
# Mechanical properties :
#
#
# Convention : Reuss Voigt Hill
#
# Bulk Modulus (GPa) = 47.71956 52.30430 50.01193
# Shear Modulus (GPa) = 18.05162 21.23276 19.64219
#
# Velocity S-wave (km/s) = 3.20177 3.47245 3.33985
# Velocity P-wave (km/s) = 6.38498 6.76612 6.57831
#
# Compressibility (1/GPa) = 0.02095577
#
# Stress axis : x y z
#
# Youngs Moduli (GPa) = 79.62187 53.09131 74.84212
#
# Poissons Ratio (x) = 0.40558 0.21447
# Poissons Ratio (y) = 0.60826 0.10442
# Poissons Ratio (z) = 0.22817 0.07407
#
# Static dielectric constant tensor:
#      x y z
#    x 1.574790 0.000000 0.000000 
#    y 0.000000 1.623550 0.000000 
#    z 0.000000 0.000000 1.608820 
# 
# From -- ./inp_files/11608.got.cif
#   From: 2010.05.17/outbox.cif.g08.bks.cpg/sg36_6_cif.got.tgz:11608.got - 2010.06.03 17:41:39.
