data_PCOD9352854
_publ_section_title
;
Structure prediction by ZEFSAII (Michael W. Deem and Ramdas Pophale) SiO2 
 PCOD9352854
Probable space group: C M C 21
;
_chemical_formula_sum "Si O2"
_cell_formula_units_Z 48
_cell_length_a 10.009059
_cell_length_b 23.316809
_cell_length_c 9.563100
_cell_angle_alpha 90.000000
_cell_angle_beta 90.000000
_cell_angle_gamma 90.000000
_cell_volume 2231.829746
_symmetry_space_group_name_H-M "C M C 21"
_symmetry_group_IT_number 36
_symmetry_cell_setting 'orthorhombic'
loop_
_space_group_symop_operation_xyz
x,y,z
-x,-y,1/2+z
x,-y,1/2+z
-x,y,z
1/2+x,1/2+y,z
1/2-x,1/2-y,1/2+z
1/2+x,1/2-y,1/2+z
1/2-x,1/2+y,z
loop_
_atom_site_type_symbol
_atom_site_label
_atom_site_fract_x
_atom_site_fract_y
_atom_site_fract_z
Si Si1 0.500000 0.924646 0.339140
Si Si2 0.500000 0.135965 0.550173
Si Si3 0.350351 0.713144 0.756462
Si Si4 0.000000 0.557696 0.301061
Si Si5 0.728723 0.305748 0.947627
Si Si6 0.298195 0.403037 0.737870
Si Si7 0.706013 0.399587 0.427105
Si Si8 0.000000 0.002971 0.825804
O O1 0.500000 0.879871 0.211612
O O2 0.362306 0.915285 0.420619
O O3 0.500000 0.989763 0.283993
O O4 0.500000 0.076365 0.463985
O O5 0.629582 0.170931 0.504388
O O6 0.500000 0.730316 0.797711
O O7 0.342100 0.714162 0.588949
O O8 0.250515 0.755512 0.835805
O O9 0.324424 0.649263 0.813269
O O10 0.860947 0.583769 0.245169
O O11 0.667247 0.358915 0.862155
O O12 0.326570 0.378892 0.583681
O O13 0.383366 0.460085 0.762066
O O14 0.616322 0.454192 0.389885
#
# Coordination Sequence:
#
# PCOD9352854 Si02
#       8
#     4   4   8   4   8   8   8   4
#     4  12  23  42  69 105 137 190 241 283 349 426
#     4  10  22  43  68 100 142 174 233 293 352 411
#     4  12  26  48  75 104 142 191 244 302 366 435
#     4  10  23  40  70  96 139 191 233 291 339 425
#     4  11  25  50  71 102 141 187 239 301 361 428
#     4  11  26  46  71 105 143 191 242 299 360 431
#     4  12  26  45  71 107 146 191 243 300 361 434
#     4  12  26  43  69 107 154 187 229 295 378 434
#
# _framework density 21.507017000000001
#
# number of rings (size 3 to 8) (size 9 to 14) (size 15 to 20)
#    0.000    0.667    5.000    2.000    3.500    2.667 
#    6.000    0.000    0.000    0.000    0.000    0.000 
#    0.000    0.000    0.000    0.000    0.000    0.000 
#
# Total GULP energy -133646.669251 kJ/mol
# GULP energy per Si atom -5568.611219 kJ/mol
# Density = 2.145807 g / cm^3
# Si number density = 21.507017 Si / 1000 Ang^3
#
#
#
# Elastic Constant Matrix: (Units=GPa)
#
#
# Indices 1 2 3 4 5 6 
#
# 1 118.5901 14.0369 27.4226 0.0000 0.0000 0.0000
# 2 14.0369 37.8602 35.9820 0.0000 0.0000 0.0000
# 3 27.4226 35.9820 129.1845 0.0000 0.0000 0.0000
# 4 0.0000 0.0000 0.0000 31.4253 0.0000 0.0000
# 5 0.0000 0.0000 0.0000 0.0000 -1.7479 0.0000
# 6 0.0000 0.0000 0.0000 0.0000 0.0000 18.5297
#
#
#
# Elastic Compliance Matrix: (Units=1/GPa)
#
#
# Indices 1 2 3 4 5 6 
#
# 1 0.008985 -0.002065 -0.001332 0.000000 0.000000 0.000000
# 2 -0.002065 0.036397 -0.009699 0.000000 0.000000 0.000000
# 3 -0.001332 -0.009699 0.010725 0.000000 0.000000 0.000000
# 4 0.000000 0.000000 0.000000 0.031822 0.000000 0.000000
# 5 0.000000 0.000000 0.000000 0.000000 -0.572119 0.000000
# 6 0.000000 0.000000 0.000000 0.000000 0.000000 0.053968
#
#
# Mechanical properties :
#
#
# Convention : Reuss Voigt Hill
#
# Bulk Modulus (GPa) = 33.42946 48.94643 41.18794
# Shear Modulus (GPa) = -12.68846 23.52096 5.41625
#
# Velocity S-wave (km/s) = -2.43156 3.31061 1.58866
# Velocity P-wave (km/s) = 2.77379 6.11730 4.74949
#
# Compressibility (1/GPa) = 0.02991374
#
# Stress axis : x y z
#
# Youngs Moduli (GPa) = 111.29819 27.47496 93.23853
#
# Poissons Ratio (x) = 0.05674 0.12420
# Poissons Ratio (y) = 0.22986 0.90435
# Poissons Ratio (z) = 0.14825 0.26649
#
# Static dielectric constant tensor:
#      x y z
#    x 1.784060 0.000000 0.000000 
#    y 0.000000 1.743480 0.000000 
#    z 0.000000 0.000000 1.793590 
# 
# From -- ./inp_files/3359.got.cif
#   From: 2010.05.17/outbox.cif.g08.bks.cpg/sg36_2_cif.got.tgz:3359.got - 2010.06.03 17:41:39.
