data_PCOD9352424
_publ_section_title
;
Structure prediction by ZEFSAII (Michael W. Deem and Ramdas Pophale) SiO2 
 PCOD9352424
Probable space group: C M C 21
;
_chemical_formula_sum "Si O2"
_cell_formula_units_Z 60
_cell_length_a 23.801931
_cell_length_b 18.498397
_cell_length_c 5.568511
_cell_angle_alpha 90.000000
_cell_angle_beta 90.000000
_cell_angle_gamma 90.000000
_cell_volume 2451.801856
_symmetry_space_group_name_H-M "C M C 21"
_symmetry_group_IT_number 36
_symmetry_cell_setting 'orthorhombic'
loop_
_space_group_symop_operation_xyz
x,y,z
-x,-y,1/2+z
x,-y,1/2+z
-x,y,z
1/2+x,1/2+y,z
1/2-x,1/2-y,1/2+z
1/2+x,1/2-y,1/2+z
1/2-x,1/2+y,z
loop_
_atom_site_type_symbol
_atom_site_label
_atom_site_fract_x
_atom_site_fract_y
_atom_site_fract_z
Si Si1 0.130344 0.184822 0.710170
Si Si2 0.000000 0.451531 0.852169
Si Si3 0.566674 0.542365 0.863433
Si Si4 0.344347 0.769625 0.316750
Si Si5 0.398348 0.840339 0.936779
Si Si6 0.704319 0.479571 0.634927
Si Si7 0.670327 0.031232 0.551110
Si Si8 0.234531 0.176112 0.004532
O O1 0.096340 0.119785 0.820723
O O2 0.129572 0.197173 0.427397
O O3 0.108249 0.264132 0.799962
O O4 0.196232 0.170629 0.766193
O O5 0.052947 0.395796 0.865150
O O6 0.000000 0.498586 0.600342
O O7 0.576667 0.491858 0.627775
O O8 0.500000 0.557201 0.856725
O O9 0.301051 0.814300 0.481908
O O10 0.396282 0.814377 0.214151
O O11 0.297722 0.742261 0.127849
O O12 0.342879 0.890112 0.948848
O O13 0.676181 0.504938 0.878840
O O14 0.763863 0.520345 0.597534
O O15 0.720500 0.396298 0.645930
O O16 0.648179 0.017966 0.825597
#
# Coordination Sequence:
#
# PCOD9352424 Si02
#       8
#     8   4   8   8   8   8   8   8
#     4  11  27  44  75 107 149 196 250 318 381 465
#     4  12  30  54  82 118 162 206 264 332 388 452
#     4  10  25  52  82 110 145 187 239 314 398 476
#     4  11  24  44  67 102 150 202 252 315 378 452
#     4  11  27  45  75 110 149 203 256 321 386 454
#     4  10  23  36  60  91 128 185 241 290 345 427
#     4  10  21  38  63  94 133 189 244 291 348 429
#     4  11  24  41  65 100 147 197 251 305 372 441
#
# _framework density 24.471799000000001
#
# number of rings (size 3 to 8) (size 9 to 14) (size 15 to 20)
#    0.000    1.333    1.333    2.400   14.000    1.067 
#    1.200    0.000    0.000    0.000    0.000    0.000 
#    0.000    0.000    0.000    0.000    0.000    0.000 
#
# Total GULP energy -167304.359407 kJ/mol
# GULP energy per Si atom -5576.811980 kJ/mol
# Density = 2.441610 g / cm^3
# Si number density = 24.471799 Si / 1000 Ang^3
#
#
#
# Elastic Constant Matrix: (Units=GPa)
#
#
# Indices 1 2 3 4 5 6 
#
# 1 76.9627 26.1865 11.6383 0.0000 0.0000 0.0000
# 2 26.1865 111.5674 5.3379 0.0000 0.0000 0.0000
# 3 11.6383 5.3379 89.5534 0.0000 0.0000 0.0000
# 4 0.0000 0.0000 0.0000 46.3235 0.0000 0.0000
# 5 0.0000 0.0000 0.0000 0.0000 27.6850 0.0000
# 6 0.0000 0.0000 0.0000 0.0000 0.0000 41.4208
#
#
#
# Elastic Compliance Matrix: (Units=1/GPa)
#
#
# Indices 1 2 3 4 5 6 
#
# 1 0.014366 -0.003292 -0.001671 0.000000 0.000000 0.000000
# 2 -0.003292 0.009743 -0.000153 0.000000 0.000000 0.000000
# 3 -0.001671 -0.000153 0.011393 0.000000 0.000000 0.000000
# 4 0.000000 0.000000 0.000000 0.021587 0.000000 0.000000
# 5 0.000000 0.000000 0.000000 0.000000 0.036121 0.000000
# 6 0.000000 0.000000 0.000000 0.000000 0.000000 0.024142
#
#
# Mechanical properties :
#
#
# Convention : Reuss Voigt Hill
#
# Bulk Modulus (GPa) = 39.57163 40.48988 40.03075
# Shear Modulus (GPa) = 36.76271 38.74724 37.75498
#
# Velocity S-wave (km/s) = 3.88009 3.98344 3.93210
# Velocity P-wave (km/s) = 6.02319 6.14317 6.08348
#
# Compressibility (1/GPa) = 0.02527063
#
# Stress axis : x y z
#
# Youngs Moduli (GPa) = 69.60856 102.63588 87.77493
#
# Poissons Ratio (x) = 0.33788 0.14665
# Poissons Ratio (y) = 0.22915 0.01342
# Poissons Ratio (z) = 0.11630 0.01570
#
# Static dielectric constant tensor:
#      x y z
#    x 1.975800 0.000000 0.000000 
#    y 0.000000 1.993530 0.000000 
#    z 0.000000 0.000000 2.243900 
# 
# From -- ./inp_files/1770.got.cif
#   From: 2010.05.17/outbox.cif.g08.bks.cpg/sg36_1_cif.got.tgz:1770.got - 2010.06.03 17:41:39.
