data_PCOD9352095
_publ_section_title
;
Structure prediction by ZEFSAII (Michael W. Deem and Ramdas Pophale) SiO2 
 PCOD9352095
Probable space group: C M C 21
;
_chemical_formula_sum "Si O2"
_cell_formula_units_Z 64
_cell_length_a 8.941973
_cell_length_b 25.273265
_cell_length_c 14.382192
_cell_angle_alpha 90.000000
_cell_angle_beta 90.000000
_cell_angle_gamma 90.000000
_cell_volume 3250.272606
_symmetry_space_group_name_H-M "C M C 21"
_symmetry_group_IT_number 36
_symmetry_cell_setting 'orthorhombic'
loop_
_space_group_symop_operation_xyz
x,y,z
-x,-y,1/2+z
x,-y,1/2+z
-x,y,z
1/2+x,1/2+y,z
1/2-x,1/2-y,1/2+z
1/2+x,1/2-y,1/2+z
1/2-x,1/2+y,z
loop_
_atom_site_type_symbol
_atom_site_label
_atom_site_fract_x
_atom_site_fract_y
_atom_site_fract_z
Si Si1 0.173406 0.955245 0.434140
Si Si2 0.819973 0.791778 0.249653
Si Si3 0.825414 0.375140 0.111078
Si Si4 0.319959 0.427504 0.943732
Si Si5 0.677439 0.811084 0.639572
Si Si6 0.829826 0.032368 0.710209
Si Si7 0.323982 0.588450 0.226915
Si Si8 0.318619 0.664498 0.951540
O O1 0.173120 0.959722 0.321599
O O2 0.235064 0.897118 0.457626
O O3 0.000000 0.954358 0.465182
O O4 0.235249 0.012311 0.466051
O O5 0.753307 0.830765 0.172735
O O6 0.778954 0.732991 0.215928
O O7 0.772117 0.809944 0.352910
O O8 0.000000 0.796324 0.248243
O O9 0.789313 0.429678 0.164553
O O10 0.000000 0.364895 0.103509
O O11 0.752110 0.384758 0.010971
O O12 0.500000 0.427813 0.953212
O O13 0.288238 0.415024 0.836351
O O14 0.500000 0.808060 0.626498
O O15 0.726343 0.868006 0.677236
O O16 0.757270 0.804271 0.540215
O O17 0.000000 0.046636 0.679941
O O18 0.804626 0.970915 0.688971
O O19 0.500000 0.601713 0.216449
O O20 0.500000 0.663752 0.953563
#
# Coordination Sequence:
#
# PCOD9352095 Si02
#       8
#     8   8   8   8   8   8   8   8
#     4   8  15  32  60  87 110 150 205 248 282 337
#     4  10  23  45  66  83 114 164 211 250 295 352
#     4  12  24  35  55  91 125 157 196 246 308 358
#     4   9  19  36  59  88 122 162 205 245 291 355
#     4  11  25  41  61  92 126 157 193 248 316 362
#     4   9  17  35  60  84 115 156 200 243 289 351
#     4   9  20  39  63  88 116 159 208 246 288 350
#     4  10  20  39  66  89 112 155 210 252 289 351
#
# _framework density 19.690657000000002
#
# number of rings (size 3 to 8) (size 9 to 14) (size 15 to 20)
#    0.000    2.250    1.250    3.000    1.750    3.500 
#    0.000    4.375    0.000    0.000    0.000    0.000 
#    0.000    0.000    0.000    0.000    0.000    0.000 
#
# Total GULP energy -178620.949198 kJ/mol
# GULP energy per Si atom -5581.904662 kJ/mol
# Density = 1.964584 g / cm^3
# Si number density = 19.690657 Si / 1000 Ang^3
#
#
#
# Elastic Constant Matrix: (Units=GPa)
#
#
# Indices 1 2 3 4 5 6 
#
# 1 5.5003 18.3001 13.2489 0.0000 0.0000 0.0000
# 2 18.3001 64.3767 24.5921 0.0000 0.0000 0.0000
# 3 13.2489 24.5921 67.0543 0.0000 0.0000 0.0000
# 4 0.0000 0.0000 0.0000 22.8993 0.0000 0.0000
# 5 0.0000 0.0000 0.0000 0.0000 16.1266 0.0000
# 6 0.0000 0.0000 0.0000 0.0000 0.0000 20.5968
#
#
#
# Elastic Compliance Matrix: (Units=1/GPa)
#
#
# Indices 1 2 3 4 5 6 
#
# 1 -2.624461 0.637229 0.284851 0.000000 0.000000 0.000000
# 2 0.637229 -0.136657 -0.075788 0.000000 0.000000 0.000000
# 3 0.284851 -0.075788 -0.013574 0.000000 0.000000 0.000000
# 4 0.000000 0.000000 0.000000 0.043669 0.000000 0.000000
# 5 0.000000 0.000000 0.000000 0.000000 0.062009 0.000000
# 6 0.000000 0.000000 0.000000 0.000000 0.000000 0.048551
#
#
# Mechanical properties :
#
#
# Convention : Reuss Voigt Hill
#
# Bulk Modulus (GPa) = -0.92412 27.69039 13.38314
# Shear Modulus (GPa) = -1.06980 17.31055 8.12037
#
# Velocity S-wave (km/s) = -0.73789 2.96822 2.03296
# Velocity P-wave (km/s) = 1.09376 5.08334 3.51027
#
# Compressibility (1/GPa) = -1.08210718
#
# Stress axis : x y z
#
# Youngs Moduli (GPa) = -0.38103 -7.31757 -73.67096
#
# Poissons Ratio (x) = 4.66297 20.98526
# Poissons Ratio (y) = 0.24280 -5.58338
# Poissons Ratio (z) = 0.10854 -0.55458
#
# Static dielectric constant tensor:
#      x y z
#    x 1.658250 0.000000 0.000000 
#    y 0.000000 1.703150 0.000000 
#    z 0.000000 0.000000 1.715970 
# 
# From -- ./inp_files/11000.got.cif
#   From: 2010.05.17/outbox.cif.g08.bks.cpg/sg36_6_cif.got.tgz:11000.got - 2010.06.03 17:41:39.
