data_PCOD9352331
_publ_section_title
;
Structure prediction by ZEFSAII (Michael W. Deem and Ramdas Pophale) SiO2 
 PCOD9352331
Probable space group: C M C 21
;
_chemical_formula_sum "Si O2"
_cell_formula_units_Z 64
_cell_length_a 8.589003
_cell_length_b 25.396047
_cell_length_c 14.278715
_cell_angle_alpha 90.000000
_cell_angle_beta 90.000000
_cell_angle_gamma 90.000000
_cell_volume 3114.569324
_symmetry_space_group_name_H-M "C M C 21"
_symmetry_group_IT_number 36
_symmetry_cell_setting 'orthorhombic'
loop_
_space_group_symop_operation_xyz
x,y,z
-x,-y,1/2+z
x,-y,1/2+z
-x,y,z
1/2+x,1/2+y,z
1/2-x,1/2-y,1/2+z
1/2+x,1/2-y,1/2+z
1/2-x,1/2+y,z
loop_
_atom_site_type_symbol
_atom_site_label
_atom_site_fract_x
_atom_site_fract_y
_atom_site_fract_z
Si Si1 0.682339 0.173074 0.364160
Si Si2 0.317751 0.292721 0.572518
Si Si3 0.186825 0.590194 0.087812
Si Si4 0.816486 0.868807 0.254045
Si Si5 0.683223 0.681637 0.567347
Si Si6 0.687050 0.058684 0.288718
Si Si7 0.184308 0.960814 0.396729
Si Si8 0.677469 0.220886 0.871733
O O1 0.500000 0.182507 0.346584
O O2 0.716867 0.171496 0.475016
O O3 0.727147 0.117744 0.320327
O O4 0.781406 0.222535 0.329158
O O5 0.500000 0.289204 0.594391
O O6 0.252230 0.350224 0.598663
O O7 0.229549 0.239716 0.606244
O O8 0.289661 0.289140 0.460070
O O9 0.234453 0.556026 0.179197
O O10 0.000000 0.594217 0.087459
O O11 0.240123 0.563597 0.990467
O O12 0.790886 0.863638 0.143736
O O13 0.784181 0.922275 0.308582
O O14 0.709339 0.824932 0.299959
O O15 0.000000 0.855842 0.269604
O O16 0.500000 0.682570 0.543499
O O17 0.500000 0.053036 0.292907
O O18 0.758275 0.017166 0.360708
O O19 0.000000 0.961942 0.412993
O O20 0.500000 0.219842 0.905200
#
# Coordination Sequence:
#
# PCOD9352331 Si02
#       8
#     8   8   8   8   8   8   8   8
#     4  10  21  40  61  86 124 165 204 257 317 370
#     4  11  21  36  58  89 127 164 207 258 314 370
#     4  11  23  42  66  93 123 164 212 259 314 374
#     4  10  22  39  59  87 125 166 206 255 313 373
#     4  10  21  37  59  89 127 170 210 255 315 379
#     4  10  25  45  66  92 124 167 213 260 316 377
#     4  11  24  43  67  94 126 166 211 265 320 371
#     4  11  21  34  58  90 122 162 205 253 311 372
#
# _framework density 20.548587000000001
#
# number of rings (size 3 to 8) (size 9 to 14) (size 15 to 20)
#    0.000    1.500    1.250    5.250    1.750    4.500 
#    0.000    2.500    0.000    0.000    0.000    0.000 
#    0.000    0.000    0.000    0.000    0.000    0.000 
#
# Total GULP energy -178754.312848 kJ/mol
# GULP energy per Si atom -5586.072277 kJ/mol
# Density = 2.050182 g / cm^3
# Si number density = 20.548587 Si / 1000 Ang^3
#
#
#
# Elastic Constant Matrix: (Units=GPa)
#
#
# Indices 1 2 3 4 5 6 
#
# 1 42.9713 23.4275 1.4662 0.0000 0.0000 0.0000
# 2 23.4275 66.2235 14.6660 0.0000 0.0000 0.0000
# 3 1.4662 14.6660 55.0604 0.0000 0.0000 0.0000
# 4 0.0000 0.0000 0.0000 25.1792 0.0000 0.0000
# 5 0.0000 0.0000 0.0000 0.0000 22.2956 0.0000
# 6 0.0000 0.0000 0.0000 0.0000 0.0000 24.0221
#
#
#
# Elastic Compliance Matrix: (Units=1/GPa)
#
#
# Indices 1 2 3 4 5 6 
#
# 1 0.029056 -0.010741 0.002087 0.000000 0.000000 0.000000
# 2 -0.010741 0.020018 -0.005046 0.000000 0.000000 0.000000
# 3 0.002087 -0.005046 0.019450 0.000000 0.000000 0.000000
# 4 0.000000 0.000000 0.000000 0.039715 0.000000 0.000000
# 5 0.000000 0.000000 0.000000 0.000000 0.044852 0.000000
# 6 0.000000 0.000000 0.000000 0.000000 0.000000 0.041628
#
#
# Mechanical properties :
#
#
# Convention : Reuss Voigt Hill
#
# Bulk Modulus (GPa) = 24.31643 27.04162 25.67902
# Shear Modulus (GPa) = 21.20191 22.61241 21.90716
#
# Velocity S-wave (km/s) = 3.21564 3.32088 3.26868
# Velocity P-wave (km/s) = 5.06423 5.28136 5.17393
#
# Compressibility (1/GPa) = 0.04112446
#
# Stress axis : x y z
#
# Youngs Moduli (GPa) = 34.41605 49.95565 51.41298
#
# Poissons Ratio (x) = 0.53659 -0.10732
# Poissons Ratio (y) = 0.36967 0.25943
# Poissons Ratio (z) = -0.07184 0.25207
#
# Static dielectric constant tensor:
#      x y z
#    x 1.696720 0.000000 0.000000 
#    y 0.000000 1.723710 0.000000 
#    z 0.000000 0.000000 1.759060 
# 
# From -- ./inp_files/11040.got.cif
#   From: 2010.05.17/outbox.cif.g08.bks.cpg/sg36_6_cif.got.tgz:11040.got - 2010.06.03 17:41:39.
