data_PCOD9352835
_publ_section_title
;
Structure prediction by ZEFSAII (Michael W. Deem and Ramdas Pophale) SiO2 
 PCOD9352835
Probable space group: C M C 21
;
_chemical_formula_sum "Si O2"
_cell_formula_units_Z 64
_cell_length_a 18.949661
_cell_length_b 11.344428
_cell_length_c 14.245901
_cell_angle_alpha 90.000000
_cell_angle_beta 90.000000
_cell_angle_gamma 90.000000
_cell_volume 3062.484999
_symmetry_space_group_name_H-M "C M C 21"
_symmetry_group_IT_number 36
_symmetry_cell_setting 'orthorhombic'
loop_
_space_group_symop_operation_xyz
x,y,z
-x,-y,1/2+z
x,-y,1/2+z
-x,y,z
1/2+x,1/2+y,z
1/2-x,1/2-y,1/2+z
1/2+x,1/2-y,1/2+z
1/2-x,1/2+y,z
loop_
_atom_site_type_symbol
_atom_site_label
_atom_site_fract_x
_atom_site_fract_y
_atom_site_fract_z
Si Si1 0.677458 0.482289 0.194490
Si Si2 0.699680 0.739585 0.579655
Si Si3 0.581315 0.986807 0.387092
Si Si4 0.824642 0.434205 0.734179
Si Si5 0.418186 0.080808 0.593204
Si Si6 0.917875 0.227540 0.421355
Si Si7 0.146678 0.829168 0.541994
Si Si8 0.416899 0.540279 0.861312
O O1 0.710113 0.389951 0.121252
O O2 0.744078 0.529759 0.252681
O O3 0.643281 0.584278 0.131560
O O4 0.621347 0.426254 0.264818
O O5 0.636341 0.732067 0.506622
O O6 0.771202 0.790551 0.534598
O O7 0.679299 0.821045 0.667803
O O8 0.500000 0.014728 0.365245
O O9 0.632781 0.071870 0.330463
O O10 0.594523 0.848698 0.364295
O O11 0.590892 0.004100 0.498329
O O12 0.867180 0.530362 0.672612
O O13 0.500000 0.073253 0.622481
O O14 0.398236 0.213125 0.564396
O O15 0.000000 0.233121 0.452503
O O16 0.908707 0.102268 0.370433
O O17 0.118967 0.896231 0.450083
O O18 0.500000 0.567021 0.860695
#
# Coordination Sequence:
#
# PCOD9352835 Si02
#       8
#     8   8   8   8   8   8   8   8
#     4  11  26  44  65 100 134 175 225 275 335 400
#     4  11  23  44  68  93 133 175 221 278 333 395
#     4  10  23  40  64  98 131 170 217 271 331 393
#     4  11  24  40  65  96 129 171 217 267 333 400
#     4  11  23  42  65  93 132 171 217 272 329 396
#     4  10  22  42  68  95 129 176 223 270 332 397
#     4  11  25  45  68  96 135 176 229 275 338 401
#     4  11  26  45  69 101 133 178 227 276 339 402
#
# _framework density 20.898060999999998
#
# number of rings (size 3 to 8) (size 9 to 14) (size 15 to 20)
#    0.000    1.250    3.750    0.750    5.250    3.000 
#    0.000    0.000    0.000    0.000    0.000    0.000 
#    0.000    0.000    0.000    0.000    0.000    0.000 
#
# Total GULP energy -178876.913731 kJ/mol
# GULP energy per Si atom -5589.903554 kJ/mol
# Density = 2.085050 g / cm^3
# Si number density = 20.898061 Si / 1000 Ang^3
#
#
#
# Elastic Constant Matrix: (Units=GPa)
#
#
# Indices 1 2 3 4 5 6 
#
# 1 86.4118 11.8041 41.6681 0.0000 0.0000 0.0000
# 2 11.8041 61.8344 -1.8773 0.0000 0.0000 0.0000
# 3 41.6681 -1.8773 42.6366 0.0000 0.0000 0.0000
# 4 0.0000 0.0000 0.0000 20.2999 0.0000 0.0000
# 5 0.0000 0.0000 0.0000 0.0000 32.1140 0.0000
# 6 0.0000 0.0000 0.0000 0.0000 0.0000 29.7893
#
#
#
# Elastic Compliance Matrix: (Units=1/GPa)
#
#
# Indices 1 2 3 4 5 6 
#
# 1 0.023431 -0.005175 -0.023127 0.000000 0.000000 0.000000
# 2 -0.005175 0.017337 0.005821 0.000000 0.000000 0.000000
# 3 -0.023127 0.005821 0.046312 0.000000 0.000000 0.000000
# 4 0.000000 0.000000 0.000000 0.049261 0.000000 0.000000
# 5 0.000000 0.000000 0.000000 0.000000 0.031139 0.000000
# 6 0.000000 0.000000 0.000000 0.000000 0.000000 0.033569
#
#
# Mechanical properties :
#
#
# Convention : Reuss Voigt Hill
#
# Bulk Modulus (GPa) = 23.74289 32.67471 28.20880
# Shear Modulus (GPa) = 19.22700 25.72651 22.47676
#
# Velocity S-wave (km/s) = 3.03650 3.51244 3.28310
# Velocity P-wave (km/s) = 4.86618 5.66735 5.28198
#
# Compressibility (1/GPa) = 0.04211788
#
# Stress axis : x y z
#
# Youngs Moduli (GPa) = 42.67799 57.68049 21.59272
#
# Poissons Ratio (x) = 0.29850 0.49937
# Poissons Ratio (y) = 0.22086 -0.12569
# Poissons Ratio (z) = 0.98701 -0.33575
#
# Static dielectric constant tensor:
#      x y z
#    x 1.727730 0.000000 0.000000 
#    y 0.000000 1.768400 0.000000 
#    z 0.000000 0.000000 1.731860 
# 
# From -- ./inp_files/12634.got.cif
#   From: 2010.05.17/outbox.cif.g08.bks.cpg/sg36_7_cif.got.tgz:12634.got - 2010.06.03 17:41:39.
