data_PCOD9352144
_publ_section_title
;
Structure prediction by ZEFSAII (Michael W. Deem and Ramdas Pophale) SiO2 
 PCOD9352144
Probable space group: C M C 21
;
_chemical_formula_sum "Si O2"
_cell_formula_units_Z 64
_cell_length_a 8.409511
_cell_length_b 31.279763
_cell_length_c 12.513860
_cell_angle_alpha 90.000000
_cell_angle_beta 90.000000
_cell_angle_gamma 90.000000
_cell_volume 3291.739726
_symmetry_space_group_name_H-M "C M C 21"
_symmetry_group_IT_number 36
_symmetry_cell_setting 'orthorhombic'
loop_
_space_group_symop_operation_xyz
x,y,z
-x,-y,1/2+z
x,-y,1/2+z
-x,y,z
1/2+x,1/2+y,z
1/2-x,1/2-y,1/2+z
1/2+x,1/2-y,1/2+z
1/2-x,1/2+y,z
loop_
_atom_site_type_symbol
_atom_site_label
_atom_site_fract_x
_atom_site_fract_y
_atom_site_fract_z
Si Si1 0.184600 0.674073 0.186880
Si Si2 0.691568 0.201007 0.956232
Si Si3 0.187153 0.044701 0.955692
Si Si4 0.188662 0.451220 0.913637
Si Si5 0.684634 0.927784 0.679648
Si Si6 0.309744 0.625685 0.561016
Si Si7 0.191778 0.703428 0.415644
Si Si8 0.307703 0.624123 0.808278
O O1 0.184644 0.623151 0.189806
O O2 0.253970 0.690669 0.297654
O O3 0.000000 0.688639 0.185670
O O4 0.254531 0.688303 0.074079
O O5 0.500000 0.198602 0.955639
O O6 0.746615 0.249176 0.937171
O O7 0.752216 0.166685 0.869848
O O8 0.216268 0.059770 0.076465
O O9 0.000000 0.038155 0.936158
O O10 0.244867 0.082129 0.875234
O O11 0.274743 0.999722 0.943794
O O12 0.247236 0.445192 0.792030
O O13 0.000000 0.443161 0.911894
O O14 0.261098 0.416361 0.994024
O O15 0.500000 0.941705 0.664355
O O16 0.500000 0.628202 0.562584
O O17 0.246028 0.667749 0.500538
O O18 0.254244 0.623257 0.684619
O O19 0.000000 0.703046 0.415096
O O20 0.500000 0.623902 0.809099
#
# Coordination Sequence:
#
# PCOD9352144 Si02
#       8
#     8   8   8   8   8   8   8   8
#     4   9  19  39  64  86 119 158 198 253 309 358
#     4  11  23  40  64  94 123 161 208 253 306 369
#     4  11  24  41  63  93 126 161 206 256 312 370
#     4  11  24  42  65  93 124 163 209 255 311 371
#     4  10  20  41  66  90 120 159 206 256 310 368
#     4  11  24  43  64  90 126 166 208 257 312 367
#     4  11  23  42  64  91 126 165 205 252 311 369
#     4  10  24  44  62  87 126 167 204 254 313 366
#
# _framework density 19.442606999999999
#
# number of rings (size 3 to 8) (size 9 to 14) (size 15 to 20)
#    0.000    1.500    2.500    1.875    3.500    2.500 
#    0.000    1.875    0.000    0.000    0.000    0.000 
#    0.000    0.000    0.000    0.000    0.000    0.000 
#
# Total GULP energy -178719.706123 kJ/mol
# GULP energy per Si atom -5584.990816 kJ/mol
# Density = 1.939836 g / cm^3
# Si number density = 19.442607 Si / 1000 Ang^3
#
#
#
# Elastic Constant Matrix: (Units=GPa)
#
#
# Indices 1 2 3 4 5 6 
#
# 1 29.3065 16.5795 27.3956 0.0000 0.0000 0.0000
# 2 16.5795 144.7838 100.1497 0.0000 0.0000 0.0000
# 3 27.3956 100.1497 216.3030 0.0000 0.0000 0.0000
# 4 0.0000 0.0000 0.0000 28.7413 0.0000 0.0000
# 5 0.0000 0.0000 0.0000 0.0000 25.1873 0.0000
# 6 0.0000 0.0000 0.0000 0.0000 0.0000 33.2064
#
#
#
# Elastic Compliance Matrix: (Units=1/GPa)
#
#
# Indices 1 2 3 4 5 6 
#
# 1 0.038937 -0.001541 -0.004218 0.000000 0.000000 0.000000
# 2 -0.001541 0.010222 -0.004538 0.000000 0.000000 0.000000
# 3 -0.004218 -0.004538 0.007258 0.000000 0.000000 0.000000
# 4 0.000000 0.000000 0.000000 0.034793 0.000000 0.000000
# 5 0.000000 0.000000 0.000000 0.000000 0.039703 0.000000
# 6 0.000000 0.000000 0.000000 0.000000 0.000000 0.030115
#
#
# Mechanical properties :
#
#
# Convention : Reuss Voigt Hill
#
# Bulk Modulus (GPa) = 27.91438 75.40475 51.65957
# Shear Modulus (GPa) = 25.83140 33.84488 29.83814
#
# Velocity S-wave (km/s) = 3.64895 4.17677 3.92175
# Velocity P-wave (km/s) = 5.66935 7.88213 6.86548
#
# Compressibility (1/GPa) = 0.03582383
#
# Stress axis : x y z
#
# Youngs Moduli (GPa) = 25.68256 97.82661 137.77204
#
# Poissons Ratio (x) = 0.15076 0.58112
# Poissons Ratio (y) = 0.03958 0.62517
# Poissons Ratio (z) = 0.10833 0.44391
#
# Static dielectric constant tensor:
#      x y z
#    x 1.686510 0.000000 0.000000 
#    y 0.000000 1.659800 0.000000 
#    z 0.000000 0.000000 1.661720 
# 
# From -- ./inp_files/7105.got.cif
#   From: 2010.05.17/outbox.cif.g08.bks.cpg/sg36_4_cif.got.tgz:7105.got - 2010.06.03 17:41:39.
