data_PCOD9352512
_publ_section_title
;
Structure prediction by ZEFSAII (Michael W. Deem and Ramdas Pophale) SiO2 
 PCOD9352512
Probable space group: C M C 21
;
_chemical_formula_sum "Si O2"
_cell_formula_units_Z 44
_cell_length_a 11.008214
_cell_length_b 15.732373
_cell_length_c 13.560522
_cell_angle_alpha 90.000000
_cell_angle_beta 90.000000
_cell_angle_gamma 90.000000
_cell_volume 2348.483460
_symmetry_space_group_name_H-M "C M C 21"
_symmetry_group_IT_number 36
_symmetry_cell_setting 'orthorhombic'
loop_
_space_group_symop_operation_xyz
x,y,z
-x,-y,1/2+z
x,-y,1/2+z
-x,y,z
1/2+x,1/2+y,z
1/2-x,1/2-y,1/2+z
1/2+x,1/2-y,1/2+z
1/2-x,1/2+y,z
loop_
_atom_site_type_symbol
_atom_site_label
_atom_site_fract_x
_atom_site_fract_y
_atom_site_fract_z
Si Si1 0.803185 0.007924 0.870690
Si Si2 0.500000 0.151375 0.757961
Si Si3 0.253189 0.875650 0.548191
Si Si4 0.000000 0.706139 0.986447
Si Si5 0.000000 0.173321 0.140201
Si Si6 0.863995 0.489069 0.712116
Si Si7 0.000000 0.093012 0.492875
Si Si8 0.000000 0.018436 0.712537
O O1 0.691076 0.962736 0.817202
O O2 0.884478 0.040566 0.779595
O O3 0.764332 0.083160 0.941533
O O4 0.884515 0.946426 0.936812
O O5 0.500000 0.164782 0.876063
O O6 0.500000 0.242723 0.706771
O O7 0.387572 0.090913 0.722499
O O8 0.375822 0.820916 0.541490
O O9 0.126696 0.831172 0.579201
O O10 0.281304 0.951889 0.625708
O O11 0.000000 0.807133 0.980504
O O12 0.000000 0.084169 0.199896
O O13 0.000000 0.454889 0.697382
O O14 0.000000 0.061146 0.605777
#
# Coordination Sequence:
#
# PCOD9352512 Si02
#       8
#     8   4   8   4   4   8   4   4
#     4  11  20  39  67  92 123 173 226 261 323 403
#     4  10  23  42  65  98 130 177 216 279 332 399
#     4  12  23  43  68  95 132 177 218 278 333 400
#     4  12  25  44  65  98 138 171 222 283 333 393
#     4  12  23  40  67  97 131 168 220 276 332 380
#     4  10  21  39  67  93 125 177 219 268 330 399
#     4  11  24  41  68  97 128 180 221 269 336 396
#     4  11  21  39  61  94 127 170 219 267 327 402
#
# _framework density 18.735495
#
# number of rings (size 3 to 8) (size 9 to 14) (size 15 to 20)
#    0.545    0.364    6.364    1.636    0.000    2.909 
#    0.000    0.000    2.000    0.000    0.000    0.000 
#    0.000    0.000    0.000    0.000    0.000    0.000 
#
# Total GULP energy -122619.567864 kJ/mol
# GULP energy per Si atom -5573.616721 kJ/mol
# Density = 1.869285 g / cm^3
# Si number density = 18.735495 Si / 1000 Ang^3
#
#
#
# Elastic Constant Matrix: (Units=GPa)
#
#
# Indices 1 2 3 4 5 6 
#
# 1 123.3571 34.4522 40.5568 0.0000 0.0000 0.0000
# 2 34.4522 69.0616 23.2625 0.0000 0.0000 0.0000
# 3 40.5568 23.2625 109.0345 0.0000 0.0000 0.0000
# 4 0.0000 0.0000 0.0000 12.3019 0.0000 0.0000
# 5 0.0000 0.0000 0.0000 0.0000 13.6144 0.0000
# 6 0.0000 0.0000 0.0000 0.0000 0.0000 12.1570
#
#
#
# Elastic Compliance Matrix: (Units=1/GPa)
#
#
# Indices 1 2 3 4 5 6 
#
# 1 0.010216 -0.004112 -0.002923 0.000000 0.000000 0.000000
# 2 -0.004112 0.017256 -0.002152 0.000000 0.000000 0.000000
# 3 -0.002923 -0.002152 0.010718 0.000000 0.000000 0.000000
# 4 0.000000 0.000000 0.000000 0.081288 0.000000 0.000000
# 5 0.000000 0.000000 0.000000 0.000000 0.073451 0.000000
# 6 0.000000 0.000000 0.000000 0.000000 0.000000 0.082257
#
#
# Mechanical properties :
#
#
# Convention : Reuss Voigt Hill
#
# Bulk Modulus (GPa) = 50.46352 55.33290 52.89821
# Shear Modulus (GPa) = 16.65751 21.16012 18.90881
#
# Velocity S-wave (km/s) = 2.98499 3.36432 3.18032
# Velocity P-wave (km/s) = 6.23486 6.68501 6.46385
#
# Compressibility (1/GPa) = 0.01981630
#
# Stress axis : x y z
#
# Youngs Moduli (GPa) = 97.88726 57.95098 93.30378
#
# Poissons Ratio (x) = 0.23828 0.27269
# Poissons Ratio (y) = 0.40250 0.20080
# Poissons Ratio (z) = 0.28609 0.12472
#
# Static dielectric constant tensor:
#      x y z
#    x 1.745410 0.000000 0.000000 
#    y 0.000000 1.614430 0.000000 
#    z 0.000000 0.000000 1.640560 
# 
# From -- ./inp_files/7658.got.cif
#   From: 2010.05.17/outbox.cif.g08.bks.cpg/sg36_4_cif.got.tgz:7658.got - 2010.06.03 17:41:39.
