data_PCOD9352791
_publ_section_title
;
Structure prediction by ZEFSAII (Michael W. Deem and Ramdas Pophale) SiO2 
 PCOD9352791
Probable space group: C M C 21
;
_chemical_formula_sum "Si O2"
_cell_formula_units_Z 32
_cell_length_a 11.308238
_cell_length_b 14.721792
_cell_length_c 6.914751
_cell_angle_alpha 90.000000
_cell_angle_beta 90.000000
_cell_angle_gamma 90.000000
_cell_volume 1151.150651
_symmetry_space_group_name_H-M "C M C 21"
_symmetry_group_IT_number 36
_symmetry_cell_setting 'orthorhombic'
loop_
_space_group_symop_operation_xyz
x,y,z
-x,-y,1/2+z
x,-y,1/2+z
-x,y,z
1/2+x,1/2+y,z
1/2-x,1/2-y,1/2+z
1/2+x,1/2-y,1/2+z
1/2-x,1/2+y,z
loop_
_atom_site_type_symbol
_atom_site_label
_atom_site_fract_x
_atom_site_fract_y
_atom_site_fract_z
Si Si1 0.248292 0.591647 0.478380
Si Si2 0.000000 0.337791 0.442678
Si Si3 0.806351 0.244119 0.218364
Si Si4 0.500000 0.012936 0.597822
Si Si5 0.000000 0.156641 0.979234
Si Si6 0.500000 0.530609 0.603010
O O1 0.252145 0.662431 0.656594
O O2 0.244150 0.652720 0.285859
O O3 0.373391 0.541044 0.493799
O O4 0.128275 0.534289 0.499589
O O5 0.889567 0.273233 0.399818
O O6 0.000000 0.403690 0.625572
O O7 0.000000 0.413539 0.270975
O O8 0.888272 0.218369 0.033986
O O9 0.000000 0.104297 0.776305
O O10 0.000000 0.077281 0.140560
#
# Coordination Sequence:
#
# PCOD9352791 Si02
#       6
#     8   4   8   4   4   4
#     4  11  24  42  66  99 133 175 220 269 332 395
#     4   9  21  41  61  90 128 170 210 261 319 382
#     4  10  22  41  65  95 134 171 218 273 329 398
#     4  10  24  42  61  92 131 166 212 264 322 392
#     4  11  24  45  67  96 134 172 222 283 335 400
#     4  12  25  42  69  98 129 176 224 276 338 394
#
# _framework density 27.798272000000001
#
# number of rings (size 3 to 8) (size 9 to 14) (size 15 to 20)
#    0.000    1.500    0.000    5.250    0.000   13.000 
#    0.000    0.000    0.000    0.000    0.000    0.000 
#    0.000    0.000    0.000    0.000    0.000    0.000 
#
# Total GULP energy -89493.419776 kJ/mol
# GULP energy per Si atom -5593.338736 kJ/mol
# Density = 2.773500 g / cm^3
# Si number density = 27.798272 Si / 1000 Ang^3
#
#
#
# Elastic Constant Matrix: (Units=GPa)
#
#
# Indices 1 2 3 4 5 6 
#
# 1 190.6907 57.2919 22.8729 0.0000 0.0000 0.0000
# 2 57.2919 98.7604 -2.4436 0.0000 0.0000 0.0000
# 3 22.8729 -2.4436 46.6207 0.0000 0.0000 0.0000
# 4 0.0000 0.0000 0.0000 56.6403 0.0000 0.0000
# 5 0.0000 0.0000 0.0000 0.0000 27.7526 0.0000
# 6 0.0000 0.0000 0.0000 0.0000 0.0000 61.7413
#
#
#
# Elastic Compliance Matrix: (Units=1/GPa)
#
#
# Indices 1 2 3 4 5 6 
#
# 1 0.006907 -0.004096 -0.003603 0.000000 0.000000 0.000000
# 2 -0.004096 0.012568 0.002668 0.000000 0.000000 0.000000
# 3 -0.003603 0.002668 0.023357 0.000000 0.000000 0.000000
# 4 0.000000 0.000000 0.000000 0.017655 0.000000 0.000000
# 5 0.000000 0.000000 0.000000 0.000000 0.036033 0.000000
# 6 0.000000 0.000000 0.000000 0.000000 0.000000 0.016197
#
#
# Mechanical properties :
#
#
# Convention : Reuss Voigt Hill
#
# Bulk Modulus (GPa) = 30.51577 54.61270 42.56423
# Shear Modulus (GPa) = 37.39666 46.45022 41.92344
#
# Velocity S-wave (km/s) = 3.67179 4.09219 3.88768
# Velocity P-wave (km/s) = 5.38308 6.48203 5.95795
#
# Compressibility (1/GPa) = 0.03276995
#
# Stress axis : x y z
#
# Youngs Moduli (GPa) = 144.78275 79.56960 42.81293
#
# Poissons Ratio (x) = 0.32591 0.15427
# Poissons Ratio (y) = 0.59302 -0.11424
# Poissons Ratio (z) = 0.52170 -0.21231
#
# Static dielectric constant tensor:
#      x y z
#    x 2.140020 0.000000 0.000000 
#    y 0.000000 1.974660 0.000000 
#    z 0.000000 0.000000 2.308110 
# 
# From -- ./inp_files/2952.got.cif
#   From: 2010.05.17/outbox.cif.g08.bks.cpg/sg36_2_cif.got.tgz:2952.got - 2010.06.03 17:41:39.
