data_PCOD9352751
_publ_section_title
;
Structure prediction by ZEFSAII (Michael W. Deem and Ramdas Pophale) SiO2 
 PCOD9352751
Probable space group: C M C 21
;
_chemical_formula_sum "Si O2"
_cell_formula_units_Z 32
_cell_length_a 14.480553
_cell_length_b 16.533280
_cell_length_c 5.254946
_cell_angle_alpha 90.000000
_cell_angle_beta 90.000000
_cell_angle_gamma 90.000000
_cell_volume 1258.092073
_symmetry_space_group_name_H-M "C M C 21"
_symmetry_group_IT_number 36
_symmetry_cell_setting 'orthorhombic'
loop_
_space_group_symop_operation_xyz
x,y,z
-x,-y,1/2+z
x,-y,1/2+z
-x,y,z
1/2+x,1/2+y,z
1/2-x,1/2-y,1/2+z
1/2+x,1/2-y,1/2+z
1/2-x,1/2+y,z
loop_
_atom_site_type_symbol
_atom_site_label
_atom_site_fract_x
_atom_site_fract_y
_atom_site_fract_z
Si Si1 0.607146 0.867684 0.681510
Si Si2 0.213159 0.416029 0.165610
Si Si3 0.869492 0.039921 0.149167
Si Si4 0.392657 0.677325 0.771448
O O1 0.500000 0.885904 0.633431
O O2 0.662787 0.885631 0.421737
O O3 0.640933 0.911959 0.937598
O O4 0.616699 0.773187 0.758488
O O5 0.266686 0.501912 0.181946
O O6 0.408770 0.513145 0.416879
O O7 0.303474 0.358032 0.121744
O O8 0.879920 0.130657 0.044913
O O9 0.500000 0.661066 0.694870
#
# Coordination Sequence:
#
# PCOD9352751 Si02
#       4
#     8   8   8   8
#     4  11  24  43  70 102 139 189 248 307 367 438
#     4  11  22  43  69 101 143 190 241 302 371 446
#     4  10  22  40  65  97 139 184 232 292 366 443
#     4  10  23  42  69 106 145 187 238 303 381 455
#
# _framework density 25.435338999999999
#
# number of rings (size 3 to 8) (size 9 to 14) (size 15 to 20)
#    0.000    1.500    0.000    5.250    0.000    8.000 
#    0.000   13.750    0.000   60.000    0.000    0.000 
#    0.000    0.000    0.000    0.000    0.000    0.000 
#
# Total GULP energy -89227.145110 kJ/mol
# GULP energy per Si atom -5576.696569 kJ/mol
# Density = 2.537745 g / cm^3
# Si number density = 25.435339 Si / 1000 Ang^3
#
#
#
# Elastic Constant Matrix: (Units=GPa)
#
#
# Indices 1 2 3 4 5 6 
#
# 1 197.7275 56.4408 56.8440 0.0000 0.0000 0.0000
# 2 56.4408 100.4364 35.1537 0.0000 0.0000 0.0000
# 3 56.8440 35.1537 163.7278 0.0000 0.0000 0.0000
# 4 0.0000 0.0000 0.0000 35.3720 0.0000 0.0000
# 5 0.0000 0.0000 0.0000 0.0000 -2.1522 0.0000
# 6 0.0000 0.0000 0.0000 0.0000 0.0000 249.5685
#
#
#
# Elastic Compliance Matrix: (Units=1/GPa)
#
#
# Indices 1 2 3 4 5 6 
#
# 1 0.006372 -0.003035 -0.001561 0.000000 0.000000 0.000000
# 2 -0.003035 0.012211 -0.001568 0.000000 0.000000 0.000000
# 3 -0.001561 -0.001568 0.006986 0.000000 0.000000 0.000000
# 4 0.000000 0.000000 0.000000 0.028271 0.000000 0.000000
# 5 0.000000 0.000000 0.000000 0.000000 -0.464637 0.000000
# 6 0.000000 0.000000 0.000000 0.000000 0.000000 0.004007
#
#
# Mechanical properties :
#
#
# Convention : Reuss Voigt Hill
#
# Bulk Modulus (GPa) = 75.51667 84.30764 79.91215
# Shear Modulus (GPa) = -12.81895 77.45452 32.31779
#
# Velocity S-wave (km/s) = -2.24739 5.52428 3.56840
# Velocity P-wave (km/s) = 4.79789 8.59698 6.96160
#
# Compressibility (1/GPa) = 0.01324211
#
# Stress axis : x y z
#
# Youngs Moduli (GPa) = 156.92582 81.89480 143.13736
#
# Poissons Ratio (x) = 0.24853 0.22341
# Poissons Ratio (y) = 0.47623 0.22446
# Poissons Ratio (z) = 0.24494 0.12842
#
# Static dielectric constant tensor:
#      x y z
#    x 2.036980 0.000000 0.000000 
#    y 0.000000 2.049940 0.000000 
#    z 0.000000 0.000000 2.178110 
# 
# From -- ./inp_files/3704.got.cif
#   From: 2010.05.17/outbox.cif.g08.bks.cpg/sg36_2_cif.got.tgz:3704.got - 2010.06.03 17:41:39.
