data_PCOD9352994
_publ_section_title
;
Structure prediction by ZEFSAII (Michael W. Deem and Ramdas Pophale) SiO2 
 PCOD9352994
Probable space group: C M C 21
;
_chemical_formula_sum "Si O2"
_cell_formula_units_Z 64
_cell_length_a 18.511928
_cell_length_b 15.263176
_cell_length_c 11.841030
_cell_angle_alpha 90.000000
_cell_angle_beta 90.000000
_cell_angle_gamma 90.000000
_cell_volume 3345.692679
_symmetry_space_group_name_H-M "C M C 21"
_symmetry_group_IT_number 36
_symmetry_cell_setting 'orthorhombic'
loop_
_space_group_symop_operation_xyz
x,y,z
-x,-y,1/2+z
x,-y,1/2+z
-x,y,z
1/2+x,1/2+y,z
1/2-x,1/2-y,1/2+z
1/2+x,1/2-y,1/2+z
1/2-x,1/2+y,z
loop_
_atom_site_type_symbol
_atom_site_label
_atom_site_fract_x
_atom_site_fract_y
_atom_site_fract_z
Si Si1 0.632970 0.093136 0.791240
Si Si2 0.082013 0.319013 0.076782
Si Si3 0.807138 0.092332 0.313518
Si Si4 0.704550 0.321529 0.583269
Si Si5 0.861445 0.606575 0.344901
Si Si6 0.417182 0.266725 0.918511
Si Si7 0.642124 0.249930 0.160828
Si Si8 0.801910 0.107358 0.829519
O O1 0.597379 0.107138 0.669688
O O2 0.604000 0.170355 0.871897
O O3 0.719654 0.104105 0.783738
O O4 0.619032 0.995071 0.832766
O O5 0.137595 0.242108 0.104041
O O6 0.000000 0.289084 0.084712
O O7 0.100113 0.353323 0.952921
O O8 0.800574 0.103726 0.178241
O O9 0.726056 0.111100 0.359609
O O10 0.862332 0.162728 0.364485
O O11 0.828151 0.992554 0.337812
O O12 0.779017 0.271326 0.608227
O O13 0.702023 0.353716 0.455279
O O14 0.879026 0.665184 0.235243
O O15 0.500000 0.285059 0.887014
O O16 0.407825 0.267834 0.053789
O O17 0.652047 0.330553 0.247373
#
# Coordination Sequence:
#
# PCOD9352994 Si02
#       8
#     8   8   8   8   8   8   8   8
#     4  11  23  40  65  96 123 165 214 267 324 387
#     4  12  24  39  62  88 128 175 210 256 320 389
#     4  10  24  40  69  98 122 166 219 269 318 375
#     4  11  21  42  65  93 126 164 215 273 318 373
#     4  10  24  41  64  96 128 160 217 274 322 379
#     4  12  25  43  63  92 135 177 211 257 325 394
#     4  11  22  41  66  94 125 167 211 271 321 377
#     4  11  22  40  72  97 124 158 219 275 317 368
#
# _framework density 19.129072000000001
#
# number of rings (size 3 to 8) (size 9 to 14) (size 15 to 20)
#    0.000    1.000    5.000    1.875    3.500    3.500 
#    0.000    1.250    0.000    0.000    0.000    0.000 
#    0.000    0.000    0.000    0.000    0.000    0.000 
#
# Total GULP energy -178868.171958 kJ/mol
# GULP energy per Si atom -5589.630374 kJ/mol
# Density = 1.908553 g / cm^3
# Si number density = 19.129072 Si / 1000 Ang^3
#
#
#
# Elastic Constant Matrix: (Units=GPa)
#
#
# Indices 1 2 3 4 5 6 
#
# 1 56.5320 11.6914 12.8379 0.0000 0.0000 0.0000
# 2 11.6914 75.7751 16.0830 0.0000 0.0000 0.0000
# 3 12.8379 16.0830 90.4967 0.0000 0.0000 0.0000
# 4 0.0000 0.0000 0.0000 22.6466 0.0000 0.0000
# 5 0.0000 0.0000 0.0000 0.0000 -23.0381 0.0000
# 6 0.0000 0.0000 0.0000 0.0000 0.0000 7.4586
#
#
#
# Elastic Compliance Matrix: (Units=1/GPa)
#
#
# Indices 1 2 3 4 5 6 
#
# 1 0.018693 -0.002412 -0.002223 0.000000 0.000000 0.000000
# 2 -0.002412 0.014026 -0.002150 0.000000 0.000000 0.000000
# 3 -0.002223 -0.002150 0.011748 0.000000 0.000000 0.000000
# 4 0.000000 0.000000 0.000000 0.044157 0.000000 0.000000
# 5 0.000000 0.000000 0.000000 0.000000 -0.043406 0.000000
# 6 0.000000 0.000000 0.000000 0.000000 0.000000 0.134074
#
#
# Mechanical properties :
#
#
# Convention : Reuss Voigt Hill
#
# Bulk Modulus (GPa) = 32.36821 33.78094 33.07457
# Shear Modulus (GPa) = 24.61113 13.55950 19.08532
#
# Velocity S-wave (km/s) = 3.59079 2.66530 3.16209
# Velocity P-wave (km/s) = 5.84375 5.21244 5.53710
#
# Compressibility (1/GPa) = 0.03089451
#
# Stress axis : x y z
#
# Youngs Moduli (GPa) = 53.49649 71.29842 85.12334
#
# Poissons Ratio (x) = 0.17199 0.18923
# Poissons Ratio (y) = 0.12905 0.18305
# Poissons Ratio (z) = 0.11893 0.15332
#
# Static dielectric constant tensor:
#      x y z
#    x 1.651700 0.000000 0.000000 
#    y 0.000000 1.658030 0.000000 
#    z 0.000000 0.000000 1.661210 
# 
# From -- ./inp_files/8983.got.cif
#   From: 2010.05.17/outbox.cif.g08.bks.cpg/sg36_5_cif.got.tgz:8983.got - 2010.06.03 17:41:39.
