data_PCOD9352135
_publ_section_title
;
Structure prediction by ZEFSAII (Michael W. Deem and Ramdas Pophale) SiO2 
 PCOD9352135
Probable space group: C M C 21
;
_chemical_formula_sum "Si O2"
_cell_formula_units_Z 64
_cell_length_a 25.984330
_cell_length_b 7.452679
_cell_length_c 14.289517
_cell_angle_alpha 90.000000
_cell_angle_beta 90.000000
_cell_angle_gamma 90.000000
_cell_volume 2767.205985
_symmetry_space_group_name_H-M "C M C 21"
_symmetry_group_IT_number 36
_symmetry_cell_setting 'orthorhombic'
loop_
_space_group_symop_operation_xyz
x,y,z
-x,-y,1/2+z
x,-y,1/2+z
-x,y,z
1/2+x,1/2+y,z
1/2-x,1/2-y,1/2+z
1/2+x,1/2-y,1/2+z
1/2-x,1/2+y,z
loop_
_atom_site_type_symbol
_atom_site_label
_atom_site_fract_x
_atom_site_fract_y
_atom_site_fract_z
Si Si1 0.554768 0.292636 0.561400
Si Si2 0.824157 0.146241 0.381389
Si Si3 0.742871 0.521466 0.043577
Si Si4 0.185268 0.871276 0.209766
Si Si5 0.662715 0.029117 0.297864
Si Si6 0.166059 0.343627 0.002817
Si Si7 0.942892 0.520122 0.185795
Si Si8 0.902527 0.174896 0.555175
O O1 0.500000 0.239300 0.514892
O O2 0.609377 0.215591 0.528983
O O3 0.553015 0.190368 0.660433
O O4 0.559195 0.505904 0.556551
O O5 0.778115 0.090847 0.452419
O O6 0.817978 0.330837 0.323142
O O7 0.804929 0.473962 0.535578
O O8 0.872867 0.171198 0.454023
O O9 0.730127 0.436670 0.142866
O O10 0.826188 0.993593 0.300713
O O11 0.793938 0.193666 0.036778
O O12 0.195514 0.665783 0.236524
O O13 0.137251 0.873981 0.138249
O O14 0.661987 0.133636 0.394135
O O15 0.605433 0.031465 0.254636
O O16 0.928761 0.641344 0.093202
O O17 0.000000 0.578658 0.218405
#
# Coordination Sequence:
#
# PCOD9352135 Si02
#       8
#     8   8   8   8   8   8   8   8
#     4  11  22  42  72 101 137 188 244 299 362 438
#     4  11  21  43  70 104 146 189 247 299 367 456
#     4  11  25  46  72  99 154 189 239 319 368 454
#     4  10  21  44  67 104 142 189 247 295 371 449
#     4  11  23  40  72  97 145 193 238 306 369 441
#     4  12  24  48  67 105 144 193 245 301 380 443
#     4  10  23  41  66 106 145 191 250 309 377 442
#     4  10  20  40  72 102 144 194 237 312 368 433
#
# _framework density 23.128021
#
# number of rings (size 3 to 8) (size 9 to 14) (size 15 to 20)
#    0.000    1.250    3.750    2.625    0.000    2.500 
#    4.500    1.250    0.000    2.250    0.000    0.000 
#    0.000    0.000    0.000    0.000    0.000    0.000 
#
# Total GULP energy -178472.359651 kJ/mol
# GULP energy per Si atom -5577.261239 kJ/mol
# Density = 2.307538 g / cm^3
# Si number density = 23.128021 Si / 1000 Ang^3
#
#
#
# Elastic Constant Matrix: (Units=GPa)
#
#
# Indices 1 2 3 4 5 6 
#
# 1 113.6909 55.3318 30.1310 0.0000 0.0000 0.0000
# 2 55.3318 138.1105 65.5122 0.0000 0.0000 0.0000
# 3 30.1310 65.5122 123.8566 0.0000 0.0000 0.0000
# 4 0.0000 0.0000 0.0000 34.7200 0.0000 0.0000
# 5 0.0000 0.0000 0.0000 0.0000 22.0151 0.0000
# 6 0.0000 0.0000 0.0000 0.0000 0.0000 4.5654
#
#
#
# Elastic Compliance Matrix: (Units=1/GPa)
#
#
# Indices 1 2 3 4 5 6 
#
# 1 0.010946 -0.004168 -0.000458 0.000000 0.000000 0.000000
# 2 -0.004168 0.011253 -0.004938 0.000000 0.000000 0.000000
# 3 -0.000458 -0.004938 0.010797 0.000000 0.000000 0.000000
# 4 0.000000 0.000000 0.000000 0.028802 0.000000 0.000000
# 5 0.000000 0.000000 0.000000 0.000000 0.045423 0.000000
# 6 0.000000 0.000000 0.000000 0.000000 0.000000 0.219037
#
#
# Mechanical properties :
#
#
# Convention : Reuss Voigt Hill
#
# Bulk Modulus (GPa) = 72.11195 75.28978 73.70087
# Shear Modulus (GPa) = 14.28537 27.23897 20.76217
#
# Velocity S-wave (km/s) = 2.48798 3.43556 2.99943
# Velocity P-wave (km/s) = 6.28495 6.95425 6.62805
#
# Compressibility (1/GPa) = 0.01386733
#
# Stress axis : x y z
#
# Youngs Moduli (GPa) = 91.36048 88.86768 92.61622
#
# Poissons Ratio (x) = 0.37038 0.04244
# Poissons Ratio (y) = 0.38077 0.45734
# Poissons Ratio (z) = 0.04187 0.43883
#
# Static dielectric constant tensor:
#      x y z
#    x 1.718430 0.000000 0.000000 
#    y 0.000000 2.023580 0.000000 
#    z 0.000000 0.000000 1.869470 
# 
# From -- ./inp_files/15120.got.cif
#   From: 2010.05.17/outbox.cif.g08.bks.cpg/sg36_8_cif.got.tgz:15120.got - 2010.06.03 17:41:39.
