data_PCOD9352277
_publ_section_title
;
Structure prediction by ZEFSAII (Michael W. Deem and Ramdas Pophale) SiO2 
 PCOD9352277
Probable space group: C M C 21
;
_chemical_formula_sum "Si O2"
_cell_formula_units_Z 40
_cell_length_a 11.645620
_cell_length_b 34.808354
_cell_length_c 5.081330
_cell_angle_alpha 90.000000
_cell_angle_beta 90.000000
_cell_angle_gamma 90.000000
_cell_volume 2059.792642
_symmetry_space_group_name_H-M "C M C 21"
_symmetry_group_IT_number 36
_symmetry_cell_setting 'orthorhombic'
loop_
_space_group_symop_operation_xyz
x,y,z
-x,-y,1/2+z
x,-y,1/2+z
-x,y,z
1/2+x,1/2+y,z
1/2-x,1/2-y,1/2+z
1/2+x,1/2-y,1/2+z
1/2-x,1/2+y,z
loop_
_atom_site_type_symbol
_atom_site_label
_atom_site_fract_x
_atom_site_fract_y
_atom_site_fract_z
Si Si1 0.737988 0.274532 0.344990
Si Si2 0.500000 0.642706 0.394941
Si Si3 0.866294 0.026544 0.375731
Si Si4 0.746689 0.606132 0.395306
Si Si5 0.000000 0.190086 0.896825
Si Si6 0.137001 0.644186 0.886032
O O1 0.780205 0.243687 0.558095
O O2 0.614610 0.287107 0.454430
O O3 0.816538 0.312559 0.334461
O O4 0.618794 0.621709 0.454933
O O5 0.500000 0.678768 0.591136
O O6 0.500000 0.653333 0.087418
O O7 0.777025 0.061226 0.345794
O O8 0.000000 0.040213 0.353226
O O9 0.852053 0.005888 0.654814
O O10 0.825276 0.617442 0.642178
O O11 0.799907 0.627430 0.143333
O O12 0.000000 0.644555 0.919193
#
# Coordination Sequence:
#
# PCOD9352277 Si02
#       6
#     8   4   8   8   4   8
#     4  12  26  42  62  91 124 168 207 270 322 376
#     4  12  20  40  64  99 120 164 208 266 318 371
#     4  10  21  36  62 102 137 162 196 258 332 383
#     4  12  22  43  68  94 131 168 211 263 314 385
#     4  12  24  42  62  91 130 158 222 260 322 387
#     4  12  27  45  65  92 127 175 224 261 314 377
#
# _framework density 19.419429000000001
#
# number of rings (size 3 to 8) (size 9 to 14) (size 15 to 20)
#    0.000    0.400    5.000    4.200    2.800    0.000 
#    0.000    0.000    0.000   12.000    0.000    0.000 
#    0.000    0.000    0.000    0.000    0.000    0.000 
#
# Total GULP energy -111785.061237 kJ/mol
# GULP energy per Si atom -5589.253062 kJ/mol
# Density = 1.937523 g / cm^3
# Si number density = 19.419429 Si / 1000 Ang^3
#
#
#
# Elastic Constant Matrix: (Units=GPa)
#
#
# Indices 1 2 3 4 5 6 
#
# 1 82.0976 22.1172 -16.6134 0.0000 0.0000 0.0000
# 2 22.1172 75.7537 -2.7580 0.0000 0.0000 0.0000
# 3 -16.6134 -2.7580 65.4439 0.0000 0.0000 0.0000
# 4 0.0000 0.0000 0.0000 18.1087 0.0000 0.0000
# 5 0.0000 0.0000 0.0000 0.0000 25.0535 0.0000
# 6 0.0000 0.0000 0.0000 0.0000 0.0000 -20.5594
#
#
#
# Elastic Compliance Matrix: (Units=1/GPa)
#
#
# Indices 1 2 3 4 5 6 
#
# 1 0.013925 -0.003943 0.003369 0.000000 0.000000 0.000000
# 2 -0.003943 0.014337 -0.000397 0.000000 0.000000 0.000000
# 3 0.003369 -0.000397 0.016119 0.000000 0.000000 0.000000
# 4 0.000000 0.000000 0.000000 0.055222 0.000000 0.000000
# 5 0.000000 0.000000 0.000000 0.000000 0.039915 0.000000
# 6 0.000000 0.000000 0.000000 0.000000 0.000000 -0.048640
#
#
# Mechanical properties :
#
#
# Convention : Reuss Voigt Hill
#
# Bulk Modulus (GPa) = 23.56323 25.42077 24.49200
# Shear Modulus (GPa) = 46.74404 19.22386 32.98395
#
# Velocity S-wave (km/s) = 4.91152 3.14973 4.12576
# Velocity P-wave (km/s) = 6.65764 5.13288 5.94436
#
# Compressibility (1/GPa) = 0.04243900
#
# Stress axis : x y z
#
# Youngs Moduli (GPa) = 71.81583 69.74777 62.03972
#
# Poissons Ratio (x) = 0.27500 -0.20899
# Poissons Ratio (y) = 0.28315 0.02461
# Poissons Ratio (z) = -0.24192 0.02767
#
# Static dielectric constant tensor:
#      x y z
#    x 1.804650 0.000000 0.000000 
#    y 0.000000 1.706380 0.000000 
#    z 0.000000 0.000000 1.650070 
# 
# From -- ./inp_files/523.got.cif
#   From: 2010.05.17/outbox.cif.g08.bks.cpg/sg36_1_cif.got.tgz:523.got - 2010.06.03 17:41:39.
