data_PCOD9352219
_publ_section_title
;
Structure prediction by ZEFSAII (Michael W. Deem and Ramdas Pophale) SiO2 
 PCOD9352219
Probable space group: C M C 21
;
_chemical_formula_sum "Si O2"
_cell_formula_units_Z 48
_cell_length_a 7.637986
_cell_length_b 24.815904
_cell_length_c 12.253371
_cell_angle_alpha 90.000000
_cell_angle_beta 90.000000
_cell_angle_gamma 90.000000
_cell_volume 2322.547161
_symmetry_space_group_name_H-M "C M C 21"
_symmetry_group_IT_number 36
_symmetry_cell_setting 'orthorhombic'
loop_
_space_group_symop_operation_xyz
x,y,z
-x,-y,1/2+z
x,-y,1/2+z
-x,y,z
1/2+x,1/2+y,z
1/2-x,1/2-y,1/2+z
1/2+x,1/2-y,1/2+z
1/2-x,1/2+y,z
loop_
_atom_site_type_symbol
_atom_site_label
_atom_site_fract_x
_atom_site_fract_y
_atom_site_fract_z
Si Si1 0.784662 0.328850 0.750000
Si Si2 0.289463 0.291616 0.197972
Si Si3 0.205974 0.419349 0.583285
Si Si4 0.289579 0.038531 0.628859
Si Si5 0.290476 0.139599 0.490975
Si Si6 0.208795 0.892948 0.336606
O O1 0.725877 0.268338 0.722354
O O2 0.723949 0.372054 0.660479
O O3 0.000000 0.327825 0.749294
O O4 0.726541 0.346805 0.870425
O O5 0.500000 0.290970 0.206893
O O6 0.245897 0.313148 0.077573
O O7 0.224187 0.337210 0.282634
O O8 0.280111 0.478832 0.606624
O O9 0.222916 0.404581 0.456686
O O10 0.000000 0.422758 0.609632
O O11 0.500000 0.037215 0.615568
O O12 0.221666 0.084334 0.545403
O O13 0.252986 0.060247 0.750126
O O14 0.500000 0.134090 0.482929
O O15 0.000000 0.889276 0.344155
#
# Coordination Sequence:
#
# PCOD9352219 Si02
#       6
#     8   8   8   8   8   8
#     4   9  19  34  54  79 107 138 174 219 267 311
#     4   9  19  36  54  75 106 143 175 212 265 319
#     4  10  21  35  57  83 107 137 179 226 265 310
#     4   9  19  35  58  82 104 136 179 223 265 313
#     4   9  18  34  56  79 102 135 176 219 264 312
#     4  10  21  36  55  78 110 145 175 215 268 323
#
# _framework density 20.666965999999999
#
# number of rings (size 3 to 8) (size 9 to 14) (size 15 to 20)
#    0.000    2.667    0.000    0.500    4.667    1.333 
#    0.000    1.667    0.000    0.000    0.000    0.000 
#    0.000    0.000    0.000    0.000    0.000    0.000 
#
# Total GULP energy -133980.540733 kJ/mol
# GULP energy per Si atom -5582.522531 kJ/mol
# Density = 2.061993 g / cm^3
# Si number density = 20.666966 Si / 1000 Ang^3
#
#
#
# Elastic Constant Matrix: (Units=GPa)
#
#
# Indices 1 2 3 4 5 6 
#
# 1 36.7163 3.1004 -16.3809 0.0000 0.0000 0.0000
# 2 3.1004 190.0039 125.5955 0.0000 0.0000 0.0000
# 3 -16.3809 125.5955 177.9120 0.0000 0.0000 0.0000
# 4 0.0000 0.0000 0.0000 13.6093 0.0000 0.0000
# 5 0.0000 0.0000 0.0000 0.0000 62.6164 0.0000
# 6 0.0000 0.0000 0.0000 0.0000 0.0000 5.3623
#
#
#
# Elastic Compliance Matrix: (Units=1/GPa)
#
#
# Indices 1 2 3 4 5 6 
#
# 1 0.030224 -0.004374 0.005870 0.000000 0.000000 0.000000
# 2 -0.004374 0.010501 -0.007815 0.000000 0.000000 0.000000
# 3 0.005870 -0.007815 0.011679 0.000000 0.000000 0.000000
# 4 0.000000 0.000000 0.000000 0.073479 0.000000 0.000000
# 5 0.000000 0.000000 0.000000 0.000000 0.015970 0.000000
# 6 0.000000 0.000000 0.000000 0.000000 0.000000 0.186485
#
#
# Mechanical properties :
#
#
# Convention : Reuss Voigt Hill
#
# Bulk Modulus (GPa) = 25.14720 69.91802 47.53261
# Shear Modulus (GPa) = 14.11510 35.80544 24.96027
#
# Velocity S-wave (km/s) = 2.61622 4.16684 3.47902
# Velocity P-wave (km/s) = 4.61740 7.55343 6.25998
#
# Compressibility (1/GPa) = 0.03976585
#
# Stress axis : x y z
#
# Youngs Moduli (GPa) = 33.08607 95.23307 85.62735
#
# Poissons Ratio (x) = 0.41651 -0.50266
# Poissons Ratio (y) = 0.14470 0.66922
# Poissons Ratio (z) = -0.19422 0.74429
#
# Static dielectric constant tensor:
#      x y z
#    x 1.678620 0.000000 0.000000 
#    y 0.000000 1.733480 0.000000 
#    z 0.000000 0.000000 1.688820 
# 
# From -- ./inp_files/6706.got.cif
#   From: 2010.05.17/outbox.cif.g08.bks.cpg/sg36_4_cif.got.tgz:6706.got - 2010.06.03 17:41:39.
