data_PCOD9352823
_publ_section_title
;
Structure prediction by ZEFSAII (Michael W. Deem and Ramdas Pophale) SiO2 
 PCOD9352823
Probable space group: C M C 21
;
_chemical_formula_sum "Si O2"
_cell_formula_units_Z 24
_cell_length_a 7.755772
_cell_length_b 18.270948
_cell_length_c 8.110347
_cell_angle_alpha 90.000000
_cell_angle_beta 90.000000
_cell_angle_gamma 90.000000
_cell_volume 1149.279211
_symmetry_space_group_name_H-M "C M C 21"
_symmetry_group_IT_number 36
_symmetry_cell_setting 'orthorhombic'
loop_
_space_group_symop_operation_xyz
x,y,z
-x,-y,1/2+z
x,-y,1/2+z
-x,y,z
1/2+x,1/2+y,z
1/2-x,1/2-y,1/2+z
1/2+x,1/2-y,1/2+z
1/2-x,1/2+y,z
loop_
_atom_site_type_symbol
_atom_site_label
_atom_site_fract_x
_atom_site_fract_y
_atom_site_fract_z
Si Si1 0.302883 0.360319 0.054310
Si Si2 0.500000 0.042743 0.665829
Si Si3 0.197245 0.713926 0.229567
Si Si4 0.000000 0.389186 0.527312
O O1 0.500000 0.379403 0.096781
O O2 0.169529 0.425728 0.076154
O O3 0.241618 0.292675 0.169662
O O4 0.299410 0.327422 0.870106
O O5 0.500000 0.074704 0.849920
O O6 0.500000 0.955494 0.657739
O O7 0.000000 0.722983 0.294869
O O8 0.163431 0.662379 0.069896
#
# Coordination Sequence:
#
# PCOD9352823 Si02
#       4
#     8   4   8   4
#     4  11  22  37  64  94 123 160 210 254 307 364
#     4  12  22  42  66  86 129 164 205 262 304 380
#     4   9  20  38  59  92 118 164 203 243 311 363
#     4  10  22  42  66  86 125 174 199 250 330 358
#
# _framework density 20.882653999999999
#
# number of rings (size 3 to 8) (size 9 to 14) (size 15 to 20)
#    1.000    0.667    1.667    4.000    2.333    0.000 
#    0.000    8.333    0.000    0.000    0.000    0.000 
#    0.000    0.000    0.000    0.000    0.000    0.000 
#
# Total GULP energy -66953.209868 kJ/mol
# GULP energy per Si atom -5579.434156 kJ/mol
# Density = 2.083512 g / cm^3
# Si number density = 20.882654 Si / 1000 Ang^3
#
#
#
# Elastic Constant Matrix: (Units=GPa)
#
#
# Indices 1 2 3 4 5 6 
#
# 1 62.3337 11.0523 -0.3237 0.0000 0.0000 0.0000
# 2 11.0523 68.6128 -19.5785 0.0000 0.0000 0.0000
# 3 -0.3237 -19.5785 63.2163 0.0000 0.0000 0.0000
# 4 0.0000 0.0000 0.0000 35.4463 0.0000 0.0000
# 5 0.0000 0.0000 0.0000 0.0000 21.5447 0.0000
# 6 0.0000 0.0000 0.0000 0.0000 0.0000 12.9126
#
#
#
# Elastic Compliance Matrix: (Units=1/GPa)
#
#
# Indices 1 2 3 4 5 6 
#
# 1 0.016552 -0.002898 -0.000813 0.000000 0.000000 0.000000
# 2 -0.002898 0.016495 0.005094 0.000000 0.000000 0.000000
# 3 -0.000813 0.005094 0.017392 0.000000 0.000000 0.000000
# 4 0.000000 0.000000 0.000000 0.028212 0.000000 0.000000
# 5 0.000000 0.000000 0.000000 0.000000 0.046415 0.000000
# 6 0.000000 0.000000 0.000000 0.000000 0.000000 0.077444
#
#
# Mechanical properties :
#
#
# Convention : Reuss Voigt Hill
#
# Bulk Modulus (GPa) = 18.79538 19.60702 19.20120
# Shear Modulus (GPa) = 22.99069 27.51490 25.25279
#
# Velocity S-wave (km/s) = 3.32165 3.63381 3.48123
# Velocity P-wave (km/s) = 4.87147 5.19765 5.03720
#
# Compressibility (1/GPa) = 0.05320455
#
# Stress axis : x y z
#
# Youngs Moduli (GPa) = 60.41435 60.62495 57.49743
#
# Poissons Ratio (x) = 0.17571 0.04674
# Poissons Ratio (y) = 0.17510 -0.29288
# Poissons Ratio (z) = 0.04911 -0.30881
#
# Static dielectric constant tensor:
#      x y z
#    x 1.778790 0.000000 0.000000 
#    y 0.000000 1.708780 0.000000 
#    z 0.000000 0.000000 1.793490 
# 
# From -- ./inp_files/2159.got.cif
#   From: 2010.05.17/outbox.cif.g08.bks.cpg/sg36_2_cif.got.tgz:2159.got - 2010.06.03 17:41:39.
