data_PCOD9352001
_publ_section_title
;
Structure prediction by ZEFSAII (Michael W. Deem and Ramdas Pophale) SiO2 
 PCOD9352001
Probable space group: C M C 21
;
_chemical_formula_sum "Si O2"
_cell_formula_units_Z 60
_cell_length_a 33.434170
_cell_length_b 5.272805
_cell_length_c 14.439702
_cell_angle_alpha 90.000000
_cell_angle_beta 90.000000
_cell_angle_gamma 90.000000
_cell_volume 2545.601905
_symmetry_space_group_name_H-M "C M C 21"
_symmetry_group_IT_number 36
_symmetry_cell_setting 'orthorhombic'
loop_
_space_group_symop_operation_xyz
x,y,z
-x,-y,1/2+z
x,-y,1/2+z
-x,y,z
1/2+x,1/2+y,z
1/2-x,1/2-y,1/2+z
1/2+x,1/2-y,1/2+z
1/2-x,1/2+y,z
loop_
_atom_site_type_symbol
_atom_site_label
_atom_site_fract_x
_atom_site_fract_y
_atom_site_fract_z
Si Si1 0.929515 0.344915 0.195590
Si Si2 0.907525 0.958066 0.856106
Si Si3 0.858229 0.547901 0.398661
Si Si4 0.137408 0.364502 0.602880
Si Si5 0.936002 0.030250 0.548938
Si Si6 0.500000 0.156603 0.167181
Si Si7 0.229280 0.368341 0.386184
Si Si8 0.727869 0.833558 0.611803
O O1 0.926409 0.091229 0.256631
O O2 0.887503 0.481479 0.178867
O O3 0.964374 0.524497 0.230196
O O4 0.943271 0.240853 0.095411
O O5 0.886344 0.687737 0.873525
O O6 0.876471 0.188475 0.864025
O O7 0.938763 0.990121 0.939096
O O8 0.857048 0.540633 0.511379
O O9 0.814186 0.478669 0.363448
O O10 0.109101 0.130703 0.571842
O O11 0.181472 0.287314 0.634374
O O12 0.965537 0.221775 0.598572
O O13 0.239284 0.083592 0.355269
O O14 0.230376 0.345182 0.498975
O O15 0.744166 0.104443 0.644430
#
# Coordination Sequence:
#
# PCOD9352001 Si02
#       8
#     8   8   8   8   8   4   8   8
#     4  11  23  42  67  96 130 174 220 267 334 394
#     4  11  24  39  66  96 129 171 220 269 320 397
#     4  10  20  38  58  93 129 166 224 273 328 392
#     4   9  20  36  63  88 129 173 217 271 332 387
#     4  10  22  43  66  95 131 172 217 272 332 394
#     4  10  24  44  66  98 126 166 208 268 324 398
#     4   9  16  28  52  83 119 164 212 270 330 385
#     4   9  18  29  51  89 123 160 217 270 320 384
#
# _framework density 23.570063000000001
#
# number of rings (size 3 to 8) (size 9 to 14) (size 15 to 20)
#    0.000    2.133    1.333    1.200    5.600    3.733 
#    0.000    1.333    0.000    4.800    0.000    0.000 
#    0.000    0.000    0.000    0.000    0.000    0.000 
#
# Total GULP energy -167204.776704 kJ/mol
# GULP energy per Si atom -5573.492557 kJ/mol
# Density = 2.351642 g / cm^3
# Si number density = 23.570063 Si / 1000 Ang^3
#
#
#
# Elastic Constant Matrix: (Units=GPa)
#
#
# Indices 1 2 3 4 5 6 
#
# 1 118.7314 16.7113 -3.3862 0.0000 0.0000 0.0000
# 2 16.7113 77.4948 -3.0779 0.0000 0.0000 0.0000
# 3 -3.3862 -3.0779 56.8533 0.0000 0.0000 0.0000
# 4 0.0000 0.0000 0.0000 33.4478 0.0000 0.0000
# 5 0.0000 0.0000 0.0000 0.0000 8.1032 0.0000
# 6 0.0000 0.0000 0.0000 0.0000 0.0000 -4.8298
#
#
#
# Elastic Compliance Matrix: (Units=1/GPa)
#
#
# Indices 1 2 3 4 5 6 
#
# 1 0.008696 -0.001859 0.000417 0.000000 0.000000 0.000000
# 2 -0.001859 0.013329 0.000611 0.000000 0.000000 0.000000
# 3 0.000417 0.000611 0.017647 0.000000 0.000000 0.000000
# 4 0.000000 0.000000 0.000000 0.029897 0.000000 0.000000
# 5 0.000000 0.000000 0.000000 0.000000 0.123407 0.000000
# 6 0.000000 0.000000 0.000000 0.000000 0.000000 -0.207050
#
#
# Mechanical properties :
#
#
# Convention : Reuss Voigt Hill
#
# Bulk Modulus (GPa) = 26.30801 30.39711 28.35256
# Shear Modulus (GPa) = 19364.05718 23.53307 9693.79513
#
# Velocity S-wave (km/s) = 90.73790 3.16322 64.20036
# Velocity P-wave (km/s) = 104.82846 5.12502 74.21345
#
# Compressibility (1/GPa) = 0.03801123
#
# Stress axis : x y z
#
# Youngs Moduli (GPa) = 114.99707 75.02350 56.66669
#
# Poissons Ratio (x) = 0.13944 -0.02365
# Poissons Ratio (y) = 0.21374 -0.03462
# Poissons Ratio (z) = -0.04799 -0.04583
#
# Static dielectric constant tensor:
#      x y z
#    x 1.880380 0.000000 0.000000 
#    y 0.000000 1.895300 0.000000 
#    z 0.000000 0.000000 1.980830 
# 
# From -- ./inp_files/15185.got.cif
#   From: 2010.05.17/outbox.cif.g08.bks.cpg/sg36_8_cif.got.tgz:15185.got - 2010.06.03 17:41:39.
