data_PCOD9352781
_publ_section_title
;
Structure prediction by ZEFSAII (Michael W. Deem and Ramdas Pophale) SiO2 
 PCOD9352781
Probable space group: C M C 21
;
_chemical_formula_sum "Si O2"
_cell_formula_units_Z 48
_cell_length_a 8.517109
_cell_length_b 16.998680
_cell_length_c 14.743709
_cell_angle_alpha 90.000000
_cell_angle_beta 90.000000
_cell_angle_gamma 90.000000
_cell_volume 2134.588445
_symmetry_space_group_name_H-M "C M C 21"
_symmetry_group_IT_number 36
_symmetry_cell_setting 'orthorhombic'
loop_
_space_group_symop_operation_xyz
x,y,z
-x,-y,1/2+z
x,-y,1/2+z
-x,y,z
1/2+x,1/2+y,z
1/2-x,1/2-y,1/2+z
1/2+x,1/2-y,1/2+z
1/2-x,1/2+y,z
loop_
_atom_site_type_symbol
_atom_site_label
_atom_site_fract_x
_atom_site_fract_y
_atom_site_fract_z
Si Si1 0.817383 0.051555 0.450240
Si Si2 0.815841 0.292270 0.701351
Si Si3 0.681973 0.792484 0.036670
Si Si4 0.188469 0.460647 0.287097
Si Si5 0.812054 0.457103 0.606564
Si Si6 0.314466 0.207458 0.868128
O O1 0.721735 0.124259 0.491241
O O2 0.000000 0.071195 0.452032
O O3 0.763910 0.026686 0.350544
O O4 0.778487 0.977949 0.515632
O O5 0.782180 0.226078 0.625836
O O6 0.772921 0.374076 0.652670
O O7 0.720390 0.272643 0.791649
O O8 0.000000 0.295398 0.724531
O O9 0.500000 0.789223 0.062055
O O10 0.724138 0.728948 0.959423
O O11 0.224892 0.477175 0.182485
O O12 0.235136 0.375300 0.323882
O O13 0.000000 0.467053 0.295744
O O14 0.000000 0.457476 0.588096
O O15 0.500000 0.204425 0.888260
#
# Coordination Sequence:
#
# PCOD9352781 Si02
#       6
#     8   8   8   8   8   8
#     4  12  25  40  63  93 123 157 203 258 309 364
#     4  11  23  40  64  94 127 163 206 254 305 366
#     4  12  25  42  63  87 123 167 209 256 309 364
#     4  10  22  41  64  90 123 163 202 244 302 367
#     4  10  22  41  64  90 123 163 202 244 302 367
#     4  11  23  40  64  94 127 163 206 254 305 366
#
# _framework density 22.48677
#
# number of rings (size 3 to 8) (size 9 to 14) (size 15 to 20)
#    0.000    1.000    0.000    7.000    0.000   10.000 
#    0.000    0.000    0.000    0.000    0.000    0.000 
#    0.000    0.000    0.000    0.000    0.000    0.000 
#
# Total GULP energy -134461.493614 kJ/mol
# GULP energy per Si atom -5602.562234 kJ/mol
# Density = 2.243559 g / cm^3
# Si number density = 22.486770 Si / 1000 Ang^3
#
#
#
# Elastic Constant Matrix: (Units=GPa)
#
#
# Indices 1 2 3 4 5 6 
#
# 1 14.9925 2.1647 -0.3537 0.0000 0.0000 0.0000
# 2 2.1647 65.9668 -14.1139 0.0000 0.0000 0.0000
# 3 -0.3537 -14.1139 68.2770 0.0000 0.0000 0.0000
# 4 0.0000 0.0000 0.0000 37.9453 0.0000 0.0000
# 5 0.0000 0.0000 0.0000 0.0000 34.6196 0.0000
# 6 0.0000 0.0000 0.0000 0.0000 0.0000 27.4333
#
#
#
# Elastic Compliance Matrix: (Units=1/GPa)
#
#
# Indices 1 2 3 4 5 6 
#
# 1 0.067018 -0.002223 -0.000112 0.000000 0.000000 0.000000
# 2 -0.002223 0.015934 0.003282 0.000000 0.000000 0.000000
# 3 -0.000112 0.003282 0.015324 0.000000 0.000000 0.000000
# 4 0.000000 0.000000 0.000000 0.026354 0.000000 0.000000
# 5 0.000000 0.000000 0.000000 0.000000 0.028885 0.000000
# 6 0.000000 0.000000 0.000000 0.000000 0.000000 0.036452
#
#
# Mechanical properties :
#
#
# Convention : Reuss Voigt Hill
#
# Bulk Modulus (GPa) = 9.98300 13.84784 11.91542
# Shear Modulus (GPa) = 22.57698 30.76891 26.67295
#
# Velocity S-wave (km/s) = 3.17205 3.70308 3.44781
# Velocity P-wave (km/s) = 4.22670 4.94523 4.60002
#
# Compressibility (1/GPa) = 0.10017026
#
# Stress axis : x y z
#
# Youngs Moduli (GPa) = 14.92131 62.75749 65.25646
#
# Poissons Ratio (x) = 0.13952 0.00733
# Poissons Ratio (y) = 0.03317 -0.21419
# Poissons Ratio (z) = 0.00168 -0.20599
#
# Static dielectric constant tensor:
#      x y z
#    x 1.762180 0.000000 0.000000 
#    y 0.000000 1.873830 0.000000 
#    z 0.000000 0.000000 1.792970 
# 
# From -- ./inp_files/10378.got.cif
#   From: 2010.05.17/outbox.cif.g08.bks.cpg/sg36_6_cif.got.tgz:10378.got - 2010.06.03 17:41:39.
