data_PCOD9352843
_publ_section_title
;
Structure prediction by ZEFSAII (Michael W. Deem and Ramdas Pophale) SiO2 
 PCOD9352843
Probable space group: C M C 21
;
_chemical_formula_sum "Si O2"
_cell_formula_units_Z 64
_cell_length_a 15.310569
_cell_length_b 17.020106
_cell_length_c 10.871455
_cell_angle_alpha 90.000000
_cell_angle_beta 90.000000
_cell_angle_gamma 90.000000
_cell_volume 2832.965359
_symmetry_space_group_name_H-M "C M C 21"
_symmetry_group_IT_number 36
_symmetry_cell_setting 'orthorhombic'
loop_
_space_group_symop_operation_xyz
x,y,z
-x,-y,1/2+z
x,-y,1/2+z
-x,y,z
1/2+x,1/2+y,z
1/2-x,1/2-y,1/2+z
1/2+x,1/2-y,1/2+z
1/2-x,1/2+y,z
loop_
_atom_site_type_symbol
_atom_site_label
_atom_site_fract_x
_atom_site_fract_y
_atom_site_fract_z
Si Si1 0.822058 0.882268 0.381380
Si Si2 0.139307 0.662674 0.776135
Si Si3 0.898339 0.519022 0.212001
Si Si4 0.596908 0.312952 0.899792
Si Si5 0.210262 0.640678 0.375309
Si Si6 0.748108 0.010080 0.540193
Si Si7 0.103319 0.757169 0.524596
Si Si8 0.593875 0.583694 0.644787
O O1 0.740458 0.843861 0.311551
O O2 0.788325 0.967350 0.423192
O O3 0.850673 0.841125 0.508184
O O4 0.898303 0.883380 0.281859
O O5 0.107924 0.572375 0.757756
O O6 0.099722 0.718424 0.883573
O O7 0.120866 0.712114 0.652051
O O8 0.846469 0.579264 0.298358
O O9 0.840744 0.526738 0.088468
O O10 0.000000 0.538218 0.198817
O O11 0.500000 0.337995 0.851036
O O12 0.689304 0.340368 0.837576
O O13 0.600950 0.349476 0.037983
O O14 0.222327 0.597743 0.505488
O O15 0.149076 0.713281 0.409306
O O16 0.827054 0.022133 0.634101
O O17 0.000000 0.761870 0.509718
O O18 0.500000 0.545191 0.625065
#
# Coordination Sequence:
#
# PCOD9352843 Si02
#       8
#     8   8   8   8   8   8   8   8
#     4  12  25  44  72 101 140 185 233 292 351 411
#     4  12  23  45  70 101 139 183 231 289 340 412
#     4  12  25  43  68  98 138 183 232 289 350 415
#     4  10  22  42  72 103 137 183 230 282 346 416
#     4  11  22  43  67  95 138 179 229 287 351 405
#     4  11  23  44  66  99 133 182 230 287 351 411
#     4  12  26  44  69 101 143 189 232 284 349 418
#     4  10  22  45  72 100 142 182 227 290 350 414
#
# _framework density 22.591170999999999
#
# number of rings (size 3 to 8) (size 9 to 14) (size 15 to 20)
#    0.000    0.750    5.000    2.625    1.750    1.500 
#    0.000    3.125    0.000    0.000    0.000    0.000 
#    0.000    0.000    0.000    0.000    0.000    0.000 
#
# Total GULP energy -178354.251651 kJ/mol
# GULP energy per Si atom -5573.570364 kJ/mol
# Density = 2.253975 g / cm^3
# Si number density = 22.591171 Si / 1000 Ang^3
#
#
#
# Elastic Constant Matrix: (Units=GPa)
#
#
# Indices 1 2 3 4 5 6 
#
# 1 159.2297 17.5584 32.1048 0.0000 0.0000 0.0000
# 2 17.5584 51.4338 17.3424 0.0000 0.0000 0.0000
# 3 32.1048 17.3424 51.3405 0.0000 0.0000 0.0000
# 4 0.0000 0.0000 0.0000 38.7896 0.0000 0.0000
# 5 0.0000 0.0000 0.0000 0.0000 23.9782 0.0000
# 6 0.0000 0.0000 0.0000 0.0000 0.0000 19.7934
#
#
#
# Elastic Compliance Matrix: (Units=1/GPa)
#
#
# Indices 1 2 3 4 5 6 
#
# 1 0.007238 -0.001066 -0.004166 0.000000 0.000000 0.000000
# 2 -0.001066 0.022099 -0.006798 0.000000 0.000000 0.000000
# 3 -0.004166 -0.006798 0.024379 0.000000 0.000000 0.000000
# 4 0.000000 0.000000 0.000000 0.025780 0.000000 0.000000
# 5 0.000000 0.000000 0.000000 0.000000 0.041705 0.000000
# 6 0.000000 0.000000 0.000000 0.000000 0.000000 0.050522
#
#
# Mechanical properties :
#
#
# Convention : Reuss Voigt Hill
#
# Bulk Modulus (GPa) = 33.72065 44.00170 38.86117
# Shear Modulus (GPa) = 24.31114 29.51213 26.91163
#
# Velocity S-wave (km/s) = 3.28401 3.61828 3.45519
# Velocity P-wave (km/s) = 5.41650 6.08075 5.75821
#
# Compressibility (1/GPa) = 0.02965542
#
# Stress axis : x y z
#
# Youngs Moduli (GPa) = 138.16453 45.25183 41.01872
#
# Poissons Ratio (x) = 0.04825 0.17088
# Poissons Ratio (y) = 0.14731 0.27884
# Poissons Ratio (z) = 0.57557 0.30762
#
# Static dielectric constant tensor:
#      x y z
#    x 1.832840 0.000000 0.000000 
#    y 0.000000 1.863060 0.000000 
#    z 0.000000 0.000000 1.908050 
# 
# From -- ./inp_files/8641.got.cif
#   From: 2010.05.17/outbox.cif.g08.bks.cpg/sg36_5_cif.got.tgz:8641.got - 2010.06.03 17:41:39.
