data_PCOD9352513
_publ_section_title
;
Structure prediction by ZEFSAII (Michael W. Deem and Ramdas Pophale) SiO2 
 PCOD9352513
Probable space group: C M C 21
;
_chemical_formula_sum "Si O2"
_cell_formula_units_Z 52
_cell_length_a 19.832809
_cell_length_b 13.788861
_cell_length_c 8.355440
_cell_angle_alpha 90.000000
_cell_angle_beta 90.000000
_cell_angle_gamma 90.000000
_cell_volume 2284.977605
_symmetry_space_group_name_H-M "C M C 21"
_symmetry_group_IT_number 36
_symmetry_cell_setting 'orthorhombic'
loop_
_space_group_symop_operation_xyz
x,y,z
-x,-y,1/2+z
x,-y,1/2+z
-x,y,z
1/2+x,1/2+y,z
1/2-x,1/2-y,1/2+z
1/2+x,1/2-y,1/2+z
1/2-x,1/2+y,z
loop_
_atom_site_type_symbol
_atom_site_label
_atom_site_fract_x
_atom_site_fract_y
_atom_site_fract_z
Si Si1 0.705248 0.268308 0.916780
Si Si2 0.606054 0.021709 0.005782
Si Si3 0.000000 0.424706 0.243666
Si Si4 0.077267 0.062680 0.937545
Si Si5 0.794319 0.569970 0.256722
Si Si6 0.791017 0.119851 0.750060
Si Si7 0.576231 0.645258 0.296409
O O1 0.748060 0.342779 0.808421
O O2 0.743558 0.168510 0.884772
O O3 0.630776 0.275927 0.843623
O O4 0.706374 0.313374 0.093359
O O5 0.559065 0.949679 0.108490
O O6 0.648493 0.089458 0.124922
O O7 0.558610 0.077037 0.883229
O O8 0.661437 0.961832 0.908568
O O9 0.135201 0.105455 0.825343
O O10 0.000000 0.087526 0.888995
O O11 0.082216 0.946038 0.917867
O O12 0.086540 0.100160 0.118870
O O13 0.744316 0.482240 0.208655
O O14 0.500000 0.685112 0.299682
#
# Coordination Sequence:
#
# PCOD9352513 Si02
#       7
#     8   8   4   8   8   8   8
#     4  12  26  41  66  98 135 174 220 275 333 400
#     4   9  18  34  64  86 123 162 216 272 317 382
#     4   8  16  34  60  94 114 166 226 260 314 382
#     4  10  21  39  67  97 131 174 222 275 336 396
#     4  11  22  39  63  96 129 168 216 268 335 392
#     4  12  26  41  66  98 135 174 220 275 333 400
#     4  10  21  39  67  97 131 174 222 275 336 396
#
# _framework density 22.757335000000001
#
# number of rings (size 3 to 8) (size 9 to 14) (size 15 to 20)
#    0.000    1.538    3.077    1.846    4.308    1.846 
#    0.000    0.000   20.308    0.000    0.000    0.000 
#    0.000    0.000    0.000    0.000    0.000    0.000 
#
# Total GULP energy -144964.476852 kJ/mol
# GULP energy per Si atom -5575.556802 kJ/mol
# Density = 2.270554 g / cm^3
# Si number density = 22.757335 Si / 1000 Ang^3
#
#
#
# Elastic Constant Matrix: (Units=GPa)
#
#
# Indices 1 2 3 4 5 6 
#
# 1 169.9168 39.2531 59.6233 0.0000 0.0000 0.0000
# 2 39.2531 46.5831 10.5453 0.0000 0.0000 0.0000
# 3 59.6233 10.5453 103.5780 0.0000 0.0000 0.0000
# 4 0.0000 0.0000 0.0000 11.2252 0.0000 0.0000
# 5 0.0000 0.0000 0.0000 0.0000 62.1801 0.0000
# 6 0.0000 0.0000 0.0000 0.0000 0.0000 16.4073
#
#
#
# Elastic Compliance Matrix: (Units=1/GPa)
#
#
# Indices 1 2 3 4 5 6 
#
# 1 0.008977 -0.006545 -0.004501 0.000000 0.000000 0.000000
# 2 -0.006545 0.026746 0.001045 0.000000 0.000000 0.000000
# 3 -0.004501 0.001045 0.012139 0.000000 0.000000 0.000000
# 4 0.000000 0.000000 0.000000 0.089086 0.000000 0.000000
# 5 0.000000 0.000000 0.000000 0.000000 0.016082 0.000000
# 6 0.000000 0.000000 0.000000 0.000000 0.000000 0.060949
#
#
# Mechanical properties :
#
#
# Convention : Reuss Voigt Hill
#
# Bulk Modulus (GPa) = 35.89553 59.88015 47.88784
# Shear Modulus (GPa) = 20.55353 32.00626 26.27990
#
# Velocity S-wave (km/s) = 3.00852 3.75429 3.40190
# Velocity P-wave (km/s) = 5.27974 6.72030 6.04310
#
# Compressibility (1/GPa) = 0.02785862
#
# Stress axis : x y z
#
# Youngs Moduli (GPa) = 111.40056 37.38900 82.37858
#
# Poissons Ratio (x) = 0.24472 0.37078
# Poissons Ratio (y) = 0.72914 -0.08606
# Poissons Ratio (z) = 0.50140 -0.03906
#
# Static dielectric constant tensor:
#      x y z
#    x 1.823820 0.000000 0.000000 
#    y 0.000000 1.874550 0.000000 
#    z 0.000000 0.000000 1.852000 
# 
# From -- ./inp_files/5178.got.cif
#   From: 2010.05.17/outbox.cif.g08.bks.cpg/sg36_3_cif.got.tgz:5178.got - 2010.06.03 17:41:39.
