data_PCOD9352468
_publ_section_title
;
Structure prediction by ZEFSAII (Michael W. Deem and Ramdas Pophale) SiO2 
 PCOD9352468
Probable space group: C M C 21
;
_chemical_formula_sum "Si O2"
_cell_formula_units_Z 64
_cell_length_a 15.722076
_cell_length_b 17.700828
_cell_length_c 10.924161
_cell_angle_alpha 90.000000
_cell_angle_beta 90.000000
_cell_angle_gamma 90.000000
_cell_volume 3040.125873
_symmetry_space_group_name_H-M "C M C 21"
_symmetry_group_IT_number 36
_symmetry_cell_setting 'orthorhombic'
loop_
_space_group_symop_operation_xyz
x,y,z
-x,-y,1/2+z
x,-y,1/2+z
-x,y,z
1/2+x,1/2+y,z
1/2-x,1/2-y,1/2+z
1/2+x,1/2-y,1/2+z
1/2-x,1/2+y,z
loop_
_atom_site_type_symbol
_atom_site_label
_atom_site_fract_x
_atom_site_fract_y
_atom_site_fract_z
Si Si1 0.598756 0.410021 0.583950
Si Si2 0.904207 0.173790 0.825207
Si Si3 0.345426 0.155295 0.627855
Si Si4 0.902109 0.215129 0.298195
Si Si5 0.094444 0.499717 0.564378
Si Si6 0.278531 0.795531 0.890290
Si Si7 0.318495 0.552658 0.687285
Si Si8 0.311657 0.032202 0.320697
O O1 0.500000 0.433335 0.591489
O O2 0.609715 0.366967 0.456025
O O3 0.612279 0.350847 0.696098
O O4 0.654893 0.485404 0.597365
O O5 0.829147 0.234999 0.808322
O O6 0.893720 0.107681 0.725909
O O7 0.000000 0.206140 0.823830
O O8 0.386381 0.203445 0.735190
O O9 0.408096 0.090495 0.581461
O O10 0.319961 0.213493 0.522868
O O11 0.259199 0.107206 0.649485
O O12 0.823160 0.210393 0.390932
O O13 0.000000 0.208975 0.341021
O O14 0.140931 0.472521 0.688749
O O15 0.140972 0.490814 0.433451
O O16 0.000000 0.467620 0.558722
O O17 0.300420 0.880362 0.850691
O O18 0.278862 0.507653 0.802185
#
# Coordination Sequence:
#
# PCOD9352468 Si02
#       8
#     8   8   8   8   8   8   8   8
#     4  10  22  38  62  91 124 162 208 260 317 391
#     4  11  24  39  64  94 122 164 213 263 323 390
#     4  10  22  38  62  89 125 168 209 261 323 387
#     4  11  21  39  64  93 124 168 213 259 317 390
#     4  10  21  39  61  92 127 170 220 268 322 385
#     4  11  22  41  63  94 127 164 215 273 323 381
#     4  11  22  39  61  91 129 163 206 261 331 383
#     4  10  23  37  64  92 130 171 214 273 330 385
#
# _framework density 21.051760000000002
#
# number of rings (size 3 to 8) (size 9 to 14) (size 15 to 20)
#    0.000    1.500    3.750    1.125    5.250    2.500 
#    0.000    1.250    0.000    0.000    0.000    0.000 
#    0.000    0.000    0.000    0.000    0.000    0.000 
#
# Total GULP energy -178417.298863 kJ/mol
# GULP energy per Si atom -5575.540589 kJ/mol
# Density = 2.100385 g / cm^3
# Si number density = 21.051760 Si / 1000 Ang^3
#
#
#
# Elastic Constant Matrix: (Units=GPa)
#
#
# Indices 1 2 3 4 5 6 
#
# 1 110.9802 26.7959 18.3547 0.0000 0.0000 0.0000
# 2 26.7959 68.5238 1.0808 0.0000 0.0000 0.0000
# 3 18.3547 1.0808 47.6164 0.0000 0.0000 0.0000
# 4 0.0000 0.0000 0.0000 19.0213 0.0000 0.0000
# 5 0.0000 0.0000 0.0000 0.0000 19.8538 0.0000
# 6 0.0000 0.0000 0.0000 0.0000 0.0000 24.4436
#
#
#
# Elastic Compliance Matrix: (Units=1/GPa)
#
#
# Indices 1 2 3 4 5 6 
#
# 1 0.010667 -0.004108 -0.004019 0.000000 0.000000 0.000000
# 2 -0.004108 0.016181 0.001216 0.000000 0.000000 0.000000
# 3 -0.004019 0.001216 0.022523 0.000000 0.000000 0.000000
# 4 0.000000 0.000000 0.000000 0.052573 0.000000 0.000000
# 5 0.000000 0.000000 0.000000 0.000000 0.050368 0.000000
# 6 0.000000 0.000000 0.000000 0.000000 0.000000 0.040911
#
#
# Mechanical properties :
#
#
# Convention : Reuss Voigt Hill
#
# Bulk Modulus (GPa) = 28.12960 35.50923 31.81942
# Shear Modulus (GPa) = 22.84229 24.72302 23.78265
#
# Velocity S-wave (km/s) = 3.29759 3.43066 3.36478
# Velocity P-wave (km/s) = 5.28109 5.70936 5.49939
#
# Compressibility (1/GPa) = 0.03554974
#
# Stress axis : x y z
#
# Youngs Moduli (GPa) = 93.74634 61.80216 44.39987
#
# Poissons Ratio (x) = 0.25388 0.17842
# Poissons Ratio (y) = 0.38510 -0.05400
# Poissons Ratio (z) = 0.37673 -0.07516
#
# Static dielectric constant tensor:
#      x y z
#    x 1.775170 0.000000 0.000000 
#    y 0.000000 1.772080 0.000000 
#    z 0.000000 0.000000 1.808440 
# 
# From -- ./inp_files/8633.got.cif
#   From: 2010.05.17/outbox.cif.g08.bks.cpg/sg36_5_cif.got.tgz:8633.got - 2010.06.03 17:41:39.
