data_PCOD9352552
_publ_section_title
;
Structure prediction by ZEFSAII (Michael W. Deem and Ramdas Pophale) SiO2 
 PCOD9352552
Probable space group: C M C 21
;
_chemical_formula_sum "Si O2"
_cell_formula_units_Z 48
_cell_length_a 27.255988
_cell_length_b 5.033073
_cell_length_c 13.849924
_cell_angle_alpha 90.000000
_cell_angle_beta 90.000000
_cell_angle_gamma 90.000000
_cell_volume 1899.951650
_symmetry_space_group_name_H-M "C M C 21"
_symmetry_group_IT_number 36
_symmetry_cell_setting 'orthorhombic'
loop_
_space_group_symop_operation_xyz
x,y,z
-x,-y,1/2+z
x,-y,1/2+z
-x,y,z
1/2+x,1/2+y,z
1/2-x,1/2-y,1/2+z
1/2+x,1/2-y,1/2+z
1/2-x,1/2+y,z
loop_
_atom_site_type_symbol
_atom_site_label
_atom_site_fract_x
_atom_site_fract_y
_atom_site_fract_z
Si Si1 0.905148 0.356171 0.654330
Si Si2 0.000000 0.316165 0.947556
Si Si3 0.608368 0.020099 0.930008
Si Si4 0.624248 0.357686 0.759253
Si Si5 0.221810 0.370079 0.174559
Si Si6 0.500000 0.682816 0.580100
Si Si7 0.783651 0.677316 0.442733
O O1 0.889818 0.404312 0.543473
O O2 0.909962 0.645180 0.700907
O O3 0.953442 0.178309 0.646597
O O4 0.874295 0.154659 0.719385
O O5 0.055268 0.379277 0.905267
O O6 0.000000 0.523382 0.035557
O O7 0.000000 0.023563 0.992798
O O8 0.610977 0.293056 0.869218
O O9 0.659828 0.865575 0.910779
O O10 0.676749 0.234551 0.734518
O O11 0.266610 0.173622 0.194979
O O12 0.212508 0.330746 0.060154
O O13 0.754664 0.944114 0.415459
#
# Coordination Sequence:
#
# PCOD9352552 Si02
#       7
#     8   4   8   8   8   4   8
#     4  11  25  45  67 101 141 180 242 294 355 424
#     4  10  24  44  70 106 137 188 231 294 346 416
#     4  11  26  47  73 104 149 188 245 295 363 430
#     4  12  26  42  72 103 135 193 233 300 360 426
#     4  10  21  40  64  97 137 179 233 294 354 420
#     4  10  22  42  72  94 133 188 225 286 360 412
#     4  10  23  39  69 101 136 186 230 294 359 422
#
# _framework density 25.263801999999998
#
# number of rings (size 3 to 8) (size 9 to 14) (size 15 to 20)
#    0.000    1.333    1.667    3.000    4.667    9.333 
#    0.000    0.000    0.000    0.000    0.000    0.000 
#    0.000    0.000    0.000    0.000    0.000    0.000 
#
# Total GULP energy -134121.685458 kJ/mol
# GULP energy per Si atom -5588.403561 kJ/mol
# Density = 2.520630 g / cm^3
# Si number density = 25.263802 Si / 1000 Ang^3
#
#
#
# Elastic Constant Matrix: (Units=GPa)
#
#
# Indices 1 2 3 4 5 6 
#
# 1 189.6183 35.4524 9.4904 0.0000 0.0000 0.0000
# 2 35.4524 101.7592 33.0736 0.0000 0.0000 0.0000
# 3 9.4904 33.0736 95.2901 0.0000 0.0000 0.0000
# 4 0.0000 0.0000 0.0000 28.9936 0.0000 0.0000
# 5 0.0000 0.0000 0.0000 0.0000 9.8122 0.0000
# 6 0.0000 0.0000 0.0000 0.0000 0.0000 23.6790
#
#
#
# Elastic Compliance Matrix: (Units=1/GPa)
#
#
# Indices 1 2 3 4 5 6 
#
# 1 0.005643 -0.002010 0.000136 0.000000 0.000000 0.000000
# 2 -0.002010 0.011793 -0.003893 0.000000 0.000000 0.000000
# 3 0.000136 -0.003893 0.011832 0.000000 0.000000 0.000000
# 4 0.000000 0.000000 0.000000 0.034490 0.000000 0.000000
# 5 0.000000 0.000000 0.000000 0.000000 0.101914 0.000000
# 6 0.000000 0.000000 0.000000 0.000000 0.000000 0.042232
#
#
# Mechanical properties :
#
#
# Convention : Reuss Voigt Hill
#
# Bulk Modulus (GPa) = 56.39230 60.30004 58.34617
# Shear Modulus (GPa) = 22.18790 33.07372 27.63081
#
# Velocity S-wave (km/s) = 2.96674 3.62212 3.31069
# Velocity P-wave (km/s) = 5.83997 6.43529 6.14484
#
# Compressibility (1/GPa) = 0.01773292
#
# Stress axis : x y z
#
# Youngs Moduli (GPa) = 177.21805 84.79863 84.51723
#
# Poissons Ratio (x) = 0.17045 -0.01146
# Poissons Ratio (y) = 0.35621 0.32901
# Poissons Ratio (z) = -0.02404 0.33011
#
# Static dielectric constant tensor:
#      x y z
#    x 2.146750 0.000000 0.000000 
#    y 0.000000 1.941800 0.000000 
#    z 0.000000 0.000000 2.006620 
# 
# From -- ./inp_files/13071.got.cif
#   From: 2010.05.17/outbox.cif.g08.bks.cpg/sg36_7_cif.got.tgz:13071.got - 2010.06.03 17:41:39.
