data_PCOD9352041
_publ_section_title
;
Structure prediction by ZEFSAII (Michael W. Deem and Ramdas Pophale) SiO2 
 PCOD9352041
Probable space group: C M C 21
;
_chemical_formula_sum "Si O2"
_cell_formula_units_Z 40
_cell_length_a 10.147305
_cell_length_b 22.200193
_cell_length_c 9.005243
_cell_angle_alpha 90.000000
_cell_angle_beta 90.000000
_cell_angle_gamma 90.000000
_cell_volume 2028.630267
_symmetry_space_group_name_H-M "C M C 21"
_symmetry_group_IT_number 36
_symmetry_cell_setting 'orthorhombic'
loop_
_space_group_symop_operation_xyz
x,y,z
-x,-y,1/2+z
x,-y,1/2+z
-x,y,z
1/2+x,1/2+y,z
1/2-x,1/2-y,1/2+z
1/2+x,1/2-y,1/2+z
1/2-x,1/2+y,z
loop_
_atom_site_type_symbol
_atom_site_label
_atom_site_fract_x
_atom_site_fract_y
_atom_site_fract_z
Si Si1 0.278047 0.009452 0.690590
Si Si2 0.344894 0.712763 0.357761
Si Si3 0.653174 0.420703 0.932116
Si Si4 0.155064 0.810396 0.505104
Si Si5 0.859998 0.414049 0.456405
O O1 0.178385 0.047707 0.589315
O O2 0.353076 0.056915 0.793496
O O3 0.215960 0.962274 0.805679
O O4 0.356167 0.968754 0.573532
O O5 0.500000 0.723955 0.398082
O O6 0.300153 0.648221 0.424627
O O7 0.243382 0.762815 0.414335
O O8 0.340202 0.706418 0.179420
O O9 0.500000 0.417671 0.898762
O O10 0.231801 0.873408 0.483278
O O11 0.000000 0.812950 0.461696
O O12 0.000000 0.380872 0.474823
#
# Coordination Sequence:
#
# PCOD9352041 Si02
#       5
#     8   8   8   8   8
#     4  10  22  38  62  96 125 166 207 251 310 379
#     4  10  23  44  64  92 127 164 208 259 312 373
#     4  10  20  38  63  93 129 162 203 257 315 371
#     4  11  25  44  66  94 123 163 213 262 312 371
#     4  11  23  42  65  93 129 167 206 257 310 372
#
# _framework density 19.717739000000002
#
# number of rings (size 3 to 8) (size 9 to 14) (size 15 to 20)
#    0.000    1.600    2.000    1.800    2.800    5.600 
#    0.000    1.000    0.000    0.000    0.000    0.000 
#    0.000    0.000    0.000    0.000    0.000    0.000 
#
# Total GULP energy -111584.035870 kJ/mol
# GULP energy per Si atom -5579.201793 kJ/mol
# Density = 1.967286 g / cm^3
# Si number density = 19.717739 Si / 1000 Ang^3
#
#
#
# Elastic Constant Matrix: (Units=GPa)
#
#
# Indices 1 2 3 4 5 6 
#
# 1 116.8093 56.3848 16.7661 0.0000 0.0000 0.0000
# 2 56.3848 83.6297 31.6315 0.0000 0.0000 0.0000
# 3 16.7661 31.6315 57.9538 0.0000 0.0000 0.0000
# 4 0.0000 0.0000 0.0000 31.4192 0.0000 0.0000
# 5 0.0000 0.0000 0.0000 0.0000 11.0406 0.0000
# 6 0.0000 0.0000 0.0000 0.0000 0.0000 24.3618
#
#
#
# Elastic Compliance Matrix: (Units=1/GPa)
#
#
# Indices 1 2 3 4 5 6 
#
# 1 0.012765 -0.009085 0.001266 0.000000 0.000000 0.000000
# 2 -0.009085 0.021534 -0.009125 0.000000 0.000000 0.000000
# 3 0.001266 -0.009125 0.021870 0.000000 0.000000 0.000000
# 4 0.000000 0.000000 0.000000 0.031828 0.000000 0.000000
# 5 0.000000 0.000000 0.000000 0.000000 0.090575 0.000000
# 6 0.000000 0.000000 0.000000 0.000000 0.000000 0.041048
#
#
# Mechanical properties :
#
#
# Convention : Reuss Voigt Hill
#
# Bulk Modulus (GPa) = 44.88402 51.99529 48.43965
# Shear Modulus (GPa) = 19.16193 23.60501 21.38347
#
# Velocity S-wave (km/s) = 3.12077 3.46373 3.29672
# Velocity P-wave (km/s) = 5.98317 6.51334 6.25388
#
# Compressibility (1/GPa) = 0.02227965
#
# Stress axis : x y z
#
# Youngs Moduli (GPa) = 78.34137 46.43786 45.72577
#
# Poissons Ratio (x) = 0.42188 -0.05788
# Poissons Ratio (y) = 0.71173 0.41726
# Poissons Ratio (z) = -0.09916 0.42375
#
# Static dielectric constant tensor:
#      x y z
#    x 1.715340 0.000000 0.000000 
#    y 0.000000 1.700050 0.000000 
#    z 0.000000 0.000000 1.669060 
# 
# From -- ./inp_files/2402.got.cif
#   From: 2010.05.17/outbox.cif.g08.bks.cpg/sg36_2_cif.got.tgz:2402.got - 2010.06.03 17:41:39.
