data_PCOD9352250
_publ_section_title
;
Structure prediction by ZEFSAII (Michael W. Deem and Ramdas Pophale) SiO2 
 PCOD9352250
Probable space group: C M C 21
;
_chemical_formula_sum "Si O2"
_cell_formula_units_Z 48
_cell_length_a 9.049862
_cell_length_b 31.418415
_cell_length_c 9.352946
_cell_angle_alpha 90.000000
_cell_angle_beta 90.000000
_cell_angle_gamma 90.000000
_cell_volume 2659.344835
_symmetry_space_group_name_H-M "C M C 21"
_symmetry_group_IT_number 36
_symmetry_cell_setting 'orthorhombic'
loop_
_space_group_symop_operation_xyz
x,y,z
-x,-y,1/2+z
x,-y,1/2+z
-x,y,z
1/2+x,1/2+y,z
1/2-x,1/2-y,1/2+z
1/2+x,1/2-y,1/2+z
1/2-x,1/2+y,z
loop_
_atom_site_type_symbol
_atom_site_label
_atom_site_fract_x
_atom_site_fract_y
_atom_site_fract_z
Si Si1 0.323189 0.618438 0.409350
Si Si2 0.326605 0.286285 0.926814
Si Si3 0.827256 0.209149 0.085201
Si Si4 0.177141 0.462515 0.414880
Si Si5 0.822688 0.036724 0.603266
Si Si6 0.675451 0.120725 0.102454
O O1 0.500000 0.620156 0.382715
O O2 0.279831 0.665423 0.464693
O O3 0.293681 0.581058 0.520760
O O4 0.245183 0.610703 0.257593
O O5 0.500000 0.281299 0.962232
O O6 0.310616 0.283597 0.755428
O O7 0.236212 0.249500 0.002687
O O8 0.743223 0.165372 0.050900
O O9 0.000000 0.203648 0.054562
O O10 0.250786 0.499308 0.509905
O O11 0.249600 0.462964 0.258869
O O12 0.205269 0.417655 0.493795
O O13 0.000000 0.468838 0.405570
O O14 0.000000 0.030984 0.613766
O O15 0.500000 0.125186 0.118544
#
# Coordination Sequence:
#
# PCOD9352250 Si02
#       6
#     8   8   8   8   8   8
#     4   9  20  38  58  82 112 145 184 231 278 327
#     4   9  19  36  55  79 112 145 181 226 275 328
#     4  10  21  36  56  82 111 145 185 229 276 327
#     4  11  24  40  58  84 117 150 186 231 282 334
#     4  11  23  39  61  87 114 148 189 231 278 333
#     4  10  21  37  58  82 110 147 187 228 277 331
#
# _framework density 18.04956
#
# number of rings (size 3 to 8) (size 9 to 14) (size 15 to 20)
#    0.000    2.000    0.000    4.000    0.000   11.333 
#    0.000    3.333    0.000    0.000    0.000    0.000 
#    0.000    0.000    0.000    0.000    0.000    0.000 
#
# Total GULP energy -134060.708814 kJ/mol
# GULP energy per Si atom -5585.862867 kJ/mol
# Density = 1.800848 g / cm^3
# Si number density = 18.049560 Si / 1000 Ang^3
#
#
#
# Elastic Constant Matrix: (Units=GPa)
#
#
# Indices 1 2 3 4 5 6 
#
# 1 91.2965 102.2259 78.7460 0.0000 0.0000 0.0000
# 2 102.2259 180.1317 106.3479 0.0000 0.0000 0.0000
# 3 78.7460 106.3479 115.0782 0.0000 0.0000 0.0000
# 4 0.0000 0.0000 0.0000 32.1739 0.0000 0.0000
# 5 0.0000 0.0000 0.0000 0.0000 36.8950 0.0000
# 6 0.0000 0.0000 0.0000 0.0000 0.0000 33.6282
#
#
#
# Elastic Compliance Matrix: (Units=1/GPa)
#
#
# Indices 1 2 3 4 5 6 
#
# 1 0.037295 -0.013420 -0.013118 0.000000 0.000000 0.000000
# 2 -0.013420 0.017046 -0.006570 0.000000 0.000000 0.000000
# 3 -0.013118 -0.006570 0.023738 0.000000 0.000000 0.000000
# 4 0.000000 0.000000 0.000000 0.031081 0.000000 0.000000
# 5 0.000000 0.000000 0.000000 0.000000 0.027104 0.000000
# 6 0.000000 0.000000 0.000000 0.000000 0.000000 0.029737
#
#
# Mechanical properties :
#
#
# Convention : Reuss Voigt Hill
#
# Bulk Modulus (GPa) = 84.29959 106.79399 95.54679
# Shear Modulus (GPa) = 21.17098 27.15186 24.16142
#
# Velocity S-wave (km/s) = 3.42853 3.88273 3.66268
# Velocity P-wave (km/s) = 7.90437 8.91046 8.42245
#
# Compressibility (1/GPa) = 0.01186245
#
# Stress axis : x y z
#
# Youngs Moduli (GPa) = 26.81314 58.66316 42.12698
#
# Poissons Ratio (x) = 0.78728 0.55263
# Poissons Ratio (y) = 0.35984 0.27677
# Poissons Ratio (z) = 0.35174 0.38541
#
# Static dielectric constant tensor:
#      x y z
#    x 1.605710 0.000000 0.000000 
#    y 0.000000 1.610080 0.000000 
#    z 0.000000 0.000000 1.582010 
# 
# From -- ./inp_files/2639.got.cif
#   From: 2010.05.17/outbox.cif.g08.bks.cpg/sg36_2_cif.got.tgz:2639.got - 2010.06.03 17:41:39.
