data_PCOD9352017
_publ_section_title
;
Structure prediction by ZEFSAII (Michael W. Deem and Ramdas Pophale) SiO2 
 PCOD9352017
Probable space group: C M C 21
;
_chemical_formula_sum "Si O2"
_cell_formula_units_Z 64
_cell_length_a 19.476510
_cell_length_b 9.577881
_cell_length_c 16.981356
_cell_angle_alpha 90.000000
_cell_angle_beta 90.000000
_cell_angle_gamma 90.000000
_cell_volume 3167.764896
_symmetry_space_group_name_H-M "C M C 21"
_symmetry_group_IT_number 36
_symmetry_cell_setting 'orthorhombic'
loop_
_space_group_symop_operation_xyz
x,y,z
-x,-y,1/2+z
x,-y,1/2+z
-x,y,z
1/2+x,1/2+y,z
1/2-x,1/2-y,1/2+z
1/2+x,1/2-y,1/2+z
1/2-x,1/2+y,z
loop_
_atom_site_type_symbol
_atom_site_label
_atom_site_fract_x
_atom_site_fract_y
_atom_site_fract_z
Si Si1 0.920096 0.616900 0.447640
Si Si2 0.284835 0.687178 0.562226
Si Si3 0.579320 0.764966 0.632918
Si Si4 0.784900 0.455993 0.464959
Si Si5 0.921359 0.595267 0.625592
Si Si6 0.920330 0.162424 0.809678
Si Si7 0.794030 0.968145 0.808374
Si Si8 0.707948 0.808534 0.216882
O O1 0.862365 0.498287 0.441432
O O2 0.914262 0.664236 0.539005
O O3 0.904620 0.735388 0.383078
O O4 0.000000 0.572762 0.436529
O O5 0.364722 0.674554 0.586025
O O6 0.243391 0.550250 0.537025
O O7 0.248611 0.746031 0.640440
O O8 0.279673 0.797254 0.491641
O O9 0.500000 0.731344 0.613723
O O10 0.588570 0.742701 0.726557
O O11 0.590852 0.928769 0.614635
O O12 0.737466 0.497609 0.392575
O O13 0.867727 0.654242 0.687289
O O14 0.000000 0.611305 0.651800
O O15 0.000000 0.122302 0.816091
O O16 0.870012 0.031847 0.806977
O O17 0.791999 0.807649 0.784158
O O18 0.748074 0.055912 0.746941
#
# Coordination Sequence:
#
# PCOD9352017 Si02
#       8
#     8   8   8   8   8   8   8   8
#     4  10  20  38  61  89 122 162 207 252 311 379
#     4  12  22  40  63  90 125 158 205 260 312 365
#     4  10  20  38  64  94 124 161 210 261 314 374
#     4  12  25  40  62  92 127 165 206 258 316 378
#     4  10  21  39  64  94 125 162 210 263 316 372
#     4  10  22  40  62  88 126 170 209 254 316 385
#     4  12  26  42  64  91 130 167 212 257 319 380
#     4  12  24  41  64  94 125 163 205 265 314 369
#
# _framework density 20.203519
#
# number of rings (size 3 to 8) (size 9 to 14) (size 15 to 20)
#    0.000    1.000    3.750    3.750    1.750    0.500 
#    0.000    0.625    0.000    3.750    0.000    0.000 
#    0.000    0.000    0.000    0.000    0.000    0.000 
#
# Total GULP energy -178851.606580 kJ/mol
# GULP energy per Si atom -5589.112706 kJ/mol
# Density = 2.015753 g / cm^3
# Si number density = 20.203519 Si / 1000 Ang^3
#
#
#
# Elastic Constant Matrix: (Units=GPa)
#
#
# Indices 1 2 3 4 5 6 
#
# 1 92.4763 15.0901 12.3275 0.0000 0.0000 0.0000
# 2 15.0901 33.5676 -8.1177 0.0000 0.0000 0.0000
# 3 12.3275 -8.1177 51.0911 0.0000 0.0000 0.0000
# 4 0.0000 0.0000 0.0000 28.1600 0.0000 0.0000
# 5 0.0000 0.0000 0.0000 0.0000 39.1443 0.0000
# 6 0.0000 0.0000 0.0000 0.0000 0.0000 25.3586
#
#
#
# Elastic Compliance Matrix: (Units=1/GPa)
#
#
# Indices 1 2 3 4 5 6 
#
# 1 0.012423 -0.006562 -0.004040 0.000000 0.000000 0.000000
# 2 -0.006562 0.034447 0.007056 0.000000 0.000000 0.000000
# 3 -0.004040 0.007056 0.021669 0.000000 0.000000 0.000000
# 4 0.000000 0.000000 0.000000 0.035511 0.000000 0.000000
# 5 0.000000 0.000000 0.000000 0.000000 0.025547 0.000000
# 6 0.000000 0.000000 0.000000 0.000000 0.000000 0.039434
#
#
# Mechanical properties :
#
#
# Convention : Reuss Voigt Hill
#
# Bulk Modulus (GPa) = 16.27392 23.97054 20.12223
# Shear Modulus (GPa) = 25.43186 29.05493 27.24339
#
# Velocity S-wave (km/s) = 3.55178 3.79636 3.67611
# Velocity P-wave (km/s) = 4.98926 5.57734 5.29148
#
# Compressibility (1/GPa) = 0.06144801
#
# Stress axis : x y z
#
# Youngs Moduli (GPa) = 80.49692 29.03027 46.14922
#
# Poissons Ratio (x) = 0.19048 0.18644
# Poissons Ratio (y) = 0.52819 -0.32565
# Poissons Ratio (z) = 0.32521 -0.20485
#
# Static dielectric constant tensor:
#      x y z
#    x 1.728050 0.000000 0.000000 
#    y 0.000000 1.688350 0.000000 
#    z 0.000000 0.000000 1.745700 
# 
# From -- ./inp_files/15025.got.cif
#   From: 2010.05.17/outbox.cif.g08.bks.cpg/sg36_8_cif.got.tgz:15025.got - 2010.06.03 17:41:39.
