data_PCOD9352541
_publ_section_title
;
Structure prediction by ZEFSAII (Michael W. Deem and Ramdas Pophale) SiO2 
 PCOD9352541
Probable space group: C M C 21
;
_chemical_formula_sum "Si O2"
_cell_formula_units_Z 40
_cell_length_a 15.338405
_cell_length_b 9.923366
_cell_length_c 10.858323
_cell_angle_alpha 90.000000
_cell_angle_beta 90.000000
_cell_angle_gamma 90.000000
_cell_volume 1652.730215
_symmetry_space_group_name_H-M "C M C 21"
_symmetry_group_IT_number 36
_symmetry_cell_setting 'orthorhombic'
loop_
_space_group_symop_operation_xyz
x,y,z
-x,-y,1/2+z
x,-y,1/2+z
-x,y,z
1/2+x,1/2+y,z
1/2-x,1/2-y,1/2+z
1/2+x,1/2-y,1/2+z
1/2-x,1/2+y,z
loop_
_atom_site_type_symbol
_atom_site_label
_atom_site_fract_x
_atom_site_fract_y
_atom_site_fract_z
Si Si1 0.097230 0.757652 0.121560
Si Si2 0.709374 0.253121 0.548759
Si Si3 0.153434 0.965407 0.726200
Si Si4 0.157911 0.431079 0.833131
Si Si5 0.594243 0.186552 0.765427
O O1 0.111189 0.632847 0.214500
O O2 0.000000 0.754553 0.066365
O O3 0.106693 0.894848 0.202534
O O4 0.186685 0.757423 0.042904
O O5 0.679196 0.401955 0.591070
O O6 0.663849 0.186187 0.433281
O O7 0.672527 0.171093 0.666931
O O8 0.242594 0.969567 0.802192
O O9 0.099679 0.845549 0.791873
O O10 0.109509 0.569993 0.864812
O O11 0.500000 0.163490 0.707177
#
# Coordination Sequence:
#
# PCOD9352541 Si02
#       5
#     8   8   8   8   8
#     4  11  22  41  67  96 126 164 220 268 312 382
#     4   9  23  40  67  87 133 170 208 256 331 375
#     4   9  20  41  60  89 128 167 202 267 321 375
#     4  11  20  42  67  89 125 174 212 258 320 382
#     4  10  21  40  63  91 126 165 210 259 312 378
#
# _framework density 24.202376999999998
#
# number of rings (size 3 to 8) (size 9 to 14) (size 15 to 20)
#    1.200    0.800    2.000    1.200    0.000    4.800 
#    0.000    4.000    0.000    0.000    0.000    0.000 
#    0.000    0.000    0.000    0.000    0.000    0.000 
#
# Total GULP energy -111538.548754 kJ/mol
# GULP energy per Si atom -5576.927438 kJ/mol
# Density = 2.414729 g / cm^3
# Si number density = 24.202377 Si / 1000 Ang^3
#
#
#
# Elastic Constant Matrix: (Units=GPa)
#
#
# Indices 1 2 3 4 5 6 
#
# 1 138.8823 34.3593 1.9803 0.0000 0.0000 0.0000
# 2 34.3593 129.3220 4.9396 0.0000 0.0000 0.0000
# 3 1.9803 4.9396 23.2644 0.0000 0.0000 0.0000
# 4 0.0000 0.0000 0.0000 31.5192 0.0000 0.0000
# 5 0.0000 0.0000 0.0000 0.0000 3.4805 0.0000
# 6 0.0000 0.0000 0.0000 0.0000 0.0000 28.1481
#
#
#
# Elastic Compliance Matrix: (Units=1/GPa)
#
#
# Indices 1 2 3 4 5 6 
#
# 1 0.007708 -0.002039 -0.000223 0.000000 0.000000 0.000000
# 2 -0.002039 0.008335 -0.001596 0.000000 0.000000 0.000000
# 3 -0.000223 -0.001596 0.043342 0.000000 0.000000 0.000000
# 4 0.000000 0.000000 0.000000 0.031727 0.000000 0.000000
# 5 0.000000 0.000000 0.000000 0.000000 0.287317 0.000000
# 6 0.000000 0.000000 0.000000 0.000000 0.000000 0.035526
#
#
# Mechanical properties :
#
#
# Convention : Reuss Voigt Hill
#
# Bulk Modulus (GPa) = 19.35430 41.55855 30.45643
# Shear Modulus (GPa) = 11.39224 29.30885 20.35054
#
# Velocity S-wave (km/s) = 2.17193 3.48370 2.90289
# Velocity P-wave (km/s) = 3.78206 5.77842 4.88334
#
# Compressibility (1/GPa) = 0.05166809
#
# Stress axis : x y z
#
# Youngs Moduli (GPa) = 129.73409 119.96941 23.07228
#
# Poissons Ratio (x) = 0.24467 0.00515
# Poissons Ratio (y) = 0.26458 0.03683
# Poissons Ratio (z) = 0.02894 0.19150
#
# Static dielectric constant tensor:
#      x y z
#    x 1.915120 0.000000 0.000000 
#    y 0.000000 1.929470 0.000000 
#    z 0.000000 0.000000 1.966370 
# 
# From -- ./inp_files/8767.got.cif
#   From: 2010.05.17/outbox.cif.g08.bks.cpg/sg36_5_cif.got.tgz:8767.got - 2010.06.03 17:41:39.
