data_PCOD9352440
_publ_section_title
;
Structure prediction by ZEFSAII (Michael W. Deem and Ramdas Pophale) SiO2 
 PCOD9352440
Probable space group: C M C 21
;
_chemical_formula_sum "Si O2"
_cell_formula_units_Z 64
_cell_length_a 21.242401
_cell_length_b 16.514596
_cell_length_c 8.635548
_cell_angle_alpha 90.000000
_cell_angle_beta 90.000000
_cell_angle_gamma 90.000000
_cell_volume 3029.433749
_symmetry_space_group_name_H-M "C M C 21"
_symmetry_group_IT_number 36
_symmetry_cell_setting 'orthorhombic'
loop_
_space_group_symop_operation_xyz
x,y,z
-x,-y,1/2+z
x,-y,1/2+z
-x,y,z
1/2+x,1/2+y,z
1/2-x,1/2-y,1/2+z
1/2+x,1/2-y,1/2+z
1/2-x,1/2+y,z
loop_
_atom_site_type_symbol
_atom_site_label
_atom_site_fract_x
_atom_site_fract_y
_atom_site_fract_z
Si Si1 0.641856 0.729704 0.582230
Si Si2 0.574301 0.982055 0.491530
Si Si3 0.865004 0.609803 0.280602
Si Si4 0.230597 0.375047 0.037080
Si Si5 0.769256 0.946236 0.481318
Si Si6 0.848463 0.355094 0.327485
Si Si7 0.927557 0.918793 0.024894
Si Si8 0.147897 0.040318 0.235860
O O1 0.630193 0.801302 0.705865
O O2 0.708990 0.681500 0.573411
O O3 0.635996 0.773308 0.416308
O O4 0.588642 0.663639 0.611529
O O5 0.500000 0.978492 0.526778
O O6 0.616237 0.950249 0.637520
O O7 0.594500 0.916856 0.359378
O O8 0.593788 0.068792 0.418778
O O9 0.796564 0.618129 0.362384
O O10 0.175673 0.347858 0.153439
O O11 0.246942 0.469631 0.060175
O O12 0.712524 0.893706 0.416609
O O13 0.809556 0.907119 0.619175
O O14 0.812909 0.976260 0.340782
O O15 0.000000 0.932149 0.998475
O O16 0.897987 0.990717 0.124348
O O17 0.890827 0.911958 0.863230
#
# Coordination Sequence:
#
# PCOD9352440 Si02
#       8
#     8   8   8   8   8   8   8   8
#     4  11  25  41  63  99 142 177 217 281 348 413
#     4  11  24  42  63  96 135 181 237 277 320 404
#     4  11  25  41  70  97 136 181 229 279 344 396
#     4  12  22  41  65  96 138 170 213 284 346 411
#     4  11  20  36  66  97 133 163 213 270 347 401
#     4  11  24  38  66 100 131 178 218 275 341 402
#     4  11  23  43  67  95 131 178 231 278 329 394
#     4  10  21  38  66  96 128 166 220 274 333 399
#
# _framework density 21.126059999999999
#
# number of rings (size 3 to 8) (size 9 to 14) (size 15 to 20)
#    0.000    1.000    5.000    2.250    5.250    3.500 
#    0.000    1.875    0.000    0.000    0.000    0.000 
#    0.000    0.000    0.000    0.000    0.000    0.000 
#
# Total GULP energy -178391.294544 kJ/mol
# GULP energy per Si atom -5574.727954 kJ/mol
# Density = 2.107798 g / cm^3
# Si number density = 21.126060 Si / 1000 Ang^3
#
#
#
# Elastic Constant Matrix: (Units=GPa)
#
#
# Indices 1 2 3 4 5 6 
#
# 1 80.6980 12.8749 29.9140 0.0000 0.0000 0.0000
# 2 12.8749 78.4357 13.0983 0.0000 0.0000 0.0000
# 3 29.9140 13.0983 81.9854 0.0000 0.0000 0.0000
# 4 0.0000 0.0000 0.0000 10.9460 0.0000 0.0000
# 5 0.0000 0.0000 0.0000 0.0000 17.4964 0.0000
# 6 0.0000 0.0000 0.0000 0.0000 0.0000 12.8182
#
#
#
# Elastic Compliance Matrix: (Units=1/GPa)
#
#
# Indices 1 2 3 4 5 6 
#
# 1 0.014509 -0.001539 -0.005048 0.000000 0.000000 0.000000
# 2 -0.001539 0.013262 -0.001557 0.000000 0.000000 0.000000
# 3 -0.005048 -0.001557 0.014288 0.000000 0.000000 0.000000
# 4 0.000000 0.000000 0.000000 0.091357 0.000000 0.000000
# 5 0.000000 0.000000 0.000000 0.000000 0.057155 0.000000
# 6 0.000000 0.000000 0.000000 0.000000 0.000000 0.078014
#
#
# Mechanical properties :
#
#
# Convention : Reuss Voigt Hill
#
# Bulk Modulus (GPa) = 38.80381 39.21039 39.00710
# Shear Modulus (GPa) = 17.03795 20.60091 18.81943
#
# Velocity S-wave (km/s) = 2.84296 3.12611 2.98789
# Velocity P-wave (km/s) = 5.40224 5.62411 5.51429
#
# Compressibility (1/GPa) = 0.02577067
#
# Stress axis : x y z
#
# Youngs Moduli (GPa) = 68.92472 75.40383 69.98898
#
# Poissons Ratio (x) = 0.11601 0.35330
# Poissons Ratio (y) = 0.10604 0.10900
# Poissons Ratio (z) = 0.34793 0.11743
#
# Static dielectric constant tensor:
#      x y z
#    x 1.795860 0.000000 0.000000 
#    y 0.000000 1.800870 0.000000 
#    z 0.000000 0.000000 1.836500 
# 
# From -- ./inp_files/5326.got.cif
#   From: 2010.05.17/outbox.cif.g08.bks.cpg/sg36_3_cif.got.tgz:5326.got - 2010.06.03 17:41:39.
