data_PCOD9352625
_publ_section_title
;
Structure prediction by ZEFSAII (Michael W. Deem and Ramdas Pophale) SiO2 
 PCOD9352625
Probable space group: C M C 21
;
_chemical_formula_sum "Si O2"
_cell_formula_units_Z 60
_cell_length_a 17.051072
_cell_length_b 6.918706
_cell_length_c 19.169404
_cell_angle_alpha 90.000000
_cell_angle_beta 90.000000
_cell_angle_gamma 90.000000
_cell_volume 2261.440548
_symmetry_space_group_name_H-M "C M C 21"
_symmetry_group_IT_number 36
_symmetry_cell_setting 'orthorhombic'
loop_
_space_group_symop_operation_xyz
x,y,z
-x,-y,1/2+z
x,-y,1/2+z
-x,y,z
1/2+x,1/2+y,z
1/2-x,1/2-y,1/2+z
1/2+x,1/2-y,1/2+z
1/2-x,1/2+y,z
loop_
_atom_site_type_symbol
_atom_site_label
_atom_site_fract_x
_atom_site_fract_y
_atom_site_fract_z
Si Si1 0.856594 0.225091 0.565780
Si Si2 0.362240 0.081229 0.249139
Si Si3 0.087689 0.812108 0.925551
Si Si4 0.403883 0.175768 0.556227
Si Si5 0.295293 0.560859 0.157615
Si Si6 0.000000 0.787670 0.161339
Si Si7 0.589883 0.148428 0.396953
Si Si8 0.410109 0.369026 0.769855
O O1 0.851369 0.156651 0.486321
O O2 0.872902 0.454459 0.563530
O O3 0.786402 0.125300 0.607239
O O4 0.932692 0.147117 0.604587
O O5 0.285347 0.092232 0.200871
O O6 0.432579 0.180063 0.208582
O O7 0.356444 0.165302 0.328122
O O8 0.388579 0.855810 0.258244
O O9 0.087438 0.582856 0.910602
O O10 0.098482 0.911072 0.851389
O O11 0.000000 0.859690 0.950691
O O12 0.500000 0.173428 0.569046
O O13 0.352885 0.300617 0.610514
O O14 0.391917 0.231760 0.474123
O O15 0.350549 0.516334 0.223596
O O16 0.500000 0.204210 0.378511
O O17 0.500000 0.413710 0.746313
#
# Coordination Sequence:
#
# PCOD9352625 Si02
#       8
#     8   8   8   8   8   4   8   8
#     4  11  23  43  73 106 143 189 244 304 368 436
#     4  11  23  44  70 109 147 192 248 308 377 448
#     4   8  15  35  69 100 131 184 245 294 350 433
#     4  10  21  42  78 116 150 202 257 307 378 448
#     4  12  28  42  72 116 155 184 238 320 381 444
#     4  12  22  40  70  96 138 194 244 296 366 444
#     4   8  15  37  74 109 139 197 266 305 360 454
#     4  10  21  42  74 102 140 197 249 294 367 449
#
# _framework density 26.531762000000001
#
# number of rings (size 3 to 8) (size 9 to 14) (size 15 to 20)
#    0.000    1.867    2.667    2.800    3.733    0.000 
#    0.000    2.667    5.867    1.600    0.000    0.000 
#    0.000    0.000    0.000    0.000    0.000    0.000 
#
# Total GULP energy -167319.830151 kJ/mol
# GULP energy per Si atom -5577.327672 kJ/mol
# Density = 2.647137 g / cm^3
# Si number density = 26.531762 Si / 1000 Ang^3
#
#
#
# Elastic Constant Matrix: (Units=GPa)
#
#
# Indices 1 2 3 4 5 6 
#
# 1 211.6834 34.4017 68.3293 0.0000 0.0000 0.0000
# 2 34.4017 149.6683 88.7748 0.0000 0.0000 0.0000
# 3 68.3293 88.7748 341.2393 0.0000 0.0000 0.0000
# 4 0.0000 0.0000 0.0000 50.7124 0.0000 0.0000
# 5 0.0000 0.0000 0.0000 0.0000 86.3290 0.0000
# 6 0.0000 0.0000 0.0000 0.0000 0.0000 -3.9868
#
#
#
# Elastic Compliance Matrix: (Units=1/GPa)
#
#
# Indices 1 2 3 4 5 6 
#
# 1 0.005107 -0.000671 -0.000848 0.000000 0.000000 0.000000
# 2 -0.000671 0.007989 -0.001944 0.000000 0.000000 0.000000
# 3 -0.000848 -0.001944 0.003606 0.000000 0.000000 0.000000
# 4 0.000000 0.000000 0.000000 0.019719 0.000000 0.000000
# 5 0.000000 0.000000 0.000000 0.000000 0.011584 0.000000
# 6 0.000000 0.000000 0.000000 0.000000 0.000000 -0.250830
#
#
# Mechanical properties :
#
#
# Convention : Reuss Voigt Hill
#
# Bulk Modulus (GPa) = 102.29273 120.62252 111.45762
# Shear Modulus (GPa) = -25.95494 60.68327 17.36416
#
# Velocity S-wave (km/s) = -3.13111 4.78765 2.56103
# Velocity P-wave (km/s) = 5.05636 8.72492 7.13060
#
# Compressibility (1/GPa) = 0.00977587
#
# Stress axis : x y z
#
# Youngs Moduli (GPa) = 195.81747 125.17718 277.31230
#
# Poissons Ratio (x) = 0.08397 0.23518
# Poissons Ratio (y) = 0.13135 0.53909
# Poissons Ratio (z) = 0.16607 0.24334
#
# Static dielectric constant tensor:
#      x y z
#    x 2.082810 0.000000 0.000000 
#    y 0.000000 2.304220 0.000000 
#    z 0.000000 0.000000 2.104390 
# 
# From -- ./inp_files/16170.got.cif
#   From: 2010.05.17/outbox.cif.g08.bks.cpg/sg36_9_cif.got.tgz:16170.got - 2010.06.03 17:41:39.
