data_PCOD9352240
_publ_section_title
;
Structure prediction by ZEFSAII (Michael W. Deem and Ramdas Pophale) SiO2 
 PCOD9352240
Probable space group: C M C 21
;
_chemical_formula_sum "Si O2"
_cell_formula_units_Z 64
_cell_length_a 7.919494
_cell_length_b 23.113312
_cell_length_c 16.880330
_cell_angle_alpha 90.000000
_cell_angle_beta 90.000000
_cell_angle_gamma 90.000000
_cell_volume 3089.872424
_symmetry_space_group_name_H-M "C M C 21"
_symmetry_group_IT_number 36
_symmetry_cell_setting 'orthorhombic'
loop_
_space_group_symop_operation_xyz
x,y,z
-x,-y,1/2+z
x,-y,1/2+z
-x,y,z
1/2+x,1/2+y,z
1/2-x,1/2-y,1/2+z
1/2+x,1/2-y,1/2+z
1/2-x,1/2+y,z
loop_
_atom_site_type_symbol
_atom_site_label
_atom_site_fract_x
_atom_site_fract_y
_atom_site_fract_z
Si Si1 0.695387 0.742814 0.554170
Si Si2 0.300260 0.534759 0.431412
Si Si3 0.302137 0.413320 0.378081
Si Si4 0.305634 0.115463 0.567846
Si Si5 0.704843 0.035613 0.709900
Si Si6 0.204429 0.584985 0.261436
Si Si7 0.796996 0.285269 0.725566
Si Si8 0.695438 0.782664 0.384669
O O1 0.500000 0.762873 0.552706
O O2 0.703576 0.673704 0.555921
O O3 0.767361 0.763700 0.639365
O O4 0.772483 0.762064 0.469294
O O5 0.500000 0.535236 0.448873
O O6 0.241564 0.467807 0.430573
O O7 0.203470 0.574722 0.492102
O O8 0.272167 0.563003 0.345506
O O9 0.500000 0.403886 0.394075
O O10 0.279456 0.437931 0.289731
O O11 0.212147 0.351997 0.383875
O O12 0.500000 0.131977 0.584000
O O13 0.239560 0.076179 0.639000
O O14 0.500000 0.038337 0.715170
O O15 0.749993 0.967858 0.702668
O O16 0.264308 0.649164 0.240888
O O17 0.000000 0.587072 0.266157
O O18 0.761935 0.245261 0.802626
O O19 0.000000 0.286778 0.719696
O O20 0.500000 0.765282 0.385908
#
# Coordination Sequence:
#
# PCOD9352240 Si02
#       8
#     8   8   8   8   8   8   8   8
#     4  10  23  40  57  81 114 151 190 232 280 337
#     4  10  21  36  55  80 110 143 179 223 276 331
#     4  10  21  37  57  81 109 143 183 225 274 332
#     4  11  22  35  55  82 110 142 182 227 274 325
#     4   9  19  35  56  83 112 142 179 225 274 327
#     4   9  18  35  58  82 109 142 182 225 272 327
#     4  10  21  38  60  84 113 151 190 230 279 333
#     4  11  23  38  58  83 113 150 189 233 283 332
#
# _framework density 20.712828999999999
#
# number of rings (size 3 to 8) (size 9 to 14) (size 15 to 20)
#    0.000    2.000    0.000    3.000    0.000    9.500 
#    0.000    2.500    0.000    0.000    0.000    0.000 
#    0.000    0.000    0.000    0.000    0.000    0.000 
#
# Total GULP energy -178514.479069 kJ/mol
# GULP energy per Si atom -5578.577471 kJ/mol
# Density = 2.066569 g / cm^3
# Si number density = 20.712829 Si / 1000 Ang^3
#
#
#
# Elastic Constant Matrix: (Units=GPa)
#
#
# Indices 1 2 3 4 5 6 
#
# 1 21.3142 -1.5397 0.6856 0.0000 0.0000 0.0000
# 2 -1.5397 126.4799 51.6730 0.0000 0.0000 0.0000
# 3 0.6856 51.6730 104.9042 0.0000 0.0000 0.0000
# 4 0.0000 0.0000 0.0000 33.9312 0.0000 0.0000
# 5 0.0000 0.0000 0.0000 0.0000 13.9027 0.0000
# 6 0.0000 0.0000 0.0000 0.0000 0.0000-1224.8802
#
#
#
# Elastic Compliance Matrix: (Units=1/GPa)
#
#
# Indices 1 2 3 4 5 6 
#
# 1 0.047004 0.000874 -0.000737 0.000000 0.000000 0.000000
# 2 0.000874 0.009915 -0.004889 0.000000 0.000000 0.000000
# 3 -0.000737 -0.004889 0.011946 0.000000 0.000000 0.000000
# 4 0.000000 0.000000 0.000000 0.029471 0.000000 0.000000
# 5 0.000000 0.000000 0.000000 0.000000 0.071928 0.000000
# 6 0.000000 0.000000 0.000000 0.000000 0.000000 -0.000816
#
#
# Mechanical properties :
#
#
# Convention : Reuss Voigt Hill
#
# Bulk Modulus (GPa) = 16.84706 39.37067 28.10887
# Shear Modulus (GPa) = 25.15848 -221.95064 -98.39608
#
# Velocity S-wave (km/s) = 3.48894 -10.36285 -6.89986
# Velocity P-wave (km/s) = 4.93777 11.14163 7.06238
#
# Compressibility (1/GPa) = 0.05935754
#
# Stress axis : x y z
#
# Youngs Moduli (GPa) = 21.27481 100.86174 83.71219
#
# Poissons Ratio (x) = -0.08810 0.06174
# Poissons Ratio (y) = -0.01858 0.40930
# Poissons Ratio (z) = 0.01569 0.49315
#
# Static dielectric constant tensor:
#      x y z
#    x 1.833310 0.000000 0.000000 
#    y 0.000000 1.720750 0.000000 
#    z 0.000000 0.000000 1.753580 
# 
# From -- ./inp_files/11103.got.cif
#   From: 2010.05.17/outbox.cif.g08.bks.cpg/sg36_6_cif.got.tgz:11103.got - 2010.06.03 17:41:39.
