data_PCOD9352444
_publ_section_title
;
Structure prediction by ZEFSAII (Michael W. Deem and Ramdas Pophale) SiO2 
 PCOD9352444
Probable space group: C M C 21
;
_chemical_formula_sum "Si O2"
_cell_formula_units_Z 48
_cell_length_a 23.585201
_cell_length_b 9.875480
_cell_length_c 9.036272
_cell_angle_alpha 90.000000
_cell_angle_beta 90.000000
_cell_angle_gamma 90.000000
_cell_volume 2104.684926
_symmetry_space_group_name_H-M "C M C 21"
_symmetry_group_IT_number 36
_symmetry_cell_setting 'orthorhombic'
loop_
_space_group_symop_operation_xyz
x,y,z
-x,-y,1/2+z
x,-y,1/2+z
-x,y,z
1/2+x,1/2+y,z
1/2-x,1/2-y,1/2+z
1/2+x,1/2-y,1/2+z
1/2-x,1/2+y,z
loop_
_atom_site_type_symbol
_atom_site_label
_atom_site_fract_x
_atom_site_fract_y
_atom_site_fract_z
Si Si1 0.161461 0.823875 0.989560
Si Si2 0.935742 0.298754 0.351190
Si Si3 0.674325 0.951629 0.590805
Si Si4 0.298257 0.537319 0.194493
Si Si5 0.065953 0.607134 0.297858
Si Si6 0.630452 0.236678 0.542653
O O1 0.094785 0.798894 0.967763
O O2 0.182854 0.913930 0.854806
O O3 0.183587 0.669900 0.974852
O O4 0.180777 0.889715 0.142564
O O5 0.933986 0.460678 0.382728
O O6 0.904269 0.280100 0.195158
O O7 0.000000 0.259811 0.334715
O O8 0.730930 0.954254 0.686572
O O9 0.617181 0.912632 0.681040
O O10 0.667192 0.100278 0.524763
O O11 0.328627 0.637882 0.075418
O O12 0.086037 0.726502 0.407891
O O13 0.000000 0.624116 0.245642
#
# Coordination Sequence:
#
# PCOD9352444 Si02
#       6
#     8   8   8   8   8   8
#     4  11  25  45  63  98 134 183 225 278 335 409
#     4   9  19  39  66  94 129 170 221 280 335 392
#     4  11  24  40  67  96 132 176 229 276 345 394
#     4  11  27  41  67  95 141 180 225 279 336 412
#     4  10  21  38  68 102 130 167 227 283 336 402
#     4  10  21  41  65  99 129 172 225 282 341 399
#
# _framework density 22.806266000000001
#
# number of rings (size 3 to 8) (size 9 to 14) (size 15 to 20)
#    0.000    1.667    1.667    1.500    7.000    1.333 
#    0.000    4.167    0.000    0.000    0.000    0.000 
#    0.000    0.000    0.000    0.000    0.000    0.000 
#
# Total GULP energy -134036.171198 kJ/mol
# GULP energy per Si atom -5584.840467 kJ/mol
# Density = 2.275436 g / cm^3
# Si number density = 22.806266 Si / 1000 Ang^3
#
#
#
# Elastic Constant Matrix: (Units=GPa)
#
#
# Indices 1 2 3 4 5 6 
#
# 1 143.5523 36.5256 30.5941 0.0000 0.0000 0.0000
# 2 36.5256 65.1366 14.3411 0.0000 0.0000 0.0000
# 3 30.5941 14.3411 52.8460 0.0000 0.0000 0.0000
# 4 0.0000 0.0000 0.0000 35.6309 0.0000 0.0000
# 5 0.0000 0.0000 0.0000 0.0000 20.5030 0.0000
# 6 0.0000 0.0000 0.0000 0.0000 0.0000 15.9304
#
#
#
# Elastic Compliance Matrix: (Units=1/GPa)
#
#
# Indices 1 2 3 4 5 6 
#
# 1 0.008863 -0.004084 -0.004022 0.000000 0.000000 0.000000
# 2 -0.004084 0.018210 -0.002577 0.000000 0.000000 0.000000
# 3 -0.004022 -0.002577 0.021951 0.000000 0.000000 0.000000
# 4 0.000000 0.000000 0.000000 0.028066 0.000000 0.000000
# 5 0.000000 0.000000 0.000000 0.000000 0.048773 0.000000
# 6 0.000000 0.000000 0.000000 0.000000 0.000000 0.062773
#
#
# Mechanical properties :
#
#
# Convention : Reuss Voigt Hill
#
# Bulk Modulus (GPa) = 36.15880 47.16183 41.66032
# Shear Modulus (GPa) = 22.80791 26.41777 24.61284
#
# Velocity S-wave (km/s) = 3.16582 3.40715 3.28870
# Velocity P-wave (km/s) = 5.40855 6.01685 5.72079
#
# Compressibility (1/GPa) = 0.02765578
#
# Stress axis : x y z
#
# Youngs Moduli (GPa) = 112.83453 54.91503 45.55582
#
# Poissons Ratio (x) = 0.22428 0.18325
# Poissons Ratio (y) = 0.46082 0.11741
# Poissons Ratio (z) = 0.45387 0.14154
#
# Static dielectric constant tensor:
#      x y z
#    x 1.857600 0.000000 0.000000 
#    y 0.000000 1.859360 0.000000 
#    z 0.000000 0.000000 1.916460 
# 
# From -- ./inp_files/9429.got.cif
#   From: 2010.05.17/outbox.cif.g08.bks.cpg/sg36_5_cif.got.tgz:9429.got - 2010.06.03 17:41:39.
