data_PCOD9352306
_publ_section_title
;
Structure prediction by ZEFSAII (Michael W. Deem and Ramdas Pophale) SiO2 
 PCOD9352306
Probable space group: C M C 21
;
_chemical_formula_sum "Si O2"
_cell_formula_units_Z 64
_cell_length_a 7.639622
_cell_length_b 20.377508
_cell_length_c 17.334348
_cell_angle_alpha 90.000000
_cell_angle_beta 90.000000
_cell_angle_gamma 90.000000
_cell_volume 2698.549906
_symmetry_space_group_name_H-M "C M C 21"
_symmetry_group_IT_number 36
_symmetry_cell_setting 'orthorhombic'
loop_
_space_group_symop_operation_xyz
x,y,z
-x,-y,1/2+z
x,-y,1/2+z
-x,y,z
1/2+x,1/2+y,z
1/2-x,1/2-y,1/2+z
1/2+x,1/2-y,1/2+z
1/2-x,1/2+y,z
loop_
_atom_site_type_symbol
_atom_site_label
_atom_site_fract_x
_atom_site_fract_y
_atom_site_fract_z
Si Si1 0.713148 0.748920 0.371190
Si Si2 0.287196 0.362432 0.758817
Si Si3 0.702247 0.007467 0.554127
Si Si4 0.298899 0.380516 0.164118
Si Si5 0.700175 0.893006 0.337497
Si Si6 0.199895 0.035463 0.387144
Si Si7 0.285582 0.276814 0.038784
Si Si8 0.297915 0.866554 0.582162
O O1 0.500000 0.751468 0.369804
O O2 0.765694 0.706810 0.297044
O O3 0.772297 0.824376 0.370300
O O4 0.764293 0.712161 0.449920
O O5 0.500000 0.364417 0.752541
O O6 0.230728 0.418984 0.818526
O O7 0.212034 0.371741 0.674330
O O8 0.500000 0.002179 0.578106
O O9 0.711387 0.039722 0.470150
O O10 0.777935 0.933878 0.548837
O O11 0.794404 0.051092 0.618260
O O12 0.500000 0.363400 0.182147
O O13 0.202893 0.385072 0.245138
O O14 0.224916 0.327712 0.103337
O O15 0.500000 0.900588 0.364849
O O16 0.793912 0.959986 0.360133
O O17 0.000000 0.056609 0.400120
O O18 0.500000 0.279388 0.041514
O O19 0.223189 0.203595 0.058972
O O20 0.500000 0.863891 0.556081
#
# Coordination Sequence:
#
# PCOD9352306 Si02
#       8
#     8   8   8   8   8   8   8   8
#     4   9  18  35  58  82 110 147 190 234 282 334
#     4  10  21  37  58  83 111 147 188 230 279 333
#     4  11  23  39  60  85 114 149 190 235 286 342
#     4  11  22  37  59  85 116 152 190 234 283 338
#     4  11  22  37  59  85 116 152 190 234 283 338
#     4  11  23  39  60  85 114 149 190 235 286 342
#     4   9  18  35  58  82 110 147 190 234 282 334
#     4  10  21  37  58  83 111 147 188 230 279 333
#
# _framework density 23.716443000000002
#
# number of rings (size 3 to 8) (size 9 to 14) (size 15 to 20)
#    0.000    1.750    0.000    4.500    0.000    8.000 
#    0.000    1.250    0.000    5.250    0.000    0.000 
#    0.000    0.000    0.000    0.000    0.000    0.000 
#
# Total GULP energy -179034.244787 kJ/mol
# GULP energy per Si atom -5594.820150 kJ/mol
# Density = 2.366246 g / cm^3
# Si number density = 23.716443 Si / 1000 Ang^3
#
#
#
# Elastic Constant Matrix: (Units=GPa)
#
#
# Indices 1 2 3 4 5 6 
#
# 1 53.0998 -4.2596 -6.9253 0.0000 0.0000 0.0000
# 2 -4.2596 69.9005 -14.6040 0.0000 0.0000 0.0000
# 3 -6.9253 -14.6040 81.0764 0.0000 0.0000 0.0000
# 4 0.0000 0.0000 0.0000 8.7876 0.0000 0.0000
# 5 0.0000 0.0000 0.0000 0.0000 21.9931 0.0000
# 6 0.0000 0.0000 0.0000 0.0000 0.0000 17.0199
#
#
#
# Elastic Compliance Matrix: (Units=1/GPa)
#
#
# Indices 1 2 3 4 5 6 
#
# 1 0.019210 0.001573 0.001924 0.000000 0.000000 0.000000
# 2 0.001573 0.014994 0.002835 0.000000 0.000000 0.000000
# 3 0.001924 0.002835 0.013009 0.000000 0.000000 0.000000
# 4 0.000000 0.000000 0.000000 0.113797 0.000000 0.000000
# 5 0.000000 0.000000 0.000000 0.000000 0.045469 0.000000
# 6 0.000000 0.000000 0.000000 0.000000 0.000000 0.058755
#
#
# Mechanical properties :
#
#
# Convention : Reuss Voigt Hill
#
# Bulk Modulus (GPa) = 16.70105 16.94435 16.82270
# Shear Modulus (GPa) = 18.34670 24.88448 21.61559
#
# Velocity S-wave (km/s) = 2.78436 3.24273 3.02224
# Velocity P-wave (km/s) = 4.17063 4.60222 4.39173
#
# Compressibility (1/GPa) = 0.05987647
#
# Stress axis : x y z
#
# Youngs Moduli (GPa) = 52.05744 66.69240 76.86938
#
# Poissons Ratio (x) = -0.10488 -0.14790
# Poissons Ratio (y) = -0.08186 -0.21794
# Poissons Ratio (z) = -0.10016 -0.18908
#
# Static dielectric constant tensor:
#      x y z
#    x 1.889140 0.000000 0.000000 
#    y 0.000000 1.906260 0.000000 
#    z 0.000000 0.000000 1.836020 
# 
# From -- ./inp_files/13795.got.cif
#   From: 2010.05.17/outbox.cif.g08.bks.cpg/sg36_7_cif.got.tgz:13795.got - 2010.06.03 17:41:39.
