data_PCOD9352373
_publ_section_title
;
Structure prediction by ZEFSAII (Michael W. Deem and Ramdas Pophale) SiO2 
 PCOD9352373
Probable space group: C M C 21
;
_chemical_formula_sum "Si O2"
_cell_formula_units_Z 48
_cell_length_a 9.219991
_cell_length_b 20.168790
_cell_length_c 11.575694
_cell_angle_alpha 90.000000
_cell_angle_beta 90.000000
_cell_angle_gamma 90.000000
_cell_volume 2152.570474
_symmetry_space_group_name_H-M "C M C 21"
_symmetry_group_IT_number 36
_symmetry_cell_setting 'orthorhombic'
loop_
_space_group_symop_operation_xyz
x,y,z
-x,-y,1/2+z
x,-y,1/2+z
-x,y,z
1/2+x,1/2+y,z
1/2-x,1/2-y,1/2+z
1/2+x,1/2-y,1/2+z
1/2-x,1/2+y,z
loop_
_atom_site_type_symbol
_atom_site_label
_atom_site_fract_x
_atom_site_fract_y
_atom_site_fract_z
Si Si1 0.166594 0.045551 0.669320
Si Si2 0.841260 0.446040 0.967207
Si Si3 0.173221 0.774317 0.681778
Si Si4 0.161629 0.593545 0.869004
Si Si5 0.668469 0.239040 0.949042
Si Si6 0.166993 0.408416 0.707752
O O1 0.266057 0.979976 0.679136
O O2 0.000000 0.028075 0.677945
O O3 0.210705 0.075666 0.547283
O O4 0.216891 0.092978 0.771567
O O5 0.825241 0.524148 0.936072
O O6 0.840099 0.408472 0.846754
O O7 0.000000 0.436642 0.022246
O O8 0.244560 0.741173 0.566066
O O9 0.216072 0.755383 0.815488
O O10 0.225092 0.850387 0.673363
O O11 0.000000 0.766071 0.674881
O O12 0.171115 0.658660 0.944775
O O13 0.000000 0.593110 0.815260
O O14 0.500000 0.260422 0.960180
O O15 0.000000 0.401649 0.665736
#
# Coordination Sequence:
#
# PCOD9352373 Si02
#       6
#     8   8   8   8   8   8
#     4  11  21  32  53  86 120 150 186 242 302 353
#     4   9  18  33  55  81 110 151 198 238 286 355
#     4  11  24  41  64  94 124 158 205 258 306 355
#     4   9  19  37  58  79 109 153 200 239 286 357
#     4  10  23  43  65  89 121 163 207 251 304 366
#     4  10  21  38  59  81 112 157 200 240 294 360
#
# _framework density 22.298919999999999
#
# number of rings (size 3 to 8) (size 9 to 14) (size 15 to 20)
#    0.000    2.000    0.000    4.500    0.000    8.000 
#    0.000    5.000    0.000    0.000    0.000    0.000 
#    0.000    0.000    0.000    0.000    0.000    0.000 
#
# Total GULP energy -133909.889677 kJ/mol
# GULP energy per Si atom -5579.578737 kJ/mol
# Density = 2.224817 g / cm^3
# Si number density = 22.298920 Si / 1000 Ang^3
#
#
#
# Elastic Constant Matrix: (Units=GPa)
#
#
# Indices 1 2 3 4 5 6 
#
# 1 90.0460 2.3026 59.0053 0.0000 0.0000 0.0000
# 2 2.3026 42.7314 5.6462 0.0000 0.0000 0.0000
# 3 59.0053 5.6462 148.9501 0.0000 0.0000 0.0000
# 4 0.0000 0.0000 0.0000 3.7267 0.0000 0.0000
# 5 0.0000 0.0000 0.0000 0.0000 28.7361 0.0000
# 6 0.0000 0.0000 0.0000 0.0000 0.0000 13.2277
#
#
#
# Elastic Compliance Matrix: (Units=1/GPa)
#
#
# Indices 1 2 3 4 5 6 
#
# 1 0.014999 -0.000023 -0.005941 0.000000 0.000000 0.000000
# 2 -0.000023 0.023520 -0.000882 0.000000 0.000000 0.000000
# 3 -0.005941 -0.000882 0.009101 0.000000 0.000000 0.000000
# 4 0.000000 0.000000 0.000000 0.268336 0.000000 0.000000
# 5 0.000000 0.000000 0.000000 0.000000 0.034799 0.000000
# 6 0.000000 0.000000 0.000000 0.000000 0.000000 0.075599
#
#
# Mechanical properties :
#
#
# Convention : Reuss Voigt Hill
#
# Bulk Modulus (GPa) = 29.47549 46.18173 37.82861
# Shear Modulus (GPa) = 11.07775 23.45631 17.26703
#
# Velocity S-wave (km/s) = 2.23128 3.24682 2.78572
# Velocity P-wave (km/s) = 4.45928 5.90009 5.22955
#
# Compressibility (1/GPa) = 0.03392649
#
# Stress axis : x y z
#
# Youngs Moduli (GPa) = 66.67143 42.51726 109.88400
#
# Poissons Ratio (x) = 0.00099 0.65280
# Poissons Ratio (y) = 0.00155 0.09696
# Poissons Ratio (z) = 0.39608 0.03751
#
# Static dielectric constant tensor:
#      x y z
#    x 1.767900 0.000000 0.000000 
#    y 0.000000 1.835670 0.000000 
#    z 0.000000 0.000000 1.991020 
# 
# From -- ./inp_files/6741.got.cif
#   From: 2010.05.17/outbox.cif.g08.bks.cpg/sg36_4_cif.got.tgz:6741.got - 2010.06.03 17:41:39.
