data_PCOD9352352
_publ_section_title
;
Structure prediction by ZEFSAII (Michael W. Deem and Ramdas Pophale) SiO2 
 PCOD9352352
Probable space group: C M C 21
;
_chemical_formula_sum "Si O2"
_cell_formula_units_Z 64
_cell_length_a 22.965988
_cell_length_b 9.255402
_cell_length_c 14.755950
_cell_angle_alpha 90.000000
_cell_angle_beta 90.000000
_cell_angle_gamma 90.000000
_cell_volume 3136.516635
_symmetry_space_group_name_H-M "C M C 21"
_symmetry_group_IT_number 36
_symmetry_cell_setting 'orthorhombic'
loop_
_space_group_symop_operation_xyz
x,y,z
-x,-y,1/2+z
x,-y,1/2+z
-x,y,z
1/2+x,1/2+y,z
1/2-x,1/2-y,1/2+z
1/2+x,1/2-y,1/2+z
1/2-x,1/2+y,z
loop_
_atom_site_type_symbol
_atom_site_label
_atom_site_fract_x
_atom_site_fract_y
_atom_site_fract_z
Si Si1 0.847890 0.073351 0.274180
Si Si2 0.308990 0.807590 0.610492
Si Si3 0.136752 0.830858 0.406882
Si Si4 0.433711 0.938189 0.648735
Si Si5 0.122566 0.603875 0.810703
Si Si6 0.801095 0.987432 0.570615
Si Si7 0.220737 0.620346 0.307846
Si Si8 0.434372 0.935794 0.959412
O O1 0.878250 0.228052 0.287403
O O2 0.829817 0.044210 0.169962
O O3 0.786814 0.087700 0.327770
O O4 0.877925 0.939266 0.324507
O O5 0.377525 0.839598 0.625277
O O6 0.265532 0.927829 0.568764
O O7 0.300413 0.658753 0.559253
O O8 0.284028 0.795381 0.712649
O O9 0.158988 0.913917 0.495100
O O10 0.188390 0.721889 0.378060
O O11 0.084706 0.721265 0.427225
O O12 0.500000 0.877492 0.648463
O O13 0.419496 0.014696 0.743490
O O14 0.430743 0.053781 0.567408
O O15 0.185680 0.529907 0.795501
O O16 0.104806 0.558768 0.911991
O O17 0.500000 0.967638 0.932461
#
# Coordination Sequence:
#
# PCOD9352352 Si02
#       8
#     8   8   8   8   8   8   8   8
#     4  11  22  38  58  93 126 155 196 255 307 368
#     4  10  23  40  61  92 127 163 201 255 305 364
#     4  11  23  38  61  89 123 162 199 249 310 370
#     4  10  22  41  67  88 117 163 212 251 296 365
#     4  10  21  37  64  88 118 159 207 248 295 367
#     4  11  25  38  61  94 129 163 198 252 313 371
#     4   9  20  37  57  86 126 163 192 240 307 363
#     4  10  23  43  63  86 116 160 208 256 307 364
#
# _framework density 20.404800999999999
#
# number of rings (size 3 to 8) (size 9 to 14) (size 15 to 20)
#    0.000    1.750    1.250    1.875   14.000    1.000 
#    0.000    1.875    0.000    2.250    0.000    0.000 
#    0.000    0.000    0.000    0.000    0.000    0.000 
#
# Total GULP energy -178645.223341 kJ/mol
# GULP energy per Si atom -5582.663229 kJ/mol
# Density = 2.035836 g / cm^3
# Si number density = 20.404801 Si / 1000 Ang^3
#
#
#
# Elastic Constant Matrix: (Units=GPa)
#
#
# Indices 1 2 3 4 5 6 
#
# 1 58.8116 16.4344 -4.7616 0.0000 0.0000 0.0000
# 2 16.4344 87.4982 2.6488 0.0000 0.0000 0.0000
# 3 -4.7616 2.6488 62.1807 0.0000 0.0000 0.0000
# 4 0.0000 0.0000 0.0000 23.8589 0.0000 0.0000
# 5 0.0000 0.0000 0.0000 0.0000 20.8746 0.0000
# 6 0.0000 0.0000 0.0000 0.0000 0.0000 16.3254
#
#
#
# Elastic Compliance Matrix: (Units=1/GPa)
#
#
# Indices 1 2 3 4 5 6 
#
# 1 0.018090 -0.003444 0.001532 0.000000 0.000000 0.000000
# 2 -0.003444 0.012099 -0.000779 0.000000 0.000000 0.000000
# 3 0.001532 -0.000779 0.016233 0.000000 0.000000 0.000000
# 4 0.000000 0.000000 0.000000 0.041913 0.000000 0.000000
# 5 0.000000 0.000000 0.000000 0.000000 0.047905 0.000000
# 6 0.000000 0.000000 0.000000 0.000000 0.000000 0.061254
#
#
# Mechanical properties :
#
#
# Convention : Reuss Voigt Hill
#
# Bulk Modulus (GPa) = 24.36687 26.34816 25.35752
# Shear Modulus (GPa) = 23.08867 25.15640 24.12254
#
# Velocity S-wave (km/s) = 3.36747 3.51503 3.44204
# Velocity P-wave (km/s) = 5.20457 5.42353 5.31517
#
# Compressibility (1/GPa) = 0.04103932
#
# Stress axis : x y z
#
# Youngs Moduli (GPa) = 55.27947 82.64951 61.60414
#
# Poissons Ratio (x) = 0.28465 -0.09438
# Poissons Ratio (y) = 0.19039 0.04800
# Poissons Ratio (z) = -0.08469 0.06440
#
# Static dielectric constant tensor:
#      x y z
#    x 1.742640 0.000000 0.000000 
#    y 0.000000 1.733240 0.000000 
#    z 0.000000 0.000000 1.744820 
# 
# From -- ./inp_files/12975.got.cif
#   From: 2010.05.17/outbox.cif.g08.bks.cpg/sg36_7_cif.got.tgz:12975.got - 2010.06.03 17:41:39.
