data_PCOD9352637
_publ_section_title
;
Structure prediction by ZEFSAII (Michael W. Deem and Ramdas Pophale) SiO2 
 PCOD9352637
Probable space group: C M C 21
;
_chemical_formula_sum "Si O2"
_cell_formula_units_Z 36
_cell_length_a 7.704402
_cell_length_b 20.027125
_cell_length_c 9.811658
_cell_angle_alpha 90.000000
_cell_angle_beta 90.000000
_cell_angle_gamma 90.000000
_cell_volume 1513.909609
_symmetry_space_group_name_H-M "C M C 21"
_symmetry_group_IT_number 36
_symmetry_cell_setting 'orthorhombic'
loop_
_space_group_symop_operation_xyz
x,y,z
-x,-y,1/2+z
x,-y,1/2+z
-x,y,z
1/2+x,1/2+y,z
1/2-x,1/2-y,1/2+z
1/2+x,1/2-y,1/2+z
1/2-x,1/2+y,z
loop_
_atom_site_type_symbol
_atom_site_label
_atom_site_fract_x
_atom_site_fract_y
_atom_site_fract_z
Si Si1 0.500000 0.753255 0.650311
Si Si2 0.205918 0.544853 0.382584
Si Si3 0.792577 0.392008 0.408707
Si Si4 0.185933 0.158606 0.191893
Si Si5 0.298062 0.157228 0.602837
O O1 0.652556 0.795916 0.730358
O O2 0.654386 0.711713 0.569232
O O3 0.263989 0.469055 0.401641
O O4 0.292662 0.586584 0.262432
O O5 0.229575 0.589676 0.516907
O O6 0.000000 0.540943 0.352049
O O7 0.700335 0.354172 0.530531
O O8 0.766746 0.359516 0.261899
O O9 0.000000 0.388959 0.441242
O O10 0.000000 0.187509 0.229178
O O11 0.500000 0.176160 0.583384
#
# Coordination Sequence:
#
# PCOD9352637 Si02
#       5
#     4   8   8   8   8
#     4  12  26  48  64  92 144 180 226 276 324 390
#     4  10  21  45  74 102 135 170 218 281 343 394
#     4  10  21  45  74 102 135 170 218 281 343 394
#     4  12  26  44  67 102 134 180 223 272 333 395
#     4  10  24  44  69 102 130 178 223 274 337 395
#
# _framework density 23.779491
#
# number of rings (size 3 to 8) (size 9 to 14) (size 15 to 20)
#    0.000    1.333    2.222    2.000    3.111    6.222 
#    4.000    0.000    0.000    0.000    0.000    0.000 
#    0.000    0.000    0.000    0.000    0.000    0.000 
#
# Total GULP energy -100267.669092 kJ/mol
# GULP energy per Si atom -5570.426061 kJ/mol
# Density = 2.372537 g / cm^3
# Si number density = 23.779491 Si / 1000 Ang^3
#
#
#
# Elastic Constant Matrix: (Units=GPa)
#
#
# Indices 1 2 3 4 5 6 
#
# 1 163.4009 49.5560 43.9258 0.0000 0.0000 0.0000
# 2 49.5560 85.1497 -2.7281 0.0000 0.0000 0.0000
# 3 43.9258 -2.7281 85.8448 0.0000 0.0000 0.0000
# 4 0.0000 0.0000 0.0000 71.1393 0.0000 0.0000
# 5 0.0000 0.0000 0.0000 0.0000 22.8209 0.0000
# 6 0.0000 0.0000 0.0000 0.0000 0.0000 5.1307
#
#
#
# Elastic Compliance Matrix: (Units=1/GPa)
#
#
# Indices 1 2 3 4 5 6 
#
# 1 0.009058 -0.005425 -0.004807 0.000000 0.000000 0.000000
# 2 -0.005425 0.015006 0.003253 0.000000 0.000000 0.000000
# 3 -0.004807 0.003253 0.014212 0.000000 0.000000 0.000000
# 4 0.000000 0.000000 0.000000 0.014057 0.000000 0.000000
# 5 0.000000 0.000000 0.000000 0.000000 0.043819 0.000000
# 6 0.000000 0.000000 0.000000 0.000000 0.000000 0.194907
#
#
# Mechanical properties :
#
#
# Convention : Reuss Voigt Hill
#
# Bulk Modulus (GPa) = 41.12452 57.32254 49.22353
# Shear Modulus (GPa) = 15.96818 36.06095 26.01456
#
# Velocity S-wave (km/s) = 2.59416 3.89842 3.31114
# Velocity P-wave (km/s) = 5.12880 6.66496 5.94669
#
# Compressibility (1/GPa) = 0.02431640
#
# Stress axis : x y z
#
# Youngs Moduli (GPa) = 110.40481 66.64108 70.36290
#
# Poissons Ratio (x) = 0.36155 0.33824
# Poissons Ratio (y) = 0.59899 -0.22889
# Poissons Ratio (z) = 0.53072 -0.21678
#
# Static dielectric constant tensor:
#      x y z
#    x 1.913050 0.000000 0.000000 
#    y 0.000000 1.943100 0.000000 
#    z 0.000000 0.000000 1.922930 
# 
# From -- ./inp_files/2346.got.cif
#   From: 2010.05.17/outbox.cif.g08.bks.cpg/sg36_2_cif.got.tgz:2346.got - 2010.06.03 17:41:39.
