data_PCOD9352257
_publ_section_title
;
Structure prediction by ZEFSAII (Michael W. Deem and Ramdas Pophale) SiO2 
 PCOD9352257
Probable space group: C M C 21
;
_chemical_formula_sum "Si O2"
_cell_formula_units_Z 40
_cell_length_a 17.813387
_cell_length_b 19.004083
_cell_length_c 5.272891
_cell_angle_alpha 90.000000
_cell_angle_beta 90.000000
_cell_angle_gamma 90.000000
_cell_volume 1785.016420
_symmetry_space_group_name_H-M "C M C 21"
_symmetry_group_IT_number 36
_symmetry_cell_setting 'orthorhombic'
loop_
_space_group_symop_operation_xyz
x,y,z
-x,-y,1/2+z
x,-y,1/2+z
-x,y,z
1/2+x,1/2+y,z
1/2-x,1/2-y,1/2+z
1/2+x,1/2-y,1/2+z
1/2-x,1/2+y,z
loop_
_atom_site_type_symbol
_atom_site_label
_atom_site_fract_x
_atom_site_fract_y
_atom_site_fract_z
Si Si1 0.729644 0.017928 0.799990
Si Si2 0.174899 0.624934 0.459671
Si Si3 0.335711 0.317878 0.862327
Si Si4 0.911074 0.755020 0.359202
Si Si5 0.083717 0.042454 0.511368
O O1 0.670884 0.952422 0.826858
O O2 0.773656 0.989743 0.557354
O O3 0.697347 0.094359 0.739029
O O4 0.245291 0.672981 0.369576
O O5 0.103392 0.673056 0.428385
O O6 0.368957 0.295902 0.589692
O O7 0.361955 0.395113 0.939373
O O8 0.371084 0.270776 0.088874
O O9 0.000000 0.771212 0.350745
O O10 0.000000 0.073275 0.474623
O O11 0.087424 0.019160 0.802940
#
# Coordination Sequence:
#
# PCOD9352257 Si02
#       5
#     8   8   8   8   8
#     4   8  20  36  65  98 127 156 210 270 326 380
#     4  10  24  41  71  97 132 163 222 269 328 374
#     4  12  26  40  69  93 130 170 224 261 319 387
#     4  12  27  45  63  93 136 179 213 265 321 389
#     4  10  21  36  57  85 120 162 205 253 312 366
#
# _framework density 22.408757000000001
#
# number of rings (size 3 to 8) (size 9 to 14) (size 15 to 20)
#    1.200    0.400    0.000    4.200    8.400    1.600 
#    0.000    1.000    0.000    0.000    0.000    0.000 
#    0.000    0.000    0.000    0.000    0.000    0.000 
#
# Total GULP energy -111426.496732 kJ/mol
# GULP energy per Si atom -5571.324837 kJ/mol
# Density = 2.235775 g / cm^3
# Si number density = 22.408757 Si / 1000 Ang^3
#
#
#
# Elastic Constant Matrix: (Units=GPa)
#
#
# Indices 1 2 3 4 5 6 
#
# 1 48.2099 17.3707 1.9154 0.0000 0.0000 0.0000
# 2 17.3707 72.1768 -11.3248 0.0000 0.0000 0.0000
# 3 1.9154 -11.3248 88.3303 0.0000 0.0000 0.0000
# 4 0.0000 0.0000 0.0000 34.4881 0.0000 0.0000
# 5 0.0000 0.0000 0.0000 0.0000 16.3258 0.0000
# 6 0.0000 0.0000 0.0000 0.0000 0.0000 3.7266
#
#
#
# Elastic Compliance Matrix: (Units=1/GPa)
#
#
# Indices 1 2 3 4 5 6 
#
# 1 0.022841 -0.005689 -0.001225 0.000000 0.000000 0.000000
# 2 -0.005689 0.015556 0.002118 0.000000 0.000000 0.000000
# 3 -0.001225 0.002118 0.011619 0.000000 0.000000 0.000000
# 4 0.000000 0.000000 0.000000 0.028995 0.000000 0.000000
# 5 0.000000 0.000000 0.000000 0.000000 0.061253 0.000000
# 6 0.000000 0.000000 0.000000 0.000000 0.000000 0.268344
#
#
# Mechanical properties :
#
#
# Convention : Reuss Voigt Hill
#
# Bulk Modulus (GPa) = 24.73750 24.95996 24.84873
# Shear Modulus (GPa) = 11.58274 24.29181 17.93728
#
# Velocity S-wave (km/s) = 2.27598 3.29604 2.83231
# Velocity P-wave (km/s) = 4.23910 5.06437 4.67000
#
# Compressibility (1/GPa) = 0.04042445
#
# Stress axis : x y z
#
# Youngs Moduli (GPa) = 43.78044 64.28219 86.06424
#
# Poissons Ratio (x) = 0.36572 0.10541
# Poissons Ratio (y) = 0.24908 -0.18227
# Poissons Ratio (z) = 0.05362 -0.13614
#
# Static dielectric constant tensor:
#      x y z
#    x 1.844860 0.000000 0.000000 
#    y 0.000000 1.843550 0.000000 
#    z 0.000000 0.000000 2.016180 
# 
# From -- ./inp_files/1044.got.cif
#   From: 2010.05.17/outbox.cif.g08.bks.cpg/sg36_1_cif.got.tgz:1044.got - 2010.06.03 17:41:39.
