data_PCOD9352743
_publ_section_title
;
Structure prediction by ZEFSAII (Michael W. Deem and Ramdas Pophale) SiO2 
 PCOD9352743
Probable space group: C M C 21
;
_chemical_formula_sum "Si O2"
_cell_formula_units_Z 24
_cell_length_a 7.920625
_cell_length_b 25.860670
_cell_length_c 5.011181
_cell_angle_alpha 90.000000
_cell_angle_beta 90.000000
_cell_angle_gamma 90.000000
_cell_volume 1026.453581
_symmetry_space_group_name_H-M "C M C 21"
_symmetry_group_IT_number 36
_symmetry_cell_setting 'orthorhombic'
loop_
_space_group_symop_operation_xyz
x,y,z
-x,-y,1/2+z
x,-y,1/2+z
-x,y,z
1/2+x,1/2+y,z
1/2-x,1/2-y,1/2+z
1/2+x,1/2-y,1/2+z
1/2-x,1/2+y,z
loop_
_atom_site_type_symbol
_atom_site_label
_atom_site_fract_x
_atom_site_fract_y
_atom_site_fract_z
Si Si1 0.309512 0.102888 0.392470
Si Si2 0.000000 0.537858 0.755643
Si Si3 0.500000 0.536580 0.181337
Si Si4 0.193222 0.218990 0.351667
O O1 0.500000 0.102482 0.269965
O O2 0.165248 0.071307 0.240903
O O3 0.258421 0.162092 0.423095
O O4 0.341968 0.074052 0.675829
O O5 0.000000 0.506090 0.024070
O O6 0.500000 0.489610 0.393590
O O7 0.207155 0.255498 0.608433
O O8 0.000000 0.214777 0.264271
#
# Coordination Sequence:
#
# PCOD9352743 Si02
#       4
#     8   4   4   8
#     4  10  24  46  69 104 135 182 228 286 345 413
#     4  10  22  40  64  96 134 176 220 272 336 404
#     4  12  26  44  68 100 140 182 230 280 338 412
#     4  12  26  48  73 106 142 185 237 296 356 425
#
# _framework density 23.381475999999999
#
# number of rings (size 3 to 8) (size 9 to 14) (size 15 to 20)
#    1.000    0.000    1.667    5.000    0.000    5.333 
#    0.000    0.000    0.000    0.000    0.000    0.000 
#    0.000    0.000    0.000    0.000    0.000    0.000 
#
# Total GULP energy -67166.045520 kJ/mol
# GULP energy per Si atom -5597.170460 kJ/mol
# Density = 2.332826 g / cm^3
# Si number density = 23.381476 Si / 1000 Ang^3
#
#
#
# Elastic Constant Matrix: (Units=GPa)
#
#
# Indices 1 2 3 4 5 6 
#
# 1 158.0314 35.5756 -3.8375 0.0000 0.0000 0.0000
# 2 35.5756 91.4928 -25.1950 0.0000 0.0000 0.0000
# 3 -3.8375 -25.1950 49.0085 0.0000 0.0000 0.0000
# 4 0.0000 0.0000 0.0000 15.7489 0.0000 0.0000
# 5 0.0000 0.0000 0.0000 0.0000 28.8757 0.0000
# 6 0.0000 0.0000 0.0000 0.0000 0.0000 93.3211
#
#
#
# Elastic Compliance Matrix: (Units=1/GPa)
#
#
# Indices 1 2 3 4 5 6 
#
# 1 0.006976 -0.002985 -0.000988 0.000000 0.000000 0.000000
# 2 -0.002985 0.014009 0.006968 0.000000 0.000000 0.000000
# 3 -0.000988 0.006968 0.023910 0.000000 0.000000 0.000000
# 4 0.000000 0.000000 0.000000 0.063497 0.000000 0.000000
# 5 0.000000 0.000000 0.000000 0.000000 0.034631 0.000000
# 6 0.000000 0.000000 0.000000 0.000000 0.000000 0.010716
#
#
# Mechanical properties :
#
#
# Convention : Reuss Voigt Hill
#
# Bulk Modulus (GPa) = 19.65171 34.62432 27.13802
# Shear Modulus (GPa) = 30.35664 47.05511 38.70588
#
# Velocity S-wave (km/s) = 3.60713 4.49095 4.07308
# Velocity P-wave (km/s) = 5.07657 6.46004 5.80963
#
# Compressibility (1/GPa) = 0.05088615
#
# Stress axis : x y z
#
# Youngs Moduli (GPa) = 143.35428 71.38153 41.82410
#
# Poissons Ratio (x) = 0.21304 0.04133
# Poissons Ratio (y) = 0.42784 -0.29145
# Poissons Ratio (z) = 0.14165 -0.49741
#
# Static dielectric constant tensor:
#      x y z
#    x 1.943350 0.000000 0.000000 
#    y 0.000000 1.838020 0.000000 
#    z 0.000000 0.000000 1.897070 
# 
# From -- ./inp_files/149.got.cif
#   From: 2010.05.17/outbox.cif.g08.bks.cpg/sg36_1_cif.got.tgz:149.got - 2010.06.03 17:41:39.
