data_PCOD9352246
_publ_section_title
;
Structure prediction by ZEFSAII (Michael W. Deem and Ramdas Pophale) SiO2 
 PCOD9352246
Probable space group: C M C 21
;
_chemical_formula_sum "Si O2"
_cell_formula_units_Z 56
_cell_length_a 28.877567
_cell_length_b 14.957700
_cell_length_c 5.354462
_cell_angle_alpha 90.000000
_cell_angle_beta 90.000000
_cell_angle_gamma 90.000000
_cell_volume 2312.816939
_symmetry_space_group_name_H-M "C M C 21"
_symmetry_group_IT_number 36
_symmetry_cell_setting 'orthorhombic'
loop_
_space_group_symop_operation_xyz
x,y,z
-x,-y,1/2+z
x,-y,1/2+z
-x,y,z
1/2+x,1/2+y,z
1/2-x,1/2-y,1/2+z
1/2+x,1/2-y,1/2+z
1/2-x,1/2+y,z
loop_
_atom_site_type_symbol
_atom_site_label
_atom_site_fract_x
_atom_site_fract_y
_atom_site_fract_z
Si Si1 0.219653 0.751235 0.762830
Si Si2 0.076709 0.517307 0.179867
Si Si3 0.083757 0.031646 0.316604
Si Si4 0.555292 0.798861 0.554887
Si Si5 0.945508 0.794371 0.550272
Si Si6 0.308351 0.544614 0.358189
Si Si7 0.179264 0.447113 0.188901
O O1 0.248556 0.762680 0.507326
O O2 0.195465 0.848433 0.812542
O O3 0.191657 0.657539 0.725571
O O4 0.050174 0.508785 0.433992
O O5 0.087220 0.620515 0.141108
O O6 0.123423 0.460164 0.183906
O O7 0.081090 0.124904 0.174859
O O8 0.137673 0.015582 0.370004
O O9 0.062262 0.029725 0.594932
O O10 0.500000 0.816691 0.592567
O O11 0.561204 0.781533 0.261405
O O12 0.567140 0.725545 0.765490
O O13 0.000000 0.816063 0.556476
O O14 0.288672 0.512056 0.624715
O O15 0.194332 0.509306 0.423752
#
# Coordination Sequence:
#
# PCOD9352246 Si02
#       7
#     8   8   8   8   8   8   8
#     4  12  26  42  66  96 123 160 203 247 308 371
#     4  10  21  37  58  84 116 155 196 240 290 340
#     4  10  21  37  58  86 116 154 201 247 304 365
#     4  10  21  36  55  83 117 158 204 244 294 354
#     4  10  21  37  58  85 119 157 200 254 303 349
#     4  10  23  43  65  90 124 163 203 252 306 364
#     4  10  23  42  62  92 128 159 202 248 299 363
#
# _framework density 24.212895
#
# number of rings (size 3 to 8) (size 9 to 14) (size 15 to 20)
#    0.000    1.714    0.000    3.429    0.000    9.143 
#    0.000    0.000    0.000    0.000    0.000    0.000 
#    0.000    0.000    0.000    0.000    0.000    0.000 
#
# Total GULP energy -156192.256648 kJ/mol
# GULP energy per Si atom -5578.294880 kJ/mol
# Density = 2.415779 g / cm^3
# Si number density = 24.212895 Si / 1000 Ang^3
#
#
#
# Elastic Constant Matrix: (Units=GPa)
#
#
# Indices 1 2 3 4 5 6 
#
# 1 39.8745 30.7015 8.4448 0.0000 0.0000 0.0000
# 2 30.7015 143.9031 60.2352 0.0000 0.0000 0.0000
# 3 8.4448 60.2352 163.7517 0.0000 0.0000 0.0000
# 4 0.0000 0.0000 0.0000 46.9205 0.0000 0.0000
# 5 0.0000 0.0000 0.0000 0.0000 -2.0875 0.0000
# 6 0.0000 0.0000 0.0000 0.0000 0.0000 20.4173
#
#
#
# Elastic Compliance Matrix: (Units=1/GPa)
#
#
# Indices 1 2 3 4 5 6 
#
# 1 0.030135 -0.006830 0.000958 0.000000 0.000000 0.000000
# 2 -0.006830 0.009762 -0.003239 0.000000 0.000000 0.000000
# 3 0.000958 -0.003239 0.007249 0.000000 0.000000 0.000000
# 4 0.000000 0.000000 0.000000 0.021313 0.000000 0.000000
# 5 0.000000 0.000000 0.000000 0.000000 -0.479050 0.000000
# 6 0.000000 0.000000 0.000000 0.000000 0.000000 0.048978
#
#
# Mechanical properties :
#
#
# Convention : Reuss Voigt Hill
#
# Bulk Modulus (GPa) = 34.57301 60.69914 47.63608
# Shear Modulus (GPa) = -14.98123 29.59324 7.30601
#
# Velocity S-wave (km/s) = -2.49013 3.49980 1.73895
# Velocity P-wave (km/s) = 2.45807 6.43855 4.87324
#
# Compressibility (1/GPa) = 0.02892430
#
# Stress axis : x y z
#
# Youngs Moduli (GPa) = 33.18425 102.43777 137.95569
#
# Poissons Ratio (x) = 0.69969 -0.13223
# Poissons Ratio (y) = 0.22666 0.44679
# Poissons Ratio (z) = -0.03181 0.33176
#
# Static dielectric constant tensor:
#      x y z
#    x 1.927000 0.000000 0.000000 
#    y 0.000000 2.064220 0.000000 
#    z 0.000000 0.000000 2.066960 
# 
# From -- ./inp_files/1865.got.cif
#   From: 2010.05.17/outbox.cif.g08.bks.cpg/sg36_1_cif.got.tgz:1865.got - 2010.06.03 17:41:39.
