data_PCOD9352279
_publ_section_title
;
Structure prediction by ZEFSAII (Michael W. Deem and Ramdas Pophale) SiO2 
 PCOD9352279
Probable space group: C M C 21
;
_chemical_formula_sum "Si O2"
_cell_formula_units_Z 56
_cell_length_a 9.644572
_cell_length_b 18.718223
_cell_length_c 14.392854
_cell_angle_alpha 90.000000
_cell_angle_beta 90.000000
_cell_angle_gamma 90.000000
_cell_volume 2598.331130
_symmetry_space_group_name_H-M "C M C 21"
_symmetry_group_IT_number 36
_symmetry_cell_setting 'orthorhombic'
loop_
_space_group_symop_operation_xyz
x,y,z
-x,-y,1/2+z
x,-y,1/2+z
-x,y,z
1/2+x,1/2+y,z
1/2-x,1/2-y,1/2+z
1/2+x,1/2-y,1/2+z
1/2-x,1/2+y,z
loop_
_atom_site_type_symbol
_atom_site_label
_atom_site_fract_x
_atom_site_fract_y
_atom_site_fract_z
Si Si1 0.725542 0.983474 0.854210
Si Si2 0.149651 0.331061 0.912581
Si Si3 0.667284 0.017200 0.144551
Si Si4 0.666852 0.824427 0.562076
Si Si5 0.158918 0.644611 0.861277
Si Si6 0.654012 0.583912 0.516414
Si Si7 0.336454 0.730804 0.733996
O O1 0.661729 0.059830 0.877758
O O2 0.637488 0.913438 0.878698
O O3 0.741241 0.982783 0.744263
O O4 0.850783 0.966360 0.924067
O O5 0.177355 0.286848 0.819431
O O6 0.000000 0.308645 0.952241
O O7 0.278101 0.341370 0.982674
O O8 0.500000 0.006430 0.155043
O O9 0.689840 0.094890 0.098907
O O10 0.738219 0.956070 0.083045
O O11 0.500000 0.816291 0.556554
O O12 0.719234 0.820771 0.456149
O O13 0.715255 0.769302 0.640739
O O14 0.248433 0.664529 0.771394
O O15 0.000000 0.667763 0.847736
O O16 0.500000 0.592849 0.554507
O O17 0.500000 0.714388 0.725090
#
# Coordination Sequence:
#
# PCOD9352279 Si02
#       7
#     8   8   8   8   8   8   8
#     4  10  21  36  64  90 118 149 202 253 298 351
#     4   9  17  36  63  83 109 152 205 249 285 348
#     4  11  19  34  65  92 113 152 209 255 293 357
#     4   9  17  36  63  85 111 158 204 238 292 361
#     4  11  22  38  61  89 123 157 196 249 306 358
#     4  10  22  35  54  88 126 155 188 243 309 358
#     4  10  21  39  62  87 116 157 206 249 295 355
#
# _framework density 21.552294
#
# number of rings (size 3 to 8) (size 9 to 14) (size 15 to 20)
#    0.857    1.143    2.857    1.714    0.000    1.714 
#    2.571    1.429    0.000    0.000    0.000    0.000 
#    0.000    0.000    0.000    0.000    0.000    0.000 
#
# Total GULP energy -156031.338626 kJ/mol
# GULP energy per Si atom -5572.547808 kJ/mol
# Density = 2.150324 g / cm^3
# Si number density = 21.552294 Si / 1000 Ang^3
#
#
#
# Elastic Constant Matrix: (Units=GPa)
#
#
# Indices 1 2 3 4 5 6 
#
# 1 39.8215 10.8316 10.6930 0.0000 0.0000 0.0000
# 2 10.8316 67.2902 23.5373 0.0000 0.0000 0.0000
# 3 10.6930 23.5373 108.3457 0.0000 0.0000 0.0000
# 4 0.0000 0.0000 0.0000 46.9605 0.0000 0.0000
# 5 0.0000 0.0000 0.0000 0.0000 9.6617 0.0000
# 6 0.0000 0.0000 0.0000 0.0000 0.0000 16.6763
#
#
#
# Elastic Compliance Matrix: (Units=1/GPa)
#
#
# Indices 1 2 3 4 5 6 
#
# 1 0.026594 -0.003639 -0.001834 0.000000 0.000000 0.000000
# 2 -0.003639 0.016581 -0.003243 0.000000 0.000000 0.000000
# 3 -0.001834 -0.003243 0.010115 0.000000 0.000000 0.000000
# 4 0.000000 0.000000 0.000000 0.021294 0.000000 0.000000
# 5 0.000000 0.000000 0.000000 0.000000 0.103502 0.000000
# 6 0.000000 0.000000 0.000000 0.000000 0.000000 0.059965
#
#
# Mechanical properties :
#
#
# Convention : Reuss Voigt Hill
#
# Bulk Modulus (GPa) = 27.88766 33.95346 30.92056
# Shear Modulus (GPa) = 18.69593 26.01940 22.35767
#
# Velocity S-wave (km/s) = 2.94848 3.47835 3.22431
# Velocity P-wave (km/s) = 4.95570 5.64978 5.31409
#
# Compressibility (1/GPa) = 0.03585815
#
# Stress axis : x y z
#
# Youngs Moduli (GPa) = 37.60179 60.30939 98.86074
#
# Poissons Ratio (x) = 0.21949 0.18132
# Poissons Ratio (y) = 0.13685 0.32060
# Poissons Ratio (z) = 0.06896 0.19558
#
# Static dielectric constant tensor:
#      x y z
#    x 1.777100 0.000000 0.000000 
#    y 0.000000 1.798680 0.000000 
#    z 0.000000 0.000000 1.823200 
# 
# From -- ./inp_files/10631.got.cif
#   From: 2010.05.17/outbox.cif.g08.bks.cpg/sg36_6_cif.got.tgz:10631.got - 2010.06.03 17:41:39.
