data_PCOD9352193
_publ_section_title
;
Structure prediction by ZEFSAII (Michael W. Deem and Ramdas Pophale) SiO2 
 PCOD9352193
Probable space group: C M C 21
;
_chemical_formula_sum "Si O2"
_cell_formula_units_Z 56
_cell_length_a 20.559357
_cell_length_b 23.468798
_cell_length_c 4.962219
_cell_angle_alpha 90.000000
_cell_angle_beta 90.000000
_cell_angle_gamma 90.000000
_cell_volume 2394.287521
_symmetry_space_group_name_H-M "C M C 21"
_symmetry_group_IT_number 36
_symmetry_cell_setting 'orthorhombic'
loop_
_space_group_symop_operation_xyz
x,y,z
-x,-y,1/2+z
x,-y,1/2+z
-x,y,z
1/2+x,1/2+y,z
1/2-x,1/2-y,1/2+z
1/2+x,1/2-y,1/2+z
1/2-x,1/2+y,z
loop_
_atom_site_type_symbol
_atom_site_label
_atom_site_fract_x
_atom_site_fract_y
_atom_site_fract_z
Si Si1 0.930194 0.679427 0.990700
Si Si2 0.571288 0.742314 0.991278
Si Si3 0.790488 0.259297 0.882308
Si Si4 0.827182 0.620849 0.646808
Si Si5 0.430152 0.460130 0.369875
Si Si6 0.574552 0.961425 0.855057
Si Si7 0.212478 0.040688 0.835709
O O1 0.927184 0.735007 0.796450
O O2 0.872641 0.640545 0.892724
O O3 0.000000 0.651395 0.937086
O O4 0.930252 0.702879 0.291826
O O5 0.500000 0.713478 0.950759
O O6 0.644105 0.721123 0.923339
O O7 0.732871 0.237448 0.075721
O O8 0.803635 0.322469 0.995257
O O9 0.872089 0.582957 0.451958
O O10 0.767164 0.585146 0.758904
O O11 0.430008 0.484887 0.671826
O O12 0.500000 0.430492 0.323291
O O13 0.360325 0.432700 0.314453
O O14 0.500000 0.940864 0.890966
O O15 0.582379 0.015609 0.053852
O O16 0.218500 0.987606 0.628777
#
# Coordination Sequence:
#
# PCOD9352193 Si02
#       7
#     8   8   8   8   8   8   8
#     4   9  18  31  51  80 106 138 191 236 272 331
#     4   9  18  35  58  81 105 139 188 244 291 340
#     4  11  24  40  58  85 117 151 200 256 301 350
#     4  11  22  37  58  80 115 160 190 234 300 357
#     4   8  14  27  47  70  96 125 162 210 255 303
#     4  10  22  38  57  87 125 159 197 246 296 354
#     4  10  21  34  52  81 110 140 182 224 276 357
#
# _framework density 23.389004
#
# number of rings (size 3 to 8) (size 9 to 14) (size 15 to 20)
#    0.000    2.286    0.000    3.000    0.000    7.429 
#    0.000    7.143    0.000    1.714    0.000    2.000 
#    0.000    0.000    0.000    0.000    0.000    0.000 
#
# Total GULP energy -156416.457693 kJ/mol
# GULP energy per Si atom -5586.302060 kJ/mol
# Density = 2.333577 g / cm^3
# Si number density = 23.389004 Si / 1000 Ang^3
#
#
#
# Elastic Constant Matrix: (Units=GPa)
#
#
# Indices 1 2 3 4 5 6 
#
# 1 159.4075 21.8590 -11.6586 0.0000 0.0000 0.0000
# 2 21.8590 42.6543 -5.5744 0.0000 0.0000 0.0000
# 3 -11.6586 -5.5744 55.8232 0.0000 0.0000 0.0000
# 4 0.0000 0.0000 0.0000 22.5451 0.0000 0.0000
# 5 0.0000 0.0000 0.0000 0.0000 24.0839 0.0000
# 6 0.0000 0.0000 0.0000 0.0000 0.0000 5.9762
#
#
#
# Elastic Compliance Matrix: (Units=1/GPa)
#
#
# Indices 1 2 3 4 5 6 
#
# 1 0.006812 -0.003349 0.001088 0.000000 0.000000 0.000000
# 2 -0.003349 0.025400 0.001837 0.000000 0.000000 0.000000
# 3 0.001088 0.001837 0.018324 0.000000 0.000000 0.000000
# 4 0.000000 0.000000 0.000000 0.044356 0.000000 0.000000
# 5 0.000000 0.000000 0.000000 0.000000 0.041522 0.000000
# 6 0.000000 0.000000 0.000000 0.000000 0.000000 0.167329
#
#
# Mechanical properties :
#
#
# Convention : Reuss Voigt Hill
#
# Bulk Modulus (GPa) = 20.12468 29.68189 24.90329
# Shear Modulus (GPa) = 15.56887 27.40497 21.48692
#
# Velocity S-wave (km/s) = 2.58282 3.42673 3.03426
# Velocity P-wave (km/s) = 4.18540 5.32679 4.79021
#
# Compressibility (1/GPa) = 0.04969023
#
# Stress axis : x y z
#
# Youngs Moduli (GPa) = 146.79925 39.36932 54.57195
#
# Poissons Ratio (x) = 0.13184 -0.05939
# Poissons Ratio (y) = 0.49159 -0.10025
# Poissons Ratio (z) = -0.15976 -0.07232
#
# Static dielectric constant tensor:
#      x y z
#    x 1.990120 0.000000 0.000000 
#    y 0.000000 1.863880 0.000000 
#    z 0.000000 0.000000 1.838050 
# 
# From -- ./inp_files/1417.got.cif
#   From: 2010.05.17/outbox.cif.g08.bks.cpg/sg36_1_cif.got.tgz:1417.got - 2010.06.03 17:41:39.
