data_PCOD9352322
_publ_section_title
;
Structure prediction by ZEFSAII (Michael W. Deem and Ramdas Pophale) SiO2 
 PCOD9352322
Probable space group: C M C 21
;
_chemical_formula_sum "Si O2"
_cell_formula_units_Z 64
_cell_length_a 9.124596
_cell_length_b 16.469685
_cell_length_c 19.212832
_cell_angle_alpha 90.000000
_cell_angle_beta 90.000000
_cell_angle_gamma 90.000000
_cell_volume 2887.289443
_symmetry_space_group_name_H-M "C M C 21"
_symmetry_group_IT_number 36
_symmetry_cell_setting 'orthorhombic'
loop_
_space_group_symop_operation_xyz
x,y,z
-x,-y,1/2+z
x,-y,1/2+z
-x,y,z
1/2+x,1/2+y,z
1/2-x,1/2-y,1/2+z
1/2+x,1/2-y,1/2+z
1/2-x,1/2+y,z
loop_
_atom_site_type_symbol
_atom_site_label
_atom_site_fract_x
_atom_site_fract_y
_atom_site_fract_z
Si Si1 0.671158 0.509408 0.078690
Si Si2 0.328591 0.498882 0.842646
Si Si3 0.832945 0.177085 0.272572
Si Si4 0.168459 0.755199 0.393310
Si Si5 0.173752 0.665958 0.015751
Si Si6 0.673161 0.594508 0.709303
Si Si7 0.669110 0.921221 0.966607
Si Si8 0.828925 0.741198 0.633352
O O1 0.500000 0.526395 0.066860
O O2 0.764643 0.584198 0.050469
O O3 0.690431 0.483259 0.158428
O O4 0.725865 0.433656 0.032141
O O5 0.500000 0.507358 0.863687
O O6 0.317211 0.414406 0.799481
O O7 0.290655 0.569177 0.788062
O O8 0.225378 0.484799 0.908433
O O9 0.727217 0.234910 0.316747
O O10 0.813816 0.186922 0.190384
O O11 0.000000 0.202498 0.288364
O O12 0.260268 0.817404 0.439550
O O13 0.178932 0.667880 0.432822
O O14 0.000000 0.780708 0.391341
O O15 0.234317 0.736445 0.066651
O O16 0.000000 0.665778 0.013452
O O17 0.500000 0.616724 0.706620
O O18 0.771799 0.663768 0.675600
O O19 0.500000 0.936096 0.985366
O O20 0.000000 0.732869 0.613928
#
# Coordination Sequence:
#
# PCOD9352322 Si02
#       8
#     8   8   8   8   8   8   8   8
#     4  11  23  40  61  84 113 150 191 237 290 344
#     4   9  18  36  60  83 112 152 194 235 282 337
#     4   9  19  37  60  85 115 154 196 237 285 339
#     4  10  21  38  61  88 119 154 192 236 285 340
#     4  12  25  40  60  85 115 151 193 241 290 343
#     4  10  22  39  60  86 115 150 192 236 285 342
#     4  10  21  37  58  87 119 151 190 233 280 337
#     4  11  23  39  60  86 118 154 192 237 287 340
#
# _framework density 22.166118999999998
#
# number of rings (size 3 to 8) (size 9 to 14) (size 15 to 20)
#    0.000    1.750    0.000    4.125    0.000    9.000 
#    0.000    5.000    0.000    0.000    0.000    0.000 
#    0.000    0.000    0.000    0.000    0.000    0.000 
#
# Total GULP energy -179065.692853 kJ/mol
# GULP energy per Si atom -5595.802902 kJ/mol
# Density = 2.211567 g / cm^3
# Si number density = 22.166119 Si / 1000 Ang^3
#
#
#
# Elastic Constant Matrix: (Units=GPa)
#
#
# Indices 1 2 3 4 5 6 
#
# 1 101.2571 17.6014 29.0407 0.0000 0.0000 0.0000
# 2 17.6014 61.6522 -5.4756 0.0000 0.0000 0.0000
# 3 29.0407 -5.4756 69.5288 0.0000 0.0000 0.0000
# 4 0.0000 0.0000 0.0000 35.9572 0.0000 0.0000
# 5 0.0000 0.0000 0.0000 0.0000 27.3425 0.0000
# 6 0.0000 0.0000 0.0000 0.0000 0.0000 29.6378
#
#
#
# Elastic Compliance Matrix: (Units=1/GPa)
#
#
# Indices 1 2 3 4 5 6 
#
# 1 0.012097 -0.003930 -0.005362 0.000000 0.000000 0.000000
# 2 -0.003930 0.017611 0.003028 0.000000 0.000000 0.000000
# 3 -0.005362 0.003028 0.016861 0.000000 0.000000 0.000000
# 4 0.000000 0.000000 0.000000 0.027811 0.000000 0.000000
# 5 0.000000 0.000000 0.000000 0.000000 0.036573 0.000000
# 6 0.000000 0.000000 0.000000 0.000000 0.000000 0.033741
#
#
# Mechanical properties :
#
#
# Convention : Reuss Voigt Hill
#
# Bulk Modulus (GPa) = 29.37615 34.97457 32.17536
# Shear Modulus (GPa) = 29.66178 31.33896 30.50037
#
# Velocity S-wave (km/s) = 3.66205 3.76416 3.71346
# Velocity P-wave (km/s) = 5.58232 5.89106 5.73877
#
# Compressibility (1/GPa) = 0.03404122
#
# Stress axis : x y z
#
# Youngs Moduli (GPa) = 82.66644 56.78302 59.30977
#
# Poissons Ratio (x) = 0.22315 0.31802
# Poissons Ratio (y) = 0.32486 -0.17961
# Poissons Ratio (z) = 0.44326 -0.17196
#
# Static dielectric constant tensor:
#      x y z
#    x 1.741280 0.000000 0.000000 
#    y 0.000000 1.874730 0.000000 
#    z 0.000000 0.000000 1.819980 
# 
# From -- ./inp_files/15665.got.cif
#   From: 2010.05.17/outbox.cif.g08.bks.cpg/sg36_8_cif.got.tgz:15665.got - 2010.06.03 17:41:39.
