data_PCOD9352948
_publ_section_title
;
Structure prediction by ZEFSAII (Michael W. Deem and Ramdas Pophale) SiO2 
 PCOD9352948
Probable space group: C M C 21
;
_chemical_formula_sum "Si O2"
_cell_formula_units_Z 40
_cell_length_a 14.102457
_cell_length_b 11.856351
_cell_length_c 10.405691
_cell_angle_alpha 90.000000
_cell_angle_beta 90.000000
_cell_angle_gamma 90.000000
_cell_volume 1739.869830
_symmetry_space_group_name_H-M "C M C 21"
_symmetry_group_IT_number 36
_symmetry_cell_setting 'orthorhombic'
loop_
_space_group_symop_operation_xyz
x,y,z
-x,-y,1/2+z
x,-y,1/2+z
-x,y,z
1/2+x,1/2+y,z
1/2-x,1/2-y,1/2+z
1/2+x,1/2-y,1/2+z
1/2-x,1/2+y,z
loop_
_atom_site_type_symbol
_atom_site_label
_atom_site_fract_x
_atom_site_fract_y
_atom_site_fract_z
Si Si1 0.319747 0.307786 0.712410
Si Si2 0.393694 0.074629 0.769757
Si Si3 0.829957 0.767065 0.424382
Si Si4 0.106560 0.012649 0.395865
Si Si5 0.692154 0.030120 0.510025
O O1 0.393498 0.206059 0.733493
O O2 0.235963 0.266475 0.805284
O O3 0.289525 0.307276 0.564031
O O4 0.366659 0.422001 0.764559
O O5 0.500000 0.030912 0.773643
O O6 0.334338 0.012734 0.657713
O O7 0.342634 0.059550 0.905882
O O8 0.865662 0.642890 0.465237
O O9 0.889039 0.876906 0.384234
O O10 0.195206 0.048620 0.487360
O O11 0.000000 0.044497 0.436963
#
# Coordination Sequence:
#
# PCOD9352948 Si02
#       5
#     8   8   8   8   8
#     4  10  23  43  67 100 136 180 233 286 347 414
#     4  11  22  42  69  96 133 181 230 283 346 414
#     4  10  23  42  69  94 139 181 225 287 349 409
#     4  11  24  41  67 102 139 183 231 280 345 418
#     4  10  24  42  66 100 135 177 231 284 345 411
#
# _framework density 22.990226
#
# number of rings (size 3 to 8) (size 9 to 14) (size 15 to 20)
#    0.000    1.600    2.000    1.200    5.600    6.400 
#    0.000    0.000    0.000    3.600    0.000    0.000 
#    0.000    0.000    0.000    0.000    0.000    0.000 
#
# Total GULP energy -111522.447106 kJ/mol
# GULP energy per Si atom -5576.122355 kJ/mol
# Density = 2.293790 g / cm^3
# Si number density = 22.990226 Si / 1000 Ang^3
#
#
#
# Elastic Constant Matrix: (Units=GPa)
#
#
# Indices 1 2 3 4 5 6 
#
# 1 141.3223 9.2409 66.6692 0.0000 0.0000 0.0000
# 2 9.2409 103.0281 36.0220 0.0000 0.0000 0.0000
# 3 66.6692 36.0220 141.9779 0.0000 0.0000 0.0000
# 4 0.0000 0.0000 0.0000 46.2468 0.0000 0.0000
# 5 0.0000 0.0000 0.0000 0.0000 6.8871 0.0000
# 6 0.0000 0.0000 0.0000 0.0000 0.0000 16.1791
#
#
#
# Elastic Compliance Matrix: (Units=1/GPa)
#
#
# Indices 1 2 3 4 5 6 
#
# 1 0.009142 0.000747 -0.004482 0.000000 0.000000 0.000000
# 2 0.000747 0.010712 -0.003069 0.000000 0.000000 0.000000
# 3 -0.004482 -0.003069 0.009927 0.000000 0.000000 0.000000
# 4 0.000000 0.000000 0.000000 0.021623 0.000000 0.000000
# 5 0.000000 0.000000 0.000000 0.000000 0.145199 0.000000
# 6 0.000000 0.000000 0.000000 0.000000 0.000000 0.061808
#
#
# Mechanical properties :
#
#
# Convention : Reuss Voigt Hill
#
# Bulk Modulus (GPa) = 61.83194 67.79917 64.81555
# Shear Modulus (GPa) = 18.02394 32.15569 25.08981
#
# Velocity S-wave (km/s) = 2.80301 3.74393 3.30711
# Velocity P-wave (km/s) = 6.11793 6.94578 6.54496
#
# Compressibility (1/GPa) = 0.01617287
#
# Stress axis : x y z
#
# Youngs Moduli (GPa) = 109.38887 93.35341 100.73852
#
# Poissons Ratio (x) = -0.06975 0.45154
# Poissons Ratio (y) = -0.08174 0.30913
# Poissons Ratio (z) = 0.49031 0.28647
#
# Static dielectric constant tensor:
#      x y z
#    x 1.861220 0.000000 0.000000 
#    y 0.000000 1.978840 0.000000 
#    z 0.000000 0.000000 1.850300 
# 
# From -- ./inp_files/3826.got.cif
#   From: 2010.05.17/outbox.cif.g08.bks.cpg/sg36_2_cif.got.tgz:3826.got - 2010.06.03 17:41:39.
