data_PCOD9352002
_publ_section_title
;
Structure prediction by ZEFSAII (Michael W. Deem and Ramdas Pophale) SiO2 
 PCOD9352002
Probable space group: C M C 21
;
_chemical_formula_sum "Si O2"
_cell_formula_units_Z 32
_cell_length_a 8.721988
_cell_length_b 14.275721
_cell_length_c 10.718985
_cell_angle_alpha 90.000000
_cell_angle_beta 90.000000
_cell_angle_gamma 90.000000
_cell_volume 1334.649413
_symmetry_space_group_name_H-M "C M C 21"
_symmetry_group_IT_number 36
_symmetry_cell_setting 'orthorhombic'
loop_
_space_group_symop_operation_xyz
x,y,z
-x,-y,1/2+z
x,-y,1/2+z
-x,y,z
1/2+x,1/2+y,z
1/2-x,1/2-y,1/2+z
1/2+x,1/2-y,1/2+z
1/2-x,1/2+y,z
loop_
_atom_site_type_symbol
_atom_site_label
_atom_site_fract_x
_atom_site_fract_y
_atom_site_fract_z
Si Si1 0.180315 0.674518 0.966390
Si Si2 0.174441 0.330000 0.816114
Si Si3 0.672633 0.837913 0.102550
Si Si4 0.178849 0.026583 0.134880
O O1 0.256365 0.726638 0.847335
O O2 0.000000 0.664297 0.949961
O O3 0.217689 0.748302 0.080344
O O4 0.258580 0.579203 0.010968
O O5 0.285202 0.398652 0.742579
O O6 0.000000 0.329115 0.766982
O O7 0.162715 0.369352 0.957009
O O8 0.500000 0.810001 0.140439
O O9 0.734462 0.930688 0.166539
O O10 0.000000 0.007828 0.121257
#
# Coordination Sequence:
#
# PCOD9352002 Si02
#       4
#     8   8   8   8
#     4  10  20  38  59  84 117 148 188 236 281 335
#     4   9  20  39  59  83 116 147 189 238 282 334
#     4   9  20  39  59  83 116 147 188 238 280 332
#     4  12  22  36  61  86 115 154 189 228 287 339
#
# _framework density 23.976333
#
# number of rings (size 3 to 8) (size 9 to 14) (size 15 to 20)
#    1.500    0.500    0.000    5.250    0.000    0.000 
#    4.500    0.000    0.000    0.000    0.000    0.000 
#    0.000    0.000    0.000    0.000    0.000    0.000 
#
# Total GULP energy -89323.661146 kJ/mol
# GULP energy per Si atom -5582.728822 kJ/mol
# Density = 2.392176 g / cm^3
# Si number density = 23.976333 Si / 1000 Ang^3
#
#
#
# Elastic Constant Matrix: (Units=GPa)
#
#
# Indices 1 2 3 4 5 6 
#
# 1 108.7211 2.3929 -12.1376 0.0000 0.0000 0.0000
# 2 2.3929 99.9751 2.6523 0.0000 0.0000 0.0000
# 3 -12.1376 2.6523 29.4524 0.0000 0.0000 0.0000
# 4 0.0000 0.0000 0.0000 34.0744 0.0000 0.0000
# 5 0.0000 0.0000 0.0000 0.0000 33.9278 0.0000
# 6 0.0000 0.0000 0.0000 0.0000 0.0000 32.0878
#
#
#
# Elastic Compliance Matrix: (Units=1/GPa)
#
#
# Indices 1 2 3 4 5 6 
#
# 1 0.009653 -0.000337 0.004008 0.000000 0.000000 0.000000
# 2 -0.000337 0.010038 -0.001043 0.000000 0.000000 0.000000
# 3 0.004008 -0.001043 0.035699 0.000000 0.000000 0.000000
# 4 0.000000 0.000000 0.000000 0.029348 0.000000 0.000000
# 5 0.000000 0.000000 0.000000 0.000000 0.029474 0.000000
# 6 0.000000 0.000000 0.000000 0.000000 0.000000 0.031164
#
#
# Mechanical properties :
#
#
# Convention : Reuss Voigt Hill
#
# Bulk Modulus (GPa) = 16.48921 24.88488 20.68705
# Shear Modulus (GPa) = 31.18461 36.36741 33.77601
#
# Velocity S-wave (km/s) = 3.61035 3.89884 3.75737
# Velocity P-wave (km/s) = 4.92664 5.53800 5.24124
#
# Compressibility (1/GPa) = 0.06064572
#
# Stress axis : x y z
#
# Youngs Moduli (GPa) = 103.59728 99.61909 28.01212
#
# Poissons Ratio (x) = 0.03361 -0.11228
# Poissons Ratio (y) = 0.03495 0.02922
# Poissons Ratio (z) = -0.41525 0.10391
#
# Static dielectric constant tensor:
#      x y z
#    x 1.835890 0.000000 0.000000 
#    y 0.000000 1.860060 0.000000 
#    z 0.000000 0.000000 2.156130 
# 
# From -- ./inp_files/6406.got.cif
#   From: 2010.05.17/outbox.cif.g08.bks.cpg/sg36_4_cif.got.tgz:6406.got - 2010.06.03 17:41:39.
