data_PCOD9352786
_publ_section_title
;
Structure prediction by ZEFSAII (Michael W. Deem and Ramdas Pophale) SiO2 
 PCOD9352786
Probable space group: C M C 21
;
_chemical_formula_sum "Si O2"
_cell_formula_units_Z 64
_cell_length_a 18.624039
_cell_length_b 9.711081
_cell_length_c 14.733010
_cell_angle_alpha 90.000000
_cell_angle_beta 90.000000
_cell_angle_gamma 90.000000
_cell_volume 2664.605578
_symmetry_space_group_name_H-M "C M C 21"
_symmetry_group_IT_number 36
_symmetry_cell_setting 'orthorhombic'
loop_
_space_group_symop_operation_xyz
x,y,z
-x,-y,1/2+z
x,-y,1/2+z
-x,y,z
1/2+x,1/2+y,z
1/2-x,1/2-y,1/2+z
1/2+x,1/2-y,1/2+z
1/2-x,1/2+y,z
loop_
_atom_site_type_symbol
_atom_site_label
_atom_site_fract_x
_atom_site_fract_y
_atom_site_fract_z
Si Si1 0.417316 0.822820 0.141180
Si Si2 0.707481 0.654765 0.593607
Si Si3 0.418919 0.525848 0.084311
Si Si4 0.858834 0.331632 0.823582
Si Si5 0.917189 0.620481 0.858818
Si Si6 0.579655 0.540196 0.865343
Si Si7 0.800876 0.157495 0.391565
Si Si8 0.681322 0.951545 0.634902
O O1 0.500000 0.821460 0.113914
O O2 0.387665 0.672470 0.116378
O O3 0.413287 0.845985 0.250030
O O4 0.378304 0.949450 0.091690
O O5 0.627995 0.602505 0.615682
O O6 0.720338 0.601461 0.491036
O O7 0.715863 0.818284 0.589137
O O8 0.760021 0.568797 0.658116
O O9 0.500000 0.513976 0.118107
O O10 0.421002 0.527816 0.974929
O O11 0.893606 0.463205 0.872648
O O12 0.904830 0.196680 0.840351
O O13 0.774982 0.306477 0.847465
O O14 0.855883 0.379713 0.720079
O O15 0.857087 0.717258 0.903585
O O16 0.000000 0.645440 0.887201
O O17 0.500000 0.494244 0.833866
O O18 0.648961 0.450466 0.837345
#
# Coordination Sequence:
#
# PCOD9352786 Si02
#       8
#     8   8   8   8   8   8   8   8
#     4   9  20  40  65  93 127 166 210 258 319 387
#     4  11  26  41  64  90 129 169 215 266 322 380
#     4   9  20  40  65  93 127 166 210 258 319 387
#     4  11  25  40  66  94 128 165 215 265 320 387
#     4  10  22  41  64  93 127 167 210 263 321 383
#     4  10  22  41  64  93 127 167 210 263 321 383
#     4  11  25  40  66  94 128 165 215 265 320 387
#     4  11  26  41  64  90 129 169 215 266 322 380
#
# _framework density 24.018564000000001
#
# number of rings (size 3 to 8) (size 9 to 14) (size 15 to 20)
#    0.000    1.750    0.000    2.250   14.000    1.500 
#    0.000    2.500    0.000    0.000    0.000    0.000 
#    0.000    0.000    0.000    0.000    0.000    0.000 
#
# Total GULP energy -178795.227606 kJ/mol
# GULP energy per Si atom -5587.350863 kJ/mol
# Density = 2.396390 g / cm^3
# Si number density = 24.018564 Si / 1000 Ang^3
#
#
#
# Elastic Constant Matrix: (Units=GPa)
#
#
# Indices 1 2 3 4 5 6 
#
# 1 114.3521 36.3238 -1.1014 0.0000 0.0000 0.0000
# 2 36.3238 113.8997 2.7067 0.0000 0.0000 0.0000
# 3 -1.1014 2.7067 33.2575 0.0000 0.0000 0.0000
# 4 0.0000 0.0000 0.0000 -20.0011 0.0000 0.0000
# 5 0.0000 0.0000 0.0000 0.0000 5.8978 0.0000
# 6 0.0000 0.0000 0.0000 0.0000 0.0000 37.4633
#
#
#
# Elastic Compliance Matrix: (Units=1/GPa)
#
#
# Indices 1 2 3 4 5 6 
#
# 1 0.009742 -0.003120 0.000577 0.000000 0.000000 0.000000
# 2 -0.003120 0.009796 -0.000901 0.000000 0.000000 0.000000
# 3 0.000577 -0.000901 0.030161 0.000000 0.000000 0.000000
# 4 0.000000 0.000000 0.000000 -0.049997 0.000000 0.000000
# 5 0.000000 0.000000 0.000000 0.000000 0.169556 0.000000
# 6 0.000000 0.000000 0.000000 0.000000 0.000000 0.026693
#
#
# Mechanical properties :
#
#
# Convention : Reuss Voigt Hill
#
# Bulk Modulus (GPa) = 23.35917 37.48528 30.42222
# Shear Modulus (GPa) = 23.02992 19.57734 21.30363
#
# Velocity S-wave (km/s) = 3.09987 2.85808 2.98143
# Velocity P-wave (km/s) = 4.74961 5.15094 4.95434
#
# Compressibility (1/GPa) = 0.04280974
#
# Stress axis : x y z
#
# Youngs Moduli (GPa) = 102.65178 102.08043 33.15564
#
# Poissons Ratio (x) = 0.31853 -0.01912
# Poissons Ratio (y) = 0.32032 0.02986
# Poissons Ratio (z) = -0.05919 0.09194
#
# Static dielectric constant tensor:
#      x y z
#    x 1.942210 0.000000 0.000000 
#    y 0.000000 1.957970 0.000000 
#    z 0.000000 0.000000 1.957440 
# 
# From -- ./inp_files/15035.got.cif
#   From: 2010.05.17/outbox.cif.g08.bks.cpg/sg36_8_cif.got.tgz:15035.got - 2010.06.03 17:41:39.
