data_PCOD9352760
_publ_section_title
;
Structure prediction by ZEFSAII (Michael W. Deem and Ramdas Pophale) SiO2 
 PCOD9352760
Probable space group: C M C 21
;
_chemical_formula_sum "Si O2"
_cell_formula_units_Z 32
_cell_length_a 17.584208
_cell_length_b 7.339176
_cell_length_c 9.327450
_cell_angle_alpha 90.000000
_cell_angle_beta 90.000000
_cell_angle_gamma 90.000000
_cell_volume 1203.740976
_symmetry_space_group_name_H-M "C M C 21"
_symmetry_group_IT_number 36
_symmetry_cell_setting 'orthorhombic'
loop_
_space_group_symop_operation_xyz
x,y,z
-x,-y,1/2+z
x,-y,1/2+z
-x,y,z
1/2+x,1/2+y,z
1/2-x,1/2-y,1/2+z
1/2+x,1/2-y,1/2+z
1/2-x,1/2+y,z
loop_
_atom_site_type_symbol
_atom_site_label
_atom_site_fract_x
_atom_site_fract_y
_atom_site_fract_z
Si Si1 0.613105 0.030047 0.093960
Si Si2 0.175921 0.218555 0.394442
Si Si3 0.500000 0.699761 0.063973
Si Si4 0.713560 0.588302 0.085558
Si Si5 0.000000 0.816143 0.229547
O O1 0.618846 0.118382 0.932954
O O2 0.702073 0.016896 0.134672
O O3 0.570170 0.183946 0.185105
O O4 0.569937 0.840216 0.089958
O O5 0.258895 0.283577 0.453637
O O6 0.179721 0.149593 0.235368
O O7 0.160935 0.056907 0.506945
O O8 0.500000 0.514730 0.155236
O O9 0.500000 0.649800 0.897718
#
# Coordination Sequence:
#
# PCOD9352760 Si02
#       5
#     8   8   4   8   4
#     4   9  26  46  76 111 162 197 266 318 392 464
#     4  10  22  40  70 111 155 204 251 321 394 470
#     4  11  26  52  81 113 153 209 261 341 374 470
#     4  10  22  41  70 110 156 197 257 311 391 478
#     4  11  26  50  81 109 151 215 265 321 396 452
#
# _framework density 26.583791999999999
#
# number of rings (size 3 to 8) (size 9 to 14) (size 15 to 20)
#    1.500    0.500    0.000    1.500    3.500    8.000 
#    0.000    0.000    0.000    0.000    0.000    0.000 
#    0.000    0.000    0.000    0.000    0.000    0.000 
#
# Total GULP energy -89481.041296 kJ/mol
# GULP energy per Si atom -5592.565081 kJ/mol
# Density = 2.652329 g / cm^3
# Si number density = 26.583792 Si / 1000 Ang^3
#
#
#
# Elastic Constant Matrix: (Units=GPa)
#
#
# Indices 1 2 3 4 5 6 
#
# 1 116.1963 58.6697 76.3762 0.0000 0.0000 0.0000
# 2 58.6697 217.6034 133.5089 0.0000 0.0000 0.0000
# 3 76.3762 133.5089 202.9989 0.0000 0.0000 0.0000
# 4 0.0000 0.0000 0.0000 53.5213 0.0000 0.0000
# 5 0.0000 0.0000 0.0000 0.0000 22.0302 0.0000
# 6 0.0000 0.0000 0.0000 0.0000 0.0000 41.1219
#
#
#
# Elastic Compliance Matrix: (Units=1/GPa)
#
#
# Indices 1 2 3 4 5 6 
#
# 1 0.011506 -0.000748 -0.003837 0.000000 0.000000 0.000000
# 2 -0.000748 0.007753 -0.004818 0.000000 0.000000 0.000000
# 3 -0.003837 -0.004818 0.009538 0.000000 0.000000 0.000000
# 4 0.000000 0.000000 0.000000 0.018684 0.000000 0.000000
# 5 0.000000 0.000000 0.000000 0.000000 0.045392 0.000000
# 6 0.000000 0.000000 0.000000 0.000000 0.000000 0.024318
#
#
# Mechanical properties :
#
#
# Convention : Reuss Voigt Hill
#
# Bulk Modulus (GPa) = 100.08132 119.32315 109.70224
# Shear Modulus (GPa) = 35.88672 41.21758 38.55215
#
# Velocity S-wave (km/s) = 3.67815 3.94188 3.81230
# Velocity P-wave (km/s) = 7.46777 8.10562 7.79322
#
# Compressibility (1/GPa) = 0.00999187
#
# Stress axis : x y z
#
# Youngs Moduli (GPa) = 86.91196 128.98269 104.84155
#
# Poissons Ratio (x) = 0.09648 0.40228
# Poissons Ratio (y) = 0.06501 0.50508
# Poissons Ratio (z) = 0.33348 0.62138
#
# Static dielectric constant tensor:
#      x y z
#    x 2.163470 0.000000 0.000000 
#    y 0.000000 2.233370 0.000000 
#    z 0.000000 0.000000 2.023030 
# 
# From -- ./inp_files/5037.got.cif
#   From: 2010.05.17/outbox.cif.g08.bks.cpg/sg36_3_cif.got.tgz:5037.got - 2010.06.03 17:41:39.
