data_PCOD9352416
_publ_section_title
;
Structure prediction by ZEFSAII (Michael W. Deem and Ramdas Pophale) SiO2 
 PCOD9352416
Probable space group: C M C 21
;
_chemical_formula_sum "Si O2"
_cell_formula_units_Z 48
_cell_length_a 14.958181
_cell_length_b 25.815238
_cell_length_c 5.568710
_cell_angle_alpha 90.000000
_cell_angle_beta 90.000000
_cell_angle_gamma 90.000000
_cell_volume 2150.351812
_symmetry_space_group_name_H-M "C M C 21"
_symmetry_group_IT_number 36
_symmetry_cell_setting 'orthorhombic'
loop_
_space_group_symop_operation_xyz
x,y,z
-x,-y,1/2+z
x,-y,1/2+z
-x,y,z
1/2+x,1/2+y,z
1/2-x,1/2-y,1/2+z
1/2+x,1/2-y,1/2+z
1/2-x,1/2+y,z
loop_
_atom_site_type_symbol
_atom_site_label
_atom_site_fract_x
_atom_site_fract_y
_atom_site_fract_z
Si Si1 0.000000 0.385392 0.072660
Si Si2 0.325837 0.287643 0.405420
Si Si3 0.703043 0.974243 0.547187
Si Si4 0.500000 0.948301 0.569548
Si Si5 0.000000 0.830854 0.189079
Si Si6 0.000000 0.892048 0.691718
Si Si7 0.809263 0.116515 0.223042
Si Si8 0.186215 0.327691 0.073512
O O1 0.000000 0.417518 0.318622
O O2 0.089352 0.351738 0.082309
O O3 0.000000 0.416018 0.819072
O O4 0.408895 0.299144 0.230148
O O5 0.340481 0.326781 0.627505
O O6 0.319816 0.226505 0.432192
O O7 0.230623 0.308109 0.316203
O O8 0.595099 0.977058 0.561788
O O9 0.739739 0.915624 0.560640
O O10 0.733515 0.999483 0.297412
O O11 0.000000 0.871789 0.413762
O O12 0.000000 0.853786 0.923756
O O13 0.098761 0.916303 0.728587
O O14 0.754403 0.130454 0.461067
#
# Coordination Sequence:
#
# PCOD9352416 Si02
#       8
#     4   8   8   4   4   4   8   8
#     4  12  27  41  72 106 145 189 230 297 343 420
#     4  11  23  40  65  98 137 188 229 287 345 422
#     4  12  27  46  74 104 135 183 237 293 357 422
#     4  12  24  49  71 102 144 185 231 289 363 420
#     4  10  21  38  62  91 132 169 233 263 325 410
#     4  10  22  40  67  97 121 179 216 277 341 406
#     4  11  24  44  68  97 139 179 235 291 352 421
#     4  12  23  41  64 100 140 187 233 284 354 421
#
# _framework density 22.321926999999999
#
# number of rings (size 3 to 8) (size 9 to 14) (size 15 to 20)
#    0.000    0.667    5.000    3.000    2.333    0.000 
#    0.000    3.333    0.000    0.000    0.000    0.000 
#    0.000    0.000    0.000    0.000    0.000    0.000 
#
# Total GULP energy -133872.792711 kJ/mol
# GULP energy per Si atom -5578.033030 kJ/mol
# Density = 2.227112 g / cm^3
# Si number density = 22.321927 Si / 1000 Ang^3
#
#
#
# Elastic Constant Matrix: (Units=GPa)
#
#
# Indices 1 2 3 4 5 6 
#
# 1 120.7700 5.9637 19.2658 0.0000 0.0000 0.0000
# 2 5.9637 59.5657 41.5113 0.0000 0.0000 0.0000
# 3 19.2658 41.5113 132.6747 0.0000 0.0000 0.0000
# 4 0.0000 0.0000 0.0000 36.7276 0.0000 0.0000
# 5 0.0000 0.0000 0.0000 0.0000 27.7019 0.0000
# 6 0.0000 0.0000 0.0000 0.0000 0.0000 39.7816
#
#
#
# Elastic Compliance Matrix: (Units=1/GPa)
#
#
# Indices 1 2 3 4 5 6 
#
# 1 0.008477 0.000012 -0.001235 0.000000 0.000000 0.000000
# 2 0.000012 0.021470 -0.006719 0.000000 0.000000 0.000000
# 3 -0.001235 -0.006719 0.009819 0.000000 0.000000 0.000000
# 4 0.000000 0.000000 0.000000 0.027228 0.000000 0.000000
# 5 0.000000 0.000000 0.000000 0.000000 0.036099 0.000000
# 6 0.000000 0.000000 0.000000 0.000000 0.000000 0.025137
#
#
# Mechanical properties :
#
#
# Convention : Reuss Voigt Hill
#
# Bulk Modulus (GPa) = 41.87436 49.61021 45.74229
# Shear Modulus (GPa) = 32.87906 37.26018 35.06962
#
# Velocity S-wave (km/s) = 3.84207 4.09004 3.96799
# Velocity P-wave (km/s) = 6.20338 6.67665 6.44436
#
# Compressibility (1/GPa) = 0.02388096
#
# Stress axis : x y z
#
# Youngs Moduli (GPa) = 117.97233 46.57764 101.84575
#
# Poissons Ratio (x) = -0.00054 0.12573
# Poissons Ratio (y) = -0.00138 0.68431
# Poissons Ratio (z) = 0.14564 0.31296
#
# Static dielectric constant tensor:
#      x y z
#    x 1.865660 0.000000 0.000000 
#    y 0.000000 1.848680 0.000000 
#    z 0.000000 0.000000 1.897380 
# 
# From -- ./inp_files/864.got.cif
#   From: 2010.05.17/outbox.cif.g08.bks.cpg/sg36_1_cif.got.tgz:864.got - 2010.06.03 17:41:39.
