data_PCOD9352550
_publ_section_title
;
Structure prediction by ZEFSAII (Michael W. Deem and Ramdas Pophale) SiO2 
 PCOD9352550
Probable space group: C M C 21
;
_chemical_formula_sum "Si O2"
_cell_formula_units_Z 48
_cell_length_a 8.821110
_cell_length_b 24.389507
_cell_length_c 11.990661
_cell_angle_alpha 90.000000
_cell_angle_beta 90.000000
_cell_angle_gamma 90.000000
_cell_volume 2579.701073
_symmetry_space_group_name_H-M "C M C 21"
_symmetry_group_IT_number 36
_symmetry_cell_setting 'orthorhombic'
loop_
_space_group_symop_operation_xyz
x,y,z
-x,-y,1/2+z
x,-y,1/2+z
-x,y,z
1/2+x,1/2+y,z
1/2-x,1/2-y,1/2+z
1/2+x,1/2-y,1/2+z
1/2-x,1/2+y,z
loop_
_atom_site_type_symbol
_atom_site_label
_atom_site_fract_x
_atom_site_fract_y
_atom_site_fract_z
Si Si1 0.180727 0.960938 0.178490
Si Si2 0.818253 0.167612 0.304252
Si Si3 0.181281 0.293891 0.262160
Si Si4 0.319546 0.920493 0.635373
Si Si5 0.181152 0.637513 0.542346
Si Si6 0.679556 0.609408 0.899194
O O1 0.256540 0.920013 0.089362
O O2 0.208712 0.934205 0.300014
O O3 0.000000 0.962338 0.160494
O O4 0.248968 0.021091 0.168739
O O5 0.778567 0.230405 0.274576
O O6 0.743916 0.125990 0.217380
O O7 0.759676 0.153620 0.427510
O O8 0.000000 0.162200 0.299488
O O9 0.214860 0.318031 0.139440
O O10 0.266768 0.332306 0.350346
O O11 0.000000 0.299746 0.279729
O O12 0.500000 0.923027 0.642700
O O13 0.267810 0.906286 0.510215
O O14 0.000000 0.634570 0.528000
O O15 0.500000 0.610334 0.921793
#
# Coordination Sequence:
#
# PCOD9352550 Si02
#       6
#     8   8   8   8   8   8
#     4  10  22  42  66  91 121 162 205 252 309 370
#     4  11  24  41  62  92 127 164 206 254 306 363
#     4   9  21  41  64  91 124 162 204 252 306 363
#     4  12  26  41  62  92 126 163 206 256 306 363
#     4  10  21  40  64  92 124 162 205 254 308 365
#     4  10  22  41  66  92 122 161 204 252 309 368
#
# _framework density 18.606805999999999
#
# number of rings (size 3 to 8) (size 9 to 14) (size 15 to 20)
#    0.000    1.667    0.000    3.500    4.667    4.000 
#    0.000    0.000    0.000    0.000    0.000    0.000 
#    0.000    0.000    0.000    0.000    0.000    0.000 
#
# Total GULP energy -134193.146501 kJ/mol
# GULP energy per Si atom -5591.381104 kJ/mol
# Density = 1.856446 g / cm^3
# Si number density = 18.606806 Si / 1000 Ang^3
#
#
#
# Elastic Constant Matrix: (Units=GPa)
#
#
# Indices 1 2 3 4 5 6 
#
# 1 77.1420 69.6508 53.4629 0.0000 0.0000 0.0000
# 2 69.6508 175.3357 73.1094 0.0000 0.0000 0.0000
# 3 53.4629 73.1094 90.1263 0.0000 0.0000 0.0000
# 4 0.0000 0.0000 0.0000 12.8954 0.0000 0.0000
# 5 0.0000 0.0000 0.0000 0.0000 37.4441 0.0000
# 6 0.0000 0.0000 0.0000 0.0000 0.0000 33.2642
#
#
#
# Elastic Compliance Matrix: (Units=1/GPa)
#
#
# Indices 1 2 3 4 5 6 
#
# 1 0.025333 -0.005738 -0.010373 0.000000 0.000000 0.000000
# 2 -0.005738 0.009918 -0.004642 0.000000 0.000000 0.000000
# 3 -0.010373 -0.004642 0.021014 0.000000 0.000000 0.000000
# 4 0.000000 0.000000 0.000000 0.077547 0.000000 0.000000
# 5 0.000000 0.000000 0.000000 0.000000 0.026706 0.000000
# 6 0.000000 0.000000 0.000000 0.000000 0.000000 0.030062
#
#
# Mechanical properties :
#
#
# Convention : Reuss Voigt Hill
#
# Bulk Modulus (GPa) = 67.75127 81.67224 74.71176
# Shear Modulus (GPa) = 21.09652 26.47946 23.78799
#
# Velocity S-wave (km/s) = 3.37086 3.77650 3.57943
# Velocity P-wave (km/s) = 7.18619 7.93757 7.57121
#
# Compressibility (1/GPa) = 0.01475987
#
# Stress axis : x y z
#
# Youngs Moduli (GPa) = 39.47448 100.82456 47.58767
#
# Poissons Ratio (x) = 0.57855 0.49361
# Poissons Ratio (y) = 0.22651 0.22088
# Poissons Ratio (z) = 0.40946 0.46799
#
# Static dielectric constant tensor:
#      x y z
#    x 1.618600 0.000000 0.000000 
#    y 0.000000 1.611930 0.000000 
#    z 0.000000 0.000000 1.611360 
# 
# From -- ./inp_files/6746.got.cif
#   From: 2010.05.17/outbox.cif.g08.bks.cpg/sg36_4_cif.got.tgz:6746.got - 2010.06.03 17:41:39.
