data_PCOD9352787
_publ_section_title
;
Structure prediction by ZEFSAII (Michael W. Deem and Ramdas Pophale) SiO2 
 PCOD9352787
Probable space group: C M C 21
;
_chemical_formula_sum "Si O2"
_cell_formula_units_Z 48
_cell_length_a 7.316736
_cell_length_b 22.947551
_cell_length_c 14.831828
_cell_angle_alpha 90.000000
_cell_angle_beta 90.000000
_cell_angle_gamma 90.000000
_cell_volume 2490.281312
_symmetry_space_group_name_H-M "C M C 21"
_symmetry_group_IT_number 36
_symmetry_cell_setting 'orthorhombic'
loop_
_space_group_symop_operation_xyz
x,y,z
-x,-y,1/2+z
x,-y,1/2+z
-x,y,z
1/2+x,1/2+y,z
1/2-x,1/2-y,1/2+z
1/2+x,1/2-y,1/2+z
1/2-x,1/2+y,z
loop_
_atom_site_type_symbol
_atom_site_label
_atom_site_fract_x
_atom_site_fract_y
_atom_site_fract_z
Si Si1 0.000000 0.005915 0.421901
Si Si2 0.711517 0.952339 0.285258
Si Si3 0.207314 0.729661 0.143088
Si Si4 0.500000 0.640087 0.370433
Si Si5 0.217812 0.273646 0.950899
Si Si6 0.000000 0.000536 0.639733
Si Si7 0.000000 0.862419 0.659114
Si Si8 0.279635 0.316396 0.300734
O O1 0.000000 0.072390 0.390588
O O2 0.174679 0.975000 0.373060
O O3 0.000000 0.009586 0.531187
O O4 0.500000 0.972448 0.284117
O O5 0.711425 0.881866 0.288545
O O6 0.826672 0.974003 0.197034
O O7 0.325002 0.672399 0.123933
O O8 0.278837 0.771069 0.223026
O O9 0.000000 0.713615 0.165773
O O10 0.217964 0.766796 0.052596
O O11 0.677472 0.672114 0.408967
O O12 0.500000 0.648337 0.264799
O O13 0.267558 0.215603 0.894146
O O14 0.000000 0.280393 0.946558
O O15 0.000000 0.930669 0.645489
O O16 0.500000 0.320425 0.295608
#
# Coordination Sequence:
#
# PCOD9352787 Si02
#       8
#     4   8   8   4   8   4   4   8
#     4  11  27  50  69  95 138 187 230 281 340 398
#     4  11  25  44  70 100 132 179 232 281 332 407
#     4  11  24  39  64 100 133 171 213 270 334 396
#     4  12  24  45  67  94 135 174 222 279 332 397
#     4  11  24  39  64 100 133 171 213 270 334 396
#     4  11  27  50  69  95 138 187 230 281 340 398
#     4  12  24  45  67  94 135 174 222 279 332 397
#     4  10  22  41  64  93 135 171 213 266 332 394
#
# _framework density 19.274930999999999
#
# number of rings (size 3 to 8) (size 9 to 14) (size 15 to 20)
#    0.000    1.000    6.667    0.000    7.000    2.000 
#    0.000    0.000    0.000    0.000    0.000    0.000 
#    0.000    0.000    0.000    0.000    0.000    0.000 
#
# Total GULP energy -133981.317952 kJ/mol
# GULP energy per Si atom -5582.554915 kJ/mol
# Density = 1.923106 g / cm^3
# Si number density = 19.274931 Si / 1000 Ang^3
#
#
#
# Elastic Constant Matrix: (Units=GPa)
#
#
# Indices 1 2 3 4 5 6 
#
# 1 133.5432 28.5365 12.5946 0.0000 0.0000 0.0000
# 2 28.5365 101.5621 -14.9593 0.0000 0.0000 0.0000
# 3 12.5946 -14.9593 89.6403 0.0000 0.0000 0.0000
# 4 0.0000 0.0000 0.0000 6.2407 0.0000 0.0000
# 5 0.0000 0.0000 0.0000 0.0000 19.8813 0.0000
# 6 0.0000 0.0000 0.0000 0.0000 0.0000 116.0118
#
#
#
# Elastic Compliance Matrix: (Units=1/GPa)
#
#
# Indices 1 2 3 4 5 6 
#
# 1 0.008177 -0.002529 -0.001571 0.000000 0.000000 0.000000
# 2 -0.002529 0.010876 0.002170 0.000000 0.000000 0.000000
# 3 -0.001571 0.002170 0.011739 0.000000 0.000000 0.000000
# 4 0.000000 0.000000 0.000000 0.160239 0.000000 0.000000
# 5 0.000000 0.000000 0.000000 0.000000 0.050299 0.000000
# 6 0.000000 0.000000 0.000000 0.000000 0.000000 0.008620
#
#
# Mechanical properties :
#
#
# Convention : Reuss Voigt Hill
#
# Bulk Modulus (GPa) = 37.12901 41.89880 39.51391
# Shear Modulus (GPa) = 19.02689 48.33166 33.67927
#
# Velocity S-wave (km/s) = 3.14527 5.01291 4.18462
# Velocity P-wave (km/s) = 5.70044 7.43575 6.62516
#
# Compressibility (1/GPa) = 0.02693312
#
# Stress axis : x y z
#
# Youngs Moduli (GPa) = 122.29805 91.94205 85.18896
#
# Poissons Ratio (x) = 0.23251 0.13382
# Poissons Ratio (y) = 0.30927 -0.18489
# Poissons Ratio (z) = 0.19211 -0.19955
#
# Static dielectric constant tensor:
#      x y z
#    x 1.722300 0.000000 0.000000 
#    y 0.000000 1.669710 0.000000 
#    z 0.000000 0.000000 1.689480 
# 
# From -- ./inp_files/10492.got.cif
#   From: 2010.05.17/outbox.cif.g08.bks.cpg/sg36_6_cif.got.tgz:10492.got - 2010.06.03 17:41:39.
