data_PCOD9352335
_publ_section_title
;
Structure prediction by ZEFSAII (Michael W. Deem and Ramdas Pophale) SiO2 
 PCOD9352335
Probable space group: C M C 21
;
_chemical_formula_sum "Si O2"
_cell_formula_units_Z 48
_cell_length_a 12.953155
_cell_length_b 12.250759
_cell_length_c 12.914386
_cell_angle_alpha 90.000000
_cell_angle_beta 90.000000
_cell_angle_gamma 90.000000
_cell_volume 2049.332001
_symmetry_space_group_name_H-M "C M C 21"
_symmetry_group_IT_number 36
_symmetry_cell_setting 'orthorhombic'
loop_
_space_group_symop_operation_xyz
x,y,z
-x,-y,1/2+z
x,-y,1/2+z
-x,y,z
1/2+x,1/2+y,z
1/2-x,1/2-y,1/2+z
1/2+x,1/2-y,1/2+z
1/2-x,1/2+y,z
loop_
_atom_site_type_symbol
_atom_site_label
_atom_site_fract_x
_atom_site_fract_y
_atom_site_fract_z
Si Si1 0.616201 0.923981 0.454900
Si Si2 0.116172 0.232279 0.625856
Si Si3 0.112591 0.165709 0.946055
Si Si4 0.720221 0.755719 0.314448
Si Si5 0.382778 0.531185 0.279380
Si Si6 0.798991 0.010643 0.574752
O O1 0.500000 0.965004 0.441930
O O2 0.616598 0.830925 0.544868
O O3 0.655843 0.862836 0.351057
O O4 0.698299 0.008453 0.503095
O O5 0.208042 0.241481 0.710781
O O6 0.000000 0.228259 0.674048
O O7 0.134694 0.120074 0.563170
O O8 0.195519 0.250126 0.906169
O O9 0.000000 0.213244 0.951214
O O10 0.115801 0.062587 0.866320
O O11 0.143467 0.102965 0.049077
O O12 0.645808 0.652160 0.314191
O O13 0.500000 0.530108 0.235932
O O14 0.293643 0.498063 0.198448
#
# Coordination Sequence:
#
# PCOD9352335 Si02
#       6
#     8   8   8   8   8   8
#     4  10  23  42  62  84 121 165 200 239 301 363
#     4  11  21  39  65  90 118 158 203 250 298 351
#     4  10  21  37  60  86 114 151 198 248 292 343
#     4  11  21  35  59  89 120 152 197 245 295 354
#     4  11  21  36  58  87 118 152 196 243 296 348
#     4  11  21  37  64  88 117 150 202 247 292 347
#
# _framework density 23.422267000000002
#
# number of rings (size 3 to 8) (size 9 to 14) (size 15 to 20)
#    0.000    1.333    3.333    3.500    0.000    2.667 
#    0.000    1.667    0.000   20.000    0.000    0.000 
#    0.000    0.000    0.000    0.000    0.000    0.000 
#
# Total GULP energy -133976.118408 kJ/mol
# GULP energy per Si atom -5582.338267 kJ/mol
# Density = 2.336896 g / cm^3
# Si number density = 23.422267 Si / 1000 Ang^3
#
#
#
# Elastic Constant Matrix: (Units=GPa)
#
#
# Indices 1 2 3 4 5 6 
#
# 1 134.3944 17.4349 14.9477 0.0000 0.0000 0.0000
# 2 17.4349 68.4676 15.7359 0.0000 0.0000 0.0000
# 3 14.9477 15.7359 74.7330 0.0000 0.0000 0.0000
# 4 0.0000 0.0000 0.0000 30.6171 0.0000 0.0000
# 5 0.0000 0.0000 0.0000 0.0000 28.8664 0.0000
# 6 0.0000 0.0000 0.0000 0.0000 0.0000 33.0799
#
#
#
# Elastic Compliance Matrix: (Units=1/GPa)
#
#
# Indices 1 2 3 4 5 6 
#
# 1 0.007796 -0.001710 -0.001199 0.000000 0.000000 0.000000
# 2 -0.001710 0.015723 -0.002969 0.000000 0.000000 0.000000
# 3 -0.001199 -0.002969 0.014246 0.000000 0.000000 0.000000
# 4 0.000000 0.000000 0.000000 0.032661 0.000000 0.000000
# 5 0.000000 0.000000 0.000000 0.000000 0.034642 0.000000
# 6 0.000000 0.000000 0.000000 0.000000 0.000000 0.030230
#
#
# Mechanical properties :
#
#
# Convention : Reuss Voigt Hill
#
# Bulk Modulus (GPa) = 38.44713 41.53686 39.99199
# Shear Modulus (GPa) = 32.10811 33.81111 32.95961
#
# Velocity S-wave (km/s) = 3.70650 3.80352 3.75532
# Velocity P-wave (km/s) = 5.89643 6.08781 5.99289
#
# Compressibility (1/GPa) = 0.02600975
#
# Stress axis : x y z
#
# Youngs Moduli (GPa) = 128.27156 63.60078 70.19535
#
# Poissons Ratio (x) = 0.10873 0.08419
# Poissons Ratio (y) = 0.21929 0.20839
# Poissons Ratio (z) = 0.15384 0.18881
#
# Static dielectric constant tensor:
#      x y z
#    x 1.915960 0.000000 0.000000 
#    y 0.000000 1.890840 0.000000 
#    z 0.000000 0.000000 1.946570 
# 
# From -- ./inp_files/11522.got.cif
#   From: 2010.05.17/outbox.cif.g08.bks.cpg/sg36_6_cif.got.tgz:11522.got - 2010.06.03 17:41:39.
