data_PCOD9352581
_publ_section_title
;
Structure prediction by ZEFSAII (Michael W. Deem and Ramdas Pophale) SiO2 
 PCOD9352581
Probable space group: C M C 21
;
_chemical_formula_sum "Si O2"
_cell_formula_units_Z 48
_cell_length_a 17.645087
_cell_length_b 10.228911
_cell_length_c 14.094503
_cell_angle_alpha 90.000000
_cell_angle_beta 90.000000
_cell_angle_gamma 90.000000
_cell_volume 2543.917192
_symmetry_space_group_name_H-M "C M C 21"
_symmetry_group_IT_number 36
_symmetry_cell_setting 'orthorhombic'
loop_
_space_group_symop_operation_xyz
x,y,z
-x,-y,1/2+z
x,-y,1/2+z
-x,y,z
1/2+x,1/2+y,z
1/2-x,1/2-y,1/2+z
1/2+x,1/2-y,1/2+z
1/2-x,1/2+y,z
loop_
_atom_site_type_symbol
_atom_site_label
_atom_site_fract_x
_atom_site_fract_y
_atom_site_fract_z
Si Si1 0.908985 0.355349 0.674800
Si Si2 0.837887 0.890985 0.280108
Si Si3 0.841721 0.384705 0.265514
Si Si4 0.411131 0.526263 0.964135
Si Si5 0.908932 0.283156 0.461508
Si Si6 0.411048 0.633218 0.176532
O O1 0.881862 0.222664 0.724943
O O2 0.870323 0.476117 0.727915
O O3 0.888378 0.345504 0.563199
O O4 0.000000 0.366096 0.681032
O O5 0.748772 0.877546 0.265125
O O6 0.860613 0.894591 0.390184
O O7 0.867182 0.028876 0.240174
O O8 0.870771 0.351541 0.371520
O O9 0.877013 0.274469 0.197263
O O10 0.500000 0.535479 0.936060
O O11 0.390780 0.372128 0.964467
O O12 0.403905 0.585780 0.068630
O O13 0.000000 0.293094 0.451138
O O14 0.500000 0.632762 0.202078
#
# Coordination Sequence:
#
# PCOD9352581 Si02
#       6
#     8   8   8   8   8   8
#     4  11  24  43  65  93 127 168 212 262 316 378
#     4  12  24  40  65  95 130 165 209 261 321 379
#     4  12  26  40  64  98 136 165 201 263 335 380
#     4  10  21  40  70  96 118 166 229 267 296 369
#     4  10  21  42  68  91 123 171 218 263 316 373
#     4  11  22  43  70  93 120 171 225 260 302 379
#
# _framework density 18.868538999999998
#
# number of rings (size 3 to 8) (size 9 to 14) (size 15 to 20)
#    0.000    1.000    3.333    4.000    0.000    4.000 
#    0.000    1.667    0.000    0.000    0.000    0.000 
#    0.000    0.000    0.000    0.000    0.000    0.000 
#
# Total GULP energy -134215.063608 kJ/mol
# GULP energy per Si atom -5592.294317 kJ/mol
# Density = 1.882559 g / cm^3
# Si number density = 18.868539 Si / 1000 Ang^3
#
#
#
# Elastic Constant Matrix: (Units=GPa)
#
#
# Indices 1 2 3 4 5 6 
#
# 1 57.6492 -6.6483 37.0255 0.0000 0.0000 0.0000
# 2 -6.6483 41.5417 7.3398 0.0000 0.0000 0.0000
# 3 37.0255 7.3398 85.7622 0.0000 0.0000 0.0000
# 4 0.0000 0.0000 0.0000 31.6315 0.0000 0.0000
# 5 0.0000 0.0000 0.0000 0.0000 -1.1209 0.0000
# 6 0.0000 0.0000 0.0000 0.0000 0.0000 19.5237
#
#
#
# Elastic Compliance Matrix: (Units=1/GPa)
#
#
# Indices 1 2 3 4 5 6 
#
# 1 0.025440 0.006104 -0.011505 0.000000 0.000000 0.000000
# 2 0.006104 0.025906 -0.004852 0.000000 0.000000 0.000000
# 3 -0.011505 -0.004852 0.017043 0.000000 0.000000 0.000000
# 4 0.000000 0.000000 0.000000 0.031614 0.000000 0.000000
# 5 0.000000 0.000000 0.000000 0.000000 -0.892170 0.000000
# 6 0.000000 0.000000 0.000000 0.000000 0.000000 0.051220
#
#
# Mechanical properties :
#
#
# Convention : Reuss Voigt Hill
#
# Bulk Modulus (GPa) = 20.88496 28.93191 24.90843
# Shear Modulus (GPa) = -7.09743 19.82263 6.36260
#
# Velocity S-wave (km/s) = -1.94157 3.24476 1.83831
# Velocity P-wave (km/s) = 2.46302 5.42260 4.21136
#
# Compressibility (1/GPa) = 0.04788135
#
# Stress axis : x y z
#
# Youngs Moduli (GPa) = 39.30893 38.60045 58.67682
#
# Poissons Ratio (x) = -0.23562 0.67509
# Poissons Ratio (y) = -0.23995 0.28473
# Poissons Ratio (z) = 0.45226 0.18731
#
# Static dielectric constant tensor:
#      x y z
#    x 1.625770 0.000000 0.000000 
#    y 0.000000 1.617630 0.000000 
#    z 0.000000 0.000000 1.661430 
# 
# From -- ./inp_files/12489.got.cif
#   From: 2010.05.17/outbox.cif.g08.bks.cpg/sg36_7_cif.got.tgz:12489.got - 2010.06.03 17:41:39.
