data_PCOD9352258
_publ_section_title
;
Structure prediction by ZEFSAII (Michael W. Deem and Ramdas Pophale) SiO2 
 PCOD9352258
Probable space group: C M C 21
;
_chemical_formula_sum "Si O2"
_cell_formula_units_Z 64
_cell_length_a 7.882633
_cell_length_b 14.758470
_cell_length_c 21.879511
_cell_angle_alpha 90.000000
_cell_angle_beta 90.000000
_cell_angle_gamma 90.000000
_cell_volume 2545.366098
_symmetry_space_group_name_H-M "C M C 21"
_symmetry_group_IT_number 36
_symmetry_cell_setting 'orthorhombic'
loop_
_space_group_symop_operation_xyz
x,y,z
-x,-y,1/2+z
x,-y,1/2+z
-x,y,z
1/2+x,1/2+y,z
1/2-x,1/2-y,1/2+z
1/2+x,1/2-y,1/2+z
1/2-x,1/2+y,z
loop_
_atom_site_type_symbol
_atom_site_label
_atom_site_fract_x
_atom_site_fract_y
_atom_site_fract_z
Si Si1 0.298421 0.081418 0.328780
Si Si2 0.305957 0.772449 0.736831
Si Si3 0.803250 0.164630 0.550725
Si Si4 0.707049 0.718867 0.424616
Si Si5 0.697083 0.595980 0.136858
Si Si6 0.689200 0.903297 0.177595
Si Si7 0.304105 0.100705 0.873043
Si Si8 0.697949 0.458472 0.504013
O O1 0.500000 0.073600 0.316082
O O2 0.221384 0.154694 0.282497
O O3 0.272285 0.127512 0.394248
O O4 0.227163 0.979746 0.332421
O O5 0.500000 0.759120 0.754806
O O6 0.297237 0.828985 0.673966
O O7 0.231153 0.672746 0.727676
O O8 0.739580 0.227541 0.495395
O O9 0.704652 0.151450 0.613494
O O10 0.000000 0.185639 0.565445
O O11 0.800617 0.064982 0.519882
O O12 0.500000 0.718230 0.424974
O O13 0.771394 0.799820 0.381158
O O14 0.500000 0.622544 0.135515
O O15 0.706986 0.495986 0.168195
O O16 0.759277 0.586056 0.067320
O O17 0.500000 0.936167 0.187669
O O18 0.500000 0.111604 0.854546
O O19 0.298707 0.065967 0.943419
O O20 0.500000 0.434471 0.493407
#
# Coordination Sequence:
#
# PCOD9352258 Si02
#       8
#     8   8   8   8   8   8   8   8
#     4  10  23  42  60  85 121 157 200 254 301 353
#     4  11  24  42  63  87 122 167 212 257 305 361
#     4   9  18  35  57  85 123 160 195 243 303 365
#     4  10  21  37  59  87 118 158 199 242 300 360
#     4  10  22  41  62  91 126 159 202 253 307 370
#     4  11  23  39  61  91 122 161 207 255 310 364
#     4  10  21  36  57  87 118 152 195 243 296 355
#     4   9  18  34  57  85 120 154 190 239 294 356
#
# _framework density 25.143730000000001
#
# number of rings (size 3 to 8) (size 9 to 14) (size 15 to 20)
#    0.000    2.000    1.250    2.625    1.750    5.500 
#    0.000    1.250    0.000    0.000    0.000    0.000 
#    0.000    0.000    0.000    0.000    0.000    0.000 
#
# Total GULP energy -178903.637620 kJ/mol
# GULP energy per Si atom -5590.738676 kJ/mol
# Density = 2.508650 g / cm^3
# Si number density = 25.143730 Si / 1000 Ang^3
#
#
#
# Elastic Constant Matrix: (Units=GPa)
#
#
# Indices 1 2 3 4 5 6 
#
# 1 47.7692 -1.1738 3.7459 0.0000 0.0000 0.0000
# 2 -1.1738 122.6249 28.0870 0.0000 0.0000 0.0000
# 3 3.7459 28.0870 58.5262 0.0000 0.0000 0.0000
# 4 0.0000 0.0000 0.0000 53.6431 0.0000 0.0000
# 5 0.0000 0.0000 0.0000 0.0000 19.5524 0.0000
# 6 0.0000 0.0000 0.0000 0.0000 0.0000 13.7674
#
#
#
# Elastic Compliance Matrix: (Units=1/GPa)
#
#
# Indices 1 2 3 4 5 6 
#
# 1 0.021075 0.000574 -0.001624 0.000000 0.000000 0.000000
# 2 0.000574 0.009178 -0.004441 0.000000 0.000000 0.000000
# 3 -0.001624 -0.004441 0.019322 0.000000 0.000000 0.000000
# 4 0.000000 0.000000 0.000000 0.018642 0.000000 0.000000
# 5 0.000000 0.000000 0.000000 0.000000 0.051145 0.000000
# 6 0.000000 0.000000 0.000000 0.000000 0.000000 0.072636
#
#
# Mechanical properties :
#
#
# Convention : Reuss Voigt Hill
#
# Bulk Modulus (GPa) = 25.91241 32.24871 29.08056
# Shear Modulus (GPa) = 23.16492 30.61001 26.88746
#
# Velocity S-wave (km/s) = 3.03859 3.49291 3.27364
# Velocity P-wave (km/s) = 4.75802 5.39637 5.08722
#
# Compressibility (1/GPa) = 0.03859154
#
# Stress axis : x y z
#
# Youngs Moduli (GPa) = 47.44855 108.96005 51.75546
#
# Poissons Ratio (x) = -0.06252 0.08406
# Poissons Ratio (y) = -0.02723 0.22985
# Poissons Ratio (z) = 0.07707 0.48391
#
# Static dielectric constant tensor:
#      x y z
#    x 1.880250 0.000000 0.000000 
#    y 0.000000 2.013580 0.000000 
#    z 0.000000 0.000000 2.056530 
# 
# From -- ./inp_files/16692.got.cif
#   From: 2010.05.17/outbox.cif.g08.bks.cpg/sg36_9_cif.got.tgz:16692.got - 2010.06.03 17:41:39.
