data_PCOD9352876
_publ_section_title
;
Structure prediction by ZEFSAII (Michael W. Deem and Ramdas Pophale) SiO2 
 PCOD9352876
Probable space group: C M C 21
;
_chemical_formula_sum "Si O2"
_cell_formula_units_Z 48
_cell_length_a 25.176893
_cell_length_b 5.579188
_cell_length_c 13.768984
_cell_angle_alpha 90.000000
_cell_angle_beta 90.000000
_cell_angle_gamma 90.000000
_cell_volume 1934.082634
_symmetry_space_group_name_H-M "C M C 21"
_symmetry_group_IT_number 36
_symmetry_cell_setting 'orthorhombic'
loop_
_space_group_symop_operation_xyz
x,y,z
-x,-y,1/2+z
x,-y,1/2+z
-x,y,z
1/2+x,1/2+y,z
1/2-x,1/2-y,1/2+z
1/2+x,1/2-y,1/2+z
1/2-x,1/2+y,z
loop_
_atom_site_type_symbol
_atom_site_label
_atom_site_fract_x
_atom_site_fract_y
_atom_site_fract_z
Si Si1 0.367418 0.816758 0.546130
Si Si2 0.231138 0.551662 0.451472
Si Si3 0.730425 0.381358 0.731058
Si Si4 0.559671 0.951957 0.904162
Si Si5 0.619080 0.853282 0.222124
Si Si6 0.439732 0.424798 0.567683
O O1 0.323329 0.914825 0.474296
O O2 0.422974 0.875696 0.492092
O O3 0.381391 0.548350 0.570005
O O4 0.438526 0.298342 0.461782
O O5 0.269733 0.330813 0.486907
O O6 0.242681 0.586310 0.337358
O O7 0.743093 0.641314 0.684346
O O8 0.668037 0.323975 0.745699
O O9 0.641154 0.958080 0.644499
O O10 0.500000 0.996433 0.872085
O O11 0.598020 0.003458 0.815009
O O12 0.569459 0.738985 0.163813
O O13 0.500000 0.524022 0.578871
#
# Coordination Sequence:
#
# PCOD9352876 Si02
#       6
#     8   8   8   8   8   8
#     4  11  25  44  71 104 152 198 252 316 393 471
#     4  10  23  43  71 101 145 193 244 302 369 448
#     4  10  23  45  71 106 150 193 247 308 374 458
#     4  10  22  44  71 101 142 193 251 318 394 470
#     4  11  25  44  73 110 148 197 260 325 397 469
#     4  10  24  46  73 108 151 200 262 331 403 478
#
# _framework density 24.817966999999999
#
# number of rings (size 3 to 8) (size 9 to 14) (size 15 to 20)
#    0.000    1.667    0.000    3.000    7.000    4.667 
#    3.000    1.667    0.000    0.000    0.000    0.000 
#    0.000    0.000    0.000    0.000    0.000    0.000 
#
# Total GULP energy -133731.021005 kJ/mol
# GULP energy per Si atom -5572.125875 kJ/mol
# Density = 2.476148 g / cm^3
# Si number density = 24.817967 Si / 1000 Ang^3
#
#
#
# Elastic Constant Matrix: (Units=GPa)
#
#
# Indices 1 2 3 4 5 6 
#
# 1 116.1056 30.7069 26.5855 0.0000 0.0000 0.0000
# 2 30.7069 72.8038 14.8122 0.0000 0.0000 0.0000
# 3 26.5855 14.8122 115.6287 0.0000 0.0000 0.0000
# 4 0.0000 0.0000 0.0000 16.1617 0.0000 0.0000
# 5 0.0000 0.0000 0.0000 0.0000 38.9356 0.0000
# 6 0.0000 0.0000 0.0000 0.0000 0.0000 41.6970
#
#
#
# Elastic Compliance Matrix: (Units=1/GPa)
#
#
# Indices 1 2 3 4 5 6 
#
# 1 0.010052 -0.003870 -0.001815 0.000000 0.000000 0.000000
# 2 -0.003870 0.015593 -0.001108 0.000000 0.000000 0.000000
# 3 -0.001815 -0.001108 0.009208 0.000000 0.000000 0.000000
# 4 0.000000 0.000000 0.000000 0.061875 0.000000 0.000000
# 5 0.000000 0.000000 0.000000 0.000000 0.025683 0.000000
# 6 0.000000 0.000000 0.000000 0.000000 0.000000 0.023983
#
#
# Mechanical properties :
#
#
# Convention : Reuss Voigt Hill
#
# Bulk Modulus (GPa) = 47.02282 49.86080 48.44181
# Shear Modulus (GPa) = 29.92769 34.85444 32.39106
#
# Velocity S-wave (km/s) = 3.47636 3.75160 3.61660
# Velocity P-wave (km/s) = 5.92466 6.23701 6.08284
#
# Compressibility (1/GPa) = 0.02126627
#
# Stress axis : x y z
#
# Youngs Moduli (GPa) = 99.48122 64.12992 108.60520
#
# Poissons Ratio (x) = 0.24821 0.19716
# Poissons Ratio (y) = 0.38503 0.12030
# Poissons Ratio (z) = 0.18060 0.07103
#
# Static dielectric constant tensor:
#      x y z
#    x 2.037020 0.000000 0.000000 
#    y 0.000000 2.269400 0.000000 
#    z 0.000000 0.000000 1.924180 
# 
# From -- ./inp_files/15081.got.cif
#   From: 2010.05.17/outbox.cif.g08.bks.cpg/sg36_8_cif.got.tgz:15081.got - 2010.06.03 17:41:39.
