data_PCOD9352975
_publ_section_title
;
Structure prediction by ZEFSAII (Michael W. Deem and Ramdas Pophale) SiO2 
 PCOD9352975
Probable space group: C M C 21
;
_chemical_formula_sum "Si O2"
_cell_formula_units_Z 32
_cell_length_a 24.935767
_cell_length_b 4.776514
_cell_length_c 9.116514
_cell_angle_alpha 90.000000
_cell_angle_beta 90.000000
_cell_angle_gamma 90.000000
_cell_volume 1085.831883
_symmetry_space_group_name_H-M "C M C 21"
_symmetry_group_IT_number 36
_symmetry_cell_setting 'orthorhombic'
loop_
_space_group_symop_operation_xyz
x,y,z
-x,-y,1/2+z
x,-y,1/2+z
-x,y,z
1/2+x,1/2+y,z
1/2-x,1/2-y,1/2+z
1/2+x,1/2-y,1/2+z
1/2-x,1/2+y,z
loop_
_atom_site_type_symbol
_atom_site_label
_atom_site_fract_x
_atom_site_fract_y
_atom_site_fract_z
Si Si1 0.940926 0.888295 0.767910
Si Si2 0.851375 0.923074 0.976504
Si Si3 0.439320 0.004104 0.020747
Si Si4 0.285306 0.781648 0.205592
O O1 0.892665 0.037871 0.850871
O O2 0.935793 0.794747 0.600129
O O3 0.000000 0.004701 0.798601
O O4 0.939533 0.582992 0.848945
O O5 0.808644 0.775691 0.867491
O O6 0.887771 0.692910 0.062521
O O7 0.822779 0.149569 0.079336
O O8 0.500000 0.098573 0.063927
O O9 0.230043 0.604768 0.191853
#
# Coordination Sequence:
#
# PCOD9352975 Si02
#       4
#     8   8   8   8
#     4   8  16  35  66 111 156 197 246 301 374 465
#     4  10  23  44  70 106 146 204 247 314 392 450
#     4   8  16  35  66 111 156 197 246 301 374 465
#     4  12  28  50  73 106 145 192 260 328 380 444
#
# _framework density 29.470492
#
# number of rings (size 3 to 8) (size 9 to 14) (size 15 to 20)
#    1.500    1.000    0.000    1.500    3.500    0.000 
#    4.500    5.000    0.000    0.000    0.000    0.000 
#    0.000    0.000    0.000    0.000    0.000    0.000 
#
# Total GULP energy -89436.548040 kJ/mol
# GULP energy per Si atom -5589.784253 kJ/mol
# Density = 2.940342 g / cm^3
# Si number density = 29.470492 Si / 1000 Ang^3
#
#
#
# Elastic Constant Matrix: (Units=GPa)
#
#
# Indices 1 2 3 4 5 6 
#
# 1 162.8256 21.7743 27.4606 0.0000 0.0000 0.0000
# 2 21.7743 94.3269 21.2908 0.0000 0.0000 0.0000
# 3 27.4606 21.2908 168.3549 0.0000 0.0000 0.0000
# 4 0.0000 0.0000 0.0000 43.1344 0.0000 0.0000
# 5 0.0000 0.0000 0.0000 0.0000 38.2007 0.0000
# 6 0.0000 0.0000 0.0000 0.0000 0.0000 50.2472
#
#
#
# Elastic Compliance Matrix: (Units=1/GPa)
#
#
# Indices 1 2 3 4 5 6 
#
# 1 0.006464 -0.001291 -0.000891 0.000000 0.000000 0.000000
# 2 -0.001291 0.011171 -0.001202 0.000000 0.000000 0.000000
# 3 -0.000891 -0.001202 0.006237 0.000000 0.000000 0.000000
# 4 0.000000 0.000000 0.000000 0.023183 0.000000 0.000000
# 5 0.000000 0.000000 0.000000 0.000000 0.026178 0.000000
# 6 0.000000 0.000000 0.000000 0.000000 0.000000 0.019902
#
#
# Mechanical properties :
#
#
# Convention : Reuss Voigt Hill
#
# Bulk Modulus (GPa) = 58.46666 62.95098 60.70882
# Shear Modulus (GPa) = 47.34624 49.98190 48.66407
#
# Velocity S-wave (km/s) = 4.01255 4.12272 4.06800
# Velocity P-wave (km/s) = 6.43036 6.63848 6.53525
#
# Compressibility (1/GPa) = 0.01710376
#
# Stress axis : x y z
#
# Youngs Moduli (GPa) = 154.69126 89.51911 160.32797
#
# Poissons Ratio (x) = 0.11558 0.14288
# Poissons Ratio (y) = 0.19972 0.19273
# Poissons Ratio (z) = 0.13785 0.10761
#
# Static dielectric constant tensor:
#      x y z
#    x 2.408850 0.000000 0.000000 
#    y 0.000000 2.282450 0.000000 
#    z 0.000000 0.000000 2.258250 
# 
# From -- ./inp_files/5888.got.cif
#   From: 2010.05.17/outbox.cif.g08.bks.cpg/sg36_3_cif.got.tgz:5888.got - 2010.06.03 17:41:39.
