data_PCOD9352350
_publ_section_title
;
Structure prediction by ZEFSAII (Michael W. Deem and Ramdas Pophale) SiO2 
 PCOD9352350
Probable space group: C M C 21
;
_chemical_formula_sum "Si O2"
_cell_formula_units_Z 36
_cell_length_a 14.020230
_cell_length_b 22.875150
_cell_length_c 4.789257
_cell_angle_alpha 90.000000
_cell_angle_beta 90.000000
_cell_angle_gamma 90.000000
_cell_volume 1535.985909
_symmetry_space_group_name_H-M "C M C 21"
_symmetry_group_IT_number 36
_symmetry_cell_setting 'orthorhombic'
loop_
_space_group_symop_operation_xyz
x,y,z
-x,-y,1/2+z
x,-y,1/2+z
-x,y,z
1/2+x,1/2+y,z
1/2-x,1/2-y,1/2+z
1/2+x,1/2-y,1/2+z
1/2-x,1/2+y,z
loop_
_atom_site_type_symbol
_atom_site_label
_atom_site_fract_x
_atom_site_fract_y
_atom_site_fract_z
Si Si1 0.705567 0.958094 0.795460
Si Si2 0.000000 0.459730 0.930290
Si Si3 0.656353 0.376811 0.129560
Si Si4 0.300485 0.276959 0.508760
Si Si5 0.000000 0.960171 0.270753
Si Si6 0.000000 0.802712 0.768180
O O1 0.600346 0.931767 0.850765
O O2 0.783574 0.914602 0.913238
O O3 0.713118 0.982650 0.484273
O O4 0.000000 0.520380 0.750576
O O5 0.591323 0.420350 0.314656
O O6 0.582961 0.336178 0.958741
O O7 0.715380 0.337474 0.343046
O O8 0.236210 0.270443 0.783659
O O9 0.412674 0.273619 0.580781
O O10 0.000000 0.982126 0.953899
#
# Coordination Sequence:
#
# PCOD9352350 Si02
#       6
#     8   4   8   8   4   4
#     4  10  21  37  63  99 142 191 238 293 362 450
#     4   8  16  34  56  82 123 178 223 274 335 392
#     4  11  25  42  73 100 151 190 250 306 382 454
#     4  12  27  48  74 104 138 194 254 315 395 449
#     4  11  25  38  64 108 150 196 242 290 367 471
#     4  11  25  48  72 104 141 192 235 322 380 457
#
# _framework density 23.437712999999999
#
# number of rings (size 3 to 8) (size 9 to 14) (size 15 to 20)
#    0.000    1.333    2.222    2.667    9.333    0.000 
#    0.000    2.222    0.000    0.000    0.000    0.000 
#    0.000    0.000    0.000    0.000    0.000    0.000 
#
# Total GULP energy -100204.869551 kJ/mol
# GULP energy per Si atom -5566.937197 kJ/mol
# Density = 2.338437 g / cm^3
# Si number density = 23.437713 Si / 1000 Ang^3
#
#
#
# Elastic Constant Matrix: (Units=GPa)
#
#
# Indices 1 2 3 4 5 6 
#
# 1 140.1711 36.7050 45.3646 0.0000 0.0000 0.0000
# 2 36.7050 48.5486 17.0653 0.0000 0.0000 0.0000
# 3 45.3646 17.0653 100.4783 0.0000 0.0000 0.0000
# 4 0.0000 0.0000 0.0000 28.4108 0.0000 0.0000
# 5 0.0000 0.0000 0.0000 0.0000 3.7368 0.0000
# 6 0.0000 0.0000 0.0000 0.0000 0.0000 28.4130
#
#
#
# Elastic Compliance Matrix: (Units=1/GPa)
#
#
# Indices 1 2 3 4 5 6 
#
# 1 0.009875 -0.006273 -0.003393 0.000000 0.000000 0.000000
# 2 -0.006273 0.025891 -0.001565 0.000000 0.000000 0.000000
# 3 -0.003393 -0.001565 0.011750 0.000000 0.000000 0.000000
# 4 0.000000 0.000000 0.000000 0.035198 0.000000 0.000000
# 5 0.000000 0.000000 0.000000 0.000000 0.267612 0.000000
# 6 0.000000 0.000000 0.000000 0.000000 0.000000 0.035195
#
#
# Mechanical properties :
#
#
# Convention : Reuss Voigt Hill
#
# Bulk Modulus (GPa) = 39.91464 54.16307 47.03886
# Shear Modulus (GPa) = 12.00958 24.78300 18.39629
#
# Velocity S-wave (km/s) = 2.26609 3.25529 2.80465
# Velocity P-wave (km/s) = 4.89019 6.10645 5.53185
#
# Compressibility (1/GPa) = 0.02505346
#
# Stress axis : x y z
#
# Youngs Moduli (GPa) = 101.26653 38.62354 85.10583
#
# Poissons Ratio (x) = 0.24230 0.28876
# Poissons Ratio (y) = 0.63527 0.13319
# Poissons Ratio (z) = 0.34359 0.06045
#
# Static dielectric constant tensor:
#      x y z
#    x 1.901140 0.000000 0.000000 
#    y 0.000000 1.921050 0.000000 
#    z 0.000000 0.000000 1.904250 
# 
# From -- ./inp_files/703.got.cif
#   From: 2010.05.17/outbox.cif.g08.bks.cpg/sg36_1_cif.got.tgz:703.got - 2010.06.03 17:41:39.
