data_PCOD9352765
_publ_section_title
;
Structure prediction by ZEFSAII (Michael W. Deem and Ramdas Pophale) SiO2 
 PCOD9352765
Probable space group: C M C 21
;
_chemical_formula_sum "Si O2"
_cell_formula_units_Z 40
_cell_length_a 11.444902
_cell_length_b 22.768017
_cell_length_c 7.110640
_cell_angle_alpha 90.000000
_cell_angle_beta 90.000000
_cell_angle_gamma 90.000000
_cell_volume 1852.874382
_symmetry_space_group_name_H-M "C M C 21"
_symmetry_group_IT_number 36
_symmetry_cell_setting 'orthorhombic'
loop_
_space_group_symop_operation_xyz
x,y,z
-x,-y,1/2+z
x,-y,1/2+z
-x,y,z
1/2+x,1/2+y,z
1/2-x,1/2-y,1/2+z
1/2+x,1/2-y,1/2+z
1/2-x,1/2+y,z
loop_
_atom_site_type_symbol
_atom_site_label
_atom_site_fract_x
_atom_site_fract_y
_atom_site_fract_z
Si Si1 0.692917 0.327367 0.720120
Si Si2 0.130503 0.118407 0.834688
Si Si3 0.628023 0.916438 0.817901
Si Si4 0.624678 0.265410 0.081265
Si Si5 0.867409 0.447719 0.380425
O O1 0.632042 0.364742 0.556795
O O2 0.770607 0.370387 0.850337
O O3 0.776198 0.281991 0.611850
O O4 0.623084 0.289262 0.869474
O O5 0.138910 0.178933 0.718527
O O6 0.248682 0.080609 0.796337
O O7 0.000000 0.092792 0.791439
O O8 0.500000 0.896215 0.880181
O O9 0.626456 0.923342 0.591660
O O10 0.648207 0.982050 0.892509
O O11 0.500000 0.236908 0.126453
O O12 0.000000 0.438225 0.298110
#
# Coordination Sequence:
#
# PCOD9352765 Si02
#       5
#     8   8   8   8   8
#     4  11  21  40  62  87 120 161 203 248 304 358
#     4  10  22  41  60  88 123 158 200 252 302 360
#     4   9  19  35  59  87 117 150 199 253 297 352
#     4  11  23  39  60  88 122 160 205 250 302 364
#     4   9  19  37  59  86 117 153 198 249 300 358
#
# _framework density 21.588080999999999
#
# number of rings (size 3 to 8) (size 9 to 14) (size 15 to 20)
#    0.000    2.000    2.000    1.200    2.800    0.800 
#    0.000    6.000    0.000    0.000    0.000    0.000 
#    0.000    0.000    0.000    0.000    0.000    0.000 
#
# Total GULP energy -111545.602042 kJ/mol
# GULP energy per Si atom -5577.280102 kJ/mol
# Density = 2.153895 g / cm^3
# Si number density = 21.588081 Si / 1000 Ang^3
#
#
#
# Elastic Constant Matrix: (Units=GPa)
#
#
# Indices 1 2 3 4 5 6 
#
# 1 168.8518 55.9767 7.8831 0.0000 0.0000 0.0000
# 2 55.9767 52.4532 -1.8184 0.0000 0.0000 0.0000
# 3 7.8831 -1.8184 57.6731 0.0000 0.0000 0.0000
# 4 0.0000 0.0000 0.0000 31.4876 0.0000 0.0000
# 5 0.0000 0.0000 0.0000 0.0000 12.8232 0.0000
# 6 0.0000 0.0000 0.0000 0.0000 0.0000 -40.6020
#
#
#
# Elastic Compliance Matrix: (Units=1/GPa)
#
#
# Indices 1 2 3 4 5 6 
#
# 1 0.009308 -0.009988 -0.001587 0.000000 0.000000 0.000000
# 2 -0.009988 0.029803 0.002305 0.000000 0.000000 0.000000
# 3 -0.001587 0.002305 0.017629 0.000000 0.000000 0.000000
# 4 0.000000 0.000000 0.000000 0.031759 0.000000 0.000000
# 5 0.000000 0.000000 0.000000 0.000000 0.077983 0.000000
# 6 0.000000 0.000000 0.000000 0.000000 0.000000 -0.024629
#
#
# Mechanical properties :
#
#
# Convention : Reuss Voigt Hill
#
# Bulk Modulus (GPa) = 26.17844 44.78453 35.48148
# Shear Modulus (GPa) = 28.88083 15.20422 22.04252
#
# Velocity S-wave (km/s) = 3.66158 2.65672 3.19885
# Velocity P-wave (km/s) = 5.47986 5.49554 5.48771
#
# Compressibility (1/GPa) = 0.03819938
#
# Stress axis : x y z
#
# Youngs Moduli (GPa) = 107.43990 33.55346 56.72565
#
# Poissons Ratio (x) = 0.33512 0.09003
# Poissons Ratio (y) = 1.07308 -0.13074
# Poissons Ratio (z) = 0.17052 -0.07734
#
# Static dielectric constant tensor:
#      x y z
#    x 1.812090 0.000000 0.000000 
#    y 0.000000 1.743170 0.000000 
#    z 0.000000 0.000000 1.800580 
# 
# From -- ./inp_files/2419.got.cif
#   From: 2010.05.17/outbox.cif.g08.bks.cpg/sg36_2_cif.got.tgz:2419.got - 2010.06.03 17:41:39.
