data_PCOD9352965
_publ_section_title
;
Structure prediction by ZEFSAII (Michael W. Deem and Ramdas Pophale) SiO2 
 PCOD9352965
Probable space group: C M C 21
;
_chemical_formula_sum "Si O2"
_cell_formula_units_Z 56
_cell_length_a 31.917574
_cell_length_b 4.912008
_cell_length_c 14.321851
_cell_angle_alpha 90.000000
_cell_angle_beta 90.000000
_cell_angle_gamma 90.000000
_cell_volume 2245.370903
_symmetry_space_group_name_H-M "C M C 21"
_symmetry_group_IT_number 36
_symmetry_cell_setting 'orthorhombic'
loop_
_space_group_symop_operation_xyz
x,y,z
-x,-y,1/2+z
x,-y,1/2+z
-x,y,z
1/2+x,1/2+y,z
1/2-x,1/2-y,1/2+z
1/2+x,1/2-y,1/2+z
1/2-x,1/2+y,z
loop_
_atom_site_type_symbol
_atom_site_label
_atom_site_fract_x
_atom_site_fract_y
_atom_site_fract_z
Si Si1 0.278847 0.299056 0.417380
Si Si2 0.046639 0.996157 0.685177
Si Si3 0.720906 0.193456 0.626572
Si Si4 0.898135 0.295442 0.439392
Si Si5 0.662756 0.961190 0.285100
Si Si6 0.902494 0.475152 0.635797
Si Si7 0.452088 0.310265 0.399251
O O1 0.262716 0.606907 0.409081
O O2 0.295874 0.252905 0.522548
O O3 0.309776 0.182030 0.340195
O O4 0.057235 0.280166 0.636489
O O5 0.048107 0.068610 0.794822
O O6 0.000000 0.897777 0.663237
O O7 0.081016 0.775216 0.657202
O O8 0.760852 0.390318 0.634124
O O9 0.689247 0.218898 0.712055
O O10 0.861945 0.288912 0.362616
O O11 0.881860 0.419347 0.536290
O O12 0.933574 0.507426 0.403234
O O13 0.920086 0.005958 0.453000
O O14 0.628483 0.104960 0.218984
O O15 0.500000 0.315709 0.433101
#
# Coordination Sequence:
#
# PCOD9352965 Si02
#       7
#     8   8   8   8   8   8   8
#     4  10  23  43  68  97 126 166 218 263 314 386
#     4  11  23  45  69  94 129 176 227 277 327 388
#     4  10  23  43  68  97 126 166 218 263 314 386
#     4  12  26  42  66  99 133 174 222 271 332 392
#     4  12  24  44  65  96 136 174 208 268 329 390
#     4  12  26  42  66  99 133 174 222 271 332 392
#     4  11  23  45  69  94 129 176 227 277 327 388
#
# _framework density 24.940200000000001
#
# number of rings (size 3 to 8) (size 9 to 14) (size 15 to 20)
#    0.000    0.857    2.857    3.429    0.000   10.286 
#    0.000    5.714    0.000    0.000    0.000    0.000 
#    0.000    0.000    0.000    0.000    0.000    0.000 
#
# Total GULP energy -156948.933994 kJ/mol
# GULP energy per Si atom -5605.319071 kJ/mol
# Density = 2.488344 g / cm^3
# Si number density = 24.940200 Si / 1000 Ang^3
#
#
#
# Elastic Constant Matrix: (Units=GPa)
#
#
# Indices 1 2 3 4 5 6 
#
# 1 76.8869 -1.5903 44.0843 0.0000 0.0000 0.0000
# 2 -1.5903 76.0685 -1.4201 0.0000 0.0000 0.0000
# 3 44.0843 -1.4201 151.8486 0.0000 0.0000 0.0000
# 4 0.0000 0.0000 0.0000 27.3877 0.0000 0.0000
# 5 0.0000 0.0000 0.0000 0.0000 -18.6336 0.0000
# 6 0.0000 0.0000 0.0000 0.0000 0.0000 6.7497
#
#
#
# Elastic Compliance Matrix: (Units=1/GPa)
#
#
# Indices 1 2 3 4 5 6 
#
# 1 0.015608 0.000242 -0.004529 0.000000 0.000000 0.000000
# 2 0.000242 0.013152 0.000053 0.000000 0.000000 0.000000
# 3 -0.004529 0.000053 0.007901 0.000000 0.000000 0.000000
# 4 0.000000 0.000000 0.000000 0.036513 0.000000 0.000000
# 5 0.000000 0.000000 0.000000 0.000000 -0.053667 0.000000
# 6 0.000000 0.000000 0.000000 0.000000 0.000000 0.148154
#
#
# Mechanical properties :
#
#
# Convention : Reuss Voigt Hill
#
# Bulk Modulus (GPa) = 35.47109 42.99466 39.23288
# Shear Modulus (GPa) = 26.95026 20.68277 23.81652
#
# Velocity S-wave (km/s) = 3.29081 2.88287 3.09357
# Velocity P-wave (km/s) = 5.35654 5.32520 5.34090
#
# Compressibility (1/GPa) = 0.02819197
#
# Stress axis : x y z
#
# Youngs Moduli (GPa) = 64.07017 76.03353 126.56873
#
# Poissons Ratio (x) = -0.01838 0.57323
# Poissons Ratio (y) = -0.01549 -0.00669
# Poissons Ratio (z) = 0.29017 -0.00402
#
# Static dielectric constant tensor:
#      x y z
#    x 1.959100 0.000000 0.000000 
#    y 0.000000 1.874020 0.000000 
#    z 0.000000 0.000000 2.022570 
# 
# From -- ./inp_files/13165.got.cif
#   From: 2010.05.17/outbox.cif.g08.bks.cpg/sg36_7_cif.got.tgz:13165.got - 2010.06.03 17:41:39.
