data_PCOD9352588
_publ_section_title
;
Structure prediction by ZEFSAII (Michael W. Deem and Ramdas Pophale) SiO2 
 PCOD9352588
Probable space group: C M C 21
;
_chemical_formula_sum "Si O2"
_cell_formula_units_Z 64
_cell_length_a 8.603887
_cell_length_b 24.826798
_cell_length_c 15.535162
_cell_angle_alpha 90.000000
_cell_angle_beta 90.000000
_cell_angle_gamma 90.000000
_cell_volume 3318.418799
_symmetry_space_group_name_H-M "C M C 21"
_symmetry_group_IT_number 36
_symmetry_cell_setting 'orthorhombic'
loop_
_space_group_symop_operation_xyz
x,y,z
-x,-y,1/2+z
x,-y,1/2+z
-x,y,z
1/2+x,1/2+y,z
1/2-x,1/2-y,1/2+z
1/2+x,1/2-y,1/2+z
1/2-x,1/2+y,z
loop_
_atom_site_type_symbol
_atom_site_label
_atom_site_fract_x
_atom_site_fract_y
_atom_site_fract_z
Si Si1 0.323434 0.878228 0.687660
Si Si2 0.688029 0.754589 0.444806
Si Si3 0.314407 0.010217 0.942600
Si Si4 0.313699 0.180355 0.597688
Si Si5 0.320872 0.126459 0.982595
Si Si6 0.313223 0.264951 0.744576
Si Si7 0.682758 0.516257 0.260086
Si Si8 0.686427 0.559085 0.601644
O O1 0.500000 0.887993 0.717858
O O2 0.323237 0.880949 0.584754
O O3 0.268378 0.819197 0.713720
O O4 0.212795 0.924376 0.723323
O O5 0.500000 0.753514 0.456279
O O6 0.757431 0.712567 0.512933
O O7 0.747961 0.815106 0.463447
O O8 0.722414 0.743017 0.345137
O O9 0.500000 0.012216 0.955740
O O10 0.250672 0.071593 0.946106
O O11 0.273648 0.988503 0.848993
O O12 0.245275 0.973760 0.018492
O O13 0.500000 0.177052 0.596274
O O14 0.267401 0.215659 0.681778
O O15 0.246812 0.120167 0.600817
O O16 0.500000 0.129191 0.950541
O O17 0.500000 0.270864 0.736684
O O18 0.500000 0.507973 0.275744
O O19 0.736113 0.473377 0.187660
O O20 0.500000 0.559461 0.600090
#
# Coordination Sequence:
#
# PCOD9352588 Si02
#       8
#     8   8   8   8   8   8   8   8
#     4  11  21  39  66  91 120 159 209 260 306 361
#     4  10  21  41  64  88 122 164 203 248 309 370
#     4  11  23  41  67  95 124 161 209 259 309 366
#     4  11  24  41  62  91 125 161 207 258 308 366
#     4   9  19  37  64  92 117 154 205 258 309 360
#     4  10  23  40  62  91 124 162 203 253 311 368
#     4  11  25  43  63  92 128 165 206 252 313 375
#     4  11  25  44  64  88 126 170 208 254 311 372
#
# _framework density 19.286294000000002
#
# number of rings (size 3 to 8) (size 9 to 14) (size 15 to 20)
#    0.000    1.500    2.500    1.875    3.500    2.500 
#    0.000    1.250    0.000    0.000    0.000    0.000 
#    0.000    0.000    0.000    0.000    0.000    0.000 
#
# Total GULP energy -178739.881127 kJ/mol
# GULP energy per Si atom -5585.621285 kJ/mol
# Density = 1.924240 g / cm^3
# Si number density = 19.286294 Si / 1000 Ang^3
#
#
#
# Elastic Constant Matrix: (Units=GPa)
#
#
# Indices 1 2 3 4 5 6 
#
# 1 29.4850 12.3263 16.9742 0.0000 0.0000 0.0000
# 2 12.3263 84.4326 -5.8921 0.0000 0.0000 0.0000
# 3 16.9742 -5.8921 58.2331 0.0000 0.0000 0.0000
# 4 0.0000 0.0000 0.0000 -7.8851 0.0000 0.0000
# 5 0.0000 0.0000 0.0000 0.0000 16.5760 0.0000
# 6 0.0000 0.0000 0.0000 0.0000 0.0000 -3.7298
#
#
#
# Elastic Compliance Matrix: (Units=1/GPa)
#
#
# Indices 1 2 3 4 5 6 
#
# 1 0.045076 -0.007551 -0.013903 0.000000 0.000000 0.000000
# 2 -0.007551 0.013193 0.003536 0.000000 0.000000 0.000000
# 3 -0.013903 0.003536 0.021583 0.000000 0.000000 0.000000
# 4 0.000000 0.000000 0.000000 -0.126821 0.000000 0.000000
# 5 0.000000 0.000000 0.000000 0.000000 0.060328 0.000000
# 6 0.000000 0.000000 0.000000 0.000000 0.000000 -0.268109
#
#
# Mechanical properties :
#
#
# Convention : Reuss Voigt Hill
#
# Bulk Modulus (GPa) = 22.71934 24.32973 23.52453
# Shear Modulus (GPa) = -24.48066 10.90837 -6.78615
#
# Velocity S-wave (km/s) = -3.56663 2.38082 -1.87784
# Velocity P-wave (km/s) = 2.27058 4.49446 2.74268
#
# Compressibility (1/GPa) = 0.04401537
#
# Stress axis : x y z
#
# Youngs Moduli (GPa) = 22.18471 75.79854 46.33338
#
# Poissons Ratio (x) = 0.57235 0.64418
# Poissons Ratio (y) = 0.16751 -0.16383
# Poissons Ratio (z) = 0.30844 -0.26801
#
# Static dielectric constant tensor:
#      x y z
#    x 1.668570 0.000000 0.000000 
#    y 0.000000 1.915400 0.000000 
#    z 0.000000 0.000000 1.645790 
# 
# From -- ./inp_files/11016.got.cif
#   From: 2010.05.17/outbox.cif.g08.bks.cpg/sg36_6_cif.got.tgz:11016.got - 2010.06.03 17:41:39.
