data_PCOD9352514
_publ_section_title
;
Structure prediction by ZEFSAII (Michael W. Deem and Ramdas Pophale) SiO2 
 PCOD9352514
Probable space group: C M C 21
;
_chemical_formula_sum "Si O2"
_cell_formula_units_Z 64
_cell_length_a 28.170085
_cell_length_b 8.877762
_cell_length_c 12.309219
_cell_angle_alpha 90.000000
_cell_angle_beta 90.000000
_cell_angle_gamma 90.000000
_cell_volume 3078.379470
_symmetry_space_group_name_H-M "C M C 21"
_symmetry_group_IT_number 36
_symmetry_cell_setting 'orthorhombic'
loop_
_space_group_symop_operation_xyz
x,y,z
-x,-y,1/2+z
x,-y,1/2+z
-x,y,z
1/2+x,1/2+y,z
1/2-x,1/2-y,1/2+z
1/2+x,1/2-y,1/2+z
1/2-x,1/2+y,z
loop_
_atom_site_type_symbol
_atom_site_label
_atom_site_fract_x
_atom_site_fract_y
_atom_site_fract_z
Si Si1 0.698228 0.303258 0.923260
Si Si2 0.050784 0.975481 0.510835
Si Si3 0.613640 0.235315 0.417390
Si Si4 0.849757 0.118387 0.199933
Si Si5 0.946015 0.213973 0.316411
Si Si6 0.893148 0.604655 0.986269
Si Si7 0.406167 0.315164 0.181579
Si Si8 0.204331 0.855876 0.483760
O O1 0.685656 0.352005 0.800613
O O2 0.653184 0.202268 0.955699
O O3 0.744638 0.208390 0.953458
O O4 0.703180 0.463872 0.981493
O O5 0.091765 0.855048 0.500928
O O6 0.000000 0.899131 0.513174
O O7 0.054847 0.073429 0.400745
O O8 0.055878 0.085319 0.613834
O O9 0.586103 0.260123 0.304046
O O10 0.667528 0.285747 0.397737
O O11 0.613272 0.071070 0.468346
O O12 0.901072 0.191851 0.236065
O O13 0.863483 0.940546 0.184278
O O14 0.819860 0.184667 0.099106
O O15 0.933658 0.348205 0.399690
O O16 0.000000 0.225276 0.272051
O O17 0.901990 0.666143 0.107341
#
# Coordination Sequence:
#
# PCOD9352514 Si02
#       8
#     8   8   8   8   8   8   8   8
#     4  11  24  43  65 100 137 182 231 292 346 424
#     4  10  21  39  68 102 133 182 247 295 346 424
#     4  12  23  41  68 101 142 186 231 298 354 422
#     4  11  21  41  72  95 137 186 233 286 354 412
#     4   9  19  40  68 100 138 184 240 294 346 422
#     4  10  23  41  65 102 144 184 230 287 362 419
#     4  11  21  43  69  92 138 190 229 287 350 419
#     4  12  24  42  67 100 137 176 240 291 347 420
#
# _framework density 20.79016
#
# number of rings (size 3 to 8) (size 9 to 14) (size 15 to 20)
#    0.000    1.250    5.000    1.500    0.000    5.500 
#    0.000    0.000    0.000    1.500    0.000    0.000 
#    0.000    0.000    0.000    0.000    0.000    0.000 
#
# Total GULP energy -178339.127870 kJ/mol
# GULP energy per Si atom -5573.097746 kJ/mol
# Density = 2.074284 g / cm^3
# Si number density = 20.790160 Si / 1000 Ang^3
#
#
#
# Elastic Constant Matrix: (Units=GPa)
#
#
# Indices 1 2 3 4 5 6 
#
# 1 111.9659 20.4260 33.6586 0.0000 0.0000 0.0000
# 2 20.4260 114.2270 3.7198 0.0000 0.0000 0.0000
# 3 33.6586 3.7198 101.8410 0.0000 0.0000 0.0000
# 4 0.0000 0.0000 0.0000 17.0287 0.0000 0.0000
# 5 0.0000 0.0000 0.0000 0.0000 17.6075 0.0000
# 6 0.0000 0.0000 0.0000 0.0000 0.0000 -6.1513
#
#
#
# Elastic Compliance Matrix: (Units=1/GPa)
#
#
# Indices 1 2 3 4 5 6 
#
# 1 0.010245 -0.001724 -0.003323 0.000000 0.000000 0.000000
# 2 -0.001724 0.009055 0.000239 0.000000 0.000000 0.000000
# 3 -0.003323 0.000239 0.010909 0.000000 0.000000 0.000000
# 4 0.000000 0.000000 0.000000 0.058725 0.000000 0.000000
# 5 0.000000 0.000000 0.000000 0.000000 0.056794 0.000000
# 6 0.000000 0.000000 0.000000 0.000000 0.000000 -0.162567
#
#
# Mechanical properties :
#
#
# Convention : Reuss Voigt Hill
#
# Bulk Modulus (GPa) = 48.56028 49.29364 48.92696
# Shear Modulus (GPa) = -13866.41956 23.71226 -6921.35365
#
# Velocity S-wave (km/s) = -81.75685 3.38087 -57.76137
# Velocity P-wave (km/s) = 94.28062 6.24515 66.52005
#
# Compressibility (1/GPa) = 0.02059296
#
# Stress axis : x y z
#
# Youngs Moduli (GPa) = 97.61166 110.43673 91.66971
#
# Poissons Ratio (x) = 0.19036 0.30461
# Poissons Ratio (y) = 0.16826 -0.02191
# Poissons Ratio (z) = 0.32436 -0.02639
#
# Static dielectric constant tensor:
#      x y z
#    x 1.755790 0.000000 0.000000 
#    y 0.000000 1.727800 0.000000 
#    z 0.000000 0.000000 1.803370 
# 
# From -- ./inp_files/9745.got.cif
#   From: 2010.05.17/outbox.cif.g08.bks.cpg/sg36_5_cif.got.tgz:9745.got - 2010.06.03 17:41:39.
