data_PCOD9352548
_publ_section_title
;
Structure prediction by ZEFSAII (Michael W. Deem and Ramdas Pophale) SiO2 
 PCOD9352548
Probable space group: C M C 21
;
_chemical_formula_sum "Si O2"
_cell_formula_units_Z 48
_cell_length_a 8.506928
_cell_length_b 27.614630
_cell_length_c 10.296100
_cell_angle_alpha 90.000000
_cell_angle_beta 90.000000
_cell_angle_gamma 90.000000
_cell_volume 2418.715221
_symmetry_space_group_name_H-M "C M C 21"
_symmetry_group_IT_number 36
_symmetry_cell_setting 'orthorhombic'
loop_
_space_group_symop_operation_xyz
x,y,z
-x,-y,1/2+z
x,-y,1/2+z
-x,y,z
1/2+x,1/2+y,z
1/2-x,1/2-y,1/2+z
1/2+x,1/2-y,1/2+z
1/2-x,1/2+y,z
loop_
_atom_site_type_symbol
_atom_site_label
_atom_site_fract_x
_atom_site_fract_y
_atom_site_fract_z
Si Si1 0.311534 0.860554 0.425160
Si Si2 0.688316 0.288971 0.210944
Si Si3 0.184439 0.036518 0.832815
Si Si4 0.690104 0.142272 0.485793
Si Si5 0.186432 0.532086 0.554255
Si Si6 0.191166 0.323018 0.702956
O O1 0.500000 0.866082 0.423451
O O2 0.264685 0.815864 0.333571
O O3 0.237096 0.909161 0.368269
O O4 0.257587 0.850015 0.572207
O O5 0.500000 0.290090 0.225137
O O6 0.739763 0.233178 0.201107
O O7 0.737047 0.318843 0.083498
O O8 0.273275 0.020108 0.702655
O O9 0.000000 0.035611 0.806856
O O10 0.227337 0.002371 0.953067
O O11 0.500000 0.146502 0.493431
O O12 0.731985 0.088026 0.529187
O O13 0.739819 0.152543 0.337907
O O14 0.000000 0.527519 0.533116
O O15 0.000000 0.323546 0.700815
#
# Coordination Sequence:
#
# PCOD9352548 Si02
#       6
#     8   8   8   8   8   8
#     4  11  22  40  64  90 124 167 213 255 308 379
#     4  11  21  37  61  90 127 164 204 259 318 365
#     4  12  26  44  66  96 131 162 204 265 323 371
#     4  10  21  40  64  89 121 163 210 254 303 371
#     4  11  24  43  69  95 123 167 215 256 312 384
#     4   9  21  38  60  92 124 161 210 261 306 364
#
# _framework density 19.845244999999998
#
# number of rings (size 3 to 8) (size 9 to 14) (size 15 to 20)
#    0.000    1.333    1.667    4.000    2.333    0.667 
#    0.000    5.000    0.000    0.000    0.000    0.000 
#    0.000    0.000    0.000    0.000    0.000    0.000 
#
# Total GULP energy -134238.188487 kJ/mol
# GULP energy per Si atom -5593.257854 kJ/mol
# Density = 1.980008 g / cm^3
# Si number density = 19.845245 Si / 1000 Ang^3
#
#
#
# Elastic Constant Matrix: (Units=GPa)
#
#
# Indices 1 2 3 4 5 6 
#
# 1 28.4969 1.3529 -14.1234 0.0000 0.0000 0.0000
# 2 1.3529 39.8802 0.2882 0.0000 0.0000 0.0000
# 3 -14.1234 0.2882 109.7435 0.0000 0.0000 0.0000
# 4 0.0000 0.0000 0.0000 39.8612 0.0000 0.0000
# 5 0.0000 0.0000 0.0000 0.0000 26.4366 0.0000
# 6 0.0000 0.0000 0.0000 0.0000 0.0000 27.9508
#
#
#
# Elastic Compliance Matrix: (Units=1/GPa)
#
#
# Indices 1 2 3 4 5 6 
#
# 1 0.037550 -0.001309 0.004836 0.000000 0.000000 0.000000
# 2 -0.001309 0.025121 -0.000234 0.000000 0.000000 0.000000
# 3 0.004836 -0.000234 0.009735 0.000000 0.000000 0.000000
# 4 0.000000 0.000000 0.000000 0.025087 0.000000 0.000000
# 5 0.000000 0.000000 0.000000 0.000000 0.037826 0.000000
# 6 0.000000 0.000000 0.000000 0.000000 0.000000 0.035777
#
#
# Mechanical properties :
#
#
# Convention : Reuss Voigt Hill
#
# Bulk Modulus (GPa) = 12.65946 17.01733 14.83840
# Shear Modulus (GPa) = 26.19959 31.55657 28.87808
#
# Velocity S-wave (km/s) = 3.63739 3.99197 3.81880
# Velocity P-wave (km/s) = 4.90242 5.46273 5.19014
#
# Compressibility (1/GPa) = 0.07899232
#
# Stress axis : x y z
#
# Youngs Moduli (GPa) = 26.63081 39.80701 102.72067
#
# Poissons Ratio (x) = 0.05210 -0.49675
# Poissons Ratio (y) = 0.03485 0.02408
# Poissons Ratio (z) = -0.12879 0.00933
#
# Static dielectric constant tensor:
#      x y z
#    x 1.675640 0.000000 0.000000 
#    y 0.000000 1.664580 0.000000 
#    z 0.000000 0.000000 1.681190 
# 
# From -- ./inp_files/2709.got.cif
#   From: 2010.05.17/outbox.cif.g08.bks.cpg/sg36_2_cif.got.tgz:2709.got - 2010.06.03 17:41:39.
