data_PCOD9352649
_publ_section_title
;
Structure prediction by ZEFSAII (Michael W. Deem and Ramdas Pophale) SiO2 
 PCOD9352649
Probable space group: C M C 21
;
_chemical_formula_sum "Si O2"
_cell_formula_units_Z 56
_cell_length_a 21.571652
_cell_length_b 15.328523
_cell_length_c 8.616187
_cell_angle_alpha 90.000000
_cell_angle_beta 90.000000
_cell_angle_gamma 90.000000
_cell_volume 2849.041868
_symmetry_space_group_name_H-M "C M C 21"
_symmetry_group_IT_number 36
_symmetry_cell_setting 'orthorhombic'
loop_
_space_group_symop_operation_xyz
x,y,z
-x,-y,1/2+z
x,-y,1/2+z
-x,y,z
1/2+x,1/2+y,z
1/2-x,1/2-y,1/2+z
1/2+x,1/2-y,1/2+z
1/2-x,1/2+y,z
loop_
_atom_site_type_symbol
_atom_site_label
_atom_site_fract_x
_atom_site_fract_y
_atom_site_fract_z
Si Si1 0.928450 0.715504 0.712050
Si Si2 0.347978 0.456111 0.113030
Si Si3 0.288419 0.016679 0.641877
Si Si4 0.295180 0.734871 0.660856
Si Si5 0.678963 0.187334 0.494051
Si Si6 0.341446 0.120713 0.937350
Si Si7 0.426671 0.582485 0.312794
O O1 0.889892 0.696636 0.556640
O O2 0.902656 0.650954 0.846000
O O3 0.920609 0.817562 0.755779
O O4 0.000000 0.699005 0.687810
O O5 0.283655 0.511042 0.127558
O O6 0.325548 0.361263 0.173994
O O7 0.403187 0.510179 0.191574
O O8 0.376905 0.433505 0.947794
O O9 0.297895 0.088835 0.507742
O O10 0.303364 0.067836 0.802707
O O11 0.335876 0.941492 0.589063
O O12 0.309688 0.778941 0.823516
O O13 0.222025 0.732520 0.624955
O O14 0.318384 0.788237 0.510970
O O15 0.500000 0.569902 0.352230
#
# Coordination Sequence:
#
# PCOD9352649 Si02
#       7
#     8   8   8   8   8   8   8
#     4  10  23  43  63  86 126 173 214 261 312 380
#     4  11  23  38  60  92 123 169 207 258 314 377
#     4  10  22  36  65  97 129 159 208 269 328 383
#     4  11  22  38  65  95 132 169 210 267 325 379
#     4  10  22  38  62  96 128 167 214 261 321 381
#     4  11  21  42  63  97 130 164 209 266 327 385
#     4  11  24  41  58  85 125 169 212 256 305 369
#
# _framework density 19.655729999999998
#
# number of rings (size 3 to 8) (size 9 to 14) (size 15 to 20)
#    0.000    1.429    1.429    4.714    6.000    0.000 
#    0.000    4.286    0.000    0.000    0.000    0.000 
#    0.000    0.000    0.000    0.000    0.000    0.000 
#
# Total GULP energy -155939.813737 kJ/mol
# GULP energy per Si atom -5569.279062 kJ/mol
# Density = 1.961099 g / cm^3
# Si number density = 19.655730 Si / 1000 Ang^3
#
#
#
# Elastic Constant Matrix: (Units=GPa)
#
#
# Indices 1 2 3 4 5 6 
#
# 1 121.1074 25.3983 37.4023 0.0000 0.0000 0.0000
# 2 25.3983 49.7558 20.1132 0.0000 0.0000 0.0000
# 3 37.4023 20.1132 80.8374 0.0000 0.0000 0.0000
# 4 0.0000 0.0000 0.0000 32.3430 0.0000 0.0000
# 5 0.0000 0.0000 0.0000 0.0000 14.8286 0.0000
# 6 0.0000 0.0000 0.0000 0.0000 0.0000 18.1344
#
#
#
# Elastic Compliance Matrix: (Units=1/GPa)
#
#
# Indices 1 2 3 4 5 6 
#
# 1 0.010202 -0.003669 -0.003808 0.000000 0.000000 0.000000
# 2 -0.003669 0.023665 -0.004191 0.000000 0.000000 0.000000
# 3 -0.003808 -0.004191 0.015175 0.000000 0.000000 0.000000
# 4 0.000000 0.000000 0.000000 0.030919 0.000000 0.000000
# 5 0.000000 0.000000 0.000000 0.000000 0.067437 0.000000
# 6 0.000000 0.000000 0.000000 0.000000 0.000000 0.055144
#
#
# Mechanical properties :
#
#
# Convention : Reuss Voigt Hill
#
# Bulk Modulus (GPa) = 38.89804 46.39200 42.64502
# Shear Modulus (GPa) = 21.32690 24.31365 22.82027
#
# Velocity S-wave (km/s) = 3.29754 3.52088 3.41104
# Velocity P-wave (km/s) = 5.85927 6.33895 6.10382
#
# Compressibility (1/GPa) = 0.02570824
#
# Stress axis : x y z
#
# Youngs Moduli (GPa) = 98.01536 42.25664 65.89799
#
# Poissons Ratio (x) = 0.15503 0.25092
# Poissons Ratio (y) = 0.35959 0.27615
# Poissons Ratio (z) = 0.37322 0.17708
#
# Static dielectric constant tensor:
#      x y z
#    x 1.707250 0.000000 0.000000 
#    y 0.000000 1.851460 0.000000 
#    z 0.000000 0.000000 1.742540 
# 
# From -- ./inp_files/5211.got.cif
#   From: 2010.05.17/outbox.cif.g08.bks.cpg/sg36_3_cif.got.tgz:5211.got - 2010.06.03 17:41:39.
