data_PCOD9352450
_publ_section_title
;
Structure prediction by ZEFSAII (Michael W. Deem and Ramdas Pophale) SiO2 
 PCOD9352450
Probable space group: C M C 21
;
_chemical_formula_sum "Si O2"
_cell_formula_units_Z 52
_cell_length_a 7.393088
_cell_length_b 9.614325
_cell_length_c 27.141966
_cell_angle_alpha 90.000000
_cell_angle_beta 90.000000
_cell_angle_gamma 90.000000
_cell_volume 1929.238751
_symmetry_space_group_name_H-M "C M C 21"
_symmetry_group_IT_number 36
_symmetry_cell_setting 'orthorhombic'
loop_
_space_group_symop_operation_xyz
x,y,z
-x,-y,1/2+z
x,-y,1/2+z
-x,y,z
1/2+x,1/2+y,z
1/2-x,1/2-y,1/2+z
1/2+x,1/2-y,1/2+z
1/2-x,1/2+y,z
loop_
_atom_site_type_symbol
_atom_site_label
_atom_site_fract_x
_atom_site_fract_y
_atom_site_fract_z
Si Si1 0.209147 0.669444 0.737010
Si Si2 0.708683 0.106379 0.585686
Si Si3 0.718768 0.921504 0.676528
Si Si4 0.718999 0.333462 0.830859
Si Si5 0.500000 0.236210 0.032258
Si Si6 0.790252 0.391785 0.977563
Si Si7 0.710219 0.085651 0.891763
O O1 0.217326 0.767743 0.688738
O O2 0.286807 0.521949 0.720935
O O3 0.288106 0.759864 0.781432
O O4 0.000000 0.645785 0.749277
O O5 0.500000 0.145579 0.594755
O O6 0.842924 0.232777 0.575034
O O7 0.773848 0.000179 0.626951
O O8 0.841070 0.235581 0.489714
O O9 0.500000 0.920432 0.677122
O O10 0.500000 0.333747 0.830175
O O11 0.776783 0.488655 0.843058
O O12 0.782658 0.234940 0.876047
O O13 0.294437 0.968871 0.031423
O O14 0.713599 0.493852 0.936112
O O15 0.000000 0.354923 0.968274
O O16 0.500000 0.101143 0.902684
#
# Coordination Sequence:
#
# PCOD9352450 Si02
#       7
#     8   8   8   8   4   8   8
#     4  10  22  38  59  85 115 151 196 242 292 350
#     4   8  16  31  54  83 117 151 193 238 291 350
#     4  10  21  39  59  84 118 154 191 243 294 346
#     4  10  22  38  59  85 115 151 196 242 292 350
#     4   8  14  28  56  82 118 146 194 240 288 344
#     4   8  16  31  54  83 117 151 193 238 291 350
#     4  10  21  39  59  84 118 154 191 243 294 346
#
# _framework density 26.953637000000001
#
# number of rings (size 3 to 8) (size 9 to 14) (size 15 to 20)
#    0.923    1.846    0.000    0.923    2.154    3.077 
#    0.000    1.538    0.000    0.000    0.000    0.000 
#    0.000    0.000    0.000    0.000    0.000    0.000 
#
# Total GULP energy -144879.628236 kJ/mol
# GULP energy per Si atom -5572.293394 kJ/mol
# Density = 2.689229 g / cm^3
# Si number density = 26.953637 Si / 1000 Ang^3
#
#
#
# Elastic Constant Matrix: (Units=GPa)
#
#
# Indices 1 2 3 4 5 6 
#
# 1 135.2351 2.3697 11.8266 0.0000 0.0000 0.0000
# 2 2.3697 118.6072 16.2221 0.0000 0.0000 0.0000
# 3 11.8266 16.2221 100.8108 0.0000 0.0000 0.0000
# 4 0.0000 0.0000 0.0000 45.9728 0.0000 0.0000
# 5 0.0000 0.0000 0.0000 0.0000 24.2931 0.0000
# 6 0.0000 0.0000 0.0000 0.0000 0.0000 -0.2247
#
#
#
# Elastic Compliance Matrix: (Units=1/GPa)
#
#
# Indices 1 2 3 4 5 6 
#
# 1 0.007471 -0.000030 -0.000872 0.000000 0.000000 0.000000
# 2 -0.000030 0.008621 -0.001384 0.000000 0.000000 0.000000
# 3 -0.000872 -0.001384 0.010244 0.000000 0.000000 0.000000
# 4 0.000000 0.000000 0.000000 0.021752 0.000000 0.000000
# 5 0.000000 0.000000 0.000000 0.000000 0.041164 0.000000
# 6 0.000000 0.000000 0.000000 0.000000 0.000000 -4.451288
#
#
# Mechanical properties :
#
#
# Convention : Reuss Voigt Hill
#
# Bulk Modulus (GPa) = 45.94336 46.16553 46.05445
# Shear Modulus (GPa) = -1.14937 35.62390 17.23727
#
# Velocity S-wave (km/s) = -0.65372 3.63943 2.53161
# Velocity P-wave (km/s) = 4.06356 5.90131 5.06646
#
# Compressibility (1/GPa) = 0.02176593
#
# Stress axis : x y z
#
# Youngs Moduli (GPa) = 133.84576 115.99519 97.61337
#
# Poissons Ratio (x) = 0.00349 0.08509
# Poissons Ratio (y) = 0.00402 0.13507
# Poissons Ratio (z) = 0.11667 0.16051
#
# Static dielectric constant tensor:
#      x y z
#    x 1.992460 0.000000 0.000000 
#    y 0.000000 2.117490 0.000000 
#    z 0.000000 0.000000 2.260330 
# 
# From -- ./inp_files/17090.got.cif
#   From: 2010.05.17/outbox.cif.g08.bks.cpg/sg36_9_cif.got.tgz:17090.got - 2010.06.03 17:41:39.
