data_PCOD9352207
_publ_section_title
;
Structure prediction by ZEFSAII (Michael W. Deem and Ramdas Pophale) SiO2 
 PCOD9352207
Probable space group: C M C 21
;
_chemical_formula_sum "Si O2"
_cell_formula_units_Z 32
_cell_length_a 10.316044
_cell_length_b 25.282679
_cell_length_c 5.633173
_cell_angle_alpha 90.000000
_cell_angle_beta 90.000000
_cell_angle_gamma 90.000000
_cell_volume 1469.228572
_symmetry_space_group_name_H-M "C M C 21"
_symmetry_group_IT_number 36
_symmetry_cell_setting 'orthorhombic'
loop_
_space_group_symop_operation_xyz
x,y,z
-x,-y,1/2+z
x,-y,1/2+z
-x,y,z
1/2+x,1/2+y,z
1/2-x,1/2-y,1/2+z
1/2+x,1/2-y,1/2+z
1/2-x,1/2+y,z
loop_
_atom_site_type_symbol
_atom_site_label
_atom_site_fract_x
_atom_site_fract_y
_atom_site_fract_z
Si Si1 0.638125 0.287241 0.947390
Si Si2 0.154625 0.976638 0.021125
Si Si3 0.643375 0.374596 0.306937
Si Si4 0.852571 0.669814 0.113587
O O1 0.500000 0.302384 0.826266
O O2 0.765912 0.310286 0.830866
O O3 0.632939 0.315754 0.201487
O O4 0.639668 0.224265 0.961820
O O5 0.168823 0.915213 0.091825
O O6 0.000000 0.986898 0.008182
O O7 0.204786 0.006792 0.260214
O O8 0.500000 0.389157 0.405370
O O9 0.763965 0.373453 0.483058
O O10 0.000000 0.653654 0.166776
#
# Coordination Sequence:
#
# PCOD9352207 Si02
#       4
#     8   8   8   8
#     4  10  21  35  53  80 114 154 194 236 288 349
#     4   9  19  35  58  89 118 148 197 259 310 352
#     4  10  21  37  59  83 113 152 193 240 298 354
#     4  11  22  35  54  82 117 154 194 237 286 353
#
# _framework density 21.780137
#
# number of rings (size 3 to 8) (size 9 to 14) (size 15 to 20)
#    0.000    2.000    2.500    0.750    3.500    2.000 
#    0.000    0.000    0.000    1.500    0.000    0.000 
#    0.000    0.000    0.000    0.000    0.000    0.000 
#
# Total GULP energy -89126.364739 kJ/mol
# GULP energy per Si atom -5570.397796 kJ/mol
# Density = 2.173056 g / cm^3
# Si number density = 21.780137 Si / 1000 Ang^3
#
#
#
# Elastic Constant Matrix: (Units=GPa)
#
#
# Indices 1 2 3 4 5 6 
#
# 1 173.6865 5.8991 33.5137 0.0000 0.0000 0.0000
# 2 5.8991 64.6666 3.3502 0.0000 0.0000 0.0000
# 3 33.5137 3.3502 47.8867 0.0000 0.0000 0.0000
# 4 0.0000 0.0000 0.0000 45.8040 0.0000 0.0000
# 5 0.0000 0.0000 0.0000 0.0000 26.5080 0.0000
# 6 0.0000 0.0000 0.0000 0.0000 0.0000 0.8844
#
#
#
# Elastic Compliance Matrix: (Units=1/GPa)
#
#
# Indices 1 2 3 4 5 6 
#
# 1 0.006665 -0.000368 -0.004639 0.000000 0.000000 0.000000
# 2 -0.000368 0.015540 -0.000830 0.000000 0.000000 0.000000
# 3 -0.004639 -0.000830 0.024187 0.000000 0.000000 0.000000
# 4 0.000000 0.000000 0.000000 0.021832 0.000000 0.000000
# 5 0.000000 0.000000 0.000000 0.000000 0.037724 0.000000
# 6 0.000000 0.000000 0.000000 0.000000 0.000000 1.130656
#
#
# Mechanical properties :
#
#
# Convention : Reuss Voigt Hill
#
# Bulk Modulus (GPa) = 28.80194 41.30731 35.05462
# Shear Modulus (GPa) = 3.96872 30.87108 17.41990
#
# Velocity S-wave (km/s) = 1.35134 3.76892 2.83115
# Velocity P-wave (km/s) = 3.96074 6.16007 5.17851
#
# Compressibility (1/GPa) = 0.03471989
#
# Stress axis : x y z
#
# Youngs Moduli (GPa) = 150.03569 64.34814 41.34412
#
# Poissons Ratio (x) = 0.02366 0.19179
# Poissons Ratio (y) = 0.05517 0.03431
# Poissons Ratio (z) = 0.69600 0.05340
#
# Static dielectric constant tensor:
#      x y z
#    x 1.829270 0.000000 0.000000 
#    y 0.000000 1.814650 0.000000 
#    z 0.000000 0.000000 1.861780 
# 
# From -- ./inp_files/224.got.cif
#   From: 2010.05.17/outbox.cif.g08.bks.cpg/sg36_1_cif.got.tgz:224.got - 2010.06.03 17:41:39.
