data_PCOD9352802
_publ_section_title
;
Structure prediction by ZEFSAII (Michael W. Deem and Ramdas Pophale) SiO2 
 PCOD9352802
Probable space group: C M C 21
;
_chemical_formula_sum "Si O2"
_cell_formula_units_Z 40
_cell_length_a 18.464616
_cell_length_b 9.442852
_cell_length_c 9.413492
_cell_angle_alpha 90.000000
_cell_angle_beta 90.000000
_cell_angle_gamma 90.000000
_cell_volume 1641.323626
_symmetry_space_group_name_H-M "C M C 21"
_symmetry_group_IT_number 36
_symmetry_cell_setting 'orthorhombic'
loop_
_space_group_symop_operation_xyz
x,y,z
-x,-y,1/2+z
x,-y,1/2+z
-x,y,z
1/2+x,1/2+y,z
1/2-x,1/2-y,1/2+z
1/2+x,1/2-y,1/2+z
1/2-x,1/2+y,z
loop_
_atom_site_type_symbol
_atom_site_label
_atom_site_fract_x
_atom_site_fract_y
_atom_site_fract_z
Si Si1 0.657025 0.076378 0.073060
Si Si2 0.086768 0.116877 0.047128
Si Si3 0.309271 0.710481 0.815182
Si Si4 0.794991 0.931360 0.937288
Si Si5 0.914176 0.344219 0.275200
O O1 0.674808 0.211088 0.170613
O O2 0.612780 0.967460 0.170636
O O3 0.730274 0.997077 0.030253
O O4 0.615131 0.122600 0.931488
O O5 0.128759 0.969640 0.013727
O O6 0.104005 0.193976 0.197099
O O7 0.000000 0.103954 0.033001
O O8 0.123299 0.217842 0.925986
O O9 0.295888 0.543990 0.807109
O O10 0.239016 0.785519 0.883641
O O11 0.000000 0.346479 0.281831
#
# Coordination Sequence:
#
# PCOD9352802 Si02
#       5
#     8   8   8   8   8
#     4  12  21  38  63  99 138 172 230 284 344 402
#     4   9  21  41  67  97 135 180 226 281 343 405
#     4  10  23  40  69  98 135 179 237 278 345 403
#     4  10  22  41  68 100 134 181 231 285 343 411
#     4  11  22  38  64 102 140 178 226 292 346 399
#
# _framework density 24.370574000000001
#
# number of rings (size 3 to 8) (size 9 to 14) (size 15 to 20)
#    1.200    0.400    4.000    0.600    2.800    4.800 
#    0.000    0.000    0.000    4.800    0.000    0.000 
#    0.000    0.000    0.000    0.000    0.000    0.000 
#
# Total GULP energy -111842.477965 kJ/mol
# GULP energy per Si atom -5592.123898 kJ/mol
# Density = 2.431511 g / cm^3
# Si number density = 24.370574 Si / 1000 Ang^3
#
#
#
# Elastic Constant Matrix: (Units=GPa)
#
#
# Indices 1 2 3 4 5 6 
#
# 1 170.2267 54.3774 64.6585 0.0000 0.0000 0.0000
# 2 54.3774 104.3377 35.5776 0.0000 0.0000 0.0000
# 3 64.6585 35.5776 159.6249 0.0000 0.0000 0.0000
# 4 0.0000 0.0000 0.0000 42.0901 0.0000 0.0000
# 5 0.0000 0.0000 0.0000 0.0000 40.6199 0.0000
# 6 0.0000 0.0000 0.0000 0.0000 0.0000 45.3281
#
#
#
# Elastic Compliance Matrix: (Units=1/GPa)
#
#
# Indices 1 2 3 4 5 6 
#
# 1 0.007845 -0.003252 -0.002453 0.000000 0.000000 0.000000
# 2 -0.003252 0.011721 -0.001295 0.000000 0.000000 0.000000
# 3 -0.002453 -0.001295 0.007547 0.000000 0.000000 0.000000
# 4 0.000000 0.000000 0.000000 0.023759 0.000000 0.000000
# 5 0.000000 0.000000 0.000000 0.000000 0.024618 0.000000
# 6 0.000000 0.000000 0.000000 0.000000 0.000000 0.022061
#
#
# Mechanical properties :
#
#
# Convention : Reuss Voigt Hill
#
# Bulk Modulus (GPa) = 76.26283 82.60181 79.43232
# Shear Modulus (GPa) = 43.13232 44.24600 43.68916
#
# Velocity S-wave (km/s) = 4.21153 4.26555 4.23862
# Velocity P-wave (km/s) = 7.41689 7.63070 7.52455
#
# Compressibility (1/GPa) = 0.01311255
#
# Stress axis : x y z
#
# Youngs Moduli (GPa) = 127.46777 85.31853 132.50446
#
# Poissons Ratio (x) = 0.27747 0.32502
# Poissons Ratio (y) = 0.41455 0.17159
# Poissons Ratio (z) = 0.31267 0.11049
#
# Static dielectric constant tensor:
#      x y z
#    x 1.878230 0.000000 0.000000 
#    y 0.000000 2.056160 0.000000 
#    z 0.000000 0.000000 2.007800 
# 
# From -- ./inp_files/4528.got.cif
#   From: 2010.05.17/outbox.cif.g08.bks.cpg/sg36_3_cif.got.tgz:4528.got - 2010.06.03 17:41:39.
