data_PCOD9352969
_publ_section_title
;
Structure prediction by ZEFSAII (Michael W. Deem and Ramdas Pophale) SiO2 
 PCOD9352969
Probable space group: C M C 21
;
_chemical_formula_sum "Si O2"
_cell_formula_units_Z 48
_cell_length_a 13.063470
_cell_length_b 18.309141
_cell_length_c 8.843208
_cell_angle_alpha 90.000000
_cell_angle_beta 90.000000
_cell_angle_gamma 90.000000
_cell_volume 2115.126574
_symmetry_space_group_name_H-M "C M C 21"
_symmetry_group_IT_number 36
_symmetry_cell_setting 'orthorhombic'
loop_
_space_group_symop_operation_xyz
x,y,z
-x,-y,1/2+z
x,-y,1/2+z
-x,y,z
1/2+x,1/2+y,z
1/2-x,1/2-y,1/2+z
1/2+x,1/2-y,1/2+z
1/2-x,1/2+y,z
loop_
_atom_site_type_symbol
_atom_site_label
_atom_site_fract_x
_atom_site_fract_y
_atom_site_fract_z
Si Si1 0.376086 0.448334 0.669730
Si Si2 0.880812 0.259571 0.668581
Si Si3 0.614610 0.694585 0.987044
Si Si4 0.310301 0.175213 0.641122
Si Si5 0.245873 0.543310 0.471599
Si Si6 0.377697 0.893227 0.453736
O O1 0.500000 0.449233 0.693089
O O2 0.348609 0.382689 0.552334
O O3 0.332777 0.522543 0.595652
O O4 0.309566 0.439303 0.820985
O O5 0.851163 0.242935 0.842877
O O6 0.802488 0.203637 0.593213
O O7 0.864420 0.340040 0.599632
O O8 0.000000 0.243470 0.643348
O O9 0.500000 0.675626 0.943069
O O10 0.621202 0.753296 0.120486
O O11 0.326375 0.146331 0.809838
O O12 0.326699 0.107823 0.529831
O O13 0.173782 0.472243 0.461501
O O14 0.500000 0.899676 0.429148
#
# Coordination Sequence:
#
# PCOD9352969 Si02
#       6
#     8   8   8   8   8   8
#     4  11  25  47  71 102 146 188 245 305 364 436
#     4  10  23  43  71 102 136 180 231 295 359 427
#     4  10  24  43  69 101 135 181 231 292 357 422
#     4  12  24  42  70  98 139 179 238 296 352 429
#     4  12  26  45  68 105 140 196 240 297 373 430
#     4  11  26  48  71 102 146 192 243 297 363 442
#
# _framework density 22.693676
#
# number of rings (size 3 to 8) (size 9 to 14) (size 15 to 20)
#    0.000    1.000    1.667    4.000    7.000    2.667 
#    0.000    0.000    0.000    0.000    0.000    0.000 
#    0.000    0.000    0.000    0.000    0.000    0.000 
#
# Total GULP energy -133875.293558 kJ/mol
# GULP energy per Si atom -5578.137232 kJ/mol
# Density = 2.264202 g / cm^3
# Si number density = 22.693676 Si / 1000 Ang^3
#
#
#
# Elastic Constant Matrix: (Units=GPa)
#
#
# Indices 1 2 3 4 5 6 
#
# 1 128.0674 24.3794 6.1026 0.0000 0.0000 0.0000
# 2 24.3794 82.1724 -2.1174 0.0000 0.0000 0.0000
# 3 6.1026 -2.1174 65.9305 0.0000 0.0000 0.0000
# 4 0.0000 0.0000 0.0000 33.8838 0.0000 0.0000
# 5 0.0000 0.0000 0.0000 0.0000 32.3178 0.0000
# 6 0.0000 0.0000 0.0000 0.0000 0.0000 -5.4332
#
#
#
# Elastic Compliance Matrix: (Units=1/GPa)
#
#
# Indices 1 2 3 4 5 6 
#
# 1 0.008323 -0.002491 -0.000850 0.000000 0.000000 0.000000
# 2 -0.002491 0.012925 0.000646 0.000000 0.000000 0.000000
# 3 -0.000850 0.000646 0.015267 0.000000 0.000000 0.000000
# 4 0.000000 0.000000 0.000000 0.029513 0.000000 0.000000
# 5 0.000000 0.000000 0.000000 0.000000 0.030943 0.000000
# 6 0.000000 0.000000 0.000000 0.000000 0.000000 -0.184054
#
#
# Mechanical properties :
#
#
# Convention : Reuss Voigt Hill
#
# Bulk Modulus (GPa) = 32.13015 36.98884 34.55949
# Shear Modulus (GPa) = -70.10976 28.67406 -20.71785
#
# Velocity S-wave (km/s) = -5.56426 3.55847 -3.02476
# Velocity P-wave (km/s) = 5.20504 5.76352 1.75010
#
# Compressibility (1/GPa) = 0.03112342
#
# Stress axis : x y z
#
# Youngs Moduli (GPa) = 120.14666 77.36765 65.50106
#
# Poissons Ratio (x) = 0.19274 0.05570
# Poissons Ratio (y) = 0.29932 -0.04229
# Poissons Ratio (z) = 0.10217 -0.04996
#
# Static dielectric constant tensor:
#      x y z
#    x 1.888580 0.000000 0.000000 
#    y 0.000000 1.819550 0.000000 
#    z 0.000000 0.000000 1.913090 
# 
# From -- ./inp_files/4007.got.cif
#   From: 2010.05.17/outbox.cif.g08.bks.cpg/sg36_3_cif.got.tgz:4007.got - 2010.06.03 17:41:39.
