data_PCOD9352191
_publ_section_title
;
Structure prediction by ZEFSAII (Michael W. Deem and Ramdas Pophale) SiO2 
 PCOD9352191
Probable space group: C M C 21
;
_chemical_formula_sum "Si O2"
_cell_formula_units_Z 64
_cell_length_a 12.881071
_cell_length_b 25.847985
_cell_length_c 10.961828
_cell_angle_alpha 90.000000
_cell_angle_beta 90.000000
_cell_angle_gamma 90.000000
_cell_volume 3649.737673
_symmetry_space_group_name_H-M "C M C 21"
_symmetry_group_IT_number 36
_symmetry_cell_setting 'orthorhombic'
loop_
_space_group_symop_operation_xyz
x,y,z
-x,-y,1/2+z
x,-y,1/2+z
-x,y,z
1/2+x,1/2+y,z
1/2-x,1/2-y,1/2+z
1/2+x,1/2-y,1/2+z
1/2-x,1/2+y,z
loop_
_atom_site_type_symbol
_atom_site_label
_atom_site_fract_x
_atom_site_fract_y
_atom_site_fract_z
Si Si1 0.614064 0.686874 0.993270
Si Si2 0.618145 0.587029 0.819793
Si Si3 0.124946 0.834949 0.118224
Si Si4 0.377475 0.602268 0.387749
Si Si5 0.268090 0.004618 0.402545
Si Si6 0.375544 0.962303 0.646958
Si Si7 0.121484 0.262375 0.769868
Si Si8 0.240798 0.643341 0.184060
O O1 0.500000 0.692902 0.052836
O O2 0.610907 0.633950 0.915400
O O3 0.628233 0.733481 0.898976
O O4 0.709995 0.678939 0.080653
O O5 0.500000 0.567282 0.798609
O O6 0.659702 0.615856 0.698896
O O7 0.693439 0.543241 0.868663
O O8 0.162801 0.780625 0.172610
O O9 0.000000 0.833633 0.137614
O O10 0.143185 0.849918 0.979249
O O11 0.500000 0.590468 0.391718
O O12 0.306895 0.553697 0.424889
O O13 0.337493 0.618099 0.254947
O O14 0.334965 0.016298 0.279039
O O15 0.331032 0.991735 0.526681
O O16 0.500000 0.963280 0.645077
O O17 0.331230 0.903595 0.640020
O O18 0.177689 0.316960 0.767447
O O19 0.000000 0.271171 0.742386
#
# Coordination Sequence:
#
# PCOD9352191 Si02
#       8
#     8   8   8   8   8   8   8   8
#     4   9  18  34  54  81 111 139 176 226 277 330
#     4   9  16  31  56  83 108 138 178 225 272 339
#     4   8  16  32  51  74 108 142 175 218 272 326
#     4  10  21  34  51  85 120 141 171 227 284 342
#     4  11  21  37  58  84 108 152 189 226 288 339
#     4  11  24  40  57  80 113 148 196 239 274 328
#     4   9  19  34  55  77 103 145 190 226 267 323
#     4  11  21  34  57  82 109 149 184 227 281 333
#
# _framework density 17.535506999999999
#
# number of rings (size 3 to 8) (size 9 to 14) (size 15 to 20)
#    0.000    2.250    1.250    3.750    1.750    0.000 
#    0.000    1.250    0.000    0.000    0.000    0.000 
#    0.000    0.000    0.000    0.000    0.000    0.000 
#
# Total GULP energy -178237.434377 kJ/mol
# GULP energy per Si atom -5569.919824 kJ/mol
# Density = 1.749560 g / cm^3
# Si number density = 17.535507 Si / 1000 Ang^3
#
#
#
# Elastic Constant Matrix: (Units=GPa)
#
#
# Indices 1 2 3 4 5 6 
#
# 1 103.5695 42.6147 47.3696 0.0000 0.0000 0.0000
# 2 42.6147 75.3460 26.8108 0.0000 0.0000 0.0000
# 3 47.3696 26.8108 60.2859 0.0000 0.0000 0.0000
# 4 0.0000 0.0000 0.0000 14.2844 0.0000 0.0000
# 5 0.0000 0.0000 0.0000 0.0000 22.4771 0.0000
# 6 0.0000 0.0000 0.0000 0.0000 0.0000 13.6330
#
#
#
# Elastic Compliance Matrix: (Units=1/GPa)
#
#
# Indices 1 2 3 4 5 6 
#
# 1 0.016941 -0.005756 -0.010752 0.000000 0.000000 0.000000
# 2 -0.005756 0.017723 -0.003359 0.000000 0.000000 0.000000
# 3 -0.010752 -0.003359 0.026530 0.000000 0.000000 0.000000
# 4 0.000000 0.000000 0.000000 0.070006 0.000000 0.000000
# 5 0.000000 0.000000 0.000000 0.000000 0.044490 0.000000
# 6 0.000000 0.000000 0.000000 0.000000 0.000000 0.073351
#
#
# Mechanical properties :
#
#
# Convention : Reuss Voigt Hill
#
# Bulk Modulus (GPa) = 46.59786 52.53240 49.56513
# Shear Modulus (GPa) = 16.89600 18.23933 17.56767
#
# Velocity S-wave (km/s) = 3.10745 3.22861 3.16861
# Velocity P-wave (km/s) = 6.28539 6.62732 6.45862
#
# Compressibility (1/GPa) = 0.02146021
#
# Stress axis : x y z
#
# Youngs Moduli (GPa) = 59.02772 56.42431 37.69357
#
# Poissons Ratio (x) = 0.32477 0.40527
# Poissons Ratio (y) = 0.33976 0.12662
# Poissons Ratio (z) = 0.63465 0.18954
#
# Static dielectric constant tensor:
#      x y z
#    x 1.592740 0.000000 0.000000 
#    y 0.000000 1.585470 0.000000 
#    z 0.000000 0.000000 1.642050 
# 
# From -- ./inp_files/8029.got.cif
#   From: 2010.05.17/outbox.cif.g08.bks.cpg/sg36_5_cif.got.tgz:8029.got - 2010.06.03 17:41:39.
