data_PCOD9352051
_publ_section_title
;
Structure prediction by ZEFSAII (Michael W. Deem and Ramdas Pophale) SiO2 
 PCOD9352051
Probable space group: C M C 21
;
_chemical_formula_sum "Si O2"
_cell_formula_units_Z 64
_cell_length_a 8.729288
_cell_length_b 15.622352
_cell_length_c 23.944446
_cell_angle_alpha 90.000000
_cell_angle_beta 90.000000
_cell_angle_gamma 90.000000
_cell_volume 3265.352226
_symmetry_space_group_name_H-M "C M C 21"
_symmetry_group_IT_number 36
_symmetry_cell_setting 'orthorhombic'
loop_
_space_group_symop_operation_xyz
x,y,z
-x,-y,1/2+z
x,-y,1/2+z
-x,y,z
1/2+x,1/2+y,z
1/2-x,1/2-y,1/2+z
1/2+x,1/2-y,1/2+z
1/2-x,1/2+y,z
loop_
_atom_site_type_symbol
_atom_site_label
_atom_site_fract_x
_atom_site_fract_y
_atom_site_fract_z
Si Si1 0.318128 0.164083 0.583670
Si Si2 0.319071 0.845315 0.591475
Si Si3 0.818774 0.006954 0.652701
Si Si4 0.180602 0.902360 0.474918
Si Si5 0.182899 0.409691 0.963428
Si Si6 0.183906 0.500483 0.274556
Si Si7 0.683362 0.169720 0.342933
Si Si8 0.318346 0.847056 0.359497
O O1 0.500000 0.175158 0.590101
O O2 0.233140 0.248963 0.603894
O O3 0.286676 0.147191 0.518006
O O4 0.263613 0.080639 0.616864
O O5 0.500000 0.854943 0.598125
O O6 0.235427 0.915327 0.629507
O O7 0.270311 0.865578 0.527901
O O8 0.000000 0.015539 0.645941
O O9 0.769691 0.014428 0.716901
O O10 0.229900 0.856729 0.417801
O O11 0.000000 0.892449 0.484460
O O12 0.226067 0.001875 0.468534
O O13 0.219484 0.362400 0.905741
O O14 0.000000 0.429694 0.962616
O O15 0.222042 0.592491 0.301249
O O16 0.219827 0.426813 0.319554
O O17 0.000000 0.498249 0.265035
O O18 0.500000 0.183937 0.340178
O O19 0.770509 0.257613 0.332014
O O20 0.500000 0.849714 0.370286
#
# Coordination Sequence:
#
# PCOD9352051 Si02
#       8
#     8   8   8   8   8   8   8   8
#     4  11  23  41  68  98 131 167 209 262 321 381
#     4  12  25  43  67  95 130 169 213 263 318 381
#     4  12  26  44  66  94 128 168 217 267 319 380
#     4  12  23  37  63  96 131 167 209 257 314 381
#     4  10  20  38  64  93 128 168 202 251 319 380
#     4  10  23  44  66  88 124 171 214 264 320 372
#     4  10  21  40  65  94 128 164 208 258 315 376
#     4  11  23  41  65  94 128 166 210 258 316 379
#
# _framework density 19.599720999999999
#
# number of rings (size 3 to 8) (size 9 to 14) (size 15 to 20)
#    0.000    1.000    2.500    4.875    0.000    4.500 
#    0.000    2.500    0.000    0.000    0.000    0.000 
#    0.000    0.000    0.000    0.000    0.000    0.000 
#
# Total GULP energy -179079.719646 kJ/mol
# GULP energy per Si atom -5596.241239 kJ/mol
# Density = 1.955511 g / cm^3
# Si number density = 19.599721 Si / 1000 Ang^3
#
#
#
# Elastic Constant Matrix: (Units=GPa)
#
#
# Indices 1 2 3 4 5 6 
#
# 1 27.5450 -4.1228 4.7229 0.0000 0.0000 0.0000
# 2 -4.1228 61.0178 -23.3063 0.0000 0.0000 0.0000
# 3 4.7229 -23.3063 40.9403 0.0000 0.0000 0.0000
# 4 0.0000 0.0000 0.0000 0.0318 0.0000 0.0000
# 5 0.0000 0.0000 0.0000 0.0000 -14.1379 0.0000
# 6 0.0000 0.0000 0.0000 0.0000 0.0000 34.2457
#
#
#
# Elastic Compliance Matrix: (Units=1/GPa)
#
#
# Indices 1 2 3 4 5 6 
#
# 1 0.037096 0.001114 -0.003645 0.000000 0.000000 0.000000
# 2 0.001114 0.020976 0.011812 0.000000 0.000000 0.000000
# 3 -0.003645 0.011812 0.031571 0.000000 0.000000 0.000000
# 4 0.000000 0.000000 0.000000 31.431076 0.000000 0.000000
# 5 0.000000 0.000000 0.000000 0.000000 -0.070732 0.000000
# 6 0.000000 0.000000 0.000000 0.000000 0.000000 0.029201
#
#
# Mechanical properties :
#
#
# Convention : Reuss Voigt Hill
#
# Bulk Modulus (GPa) = 9.24166 9.34341 9.29253
# Shear Modulus (GPa) = 0.15875 14.17521 7.16698
#
# Velocity S-wave (km/s) = 0.28490 2.69222 1.91432
# Velocity P-wave (km/s) = 2.19856 3.80020 3.10445
#
# Compressibility (1/GPa) = 0.10820572
#
# Stress axis : x y z
#
# Youngs Moduli (GPa) = 26.95711 47.67388 31.67474
#
# Poissons Ratio (x) = -0.05312 0.11546
# Poissons Ratio (y) = -0.03004 -0.37416
# Poissons Ratio (z) = 0.09826 -0.56315
#
# Static dielectric constant tensor:
#      x y z
#    x 1.656130 0.000000 0.000000 
#    y 0.000000 1.674670 0.000000 
#    z 0.000000 0.000000 1.664170 
# 
# From -- ./inp_files/16637.got.cif
#   From: 2010.05.17/outbox.cif.g08.bks.cpg/sg36_9_cif.got.tgz:16637.got - 2010.06.03 17:41:39.
