data_PCOD9352849
_publ_section_title
;
Structure prediction by ZEFSAII (Michael W. Deem and Ramdas Pophale) SiO2 
 PCOD9352849
Probable space group: C M C 21
;
_chemical_formula_sum "Si O2"
_cell_formula_units_Z 48
_cell_length_a 18.798161
_cell_length_b 10.137177
_cell_length_c 9.047260
_cell_angle_alpha 90.000000
_cell_angle_beta 90.000000
_cell_angle_gamma 90.000000
_cell_volume 1724.048447
_symmetry_space_group_name_H-M "C M C 21"
_symmetry_group_IT_number 36
_symmetry_cell_setting 'orthorhombic'
loop_
_space_group_symop_operation_xyz
x,y,z
-x,-y,1/2+z
x,-y,1/2+z
-x,y,z
1/2+x,1/2+y,z
1/2-x,1/2-y,1/2+z
1/2+x,1/2-y,1/2+z
1/2-x,1/2+y,z
loop_
_atom_site_type_symbol
_atom_site_label
_atom_site_fract_x
_atom_site_fract_y
_atom_site_fract_z
Si Si1 0.000000 0.242056 0.147530
Si Si2 0.230810 0.494831 0.105780
Si Si3 0.000000 0.270737 0.583459
Si Si4 0.876610 0.352988 0.940283
Si Si5 0.703128 0.730518 0.173518
Si Si6 0.500000 0.013985 0.860273
Si Si7 0.500000 0.541412 0.806715
Si Si8 0.875096 0.096882 0.441395
O O1 0.933036 0.287272 0.052182
O O2 0.000000 0.346666 0.279542
O O3 0.000000 0.089552 0.200279
O O4 0.307725 0.456629 0.034442
O O5 0.165720 0.480990 0.996502
O O6 0.229053 0.636674 0.178649
O O7 0.218178 0.378052 0.221868
O O8 0.000000 0.424670 0.529622
O O9 0.926740 0.203606 0.518018
O O10 0.000000 0.184117 0.735559
O O11 0.813580 0.250163 0.996008
O O12 0.931108 0.422174 0.826148
O O13 0.651350 0.659240 0.287254
O O14 0.571424 0.521373 0.900078
#
# Coordination Sequence:
#
# PCOD9352849 Si02
#       8
#     4   8   4   8   8   4   4   8
#     4  11  19  43  69  91 137 176 221 278 355 394
#     4  10  24  40  65  95 135 176 230 281 346 422
#     4  11  24  38  70  97 130 173 234 279 345 415
#     4   9  23  41  63  94 132 174 222 279 335 410
#     4  10  22  43  62  96 135 179 222 287 338 418
#     4  11  21  39  71  95 125 184 225 276 349 415
#     4  11  20  40  66  99 130 179 224 281 347 422
#     4  11  22  40  67  95 135 183 220 282 360 406
#
# _framework density 27.841446000000001
#
# number of rings (size 3 to 8) (size 9 to 14) (size 15 to 20)
#    1.000    0.667    3.333    1.000    2.333    2.667 
#    0.000    3.333    0.000    0.000    0.000    0.000 
#    0.000    0.000    0.000    0.000    0.000    0.000 
#
# Total GULP energy -133699.475317 kJ/mol
# GULP energy per Si atom -5570.811472 kJ/mol
# Density = 2.777808 g / cm^3
# Si number density = 27.841446 Si / 1000 Ang^3
#
#
#
# Elastic Constant Matrix: (Units=GPa)
#
#
# Indices 1 2 3 4 5 6 
#
# 1 73.1401 8.8828 5.2156 0.0000 0.0000 0.0000
# 2 8.8828 165.7322 34.4181 0.0000 0.0000 0.0000
# 3 5.2156 34.4181 72.5259 0.0000 0.0000 0.0000
# 4 0.0000 0.0000 0.0000 43.1645 0.0000 0.0000
# 5 0.0000 0.0000 0.0000 0.0000 20.0154 0.0000
# 6 0.0000 0.0000 0.0000 0.0000 0.0000 17.5538
#
#
#
# Elastic Compliance Matrix: (Units=1/GPa)
#
#
# Indices 1 2 3 4 5 6 
#
# 1 0.013795 -0.000592 -0.000711 0.000000 0.000000 0.000000
# 2 -0.000592 0.006719 -0.003146 0.000000 0.000000 0.000000
# 3 -0.000711 -0.003146 0.015332 0.000000 0.000000 0.000000
# 4 0.000000 0.000000 0.000000 0.023167 0.000000 0.000000
# 5 0.000000 0.000000 0.000000 0.000000 0.049961 0.000000
# 6 0.000000 0.000000 0.000000 0.000000 0.000000 0.056968
#
#
# Mechanical properties :
#
#
# Convention : Reuss Voigt Hill
#
# Bulk Modulus (GPa) = 37.10810 45.38127 41.24469
# Shear Modulus (GPa) = 27.20008 33.67219 30.43614
#
# Velocity S-wave (km/s) = 3.12903 3.48145 3.30994
# Velocity P-wave (km/s) = 5.13924 5.70052 5.42714
#
# Compressibility (1/GPa) = 0.02694829
#
# Stress axis : x y z
#
# Youngs Moduli (GPa) = 72.49024 148.83436 65.22185
#
# Poissons Ratio (x) = 0.08806 0.04639
# Poissons Ratio (y) = 0.04289 0.20519
# Poissons Ratio (z) = 0.05156 0.46823
#
# Static dielectric constant tensor:
#      x y z
#    x 2.803830 0.000000 0.000000 
#    y 0.000000 2.138720 0.000000 
#    z 0.000000 0.000000 2.394150 
# 
# From -- ./inp_files/9210.got.cif
#   From: 2010.05.17/outbox.cif.g08.bks.cpg/sg36_5_cif.got.tgz:9210.got - 2010.06.03 17:41:39.
