data_PCOD9352940
_publ_section_title
;
Structure prediction by ZEFSAII (Michael W. Deem and Ramdas Pophale) SiO2 
 PCOD9352940
Probable space group: C M C 21
;
_chemical_formula_sum "Si O2"
_cell_formula_units_Z 40
_cell_length_a 18.381917
_cell_length_b 10.752325
_cell_length_c 9.145894
_cell_angle_alpha 90.000000
_cell_angle_beta 90.000000
_cell_angle_gamma 90.000000
_cell_volume 1807.670819
_symmetry_space_group_name_H-M "C M C 21"
_symmetry_group_IT_number 36
_symmetry_cell_setting 'orthorhombic'
loop_
_space_group_symop_operation_xyz
x,y,z
-x,-y,1/2+z
x,-y,1/2+z
-x,y,z
1/2+x,1/2+y,z
1/2-x,1/2-y,1/2+z
1/2+x,1/2-y,1/2+z
1/2-x,1/2+y,z
loop_
_atom_site_type_symbol
_atom_site_label
_atom_site_fract_x
_atom_site_fract_y
_atom_site_fract_z
Si Si1 0.783621 0.171691 0.043740
Si Si2 0.412332 0.158224 0.578057
Si Si3 0.179687 0.006180 0.793079
Si Si4 0.645256 0.328046 0.043035
Si Si5 0.913282 0.415556 0.407264
O O1 0.866333 0.219880 0.041660
O O2 0.729957 0.287536 0.050502
O O3 0.776004 0.082508 0.183347
O O4 0.771538 0.092623 0.897302
O O5 0.500000 0.175244 0.571174
O O6 0.391153 0.118001 0.742743
O O7 0.388556 0.047511 0.469935
O O8 0.131233 0.094504 0.689397
O O9 0.135765 0.917635 0.903847
O O10 0.606226 0.197855 0.014982
O O11 0.000000 0.424688 0.403306
#
# Coordination Sequence:
#
# PCOD9352940 Si02
#       5
#     8   8   8   8   8
#     4  11  23  40  64  88 128 161 207 254 306 365
#     4  10  23  42  64  92 124 163 209 255 306 362
#     4  10  24  40  57  96 119 162 212 244 312 372
#     4  11  23  40  64  88 128 161 207 254 306 365
#     4  10  23  42  64  92 124 163 209 255 306 362
#
# _framework density 22.127922000000002
#
# number of rings (size 3 to 8) (size 9 to 14) (size 15 to 20)
#    0.000    1.600    2.000    1.200    8.400    0.000 
#    0.000    6.000    0.000    0.000    0.000    0.000 
#    0.000    0.000    0.000    0.000    0.000    0.000 
#
# Total GULP energy -111815.178316 kJ/mol
# GULP energy per Si atom -5590.758916 kJ/mol
# Density = 2.207756 g / cm^3
# Si number density = 22.127922 Si / 1000 Ang^3
#
#
#
# Elastic Constant Matrix: (Units=GPa)
#
#
# Indices 1 2 3 4 5 6 
#
# 1 36.1312 28.7393 23.4298 0.0000 0.0000 0.0000
# 2 28.7393 101.3925 45.4648 0.0000 0.0000 0.0000
# 3 23.4298 45.4648 124.5839 0.0000 0.0000 0.0000
# 4 0.0000 0.0000 0.0000 42.4307 0.0000 0.0000
# 5 0.0000 0.0000 0.0000 0.0000 15.5791 0.0000
# 6 0.0000 0.0000 0.0000 0.0000 0.0000 31.1646
#
#
#
# Elastic Compliance Matrix: (Units=1/GPa)
#
#
# Indices 1 2 3 4 5 6 
#
# 1 0.037149 -0.008844 -0.003759 0.000000 0.000000 0.000000
# 2 -0.008844 0.013898 -0.003409 0.000000 0.000000 0.000000
# 3 -0.003759 -0.003409 0.009978 0.000000 0.000000 0.000000
# 4 0.000000 0.000000 0.000000 0.023568 0.000000 0.000000
# 5 0.000000 0.000000 0.000000 0.000000 0.064189 0.000000
# 6 0.000000 0.000000 0.000000 0.000000 0.000000 0.032088
#
#
# Mechanical properties :
#
#
# Convention : Reuss Voigt Hill
#
# Bulk Modulus (GPa) = 34.48119 50.81950 42.65034
# Shear Modulus (GPa) = 22.46589 28.79978 25.63284
#
# Velocity S-wave (km/s) = 3.18979 3.61156 3.40721
# Velocity P-wave (km/s) = 5.40212 6.35667 5.89873
#
# Compressibility (1/GPa) = 0.02900132
#
# Stress axis : x y z
#
# Youngs Moduli (GPa) = 26.91839 71.95307 100.22539
#
# Poissons Ratio (x) = 0.63638 0.37674
# Poissons Ratio (y) = 0.23808 0.34162
# Poissons Ratio (z) = 0.10118 0.24525
#
# Static dielectric constant tensor:
#      x y z
#    x 1.813160 0.000000 0.000000 
#    y 0.000000 1.786300 0.000000 
#    z 0.000000 0.000000 1.824170 
# 
# From -- ./inp_files/4510.got.cif
#   From: 2010.05.17/outbox.cif.g08.bks.cpg/sg36_3_cif.got.tgz:4510.got - 2010.06.03 17:41:39.
