data_PCOD9352705
_publ_section_title
;
Structure prediction by ZEFSAII (Michael W. Deem and Ramdas Pophale) SiO2 
 PCOD9352705
Probable space group: C M C 21
;
_chemical_formula_sum "Si O2"
_cell_formula_units_Z 48
_cell_length_a 18.855175
_cell_length_b 12.069593
_cell_length_c 11.780000
_cell_angle_alpha 90.000000
_cell_angle_beta 90.000000
_cell_angle_gamma 90.000000
_cell_volume 2680.825115
_symmetry_space_group_name_H-M "C M C 21"
_symmetry_group_IT_number 36
_symmetry_cell_setting 'orthorhombic'
loop_
_space_group_symop_operation_xyz
x,y,z
-x,-y,1/2+z
x,-y,1/2+z
-x,y,z
1/2+x,1/2+y,z
1/2-x,1/2-y,1/2+z
1/2+x,1/2-y,1/2+z
1/2-x,1/2+y,z
loop_
_atom_site_type_symbol
_atom_site_label
_atom_site_fract_x
_atom_site_fract_y
_atom_site_fract_z
Si Si1 0.166442 0.409548 0.116880
Si Si2 0.168765 0.656771 0.199495
Si Si3 0.584102 0.215587 0.426587
Si Si4 0.669876 0.301241 0.765555
Si Si5 0.915665 0.925927 0.577678
Si Si6 0.674819 0.643275 0.529289
O O1 0.152740 0.534553 0.153979
O O2 0.163152 0.325866 0.224138
O O3 0.244425 0.392886 0.060417
O O4 0.110160 0.367735 0.024450
O O5 0.125784 0.688019 0.312313
O O6 0.252444 0.659192 0.226614
O O7 0.156045 0.751822 0.106980
O O8 0.500000 0.208997 0.409503
O O9 0.601437 0.337408 0.477622
O O10 0.612898 0.371241 0.693853
O O11 0.666491 0.321156 0.898937
O O12 0.000000 0.940280 0.581900
O O13 0.875487 0.039862 0.555801
#
# Coordination Sequence:
#
# PCOD9352705 Si02
#       6
#     8   8   8   8   8   8
#     4  10  22  40  64  92 125 162 208 256 308 367
#     4  11  23  38  65  95 122 160 211 259 301 370
#     4  10  23  43  64  88 126 167 201 253 318 371
#     4  10  22  39  62  94 125 164 204 254 309 371
#     4  10  23  43  64  92 129 164 202 257 320 368
#     4  11  23  37  65  97 123 157 214 255 308 369
#
# _framework density 17.904934999999998
#
# number of rings (size 3 to 8) (size 9 to 14) (size 15 to 20)
#    0.000    1.667    3.333    0.000    4.667    2.000 
#    0.000    0.000    0.000    0.000    0.000    0.000 
#    0.000    0.000    0.000    0.000    0.000    0.000 
#
# Total GULP energy -134052.185834 kJ/mol
# GULP energy per Si atom -5585.507743 kJ/mol
# Density = 1.786418 g / cm^3
# Si number density = 17.904935 Si / 1000 Ang^3
#
#
#
# Elastic Constant Matrix: (Units=GPa)
#
#
# Indices 1 2 3 4 5 6 
#
# 1 46.2958 31.2387 21.9691 0.0000 0.0000 0.0000
# 2 31.2387 139.3348 65.9921 0.0000 0.0000 0.0000
# 3 21.9691 65.9921 124.6526 0.0000 0.0000 0.0000
# 4 0.0000 0.0000 0.0000 13.9821 0.0000 0.0000
# 5 0.0000 0.0000 0.0000 0.0000 28.4152 0.0000
# 6 0.0000 0.0000 0.0000 0.0000 0.0000 27.3634
#
#
#
# Elastic Compliance Matrix: (Units=1/GPa)
#
#
# Indices 1 2 3 4 5 6 
#
# 1 0.025812 -0.004848 -0.001983 0.000000 0.000000 0.000000
# 2 -0.004848 0.010489 -0.004699 0.000000 0.000000 0.000000
# 3 -0.001983 -0.004699 0.010859 0.000000 0.000000 0.000000
# 4 0.000000 0.000000 0.000000 0.071520 0.000000 0.000000
# 5 0.000000 0.000000 0.000000 0.000000 0.035192 0.000000
# 6 0.000000 0.000000 0.000000 0.000000 0.000000 0.036545
#
#
# Mechanical properties :
#
#
# Convention : Reuss Voigt Hill
#
# Bulk Modulus (GPa) = 41.49010 60.96477 51.22744
# Shear Modulus (GPa) = 22.57218 26.69102 24.63160
#
# Velocity S-wave (km/s) = 3.55444 3.86516 3.71305
# Velocity P-wave (km/s) = 6.32994 7.35135 6.85968
#
# Compressibility (1/GPa) = 0.02410213
#
# Stress axis : x y z
#
# Youngs Moduli (GPa) = 38.74109 95.33528 92.08755
#
# Poissons Ratio (x) = 0.46219 0.18257
# Poissons Ratio (y) = 0.18782 0.43269
# Poissons Ratio (z) = 0.07681 0.44795
#
# Static dielectric constant tensor:
#      x y z
#    x 1.591210 0.000000 0.000000 
#    y 0.000000 1.598230 0.000000 
#    z 0.000000 0.000000 1.588990 
# 
# From -- ./inp_files/8853.got.cif
#   From: 2010.05.17/outbox.cif.g08.bks.cpg/sg36_5_cif.got.tgz:8853.got - 2010.06.03 17:41:39.
