data_PCOD9352465
_publ_section_title
;
Structure prediction by ZEFSAII (Michael W. Deem and Ramdas Pophale) SiO2 
 PCOD9352465
Probable space group: C M C 21
;
_chemical_formula_sum "Si O2"
_cell_formula_units_Z 40
_cell_length_a 12.650553
_cell_length_b 27.486737
_cell_length_c 4.994444
_cell_angle_alpha 90.000000
_cell_angle_beta 90.000000
_cell_angle_gamma 90.000000
_cell_volume 1736.680170
_symmetry_space_group_name_H-M "C M C 21"
_symmetry_group_IT_number 36
_symmetry_cell_setting 'orthorhombic'
loop_
_space_group_symop_operation_xyz
x,y,z
-x,-y,1/2+z
x,-y,1/2+z
-x,y,z
1/2+x,1/2+y,z
1/2-x,1/2-y,1/2+z
1/2+x,1/2-y,1/2+z
1/2-x,1/2+y,z
loop_
_atom_site_type_symbol
_atom_site_label
_atom_site_fract_x
_atom_site_fract_y
_atom_site_fract_z
Si Si1 0.500000 0.821289 0.811410
Si Si2 0.381725 0.432223 0.280312
Si Si3 0.658399 0.970729 0.162276
Si Si4 0.618854 0.633792 0.278872
Si Si5 0.276756 0.779353 0.659956
Si Si6 0.000000 0.387579 0.312247
O O1 0.395889 0.790822 0.744593
O O2 0.500000 0.867665 0.611918
O O3 0.500000 0.841957 0.111251
O O4 0.500000 0.453384 0.250563
O O5 0.284000 0.464871 0.195385
O O6 0.368268 0.412039 0.579810
O O7 0.375804 0.385971 0.080204
O O8 0.600934 0.921423 0.249804
O O9 0.627546 0.013511 0.366122
O O10 0.500000 0.653309 0.231519
O O11 0.706308 0.673257 0.214781
O O12 0.266842 0.762872 0.354034
#
# Coordination Sequence:
#
# PCOD9352465 Si02
#       6
#     4   8   8   8   8   4
#     4  12  26  45  70  94 128 178 210 264 320 385
#     4  10  21  39  61  88 120 164 214 250 312 383
#     4  12  24  39  63  94 129 163 208 270 319 362
#     4  10  21  39  63  85 119 167 209 257 311 380
#     4  12  26  41  65  95 131 159 211 266 327 378
#     4  12  24  45  68  90 130 168 226 250 312 399
#
# _framework density 23.032450000000001
#
# number of rings (size 3 to 8) (size 9 to 14) (size 15 to 20)
#    0.000    0.800    0.000    7.800    2.800    0.800 
#    0.000    0.000    0.000    0.000    0.000    0.000 
#    0.000    0.000    0.000    0.000    0.000    0.000 
#
# Total GULP energy -112076.575023 kJ/mol
# GULP energy per Si atom -5603.828751 kJ/mol
# Density = 2.298003 g / cm^3
# Si number density = 23.032450 Si / 1000 Ang^3
#
#
#
# Elastic Constant Matrix: (Units=GPa)
#
#
# Indices 1 2 3 4 5 6 
#
# 1 142.3774 25.6479 -3.2885 0.0000 0.0000 0.0000
# 2 25.6479 32.3339 -7.6739 0.0000 0.0000 0.0000
# 3 -3.2885 -7.6739 51.0515 0.0000 0.0000 0.0000
# 4 0.0000 0.0000 0.0000 52.4487 0.0000 0.0000
# 5 0.0000 0.0000 0.0000 0.0000 21.5078 0.0000
# 6 0.0000 0.0000 0.0000 0.0000 0.0000 -14.8009
#
#
#
# Elastic Compliance Matrix: (Units=1/GPa)
#
#
# Indices 1 2 3 4 5 6 
#
# 1 0.008205 -0.006619 -0.000466 0.000000 0.000000 0.000000
# 2 -0.006619 0.037411 0.005197 0.000000 0.000000 0.000000
# 3 -0.000466 0.005197 0.020339 0.000000 0.000000 0.000000
# 4 0.000000 0.000000 0.000000 0.019066 0.000000 0.000000
# 5 0.000000 0.000000 0.000000 0.000000 0.046495 0.000000
# 6 0.000000 0.000000 0.000000 0.000000 0.000000 -0.067564
#
#
# Mechanical properties :
#
#
# Convention : Reuss Voigt Hill
#
# Bulk Modulus (GPa) = 16.08271 28.34822 22.21546
# Shear Modulus (GPa) = 56.52508 25.90295 41.21402
#
# Velocity S-wave (km/s) = 4.95931 3.35719 4.23471
# Velocity P-wave (km/s) = 6.30800 5.23090 5.79453
#
# Compressibility (1/GPa) = 0.06217859
#
# Stress axis : x y z
#
# Youngs Moduli (GPa) = 121.87381 26.72991 49.16609
#
# Poissons Ratio (x) = 0.17693 0.02293
# Poissons Ratio (y) = 0.80671 -0.25552
# Poissons Ratio (z) = 0.05685 -0.13892
#
# Static dielectric constant tensor:
#      x y z
#    x 1.855740 0.000000 0.000000 
#    y 0.000000 1.812490 0.000000 
#    z 0.000000 0.000000 1.805370 
# 
# From -- ./inp_files/534.got.cif
#   From: 2010.05.17/outbox.cif.g08.bks.cpg/sg36_1_cif.got.tgz:534.got - 2010.06.03 17:41:39.
