data_PCOD9352074
_publ_section_title
;
Structure prediction by ZEFSAII (Michael W. Deem and Ramdas Pophale) SiO2 
 PCOD9352074
Probable space group: C M C 21
;
_chemical_formula_sum "Si O2"
_cell_formula_units_Z 64
_cell_length_a 13.942552
_cell_length_b 18.959927
_cell_length_c 12.449052
_cell_angle_alpha 90.000000
_cell_angle_beta 90.000000
_cell_angle_gamma 90.000000
_cell_volume 3290.904009
_symmetry_space_group_name_H-M "C M C 21"
_symmetry_group_IT_number 36
_symmetry_cell_setting 'orthorhombic'
loop_
_space_group_symop_operation_xyz
x,y,z
-x,-y,1/2+z
x,-y,1/2+z
-x,y,z
1/2+x,1/2+y,z
1/2-x,1/2-y,1/2+z
1/2+x,1/2-y,1/2+z
1/2-x,1/2+y,z
loop_
_atom_site_type_symbol
_atom_site_label
_atom_site_fract_x
_atom_site_fract_y
_atom_site_fract_z
Si Si1 0.112955 0.645590 0.958840
Si Si2 0.608686 0.069514 0.183745
Si Si3 0.302988 0.718742 0.356919
Si Si4 0.891020 0.218334 0.909699
Si Si5 0.766227 0.068240 0.371247
Si Si6 0.323612 0.920572 0.104992
Si Si7 0.393467 0.234351 0.643764
Si Si8 0.715022 0.584897 0.819052
O O1 0.144547 0.726326 0.936450
O O2 0.183628 0.601512 0.880525
O O3 0.000000 0.635812 0.933642
O O4 0.128323 0.619671 0.080850
O O5 0.500000 0.082740 0.221454
O O6 0.686989 0.076329 0.276923
O O7 0.616884 0.988942 0.141278
O O8 0.189372 0.725477 0.377001
O O9 0.331342 0.637865 0.368755
O O10 0.321711 0.745770 0.237298
O O11 0.857172 0.145060 0.857962
O O12 0.000000 0.236363 0.880844
O O13 0.884625 0.217151 0.039069
O O14 0.716049 0.066340 0.486787
O O15 0.816087 0.993481 0.350542
O O16 0.379251 0.846604 0.109057
O O17 0.238949 0.912583 0.193110
O O18 0.500000 0.242390 0.689560
#
# Coordination Sequence:
#
# PCOD9352074 Si02
#       8
#     8   8   8   8   8   8   8   8
#     4  10  20  39  62  88 123 161 198 248 314 373
#     4  10  23  37  57  91 129 162 197 252 320 382
#     4  11  23  37  63  90 126 161 208 255 307 366
#     4  10  22  40  63  88 120 166 211 252 303 363
#     4  11  24  37  60  90 122 164 207 255 307 362
#     4  11  20  37  61  92 124 161 197 252 312 383
#     4  11  22  37  62  94 126 165 208 255 313 377
#     4  10  22  40  63  87 122 164 202 253 312 368
#
# _framework density 19.447543
#
# number of rings (size 3 to 8) (size 9 to 14) (size 15 to 20)
#    0.000    1.500    5.000    0.750    3.500    3.500 
#    0.000    1.250    0.000    1.500    0.000    0.000 
#    0.000    0.000    0.000    0.000    0.000    0.000 
#
# Total GULP energy -178654.368439 kJ/mol
# GULP energy per Si atom -5582.949014 kJ/mol
# Density = 1.940328 g / cm^3
# Si number density = 19.447543 Si / 1000 Ang^3
#
#
#
# Elastic Constant Matrix: (Units=GPa)
#
#
# Indices 1 2 3 4 5 6 
#
# 1 50.0657 -8.7938 18.9435 0.0000 0.0000 0.0000
# 2 -8.7938 108.0404 11.5031 0.0000 0.0000 0.0000
# 3 18.9435 11.5031 90.9801 0.0000 0.0000 0.0000
# 4 0.0000 0.0000 0.0000 33.8738 0.0000 0.0000
# 5 0.0000 0.0000 0.0000 0.0000 13.8212 0.0000
# 6 0.0000 0.0000 0.0000 0.0000 0.0000 6.4400
#
#
#
# Elastic Compliance Matrix: (Units=1/GPa)
#
#
# Indices 1 2 3 4 5 6 
#
# 1 0.022249 0.002336 -0.004928 0.000000 0.000000 0.000000
# 2 0.002336 0.009627 -0.001704 0.000000 0.000000 0.000000
# 3 -0.004928 -0.001704 0.012233 0.000000 0.000000 0.000000
# 4 0.000000 0.000000 0.000000 0.029521 0.000000 0.000000
# 5 0.000000 0.000000 0.000000 0.000000 0.072352 0.000000
# 6 0.000000 0.000000 0.000000 0.000000 0.000000 0.155279
#
#
# Mechanical properties :
#
#
# Convention : Reuss Voigt Hill
#
# Bulk Modulus (GPa) = 28.15544 32.48798 30.32171
# Shear Modulus (GPa) = 15.54279 25.98923 20.76601
#
# Velocity S-wave (km/s) = 2.83011 3.65961 3.27126
# Velocity P-wave (km/s) = 5.01881 5.88207 5.46750
#
# Compressibility (1/GPa) = 0.03551712
#
# Stress axis : x y z
#
# Youngs Moduli (GPa) = 44.94675 103.87153 81.74710
#
# Poissons Ratio (x) = -0.24260 0.40283
# Poissons Ratio (y) = -0.10498 0.13926
# Poissons Ratio (z) = 0.22149 0.17695
#
# Static dielectric constant tensor:
#      x y z
#    x 1.667470 0.000000 0.000000 
#    y 0.000000 1.705840 0.000000 
#    z 0.000000 0.000000 1.666240 
# 
# From -- ./inp_files/8645.got.cif
#   From: 2010.05.17/outbox.cif.g08.bks.cpg/sg36_5_cif.got.tgz:8645.got - 2010.06.03 17:41:39.
