data_PCOD9352426
_publ_section_title
;
Structure prediction by ZEFSAII (Michael W. Deem and Ramdas Pophale) SiO2 
 PCOD9352426
Probable space group: C M C 21
;
_chemical_formula_sum "Si O2"
_cell_formula_units_Z 56
_cell_length_a 30.007386
_cell_length_b 14.675946
_cell_length_c 5.376440
_cell_angle_alpha 90.000000
_cell_angle_beta 90.000000
_cell_angle_gamma 90.000000
_cell_volume 2367.713081
_symmetry_space_group_name_H-M "C M C 21"
_symmetry_group_IT_number 36
_symmetry_cell_setting 'orthorhombic'
loop_
_space_group_symop_operation_xyz
x,y,z
-x,-y,1/2+z
x,-y,1/2+z
-x,y,z
1/2+x,1/2+y,z
1/2-x,1/2-y,1/2+z
1/2+x,1/2-y,1/2+z
1/2-x,1/2+y,z
loop_
_atom_site_type_symbol
_atom_site_label
_atom_site_fract_x
_atom_site_fract_y
_atom_site_fract_z
Si Si1 0.175702 0.104910 0.337730
Si Si2 0.075342 0.527707 0.765057
Si Si3 0.449325 0.338860 0.201397
Si Si4 0.261556 0.197201 0.202116
Si Si5 0.140793 0.099281 0.838453
Si Si6 0.825313 0.452249 0.777182
Si Si7 0.051883 0.723430 0.703061
O O1 0.226308 0.116361 0.259292
O O2 0.165365 0.147383 0.607171
O O3 0.161940 0.000192 0.370988
O O4 0.147502 0.145034 0.106887
O O5 0.051426 0.492631 0.521100
O O6 0.121487 0.470014 0.778650
O O7 0.082498 0.635369 0.738923
O O8 0.500000 0.374062 0.210015
O O9 0.410377 0.409985 0.257817
O O10 0.444097 0.267344 0.429573
O O11 0.441773 0.293068 0.932539
O O12 0.249749 0.266306 0.427036
O O13 0.309408 0.150184 0.231157
O O14 0.808624 0.511557 0.542777
O O15 0.000000 0.692877 0.724548
#
# Coordination Sequence:
#
# PCOD9352426 Si02
#       7
#     8   8   8   8   8   8   8
#     4  10  23  41  65  93 131 164 214 260 326 374
#     4  10  21  40  58  89 124 170 213 258 319 373
#     4  10  21  40  64  95 132 168 209 261 317 372
#     4  12  26  46  68  98 128 168 220 274 326 384
#     4  10  21  42  65  95 129 173 203 259 321 381
#     4  10  23  43  67  89 131 169 214 263 324 382
#     4  10  21  38  63  95 131 168 211 265 315 370
#
# _framework density 23.651515
#
# number of rings (size 3 to 8) (size 9 to 14) (size 15 to 20)
#    0.000    1.714    0.000    3.429    4.000    0.571 
#   30.857    2.857    0.000    0.000    0.000    0.000 
#    0.000    0.000    0.000    0.000    0.000    0.000 
#
# Total GULP energy -156379.603078 kJ/mol
# GULP energy per Si atom -5584.985824 kJ/mol
# Density = 2.359768 g / cm^3
# Si number density = 23.651515 Si / 1000 Ang^3
#
#
#
# Elastic Constant Matrix: (Units=GPa)
#
#
# Indices 1 2 3 4 5 6 
#
# 1 86.2423 25.5045 -7.3235 0.0000 0.0000 0.0000
# 2 25.5045 50.8234 -10.9020 0.0000 0.0000 0.0000
# 3 -7.3235 -10.9020 163.0861 0.0000 0.0000 0.0000
# 4 0.0000 0.0000 0.0000 28.7776 0.0000 0.0000
# 5 0.0000 0.0000 0.0000 0.0000 -185.0924 0.0000
# 6 0.0000 0.0000 0.0000 0.0000 0.0000 -279.4251
#
#
#
# Elastic Compliance Matrix: (Units=1/GPa)
#
#
# Indices 1 2 3 4 5 6 
#
# 1 0.013620 -0.006801 0.000157 0.000000 0.000000 0.000000
# 2 -0.006801 0.023358 0.001256 0.000000 0.000000 0.000000
# 3 0.000157 0.001256 0.006223 0.000000 0.000000 0.000000
# 4 0.000000 0.000000 0.000000 0.034749 0.000000 0.000000
# 5 0.000000 0.000000 0.000000 0.000000 -0.005403 0.000000
# 6 0.000000 0.000000 0.000000 0.000000 0.000000 -0.003579
#
#
# Mechanical properties :
#
#
# Convention : Reuss Voigt Hill
#
# Bulk Modulus (GPa) = 30.84060 34.96775 32.90418
# Shear Modulus (GPa) = 55.21605 -67.62313 -6.20354
#
# Velocity S-wave (km/s) = 4.83698 -5.35290 -1.62129
# Velocity P-wave (km/s) = 6.65305 4.83612 3.23071
#
# Compressibility (1/GPa) = 0.03242479
#
# Stress axis : x y z
#
# Youngs Moduli (GPa) = 73.42205 42.81113 160.70080
#
# Poissons Ratio (x) = 0.29117 -0.02522
# Poissons Ratio (y) = 0.49935 -0.20185
# Poissons Ratio (z) = -0.01152 -0.05377
#
# Static dielectric constant tensor:
#      x y z
#    x 1.965120 0.000000 0.000000 
#    y 0.000000 1.946930 0.000000 
#    z 0.000000 0.000000 1.992180 
# 
# From -- ./inp_files/1863.got.cif
#   From: 2010.05.17/outbox.cif.g08.bks.cpg/sg36_1_cif.got.tgz:1863.got - 2010.06.03 17:41:39.
