data_PCOD9352844
_publ_section_title
;
Structure prediction by ZEFSAII (Michael W. Deem and Ramdas Pophale) SiO2 
 PCOD9352844
Probable space group: C M C 21
;
_chemical_formula_sum "Si O2"
_cell_formula_units_Z 32
_cell_length_a 17.157673
_cell_length_b 11.888877
_cell_length_c 5.372200
_cell_angle_alpha 90.000000
_cell_angle_beta 90.000000
_cell_angle_gamma 90.000000
_cell_volume 1095.850709
_symmetry_space_group_name_H-M "C M C 21"
_symmetry_group_IT_number 36
_symmetry_cell_setting 'orthorhombic'
loop_
_space_group_symop_operation_xyz
x,y,z
-x,-y,1/2+z
x,-y,1/2+z
-x,y,z
1/2+x,1/2+y,z
1/2-x,1/2-y,1/2+z
1/2+x,1/2-y,1/2+z
1/2-x,1/2+y,z
loop_
_atom_site_type_symbol
_atom_site_label
_atom_site_fract_x
_atom_site_fract_y
_atom_site_fract_z
Si Si1 0.303912 0.908569 0.714130
Si Si2 0.588889 0.118977 0.821623
Si Si3 0.910855 0.159135 0.045194
Si Si4 0.181551 0.895177 0.040697
O O1 0.350398 0.831687 0.521056
O O2 0.236579 0.990179 0.594529
O O3 0.371916 0.997974 0.780309
O O4 0.257076 0.835440 0.913716
O O5 0.500000 0.108243 0.908388
O O6 0.588102 0.206177 0.595243
O O7 0.861494 0.131291 0.798582
O O8 0.000000 0.123114 0.004911
O O9 0.881923 0.109361 0.314133
#
# Coordination Sequence:
#
# PCOD9352844 Si02
#       4
#     8   8   8   8
#     4  10  23  44  71 107 147 191 243 302 365 438
#     4  10  22  42  72 108 148 193 241 299 368 440
#     4  11  25  46  72 104 145 193 246 303 364 434
#     4  11  24  46  71 105 146 189 246 302 363 434
#
# _framework density 29.201055
#
# number of rings (size 3 to 8) (size 9 to 14) (size 15 to 20)
#    0.000    1.500    0.000    4.500    0.000    8.000 
#    0.000   20.000    0.000    0.000    0.000    0.000 
#    0.000   10.000    0.000    0.000    0.000    0.000 
#
# Total GULP energy -89269.218410 kJ/mol
# GULP energy per Si atom -5579.326151 kJ/mol
# Density = 2.913459 g / cm^3
# Si number density = 29.201055 Si / 1000 Ang^3
#
#
#
# Elastic Constant Matrix: (Units=GPa)
#
#
# Indices 1 2 3 4 5 6 
#
# 1 320.6512 76.8072 158.6090 0.0000 0.0000 0.0000
# 2 76.8072 115.3453 55.2807 0.0000 0.0000 0.0000
# 3 158.6090 55.2807 257.2803 0.0000 0.0000 0.0000
# 4 0.0000 0.0000 0.0000 50.2793 0.0000 0.0000
# 5 0.0000 0.0000 0.0000 0.0000 70.5516 0.0000
# 6 0.0000 0.0000 0.0000 0.0000 0.0000 51.7877
#
#
#
# Elastic Compliance Matrix: (Units=1/GPa)
#
#
# Indices 1 2 3 4 5 6 
#
# 1 0.004873 -0.002012 -0.002572 0.000000 0.000000 0.000000
# 2 -0.002012 0.010496 -0.001015 0.000000 0.000000 0.000000
# 3 -0.002572 -0.001015 0.005690 0.000000 0.000000 0.000000
# 4 0.000000 0.000000 0.000000 0.019889 0.000000 0.000000
# 5 0.000000 0.000000 0.000000 0.000000 0.014174 0.000000
# 6 0.000000 0.000000 0.000000 0.000000 0.000000 0.019310
#
#
# Mechanical properties :
#
#
# Convention : Reuss Voigt Hill
#
# Bulk Modulus (GPa) = 101.40218 141.63005 121.51611
# Shear Modulus (GPa) = 56.23325 61.36238 58.79782
#
# Velocity S-wave (km/s) = 4.39307 4.58905 4.49213
# Velocity P-wave (km/s) = 7.78030 8.75706 8.28309
#
# Compressibility (1/GPa) = 0.00986172
#
# Stress axis : x y z
#
# Youngs Moduli (GPa) = 205.22673 95.27595 175.74192
#
# Poissons Ratio (x) = 0.19171 0.45193
# Poissons Ratio (y) = 0.41296 0.17833
# Poissons Ratio (z) = 0.52775 0.09668
#
# Static dielectric constant tensor:
#      x y z
#    x 2.215440 0.000000 0.000000 
#    y 0.000000 2.734240 0.000000 
#    z 0.000000 0.000000 2.825010 
# 
# From -- ./inp_files/4495.got.cif
#   From: 2010.05.17/outbox.cif.g08.bks.cpg/sg36_3_cif.got.tgz:4495.got - 2010.06.03 17:41:39.
