data_PCOD9352315
_publ_section_title
;
Structure prediction by ZEFSAII (Michael W. Deem and Ramdas Pophale) SiO2 
 PCOD9352315
Probable space group: C M C 21
;
_chemical_formula_sum "Si O2"
_cell_formula_units_Z 64
_cell_length_a 22.853142
_cell_length_b 16.173663
_cell_length_c 8.349303
_cell_angle_alpha 90.000000
_cell_angle_beta 90.000000
_cell_angle_gamma 90.000000
_cell_volume 3086.061169
_symmetry_space_group_name_H-M "C M C 21"
_symmetry_group_IT_number 36
_symmetry_cell_setting 'orthorhombic'
loop_
_space_group_symop_operation_xyz
x,y,z
-x,-y,1/2+z
x,-y,1/2+z
-x,y,z
1/2+x,1/2+y,z
1/2-x,1/2-y,1/2+z
1/2+x,1/2-y,1/2+z
1/2-x,1/2+y,z
loop_
_atom_site_type_symbol
_atom_site_label
_atom_site_fract_x
_atom_site_fract_y
_atom_site_fract_z
Si Si1 0.068278 0.225972 0.896750
Si Si2 0.283496 0.746979 0.492348
Si Si3 0.675295 0.478620 0.857659
Si Si4 0.934408 0.581771 0.347470
Si Si5 0.739816 0.068978 0.091684
Si Si6 0.630348 0.619459 0.634828
Si Si7 0.132763 0.543159 0.640717
Si Si8 0.663414 0.230187 0.645872
O O1 0.076421 0.320646 0.837357
O O2 0.083749 0.167710 0.745321
O O3 0.000000 0.215618 0.941512
O O4 0.111118 0.221266 0.053176
O O5 0.287408 0.842812 0.547419
O O6 0.317262 0.685898 0.613507
O O7 0.309977 0.737851 0.313936
O O8 0.215180 0.726759 0.514552
O O9 0.728256 0.433140 0.763834
O O10 0.642939 0.537004 0.733688
O O11 0.708236 0.544041 0.972070
O O12 0.631082 0.418791 0.954080
O O13 0.886498 0.526594 0.262787
O O14 0.923589 0.554868 0.528845
O O15 0.000000 0.564844 0.293633
O O16 0.692318 0.996242 0.073466
O O17 0.145330 0.636703 0.690733
#
# Coordination Sequence:
#
# PCOD9352315 Si02
#       8
#     8   8   8   8   8   8   8   8
#     4  10  23  44  66  89 123 165 214 269 321 378
#     4  12  22  36  62  93 130 170 210 258 315 384
#     4  10  22  37  58  87 125 158 199 259 318 377
#     4  10  21  37  58  84 118 161 205 253 297 344
#     4  11  20  34  55  89 127 164 203 250 308 373
#     4  11  23  41  63  90 120 160 205 258 327 389
#     4  11  21  35  55  84 122 162 206 245 294 365
#     4  11  23  38  59  92 129 172 216 260 316 372
#
# _framework density 20.738409000000001
#
# number of rings (size 3 to 8) (size 9 to 14) (size 15 to 20)
#    0.000    1.250    0.000    7.875    0.000    4.500 
#    0.000    1.250    0.000    0.000    0.000    0.000 
#    0.000    0.000    0.000    0.000    0.000    0.000 
#
# Total GULP energy -178301.043700 kJ/mol
# GULP energy per Si atom -5571.907616 kJ/mol
# Density = 2.069121 g / cm^3
# Si number density = 20.738409 Si / 1000 Ang^3
#
#
#
# Elastic Constant Matrix: (Units=GPa)
#
#
# Indices 1 2 3 4 5 6 
#
# 1 84.7017 17.6938 44.6194 0.0000 0.0000 0.0000
# 2 17.6938 78.7780 41.2827 0.0000 0.0000 0.0000
# 3 44.6194 41.2827 99.6144 0.0000 0.0000 0.0000
# 4 0.0000 0.0000 0.0000 -101.1897 0.0000 0.0000
# 5 0.0000 0.0000 0.0000 0.0000 143.8063 0.0000
# 6 0.0000 0.0000 0.0000 0.0000 0.0000 7.1020
#
#
#
# Elastic Compliance Matrix: (Units=1/GPa)
#
#
# Indices 1 2 3 4 5 6 
#
# 1 0.015455 0.000200 -0.007005 0.000000 0.000000 0.000000
# 2 0.000200 0.016218 -0.006811 0.000000 0.000000 0.000000
# 3 -0.007005 -0.006811 0.015999 0.000000 0.000000 0.000000
# 4 0.000000 0.000000 0.000000 -0.009882 0.000000 0.000000
# 5 0.000000 0.000000 0.000000 0.000000 0.006954 0.000000
# 6 0.000000 0.000000 0.000000 0.000000 0.000000 0.140805
#
#
# Mechanical properties :
#
#
# Convention : Reuss Voigt Hill
#
# Bulk Modulus (GPa) = 48.92478 52.25398 50.58938
# Shear Modulus (GPa) = 22.76931 20.57693 21.67312
#
# Velocity S-wave (km/s) = 3.31710 3.15336 3.23626
# Velocity P-wave (km/s) = 6.18979 6.20561 6.19770
#
# Compressibility (1/GPa) = 0.02043954
#
# Stress axis : x y z
#
# Youngs Moduli (GPa) = 64.70545 61.65955 62.50373
#
# Poissons Ratio (x) = -0.01232 0.43786
# Poissons Ratio (y) = -0.01293 0.42569
# Poissons Ratio (z) = 0.45328 0.41995
#
# Static dielectric constant tensor:
#      x y z
#    x 1.710000 0.000000 0.000000 
#    y 0.000000 1.855920 0.000000 
#    z 0.000000 0.000000 1.843680 
# 
# From -- ./inp_files/5664.got.cif
#   From: 2010.05.17/outbox.cif.g08.bks.cpg/sg36_3_cif.got.tgz:5664.got - 2010.06.03 17:41:39.
