data_PCOD9352233
_publ_section_title
;
Structure prediction by ZEFSAII (Michael W. Deem and Ramdas Pophale) SiO2 
 PCOD9352233
Probable space group: C M C 21
;
_chemical_formula_sum "Si O2"
_cell_formula_units_Z 64
_cell_length_a 8.198989
_cell_length_b 20.816796
_cell_length_c 20.553278
_cell_angle_alpha 90.000000
_cell_angle_beta 90.000000
_cell_angle_gamma 90.000000
_cell_volume 3507.965281
_symmetry_space_group_name_H-M "C M C 21"
_symmetry_group_IT_number 36
_symmetry_cell_setting 'orthorhombic'
loop_
_space_group_symop_operation_xyz
x,y,z
-x,-y,1/2+z
x,-y,1/2+z
-x,y,z
1/2+x,1/2+y,z
1/2-x,1/2-y,1/2+z
1/2+x,1/2-y,1/2+z
1/2-x,1/2+y,z
loop_
_atom_site_type_symbol
_atom_site_label
_atom_site_fract_x
_atom_site_fract_y
_atom_site_fract_z
Si Si1 0.193899 0.837322 0.365890
Si Si2 0.195866 0.171548 0.719886
Si Si3 0.302966 0.057404 0.631823
Si Si4 0.198695 0.582019 0.096770
Si Si5 0.696542 0.953347 0.450536
Si Si6 0.699831 0.775244 0.615124
Si Si7 0.196808 0.406989 0.984602
Si Si8 0.306342 0.733737 0.471004
O O1 0.260300 0.825041 0.293366
O O2 0.247534 0.905840 0.394585
O O3 0.242715 0.782412 0.416901
O O4 0.000000 0.837743 0.361736
O O5 0.235541 0.103452 0.687001
O O6 0.257454 0.227128 0.671215
O O7 0.000000 0.178299 0.722171
O O8 0.500000 0.058727 0.634347
O O9 0.254449 0.084370 0.560482
O O10 0.249761 0.982898 0.633392
O O11 0.251211 0.650768 0.123697
O O12 0.000000 0.581773 0.096833
O O13 0.248616 0.574416 0.021123
O O14 0.500000 0.953465 0.451040
O O15 0.750192 0.027679 0.448433
O O16 0.500000 0.773887 0.615073
O O17 0.754605 0.751953 0.543572
O O18 0.262197 0.340132 0.958119
O O19 0.000000 0.405029 0.982983
O O20 0.500000 0.740945 0.472608
#
# Coordination Sequence:
#
# PCOD9352233 Si02
#       8
#     8   8   8   8   8   8   8   8
#     4  11  23  36  51  75 112 149 182 225 273 320
#     4  10  21  36  52  74 108 146 176 213 270 327
#     4   9  17  30  52  79 104 131 167 218 266 313
#     4   8  14  28  52  79 101 123 165 220 263 301
#     4   9  17  33  55  78 104 137 177 218 266 323
#     4   9  16  30  54  78 100 133 178 219 258 314
#     4   9  18  32  53  82 112 134 166 225 278 315
#     4  11  20  33  57  81 105 143 185 224 266 323
#
# _framework density 18.244195000000001
#
# number of rings (size 3 to 8) (size 9 to 14) (size 15 to 20)
#    0.000    2.500    2.500    2.250    0.000    1.500 
#    0.000    3.125    0.000    3.000    0.000    0.000 
#    0.000    0.000    0.000    0.000    0.000    0.000 
#
# Total GULP energy -178443.272088 kJ/mol
# GULP energy per Si atom -5576.352253 kJ/mol
# Density = 1.820267 g / cm^3
# Si number density = 18.244195 Si / 1000 Ang^3
#
#
#
# Elastic Constant Matrix: (Units=GPa)
#
#
# Indices 1 2 3 4 5 6 
#
# 1 -0.0392 -6.4552 3.9466 0.0000 0.0000 0.0000
# 2 -6.4552 132.9698 65.7999 0.0000 0.0000 0.0000
# 3 3.9466 65.7999 112.7268 0.0000 0.0000 0.0000
# 4 0.0000 0.0000 0.0000 21.6733 0.0000 0.0000
# 5 0.0000 0.0000 0.0000 0.0000 18.2884 0.0000
# 6 0.0000 0.0000 0.0000 0.0000 0.0000 25.9260
#
#
#
# Elastic Compliance Matrix: (Units=1/GPa)
#
#
# Indices 1 2 3 4 5 6 
#
# 1 -1.011474 -0.093689 0.090100 0.000000 0.000000 0.000000
# 2 -0.093689 0.001897 0.002173 0.000000 0.000000 0.000000
# 3 0.090100 0.002173 0.004448 0.000000 0.000000 0.000000
# 4 0.000000 0.000000 0.000000 0.046140 0.000000 0.000000
# 5 0.000000 0.000000 0.000000 0.000000 0.054679 0.000000
# 6 0.000000 0.000000 0.000000 0.000000 0.000000 0.038571
#
#
# Mechanical properties :
#
#
# Convention : Reuss Voigt Hill
#
# Bulk Modulus (GPa) = -0.99210 41.36000 20.18395
# Shear Modulus (GPa) = -4.17051 25.33529 10.58239
#
# Velocity S-wave (km/s) = -1.51357 3.73054 2.41102
# Velocity P-wave (km/s) = 1.89724 6.42459 4.34027
#
# Compressibility (1/GPa) = -1.00796284
#
# Stress axis : x y z
#
# Youngs Moduli (GPa) = -0.98866 527.15232 224.80686
#
# Poissons Ratio (x) = 49.38857 -20.25504
# Poissons Ratio (y) = -0.09263 -0.48847
# Poissons Ratio (z) = 0.08908 -1.14541
#
# Static dielectric constant tensor:
#      x y z
#    x 1.646480 0.000000 0.000000 
#    y 0.000000 1.635880 0.000000 
#    z 0.000000 0.000000 1.617340 
# 
# From -- ./inp_files/13796.got.cif
#   From: 2010.05.17/outbox.cif.g08.bks.cpg/sg36_7_cif.got.tgz:13796.got - 2010.06.03 17:41:39.
