data_PCOD9352119
_publ_section_title
;
Structure prediction by ZEFSAII (Michael W. Deem and Ramdas Pophale) SiO2 
 PCOD9352119
Probable space group: C M C 21
;
_chemical_formula_sum "Si O2"
_cell_formula_units_Z 52
_cell_length_a 7.491672
_cell_length_b 14.604361
_cell_length_c 19.751277
_cell_angle_alpha 90.000000
_cell_angle_beta 90.000000
_cell_angle_gamma 90.000000
_cell_volume 2161.008595
_symmetry_space_group_name_H-M "C M C 21"
_symmetry_group_IT_number 36
_symmetry_cell_setting 'orthorhombic'
loop_
_space_group_symop_operation_xyz
x,y,z
-x,-y,1/2+z
x,-y,1/2+z
-x,y,z
1/2+x,1/2+y,z
1/2-x,1/2-y,1/2+z
1/2+x,1/2-y,1/2+z
1/2-x,1/2+y,z
loop_
_atom_site_type_symbol
_atom_site_label
_atom_site_fract_x
_atom_site_fract_y
_atom_site_fract_z
Si Si1 0.711363 0.197103 0.173030
Si Si2 0.788242 0.008023 0.129451
Si Si3 0.000000 0.579905 0.731881
Si Si4 0.211460 0.382526 0.814819
Si Si5 0.308443 0.589762 0.831092
Si Si6 0.213550 0.265442 0.430303
Si Si7 0.783956 0.169175 0.565342
O O1 0.500000 0.209893 0.182495
O O2 0.745515 0.114290 0.120532
O O3 0.845579 0.377102 0.281903
O O4 0.781947 0.160835 0.244654
O O5 0.000000 0.998595 0.145316
O O6 0.658113 0.974670 0.189021
O O7 0.746205 0.938625 0.068162
O O8 0.785415 0.713229 0.635893
O O9 0.295598 0.479851 0.833894
O O10 0.236467 0.308971 0.873314
O O11 0.000000 0.404143 0.805676
O O12 0.500000 0.617912 0.803115
O O13 0.285471 0.637983 0.903608
O O14 0.281825 0.225036 0.501157
O O15 0.000000 0.271980 0.434394
O O16 0.000000 0.178010 0.565766
#
# Coordination Sequence:
#
# PCOD9352119 Si02
#       7
#     8   8   4   8   8   8   8
#     4  10  20  40  65  95 128 168 216 273 329 383
#     4  11  22  42  67  97 133 170 214 272 331 391
#     4  12  22  42  66 104 132 162 220 272 340 386
#     4  11  22  40  66 100 131 169 223 277 332 393
#     4  12  24  43  68  98 135 173 218 275 335 393
#     4  11  24  44  64  97 139 180 225 272 326 396
#     4   9  23  43  66  93 135 180 220 267 326 392
#
# _framework density 24.062840000000001
#
# number of rings (size 3 to 8) (size 9 to 14) (size 15 to 20)
#    0.000    1.231    3.846    1.385    2.154    1.846 
#    4.154    3.077    0.000    0.000    0.000    0.000 
#    0.000    0.000    0.000    0.000    0.000    0.000 
#
# Total GULP energy -144953.398843 kJ/mol
# GULP energy per Si atom -5575.130725 kJ/mol
# Density = 2.400807 g / cm^3
# Si number density = 24.062840 Si / 1000 Ang^3
#
#
#
# Elastic Constant Matrix: (Units=GPa)
#
#
# Indices 1 2 3 4 5 6 
#
# 1 147.5924 -19.5102 -13.0300 0.0000 0.0000 0.0000
# 2 -19.5102 112.0264 23.9379 0.0000 0.0000 0.0000
# 3 -13.0300 23.9379 68.5776 0.0000 0.0000 0.0000
# 4 0.0000 0.0000 0.0000 27.9768 0.0000 0.0000
# 5 0.0000 0.0000 0.0000 0.0000 15.7470 0.0000
# 6 0.0000 0.0000 0.0000 0.0000 0.0000 36.1769
#
#
#
# Elastic Compliance Matrix: (Units=1/GPa)
#
#
# Indices 1 2 3 4 5 6 
#
# 1 0.006995 0.001010 0.000977 0.000000 0.000000 0.000000
# 2 0.001010 0.009792 -0.003226 0.000000 0.000000 0.000000
# 3 0.000977 -0.003226 0.015894 0.000000 0.000000 0.000000
# 4 0.000000 0.000000 0.000000 0.035744 0.000000 0.000000
# 5 0.000000 0.000000 0.000000 0.000000 0.063504 0.000000
# 6 0.000000 0.000000 0.000000 0.000000 0.000000 0.027642
#
#
# Mechanical properties :
#
#
# Convention : Reuss Voigt Hill
#
# Bulk Modulus (GPa) = 33.11175 34.55464 33.83320
# Shear Modulus (GPa) = 29.05002 38.43340 33.74171
#
# Velocity S-wave (km/s) = 3.47833 4.00085 3.74870
# Velocity P-wave (km/s) = 5.47011 5.97777 5.72956
#
# Compressibility (1/GPa) = 0.03020076
#
# Stress axis : x y z
#
# Youngs Moduli (GPa) = 142.95736 102.12794 62.91803
#
# Poissons Ratio (x) = -0.10310 -0.06145
# Poissons Ratio (y) = -0.14432 0.20298
# Poissons Ratio (z) = -0.13963 0.32947
#
# Static dielectric constant tensor:
#      x y z
#    x 1.889130 0.000000 0.000000 
#    y 0.000000 1.979720 0.000000 
#    z 0.000000 0.000000 1.950310 
# 
# From -- ./inp_files/16479.got.cif
#   From: 2010.05.17/outbox.cif.g08.bks.cpg/sg36_9_cif.got.tgz:16479.got - 2010.06.03 17:41:39.
