data_PCOD9352018
_publ_section_title
;
Structure prediction by ZEFSAII (Michael W. Deem and Ramdas Pophale) SiO2 
 PCOD9352018
Probable space group: C M C 21
;
_chemical_formula_sum "Si O2"
_cell_formula_units_Z 64
_cell_length_a 8.617310
_cell_length_b 24.403352
_cell_length_c 15.793312
_cell_angle_alpha 90.000000
_cell_angle_beta 90.000000
_cell_angle_gamma 90.000000
_cell_volume 3321.195310
_symmetry_space_group_name_H-M "C M C 21"
_symmetry_group_IT_number 36
_symmetry_cell_setting 'orthorhombic'
loop_
_space_group_symop_operation_xyz
x,y,z
-x,-y,1/2+z
x,-y,1/2+z
-x,y,z
1/2+x,1/2+y,z
1/2-x,1/2-y,1/2+z
1/2+x,1/2-y,1/2+z
1/2-x,1/2+y,z
loop_
_atom_site_type_symbol
_atom_site_label
_atom_site_fract_x
_atom_site_fract_y
_atom_site_fract_z
Si Si1 0.687321 0.129313 0.199940
Si Si2 0.687150 0.144815 0.011637
Si Si3 0.810731 0.549318 0.349082
Si Si4 0.814431 0.747569 0.438372
Si Si5 0.312084 0.076812 0.845765
Si Si6 0.684329 0.747756 0.251209
Si Si7 0.815811 0.858177 0.184467
Si Si8 0.187225 0.626256 0.503488
O O1 0.500000 0.132040 0.205463
O O2 0.739920 0.083430 0.266512
O O3 0.751915 0.188411 0.226100
O O4 0.729045 0.119134 0.102215
O O5 0.500000 0.150545 0.009030
O O6 0.761515 0.204630 0.001243
O O7 0.735108 0.108199 0.931526
O O8 0.760944 0.486388 0.347797
O O9 0.762820 0.582281 0.433107
O O10 0.000000 0.549316 0.348944
O O11 0.735178 0.758432 0.348018
O O12 0.770816 0.687176 0.470838
O O13 0.000000 0.748912 0.427487
O O14 0.500000 0.078099 0.842149
O O15 0.248682 0.107772 0.763821
O O16 0.500000 0.748908 0.244380
O O17 0.753533 0.796219 0.194393
O O18 0.757495 0.882273 0.095731
O O19 0.000000 0.857472 0.187256
O O20 0.000000 0.624294 0.509790
#
# Coordination Sequence:
#
# PCOD9352018 Si02
#       8
#     8   8   8   8   8   8   8   8
#     4  10  20  38  61  90 122 156 196 243 296 354
#     4  10  21  35  57  88 121 155 196 241 292 350
#     4   9  19  38  64  90 119 156 202 248 292 346
#     4  11  21  36  61  89 120 153 190 240 302 360
#     4  10  21  39  62  89 119 158 205 250 293 346
#     4  12  23  37  60  89 120 156 196 243 301 361
#     4  12  25  40  60  88 122 161 201 247 300 353
#     4  10  21  39  63  91 121 155 198 244 296 360
#
# _framework density 19.27017
#
# number of rings (size 3 to 8) (size 9 to 14) (size 15 to 20)
#    0.000    1.500    2.500    3.375    0.000    4.500 
#    0.000    5.000    0.000    1.500    0.000    0.000 
#    0.000    0.000    0.000    0.000    0.000    0.000 
#
# Total GULP energy -178874.670410 kJ/mol
# GULP energy per Si atom -5589.833450 kJ/mol
# Density = 1.922631 g / cm^3
# Si number density = 19.270170 Si / 1000 Ang^3
#
#
#
# Elastic Constant Matrix: (Units=GPa)
#
#
# Indices 1 2 3 4 5 6 
#
# 1 25.3972 20.6613 25.9077 0.0000 0.0000 0.0000
# 2 20.6613 123.4493 37.1311 0.0000 0.0000 0.0000
# 3 25.9077 37.1311 109.1921 0.0000 0.0000 0.0000
# 4 0.0000 0.0000 0.0000 6.5344 0.0000 0.0000
# 5 0.0000 0.0000 0.0000 0.0000 21.8118 0.0000
# 6 0.0000 0.0000 0.0000 0.0000 0.0000 22.3101
#
#
#
# Elastic Compliance Matrix: (Units=1/GPa)
#
#
# Indices 1 2 3 4 5 6 
#
# 1 0.055609 -0.005947 -0.011172 0.000000 0.000000 0.000000
# 2 -0.005947 0.009659 -0.001874 0.000000 0.000000 0.000000
# 3 -0.011172 -0.001874 0.012446 0.000000 0.000000 0.000000
# 4 0.000000 0.000000 0.000000 0.153035 0.000000 0.000000
# 5 0.000000 0.000000 0.000000 0.000000 0.045847 0.000000
# 6 0.000000 0.000000 0.000000 0.000000 0.000000 0.044823
#
#
# Mechanical properties :
#
#
# Convention : Reuss Voigt Hill
#
# Bulk Modulus (GPa) = 25.17031 47.27099 36.22065
# Shear Modulus (GPa) = 13.41752 21.75382 17.58567
#
# Velocity S-wave (km/s) = 2.64158 3.36353 3.02418
# Velocity P-wave (km/s) = 4.73224 6.29829 5.57057
#
# Compressibility (1/GPa) = 0.03972935
#
# Stress axis : x y z
#
# Youngs Moduli (GPa) = 17.98278 103.52644 80.34663
#
# Poissons Ratio (x) = 0.61565 0.89763
# Poissons Ratio (y) = 0.10694 0.15055
# Poissons Ratio (z) = 0.20090 0.19398
#
# Static dielectric constant tensor:
#      x y z
#    x 1.650230 0.000000 0.000000 
#    y 0.000000 1.644120 0.000000 
#    z 0.000000 0.000000 1.672080 
# 
# From -- ./inp_files/10916.got.cif
#   From: 2010.05.17/outbox.cif.g08.bks.cpg/sg36_6_cif.got.tgz:10916.got - 2010.06.03 17:41:39.
