data_PCOD9352800
_publ_section_title
;
Structure prediction by ZEFSAII (Michael W. Deem and Ramdas Pophale) SiO2 
 PCOD9352800
Probable space group: C M C 21
;
_chemical_formula_sum "Si O2"
_cell_formula_units_Z 40
_cell_length_a 11.503203
_cell_length_b 15.875063
_cell_length_c 9.488612
_cell_angle_alpha 90.000000
_cell_angle_beta 90.000000
_cell_angle_gamma 90.000000
_cell_volume 1732.754078
_symmetry_space_group_name_H-M "C M C 21"
_symmetry_group_IT_number 36
_symmetry_cell_setting 'orthorhombic'
loop_
_space_group_symop_operation_xyz
x,y,z
-x,-y,1/2+z
x,-y,1/2+z
-x,y,z
1/2+x,1/2+y,z
1/2-x,1/2-y,1/2+z
1/2+x,1/2-y,1/2+z
1/2-x,1/2+y,z
loop_
_atom_site_type_symbol
_atom_site_label
_atom_site_fract_x
_atom_site_fract_y
_atom_site_fract_z
Si Si1 0.635862 0.503583 0.839480
Si Si2 0.133041 0.816092 0.490864
Si Si3 0.741913 0.404187 0.084745
Si Si4 0.500000 0.941661 0.021594
Si Si5 0.500000 0.894694 0.701572
Si Si6 0.713062 0.230645 0.225892
O O1 0.500000 0.488452 0.807903
O O2 0.643223 0.588780 0.934502
O O3 0.706209 0.524270 0.698218
O O4 0.691648 0.431066 0.934201
O O5 0.172586 0.805208 0.651016
O O6 0.211480 0.757620 0.388944
O O7 0.000000 0.789469 0.469917
O O8 0.688272 0.319190 0.147159
O O9 0.881319 0.399007 0.075228
O O10 0.500000 0.940355 0.852969
O O11 0.500000 0.036430 0.079677
O O12 0.387865 0.835524 0.696574
#
# Coordination Sequence:
#
# PCOD9352800 Si02
#       6
#     8   8   8   4   4   8
#     4  10  22  41  67  98 145 182 240 296 361 433
#     4  10  22  44  66  98 140 188 228 300 360 431
#     4  11  24  41  70 106 138 196 238 298 368 439
#     4  12  26  46  76 104 154 192 244 298 378 444
#     4  12  26  48  74 106 142 192 242 312 358 448
#     4  11  24  43  74 100 147 183 241 303 367 423
#
# _framework density 23.084638000000002
#
# number of rings (size 3 to 8) (size 9 to 14) (size 15 to 20)
#    0.000    1.200    1.000    4.200    4.200    3.200 
#    1.800    0.000    0.000    0.000    0.000    0.000 
#    0.000    0.000    0.000    0.000    0.000    0.000 
#
# Total GULP energy -112047.732894 kJ/mol
# GULP energy per Si atom -5602.386645 kJ/mol
# Density = 2.303210 g / cm^3
# Si number density = 23.084638 Si / 1000 Ang^3
#
#
#
# Elastic Constant Matrix: (Units=GPa)
#
#
# Indices 1 2 3 4 5 6 
#
# 1 98.3981 24.9036 54.9099 0.0000 0.0000 0.0000
# 2 24.9036 101.8856 39.0086 0.0000 0.0000 0.0000
# 3 54.9099 39.0086 130.6582 0.0000 0.0000 0.0000
# 4 0.0000 0.0000 0.0000 49.1828 0.0000 0.0000
# 5 0.0000 0.0000 0.0000 0.0000 36.7490 0.0000
# 6 0.0000 0.0000 0.0000 0.0000 0.0000 23.1356
#
#
#
# Elastic Compliance Matrix: (Units=1/GPa)
#
#
# Indices 1 2 3 4 5 6 
#
# 1 0.013419 -0.001266 -0.005262 0.000000 0.000000 0.000000
# 2 -0.001266 0.011201 -0.002812 0.000000 0.000000 0.000000
# 3 -0.005262 -0.002812 0.010704 0.000000 0.000000 0.000000
# 4 0.000000 0.000000 0.000000 0.020332 0.000000 0.000000
# 5 0.000000 0.000000 0.000000 0.000000 0.027212 0.000000
# 6 0.000000 0.000000 0.000000 0.000000 0.000000 0.043223
#
#
# Mechanical properties :
#
#
# Convention : Reuss Voigt Hill
#
# Bulk Modulus (GPa) = 60.07540 63.17622 61.62581
# Shear Modulus (GPa) = 33.26244 35.95480 34.60862
#
# Velocity S-wave (km/s) = 3.80002 3.95083 3.87616
# Velocity P-wave (km/s) = 6.73306 6.94541 6.84005
#
# Compressibility (1/GPa) = 0.01664575
#
# Stress axis : x y z
#
# Youngs Moduli (GPa) = 74.51937 89.27796 93.41909
#
# Poissons Ratio (x) = 0.11298 0.49155
# Poissons Ratio (y) = 0.09430 0.26272
# Poissons Ratio (z) = 0.39210 0.25107
#
# Static dielectric constant tensor:
#      x y z
#    x 1.807480 0.000000 0.000000 
#    y 0.000000 1.909360 0.000000 
#    z 0.000000 0.000000 1.835860 
# 
# From -- ./inp_files/3083.got.cif
#   From: 2010.05.17/outbox.cif.g08.bks.cpg/sg36_2_cif.got.tgz:3083.got - 2010.06.03 17:41:39.
