data_PCOD9352211
_publ_section_title
;
Structure prediction by ZEFSAII (Michael W. Deem and Ramdas Pophale) SiO2 
 PCOD9352211
Probable space group: C M C 21
;
_chemical_formula_sum "Si O2"
_cell_formula_units_Z 48
_cell_length_a 12.834154
_cell_length_b 27.648975
_cell_length_c 7.461191
_cell_angle_alpha 90.000000
_cell_angle_beta 90.000000
_cell_angle_gamma 90.000000
_cell_volume 2647.612603
_symmetry_space_group_name_H-M "C M C 21"
_symmetry_group_IT_number 36
_symmetry_cell_setting 'orthorhombic'
loop_
_space_group_symop_operation_xyz
x,y,z
-x,-y,1/2+z
x,-y,1/2+z
-x,y,z
1/2+x,1/2+y,z
1/2-x,1/2-y,1/2+z
1/2+x,1/2-y,1/2+z
1/2-x,1/2+y,z
loop_
_atom_site_type_symbol
_atom_site_label
_atom_site_fract_x
_atom_site_fract_y
_atom_site_fract_z
Si Si1 0.383962 0.383526 0.235980
Si Si2 0.119575 0.030874 0.018461
Si Si3 0.121274 0.358839 0.872128
Si Si4 0.879641 0.721910 0.075944
Si Si5 0.719046 0.196592 0.707955
Si Si6 0.303929 0.567147 0.394255
O O1 0.500000 0.364030 0.265146
O O2 0.372543 0.431208 0.357016
O O3 0.295104 0.345404 0.281190
O O4 0.368694 0.398918 0.029383
O O5 0.143729 0.058093 0.202646
O O6 0.000000 0.012223 0.023479
O O7 0.195418 0.985744 0.985651
O O8 0.134612 0.326790 0.692919
O O9 0.194176 0.406009 0.870793
O O10 0.000000 0.371080 0.891280
O O11 0.157756 0.325383 0.038641
O O12 0.795751 0.760701 0.144938
O O13 0.000000 0.737665 0.101107
O O14 0.856065 0.712823 0.867404
#
# Coordination Sequence:
#
# PCOD9352211 Si02
#       6
#     8   8   8   8   8   8
#     4  10  21  35  55  84 117 150 189 237 291 348
#     4  11  20  34  57  85 118 151 184 236 297 346
#     4  10  23  42  61  82 118 160 198 242 291 346
#     4  11  22  39  63  89 119 156 197 241 295 351
#     4  11  21  39  62  88 118 154 195 242 293 352
#     4  11  21  35  58  82 114 153 193 234 291 349
#
# _framework density 18.129539999999999
#
# number of rings (size 3 to 8) (size 9 to 14) (size 15 to 20)
#    0.000    1.333    3.333    3.500    0.000    0.000 
#    0.000    0.833    0.000    0.000    0.000    0.000 
#    0.000    0.000    0.000    0.000    0.000    0.000 
#
# Total GULP energy -134003.779609 kJ/mol
# GULP energy per Si atom -5583.490817 kJ/mol
# Density = 1.808828 g / cm^3
# Si number density = 18.129540 Si / 1000 Ang^3
#
#
#
# Elastic Constant Matrix: (Units=GPa)
#
#
# Indices 1 2 3 4 5 6 
#
# 1 90.1615 42.3209 29.9877 0.0000 0.0000 0.0000
# 2 42.3209 66.5478 16.7185 0.0000 0.0000 0.0000
# 3 29.9877 16.7185 94.9285 0.0000 0.0000 0.0000
# 4 0.0000 0.0000 0.0000 23.2379 0.0000 0.0000
# 5 0.0000 0.0000 0.0000 0.0000 25.3668 0.0000
# 6 0.0000 0.0000 0.0000 0.0000 0.0000 26.7045
#
#
#
# Elastic Compliance Matrix: (Units=1/GPa)
#
#
# Indices 1 2 3 4 5 6 
#
# 1 0.016915 -0.009851 -0.003609 0.000000 0.000000 0.000000
# 2 -0.009851 0.021459 -0.000667 0.000000 0.000000 0.000000
# 3 -0.003609 -0.000667 0.011792 0.000000 0.000000 0.000000
# 4 0.000000 0.000000 0.000000 0.043033 0.000000 0.000000
# 5 0.000000 0.000000 0.000000 0.000000 0.039422 0.000000
# 6 0.000000 0.000000 0.000000 0.000000 0.000000 0.037447
#
#
# Mechanical properties :
#
#
# Convention : Reuss Voigt Hill
#
# Bulk Modulus (GPa) = 45.63610 47.74355 46.68982
# Shear Modulus (GPa) = 24.31610 25.90256 25.10933
#
# Velocity S-wave (km/s) = 3.66627 3.78398 3.72559
# Velocity P-wave (km/s) = 6.56878 6.74412 6.65703
#
# Compressibility (1/GPa) = 0.02191248
#
# Stress axis : x y z
#
# Youngs Moduli (GPa) = 59.11845 46.60061 84.80499
#
# Poissons Ratio (x) = 0.45904 0.30603
# Poissons Ratio (y) = 0.58235 0.05661
# Poissons Ratio (z) = 0.21334 0.03111
#
# Static dielectric constant tensor:
#      x y z
#    x 1.591790 0.000000 0.000000 
#    y 0.000000 1.612050 0.000000 
#    z 0.000000 0.000000 1.622420 
# 
# From -- ./inp_files/3385.got.cif
#   From: 2010.05.17/outbox.cif.g08.bks.cpg/sg36_2_cif.got.tgz:3385.got - 2010.06.03 17:41:39.
