data_PCOD9352008
_publ_section_title
;
Structure prediction by ZEFSAII (Michael W. Deem and Ramdas Pophale) SiO2 
 PCOD9352008
Probable space group: C M C 21
;
_chemical_formula_sum "Si O2"
_cell_formula_units_Z 40
_cell_length_a 8.086381
_cell_length_b 27.366262
_cell_length_c 8.500857
_cell_angle_alpha 90.000000
_cell_angle_beta 90.000000
_cell_angle_gamma 90.000000
_cell_volume 1881.188828
_symmetry_space_group_name_H-M "C M C 21"
_symmetry_group_IT_number 36
_symmetry_cell_setting 'orthorhombic'
loop_
_space_group_symop_operation_xyz
x,y,z
-x,-y,1/2+z
x,-y,1/2+z
-x,y,z
1/2+x,1/2+y,z
1/2-x,1/2-y,1/2+z
1/2+x,1/2-y,1/2+z
1/2-x,1/2+y,z
loop_
_atom_site_type_symbol
_atom_site_label
_atom_site_fract_x
_atom_site_fract_y
_atom_site_fract_z
Si Si1 0.314206 0.364722 0.994860
Si Si2 0.500000 0.982512 0.217933
Si Si3 0.684725 0.897741 0.315476
Si Si4 0.192143 0.821577 0.530701
Si Si5 0.000000 0.424873 0.889880
Si Si6 0.304096 0.734011 0.337530
O O1 0.500000 0.375169 0.934287
O O2 0.165780 0.392883 0.907131
O O3 0.286786 0.306979 0.972866
O O4 0.302582 0.380548 0.176226
O O5 0.656290 0.955872 0.303782
O O6 0.500000 0.039811 0.240123
O O7 0.500000 0.961950 0.040817
O O8 0.500000 0.878792 0.272434
O O9 0.730336 0.872662 0.478120
O O10 0.216903 0.783451 0.388298
O O11 0.261689 0.793640 0.682736
O O12 0.000000 0.829773 0.560523
O O13 0.500000 0.744394 0.316106
#
# Coordination Sequence:
#
# PCOD9352008 Si02
#       6
#     8   4   8   8   4   8
#     4  10  20  38  61  84 117 153 192 241 293 340
#     4   8  20  36  60  82 114 148 190 240 295 334
#     4   9  19  37  57  83 111 149 193 237 284 347
#     4  11  22  35  54  80 116 151 196 242 287 343
#     4  10  20  40  60  88 116 152 196 244 287 360
#     4  10  23  37  51  80 114 152 196 239 287 351
#
# _framework density 21.263151000000001
#
# number of rings (size 3 to 8) (size 9 to 14) (size 15 to 20)
#    0.600    1.600    1.000    2.400    1.400    6.400 
#    0.000    5.000    0.000    0.000    0.000    0.000 
#    0.000    0.000    0.000    0.000    0.000    0.000 
#
# Total GULP energy -111535.916094 kJ/mol
# GULP energy per Si atom -5576.795805 kJ/mol
# Density = 2.121476 g / cm^3
# Si number density = 21.263151 Si / 1000 Ang^3
#
#
#
# Elastic Constant Matrix: (Units=GPa)
#
#
# Indices 1 2 3 4 5 6 
#
# 1 83.7436 22.5231 -2.6667 0.0000 0.0000 0.0000
# 2 22.5231 56.4791 -3.4442 0.0000 0.0000 0.0000
# 3 -2.6667 -3.4442 36.5675 0.0000 0.0000 0.0000
# 4 0.0000 0.0000 0.0000 39.0163 0.0000 0.0000
# 5 0.0000 0.0000 0.0000 0.0000 11.6269 0.0000
# 6 0.0000 0.0000 0.0000 0.0000 0.0000 9.6425
#
#
#
# Elastic Compliance Matrix: (Units=1/GPa)
#
#
# Indices 1 2 3 4 5 6 
#
# 1 0.013384 -0.005308 0.000476 0.000000 0.000000 0.000000
# 2 -0.005308 0.019913 0.001488 0.000000 0.000000 0.000000
# 3 0.000476 0.001488 0.027522 0.000000 0.000000 0.000000
# 4 0.000000 0.000000 0.000000 0.025630 0.000000 0.000000
# 5 0.000000 0.000000 0.000000 0.000000 0.086008 0.000000
# 6 0.000000 0.000000 0.000000 0.000000 0.000000 0.103707
#
#
# Mechanical properties :
#
#
# Convention : Reuss Voigt Hill
#
# Bulk Modulus (GPa) = 18.47361 23.29053 20.88207
# Shear Modulus (GPa) = 16.61706 22.74900 19.68303
#
# Velocity S-wave (km/s) = 2.79856 3.27445 3.04581
# Velocity P-wave (km/s) = 4.37602 5.02725 4.71290
#
# Compressibility (1/GPa) = 0.05413128
#
# Stress axis : x y z
#
# Youngs Moduli (GPa) = 74.71562 50.21762 36.33513
#
# Poissons Ratio (x) = 0.26657 -0.01730
# Poissons Ratio (y) = 0.39662 -0.05408
# Poissons Ratio (z) = -0.03557 -0.07475
#
# Static dielectric constant tensor:
#      x y z
#    x 1.819450 0.000000 0.000000 
#    y 0.000000 1.749710 0.000000 
#    z 0.000000 0.000000 1.851640 
# 
# From -- ./inp_files/2567.got.cif
#   From: 2010.05.17/outbox.cif.g08.bks.cpg/sg36_2_cif.got.tgz:2567.got - 2010.06.03 17:41:39.
