data_PCOD9352317
_publ_section_title
;
Structure prediction by ZEFSAII (Michael W. Deem and Ramdas Pophale) SiO2 
 PCOD9352317
Probable space group: C M C 21
;
_chemical_formula_sum "Si O2"
_cell_formula_units_Z 64
_cell_length_a 8.603761
_cell_length_b 10.465188
_cell_length_c 36.193721
_cell_angle_alpha 90.000000
_cell_angle_beta 90.000000
_cell_angle_gamma 90.000000
_cell_volume 3258.881784
_symmetry_space_group_name_H-M "C M C 21"
_symmetry_group_IT_number 36
_symmetry_cell_setting 'orthorhombic'
loop_
_space_group_symop_operation_xyz
x,y,z
-x,-y,1/2+z
x,-y,1/2+z
-x,y,z
1/2+x,1/2+y,z
1/2-x,1/2-y,1/2+z
1/2+x,1/2-y,1/2+z
1/2-x,1/2+y,z
loop_
_atom_site_type_symbol
_atom_site_label
_atom_site_fract_x
_atom_site_fract_y
_atom_site_fract_z
Si Si1 0.312362 0.744002 0.646940
Si Si2 0.312400 0.974589 0.274128
Si Si3 0.186049 0.036473 0.438202
Si Si4 0.312131 0.718994 0.561557
Si Si5 0.313962 0.279225 0.396757
Si Si6 0.687901 0.998470 0.689438
Si Si7 0.686155 0.719069 0.315760
Si Si8 0.313979 0.023285 0.019001
O O1 0.500000 0.740910 0.648108
O O2 0.266468 0.744659 0.603951
O O3 0.259930 0.870432 0.668599
O O4 0.247698 0.620447 0.667389
O O5 0.500000 0.977842 0.274610
O O6 0.259729 0.996589 0.232034
O O7 0.251511 0.086793 0.300253
O O8 0.263230 0.836564 0.289534
O O9 0.260710 0.168334 0.424685
O O10 0.236259 0.001838 0.479563
O O11 0.000000 0.048938 0.436428
O O12 0.234296 0.918450 0.411838
O O13 0.500000 0.706486 0.560103
O O14 0.236639 0.590313 0.546233
O O15 0.268374 0.840230 0.536316
O O16 0.500000 0.278349 0.394113
O O17 0.242947 0.248502 0.356958
O O18 0.500000 0.000096 0.689398
O O19 0.500000 0.712884 0.315662
O O20 0.500000 0.022307 0.014750
#
# Coordination Sequence:
#
# PCOD9352317 Si02
#       8
#     8   8   8   8   8   8   8   8
#     4  10  21  37  58  85 116 152 194 239 288 341
#     4  10  22  39  59  85 118 154 192 238 290 343
#     4  11  24  41  62  89 119 152 192 237 286 342
#     4  10  22  39  58  84 118 153 192 239 288 340
#     4  11  24  41  62  88 117 152 193 235 285 342
#     4  10  21  38  59  85 117 152 193 240 289 343
#     4  11  23  38  59  87 117 152 194 237 285 341
#     4  11  23  39  61  87 116 153 194 237 287 342
#
# _framework density 19.638638
#
# number of rings (size 3 to 8) (size 9 to 14) (size 15 to 20)
#    0.000    1.500    0.000    4.500    0.000   10.500 
#    0.000    0.000    0.000    0.000    0.000    0.000 
#    0.000    0.000    0.000    0.000    0.000    0.000 
#
# Total GULP energy -178986.356130 kJ/mol
# GULP energy per Si atom -5593.323629 kJ/mol
# Density = 1.959394 g / cm^3
# Si number density = 19.638638 Si / 1000 Ang^3
#
#
#
# Elastic Constant Matrix: (Units=GPa)
#
#
# Indices 1 2 3 4 5 6 
#
# 1 8.0267 3.1457 -3.9123 0.0000 0.0000 0.0000
# 2 3.1457 69.2028 -28.8606 0.0000 0.0000 0.0000
# 3 -3.9123 -28.8606 53.8036 0.0000 0.0000 0.0000
# 4 0.0000 0.0000 0.0000 44.7132 0.0000 0.0000
# 5 0.0000 0.0000 0.0000 0.0000 14.5383 0.0000
# 6 0.0000 0.0000 0.0000 0.0000 0.0000 32.0936
#
#
#
# Elastic Compliance Matrix: (Units=1/GPa)
#
#
# Indices 1 2 3 4 5 6 
#
# 1 0.129504 -0.002524 0.008063 0.000000 0.000000 0.000000
# 2 -0.002524 0.018664 0.009828 0.000000 0.000000 0.000000
# 3 0.008063 0.009828 0.024444 0.000000 0.000000 0.000000
# 4 0.000000 0.000000 0.000000 0.022365 0.000000 0.000000
# 5 0.000000 0.000000 0.000000 0.000000 0.068784 0.000000
# 6 0.000000 0.000000 0.000000 0.000000 0.000000 0.031159
#
#
# Mechanical properties :
#
#
# Convention : Reuss Voigt Hill
#
# Bulk Modulus (GPa) = 4.91779 7.97542 6.44660
# Shear Modulus (GPa) = 15.06169 28.97970 22.02070
#
# Velocity S-wave (km/s) = 2.77238 3.84558 3.35221
# Velocity P-wave (km/s) = 3.57179 4.87729 4.27467
#
# Compressibility (1/GPa) = 0.20334354
#
# Stress axis : x y z
#
# Youngs Moduli (GPa) = 7.72178 53.58013 40.90978
#
# Poissons Ratio (x) = 0.13525 -0.32984
# Poissons Ratio (y) = 0.01949 -0.40205
# Poissons Ratio (z) = -0.06226 -0.52657
#
# Static dielectric constant tensor:
#      x y z
#    x 1.668370 0.000000 0.000000 
#    y 0.000000 1.645740 0.000000 
#    z 0.000000 0.000000 1.662910 
# 
# From -- ./inp_files/17315.got.cif
#   From: 2010.05.17/outbox.cif.g08.bks.cpg/sg36_9_cif.got.tgz:17315.got - 2010.06.03 17:41:39.
