data_PCOD9352131
_publ_section_title
;
Structure prediction by ZEFSAII (Michael W. Deem and Ramdas Pophale) SiO2 
 PCOD9352131
Probable space group: C M C 21
;
_chemical_formula_sum "Si O2"
_cell_formula_units_Z 60
_cell_length_a 18.277097
_cell_length_b 10.042537
_cell_length_c 14.010654
_cell_angle_alpha 90.000000
_cell_angle_beta 90.000000
_cell_angle_gamma 90.000000
_cell_volume 2571.633445
_symmetry_space_group_name_H-M "C M C 21"
_symmetry_group_IT_number 36
_symmetry_cell_setting 'orthorhombic'
loop_
_space_group_symop_operation_xyz
x,y,z
-x,-y,1/2+z
x,-y,1/2+z
-x,y,z
1/2+x,1/2+y,z
1/2-x,1/2-y,1/2+z
1/2+x,1/2-y,1/2+z
1/2-x,1/2+y,z
loop_
_atom_site_type_symbol
_atom_site_label
_atom_site_fract_x
_atom_site_fract_y
_atom_site_fract_z
Si Si1 0.645773 0.240878 0.136620
Si Si2 0.627235 0.740312 0.983707
Si Si3 0.422307 0.009624 0.728161
Si Si4 0.223240 0.648338 0.749094
Si Si5 0.500000 0.927049 0.916422
Si Si6 0.294430 0.718202 0.449229
Si Si7 0.353861 0.507917 0.841896
Si Si8 0.084697 0.959048 0.648211
O O1 0.593405 0.137685 0.187873
O O2 0.724099 0.256887 0.188411
O O3 0.612686 0.389214 0.135993
O O4 0.663516 0.199423 0.029165
O O5 0.564901 0.850287 0.976614
O O6 0.709646 0.795687 0.976362
O O7 0.617641 0.646230 0.887541
O O8 0.621765 0.646671 0.077434
O O9 0.500000 0.061836 0.689434
O O10 0.437244 0.990699 0.841086
O O11 0.350306 0.092575 0.703555
O O12 0.201096 0.717856 0.846352
O O13 0.278217 0.532544 0.784697
O O14 0.334291 0.578653 0.433604
O O15 0.404291 0.438745 0.762503
O O16 0.000000 0.954539 0.623856
#
# Coordination Sequence:
#
# PCOD9352131 Si02
#       8
#     8   8   8   8   4   8   8   8
#     4  11  23  41  70  97 131 175 222 279 334 406
#     4  11  22  38  62  98 125 174 220 272 327 411
#     4  10  23  42  69  95 131 182 229 270 342 402
#     4  10  22  40  69  94 131 172 228 273 324 402
#     4  10  20  40  68  84 134 172 224 264 342 402
#     4  11  24  40  67  96 131 172 226 272 340 388
#     4  10  22  39  61  96 127 167 218 277 324 388
#     4  11  23  39  63  96 133 164 214 276 337 397
#
# _framework density 23.331474
#
# number of rings (size 3 to 8) (size 9 to 14) (size 15 to 20)
#    0.400    1.067    2.000    4.400    8.400    0.000 
#    0.000    2.000    4.400    0.000    0.000    0.000 
#    0.000    0.000    0.000    0.000    0.000    0.000 
#
# Total GULP energy -167101.612886 kJ/mol
# GULP energy per Si atom -5570.053763 kJ/mol
# Density = 2.327837 g / cm^3
# Si number density = 23.331474 Si / 1000 Ang^3
#
#
#
# Elastic Constant Matrix: (Units=GPa)
#
#
# Indices 1 2 3 4 5 6 
#
# 1 67.5271 2.8729 7.0798 0.0000 0.0000 0.0000
# 2 2.8729 15.9792 9.1995 0.0000 0.0000 0.0000
# 3 7.0798 9.1995 78.4920 0.0000 0.0000 0.0000
# 4 0.0000 0.0000 0.0000 28.5269 0.0000 0.0000
# 5 0.0000 0.0000 0.0000 0.0000 36.7639 0.0000
# 6 0.0000 0.0000 0.0000 0.0000 0.0000 22.3033
#
#
#
# Elastic Compliance Matrix: (Units=1/GPa)
#
#
# Indices 1 2 3 4 5 6 
#
# 1 0.015013 -0.002058 -0.001113 0.000000 0.000000 0.000000
# 2 -0.002058 0.067392 -0.007713 0.000000 0.000000 0.000000
# 3 -0.001113 -0.007713 0.013745 0.000000 0.000000 0.000000
# 4 0.000000 0.000000 0.000000 0.035055 0.000000 0.000000
# 5 0.000000 0.000000 0.000000 0.000000 0.027201 0.000000
# 6 0.000000 0.000000 0.000000 0.000000 0.000000 0.044836
#
#
# Mechanical properties :
#
#
# Convention : Reuss Voigt Hill
#
# Bulk Modulus (GPa) = 13.44428 22.25587 17.85007
# Shear Modulus (GPa) = 20.01572 27.04188 23.52880
#
# Velocity S-wave (km/s) = 2.93215 3.40815 3.17907
# Velocity P-wave (km/s) = 4.15188 5.00470 4.59810
#
# Compressibility (1/GPa) = 0.07438108
#
# Stress axis : x y z
#
# Youngs Moduli (GPa) = 66.60839 14.83855 72.75633
#
# Poissons Ratio (x) = 0.03055 0.08097
# Poissons Ratio (y) = 0.13711 0.56116
# Poissons Ratio (z) = 0.07413 0.11445
#
# Static dielectric constant tensor:
#      x y z
#    x 1.858870 0.000000 0.000000 
#    y 0.000000 2.000640 0.000000 
#    z 0.000000 0.000000 1.923230 
# 
# From -- ./inp_files/12607.got.cif
#   From: 2010.05.17/outbox.cif.g08.bks.cpg/sg36_7_cif.got.tgz:12607.got - 2010.06.03 17:41:39.
