data_PCOD9352775
_publ_section_title
;
Structure prediction by ZEFSAII (Michael W. Deem and Ramdas Pophale) SiO2 
 PCOD9352775
Probable space group: C M C 21
;
_chemical_formula_sum "Si O2"
_cell_formula_units_Z 64
_cell_length_a 8.356169
_cell_length_b 31.201129
_cell_length_c 12.252504
_cell_angle_alpha 90.000000
_cell_angle_beta 90.000000
_cell_angle_gamma 90.000000
_cell_volume 3194.496207
_symmetry_space_group_name_H-M "C M C 21"
_symmetry_group_IT_number 36
_symmetry_cell_setting 'orthorhombic'
loop_
_space_group_symop_operation_xyz
x,y,z
-x,-y,1/2+z
x,-y,1/2+z
-x,y,z
1/2+x,1/2+y,z
1/2-x,1/2-y,1/2+z
1/2+x,1/2-y,1/2+z
1/2-x,1/2+y,z
loop_
_atom_site_type_symbol
_atom_site_label
_atom_site_fract_x
_atom_site_fract_y
_atom_site_fract_z
Si Si1 0.688345 0.961743 0.338670
Si Si2 0.190219 0.302281 0.802460
Si Si3 0.695788 0.706821 0.842673
Si Si4 0.306975 0.877643 0.961308
Si Si5 0.307736 0.377872 0.210581
Si Si6 0.813304 0.946108 0.789264
Si Si7 0.185257 0.583299 0.059163
Si Si8 0.684815 0.673047 0.070725
O O1 0.500000 0.970240 0.320797
O O2 0.736505 0.919256 0.271955
O O3 0.713605 0.951862 0.466593
O O4 0.786103 0.003581 0.306379
O O5 0.252676 0.253654 0.806461
O O6 0.250270 0.335448 0.894145
O O7 0.223516 0.320829 0.683140
O O8 0.000000 0.299752 0.818875
O O9 0.500000 0.706162 0.840681
O O10 0.746961 0.666404 0.769172
O O11 0.745386 0.700008 0.968104
O O12 0.500000 0.877669 0.963996
O O13 0.250068 0.918593 0.891430
O O14 0.242594 0.877929 0.084110
O O15 0.500000 0.380003 0.218394
O O16 0.719724 0.932553 0.680442
O O17 0.000000 0.936392 0.773599
O O18 0.296695 0.623804 0.036151
O O19 0.000000 0.596985 0.049618
O O20 0.500000 0.683635 0.090309
#
# Coordination Sequence:
#
# PCOD9352775 Si02
#       8
#     8   8   8   8   8   8   8   8
#     4  11  25  44  67  94 127 165 210 256 314 380
#     4  10  22  41  63  89 126 169 209 255 313 373
#     4   9  21  40  62  91 127 166 206 258 315 369
#     4  11  24  42  64  90 129 170 211 258 313 377
#     4  11  23  42  65  91 128 168 211 261 316 371
#     4  12  26  43  67  95 127 164 211 260 313 373
#     4  11  23  42  67  93 125 164 207 258 316 376
#     4  11  21  38  65  93 123 160 209 264 314 367
#
# _framework density 20.034458000000001
#
# number of rings (size 3 to 8) (size 9 to 14) (size 15 to 20)
#    0.000    1.250    2.500    3.000    3.500    2.000 
#    0.000    1.875    0.000    0.000    0.000    0.000 
#    0.000    0.000    0.000    0.000    0.000    0.000 
#
# Total GULP energy -178844.053491 kJ/mol
# GULP energy per Si atom -5588.876672 kJ/mol
# Density = 1.998886 g / cm^3
# Si number density = 20.034458 Si / 1000 Ang^3
#
#
#
# Elastic Constant Matrix: (Units=GPa)
#
#
# Indices 1 2 3 4 5 6 
#
# 1 22.8745 2.2731 2.1219 0.0000 0.0000 0.0000
# 2 2.2731 87.8456 15.9496 0.0000 0.0000 0.0000
# 3 2.1219 15.9496 97.6394 0.0000 0.0000 0.0000
# 4 0.0000 0.0000 0.0000 19.2104 0.0000 0.0000
# 5 0.0000 0.0000 0.0000 0.0000 23.2778 0.0000
# 6 0.0000 0.0000 0.0000 0.0000 0.0000 19.8396
#
#
#
# Elastic Compliance Matrix: (Units=1/GPa)
#
#
# Indices 1 2 3 4 5 6 
#
# 1 0.043889 -0.000992 -0.000792 0.000000 0.000000 0.000000
# 2 -0.000992 0.011754 -0.001898 0.000000 0.000000 0.000000
# 3 -0.000792 -0.001898 0.010569 0.000000 0.000000 0.000000
# 4 0.000000 0.000000 0.000000 0.052055 0.000000 0.000000
# 5 0.000000 0.000000 0.000000 0.000000 0.042959 0.000000
# 6 0.000000 0.000000 0.000000 0.000000 0.000000 0.050404
#
#
# Mechanical properties :
#
#
# Convention : Reuss Voigt Hill
#
# Bulk Modulus (GPa) = 16.99303 27.67208 22.33255
# Shear Modulus (GPa) = 20.95461 24.99988 22.97724
#
# Velocity S-wave (km/s) = 3.23759 3.53632 3.39024
# Velocity P-wave (km/s) = 4.74092 5.52415 5.14745
#
# Compressibility (1/GPa) = 0.05884766
#
# Stress axis : x y z
#
# Youngs Moduli (GPa) = 22.78480 85.07760 94.61548
#
# Poissons Ratio (x) = 0.08439 0.07491
# Poissons Ratio (y) = 0.02260 0.17963
# Poissons Ratio (z) = 0.01804 0.16152
#
# Static dielectric constant tensor:
#      x y z
#    x 1.696060 0.000000 0.000000 
#    y 0.000000 1.702110 0.000000 
#    z 0.000000 0.000000 1.671950 
# 
# From -- ./inp_files/7191.got.cif
#   From: 2010.05.17/outbox.cif.g08.bks.cpg/sg36_4_cif.got.tgz:7191.got - 2010.06.03 17:41:39.
