data_PCOD9352761
_publ_section_title
;
Structure prediction by ZEFSAII (Michael W. Deem and Ramdas Pophale) SiO2 
 PCOD9352761
Probable space group: C M C 21
;
_chemical_formula_sum "Si O2"
_cell_formula_units_Z 44
_cell_length_a 12.007116
_cell_length_b 13.797256
_cell_length_c 11.945223
_cell_angle_alpha 90.000000
_cell_angle_beta 90.000000
_cell_angle_gamma 90.000000
_cell_volume 1978.908394
_symmetry_space_group_name_H-M "C M C 21"
_symmetry_group_IT_number 36
_symmetry_cell_setting 'orthorhombic'
loop_
_space_group_symop_operation_xyz
x,y,z
-x,-y,1/2+z
x,-y,1/2+z
-x,y,z
1/2+x,1/2+y,z
1/2-x,1/2-y,1/2+z
1/2+x,1/2-y,1/2+z
1/2-x,1/2+y,z
loop_
_atom_site_type_symbol
_atom_site_label
_atom_site_fract_x
_atom_site_fract_y
_atom_site_fract_z
Si Si1 0.693849 0.897503 0.384580
Si Si2 0.829036 0.685785 0.574175
Si Si3 0.874410 0.615107 0.329649
Si Si4 0.500000 0.851577 0.247810
Si Si5 0.870729 0.100351 0.692746
Si Si6 0.706229 0.611925 0.129056
O O1 0.600272 0.825602 0.337925
O O2 0.806512 0.889791 0.311256
O O3 0.724404 0.894095 0.514130
O O4 0.636873 0.001561 0.360010
O O5 0.848983 0.670877 0.444134
O O6 0.903185 0.618022 0.653565
O O7 0.701670 0.664283 0.606376
O O8 0.867514 0.792529 0.611909
O O9 0.786772 0.633482 0.232834
O O10 0.000000 0.635091 0.292972
O O11 0.000000 0.125237 0.699389
O O12 0.855685 0.988573 0.653171
#
# Coordination Sequence:
#
# PCOD9352761 Si02
#       6
#     8   8   8   4   8   8
#     4  10  22  43  70  95 133 175 228 283 341 402
#     4  11  24  45  65 101 139 176 229 284 338 412
#     4  11  23  41  69 101 131 173 228 288 344 411
#     4  10  22  40  70  94 128 178 220 286 346 384
#     4  10  24  46  68  94 135 185 228 276 342 408
#     4  11  26  43  66 103 136 181 230 279 350 414
#
# _framework density 22.234480999999999
#
# number of rings (size 3 to 8) (size 9 to 14) (size 15 to 20)
#    0.000    1.455    3.636    0.000    7.636    1.455 
#    0.000    0.000    0.000    0.000    0.000    0.000 
#    0.000    0.000    0.000    0.000    0.000    0.000 
#
# Total GULP energy -122499.685002 kJ/mol
# GULP energy per Si atom -5568.167500 kJ/mol
# Density = 2.218387 g / cm^3
# Si number density = 22.234481 Si / 1000 Ang^3
#
#
#
# Elastic Constant Matrix: (Units=GPa)
#
#
# Indices 1 2 3 4 5 6 
#
# 1 168.7677 -1.1204 31.1837 0.0000 0.0000 0.0000
# 2 -1.1204 69.8492 -5.8266 0.0000 0.0000 0.0000
# 3 31.1837 -5.8266 114.7772 0.0000 0.0000 0.0000
# 4 0.0000 0.0000 0.0000 31.6014 0.0000 0.0000
# 5 0.0000 0.0000 0.0000 0.0000 10.5390 0.0000
# 6 0.0000 0.0000 0.0000 0.0000 0.0000 164.6399
#
#
#
# Elastic Compliance Matrix: (Units=1/GPa)
#
#
# Indices 1 2 3 4 5 6 
#
# 1 0.006239 -0.000041 -0.001697 0.000000 0.000000 0.000000
# 2 -0.000041 0.014378 0.000741 0.000000 0.000000 0.000000
# 3 -0.001697 0.000741 0.009211 0.000000 0.000000 0.000000
# 4 0.000000 0.000000 0.000000 0.031644 0.000000 0.000000
# 5 0.000000 0.000000 0.000000 0.000000 0.094886 0.000000
# 6 0.000000 0.000000 0.000000 0.000000 0.000000 0.006074
#
#
# Mechanical properties :
#
#
# Convention : Reuss Voigt Hill
#
# Bulk Modulus (GPa) = 35.92892 44.65195 40.29044
# Shear Modulus (GPa) = 28.78464 63.29987 46.04225
#
# Velocity S-wave (km/s) = 3.60195 5.34145 4.55550
# Velocity P-wave (km/s) = 5.78731 7.62675 6.76979
#
# Compressibility (1/GPa) = 0.02783273
#
# Stress axis : x y z
#
# Youngs Moduli (GPa) = 160.29238 69.55205 108.56313
#
# Poissons Ratio (x) = 0.00289 0.18424
# Poissons Ratio (y) = 0.00665 -0.08046
# Poissons Ratio (z) = 0.27203 -0.05155
#
# Static dielectric constant tensor:
#      x y z
#    x 1.804350 0.000000 0.000000 
#    y 0.000000 1.984050 0.000000 
#    z 0.000000 0.000000 1.845120 
# 
# From -- ./inp_files/7608.got.cif
#   From: 2010.05.17/outbox.cif.g08.bks.cpg/sg36_4_cif.got.tgz:7608.got - 2010.06.03 17:41:39.
