data_PCOD9352192
_publ_section_title
;
Structure prediction by ZEFSAII (Michael W. Deem and Ramdas Pophale) SiO2 
 PCOD9352192
Probable space group: C M C 21
;
_chemical_formula_sum "Si O2"
_cell_formula_units_Z 48
_cell_length_a 17.587476
_cell_length_b 13.904431
_cell_length_c 9.498737
_cell_angle_alpha 90.000000
_cell_angle_beta 90.000000
_cell_angle_gamma 90.000000
_cell_volume 2322.857683
_symmetry_space_group_name_H-M "C M C 21"
_symmetry_group_IT_number 36
_symmetry_cell_setting 'orthorhombic'
loop_
_space_group_symop_operation_xyz
x,y,z
-x,-y,1/2+z
x,-y,1/2+z
-x,y,z
1/2+x,1/2+y,z
1/2-x,1/2-y,1/2+z
1/2+x,1/2-y,1/2+z
1/2-x,1/2+y,z
loop_
_atom_site_type_symbol
_atom_site_label
_atom_site_fract_x
_atom_site_fract_y
_atom_site_fract_z
Si Si1 0.220219 0.700397 0.722340
Si Si2 0.910266 0.013054 0.608491
Si Si3 0.825182 0.067018 0.881510
Si Si4 0.338060 0.008024 0.829651
Si Si5 0.167302 0.799013 0.977865
Si Si6 0.089272 0.394772 0.587079
O O1 0.292734 0.665237 0.816764
O O2 0.166144 0.606617 0.736394
O O3 0.254724 0.709812 0.568370
O O4 0.183300 0.785703 0.812006
O O5 0.883867 0.026022 0.767956
O O6 0.877942 0.106451 0.524982
O O7 0.000000 0.004418 0.596540
O O8 0.865207 0.927736 0.530858
O O9 0.748736 0.001538 0.885760
O O10 0.365228 0.924724 0.727269
O O11 0.390631 0.029628 0.962979
O O12 0.118842 0.706718 0.028516
O O13 0.000000 0.393199 0.615020
#
# Coordination Sequence:
#
# PCOD9352192 Si02
#       6
#     8   8   8   8   8   8
#     4   8  20  32  54  78 102 138 178 214 248 304
#     4  11  21  35  55  81 109 136 171 219 267 308
#     4   9  20  36  54  78 101 141 182 210 249 313
#     4   9  20  36  54  78 101 141 182 210 249 313
#     4  10  21  34  52  80 107 136 170 218 265 306
#     4  11  21  35  55  81 109 136 171 219 267 308
#
# _framework density 20.664203000000001
#
# number of rings (size 3 to 8) (size 9 to 14) (size 15 to 20)
#    1.000    1.333    0.000    2.500    2.333    0.000 
#    0.000    0.000    0.000    0.000    0.000   18.667 
#    0.000    0.000    0.000    0.000    0.000    0.000 
#
# Total GULP energy -133811.151342 kJ/mol
# GULP energy per Si atom -5575.464639 kJ/mol
# Density = 2.061717 g / cm^3
# Si number density = 20.664203 Si / 1000 Ang^3
#
#
#
# Elastic Constant Matrix: (Units=GPa)
#
#
# Indices 1 2 3 4 5 6 
#
# 1 78.8574 -0.9343 16.4860 0.0000 0.0000 0.0000
# 2 -0.9343 28.7078 9.1725 0.0000 0.0000 0.0000
# 3 16.4860 9.1725 64.2500 0.0000 0.0000 0.0000
# 4 0.0000 0.0000 0.0000 30.6141 0.0000 0.0000
# 5 0.0000 0.0000 0.0000 0.0000 30.8440 0.0000
# 6 0.0000 0.0000 0.0000 0.0000 0.0000 10.8617
#
#
#
# Elastic Compliance Matrix: (Units=1/GPa)
#
#
# Indices 1 2 3 4 5 6 
#
# 1 0.013471 0.001617 -0.003687 0.000000 0.000000 0.000000
# 2 0.001617 0.036693 -0.005653 0.000000 0.000000 0.000000
# 3 -0.003687 -0.005653 0.017317 0.000000 0.000000 0.000000
# 4 0.000000 0.000000 0.000000 0.032665 0.000000 0.000000
# 5 0.000000 0.000000 0.000000 0.000000 0.032421 0.000000
# 6 0.000000 0.000000 0.000000 0.000000 0.000000 0.092066
#
#
# Mechanical properties :
#
#
# Convention : Reuss Voigt Hill
#
# Bulk Modulus (GPa) = 19.21846 24.58484 21.90165
# Shear Modulus (GPa) = 19.42308 24.27004 21.84656
#
# Velocity S-wave (km/s) = 3.06917 3.43081 3.25502
# Velocity P-wave (km/s) = 4.67764 5.25520 4.97480
#
# Compressibility (1/GPa) = 0.05203330
#
# Stress axis : x y z
#
# Youngs Moduli (GPa) = 74.23271 27.25348 57.74536
#
# Poissons Ratio (x) = -0.04406 0.21293
# Poissons Ratio (y) = -0.12000 0.32644
# Poissons Ratio (z) = 0.27372 0.15407
#
# Static dielectric constant tensor:
#      x y z
#    x 1.707170 0.000000 0.000000 
#    y 0.000000 1.793180 0.000000 
#    z 0.000000 0.000000 1.736250 
# 
# From -- ./inp_files/4737.got.cif
#   From: 2010.05.17/outbox.cif.g08.bks.cpg/sg36_3_cif.got.tgz:4737.got - 2010.06.03 17:41:39.
