data_PCOD9352285
_publ_section_title
;
Structure prediction by ZEFSAII (Michael W. Deem and Ramdas Pophale) SiO2 
 PCOD9352285
Probable space group: C M C 21
;
_chemical_formula_sum "Si O2"
_cell_formula_units_Z 48
_cell_length_a 21.939715
_cell_length_b 18.760858
_cell_length_c 5.312219
_cell_angle_alpha 90.000000
_cell_angle_beta 90.000000
_cell_angle_gamma 90.000000
_cell_volume 2186.551188
_symmetry_space_group_name_H-M "C M C 21"
_symmetry_group_IT_number 36
_symmetry_cell_setting 'orthorhombic'
loop_
_space_group_symop_operation_xyz
x,y,z
-x,-y,1/2+z
x,-y,1/2+z
-x,y,z
1/2+x,1/2+y,z
1/2-x,1/2-y,1/2+z
1/2+x,1/2-y,1/2+z
1/2-x,1/2+y,z
loop_
_atom_site_type_symbol
_atom_site_label
_atom_site_fract_x
_atom_site_fract_y
_atom_site_fract_z
Si Si1 0.194576 0.333475 0.577810
Si Si2 0.809179 0.533609 0.399245
Si Si3 0.688333 0.669546 0.744306
Si Si4 0.333298 0.533475 0.439947
Si Si5 0.565713 0.805546 0.452437
Si Si6 0.434037 0.708868 0.957554
O O1 0.191810 0.383386 0.823659
O O2 0.251759 0.352001 0.401209
O O3 0.199343 0.249954 0.647066
O O4 0.129669 0.345699 0.444571
O O5 0.836578 0.508725 0.661943
O O6 0.737951 0.512544 0.417084
O O7 0.670611 0.615898 0.520403
O O8 0.629152 0.668186 0.923279
O O9 0.360849 0.510006 0.174977
O O10 0.500000 0.843803 0.437356
O O11 0.566298 0.763414 0.719190
O O12 0.567425 0.750844 0.219838
O O13 0.500000 0.670625 0.944262
#
# Coordination Sequence:
#
# PCOD9352285 Si02
#       6
#     8   8   8   8   8   8
#     4  11  21  33  57  88 114 138 184 244 283 315
#     4  10  21  37  54  76 112 153 183 215 277 350
#     4  11  21  33  57  88 114 138 184 244 283 315
#     4  10  21  37  54  76 112 153 183 215 277 350
#     4   9  19  35  53  76 110 148 180 217 277 343
#     4   9  19  35  53  76 110 148 180 217 277 343
#
# _framework density 21.952376999999998
#
# number of rings (size 3 to 8) (size 9 to 14) (size 15 to 20)
#    0.000    2.000    0.000    5.000    0.000    8.000 
#    0.000    0.000    0.000    2.000    0.000    0.000 
#    0.000    2.667    0.000    0.000    0.000    0.000 
#
# Total GULP energy -133910.169562 kJ/mol
# GULP energy per Si atom -5579.590398 kJ/mol
# Density = 2.190241 g / cm^3
# Si number density = 21.952377 Si / 1000 Ang^3
#
#
#
# Elastic Constant Matrix: (Units=GPa)
#
#
# Indices 1 2 3 4 5 6 
#
# 1 126.5467 -36.7247 -13.6795 0.0000 0.0000 0.0000
# 2 -36.7247 103.1185 20.9937 0.0000 0.0000 0.0000
# 3 -13.6795 20.9937 107.4352 0.0000 0.0000 0.0000
# 4 0.0000 0.0000 0.0000 37.8993 0.0000 0.0000
# 5 0.0000 0.0000 0.0000 0.0000 20.3428 0.0000
# 6 0.0000 0.0000 0.0000 0.0000 0.0000 -0.2895
#
#
#
# Elastic Compliance Matrix: (Units=1/GPa)
#
#
# Indices 1 2 3 4 5 6 
#
# 1 0.008842 0.003041 0.000532 0.000000 0.000000 0.000000
# 2 0.003041 0.011145 -0.001791 0.000000 0.000000 0.000000
# 3 0.000532 -0.001791 0.009726 0.000000 0.000000 0.000000
# 4 0.000000 0.000000 0.000000 0.026386 0.000000 0.000000
# 5 0.000000 0.000000 0.000000 0.000000 0.049157 0.000000
# 6 0.000000 0.000000 0.000000 0.000000 0.000000 -3.453838
#
#
# Mechanical properties :
#
#
# Convention : Reuss Voigt Hill
#
# Bulk Modulus (GPa) = 30.05131 30.91992 30.48562
# Shear Modulus (GPa) = -1.49653 36.02456 17.26401
#
# Velocity S-wave (km/s) = -0.82656 4.05536 2.80738
# Velocity P-wave (km/s) = 3.57884 6.00362 4.94225
#
# Compressibility (1/GPa) = 0.03327641
#
# Stress axis : x y z
#
# Youngs Moduli (GPa) = 113.09460 89.72554 102.82200
#
# Poissons Ratio (x) = -0.27284 -0.05467
# Poissons Ratio (y) = -0.34390 0.18412
# Poissons Ratio (z) = -0.06013 0.16067
#
# Static dielectric constant tensor:
#      x y z
#    x 1.831900 0.000000 0.000000 
#    y 0.000000 1.836710 0.000000 
#    z 0.000000 0.000000 1.890880 
# 
# From -- ./inp_files/1575.got.cif
#   From: 2010.05.17/outbox.cif.g08.bks.cpg/sg36_1_cif.got.tgz:1575.got - 2010.06.03 17:41:39.
