data_PCOD9352102
_publ_section_title
;
Structure prediction by ZEFSAII (Michael W. Deem and Ramdas Pophale) SiO2 
 PCOD9352102
Probable space group: C M C 21
;
_chemical_formula_sum "Si O2"
_cell_formula_units_Z 48
_cell_length_a 27.385026
_cell_length_b 9.636980
_cell_length_c 8.283294
_cell_angle_alpha 90.000000
_cell_angle_beta 90.000000
_cell_angle_gamma 90.000000
_cell_volume 2186.035404
_symmetry_space_group_name_H-M "C M C 21"
_symmetry_group_IT_number 36
_symmetry_cell_setting 'orthorhombic'
loop_
_space_group_symop_operation_xyz
x,y,z
-x,-y,1/2+z
x,-y,1/2+z
-x,y,z
1/2+x,1/2+y,z
1/2-x,1/2-y,1/2+z
1/2+x,1/2-y,1/2+z
1/2-x,1/2+y,z
loop_
_atom_site_type_symbol
_atom_site_label
_atom_site_fract_x
_atom_site_fract_y
_atom_site_fract_z
Si Si1 0.054864 0.365256 0.198700
Si Si2 0.944963 0.680277 0.083780
Si Si3 0.155279 0.807417 0.075882
Si Si4 0.194584 0.045296 0.888944
Si Si5 0.692022 0.047708 0.886293
Si Si6 0.154602 0.302509 0.066184
O O1 0.058506 0.341141 0.390092
O O2 0.097896 0.285173 0.108687
O O3 0.000000 0.328537 0.145016
O O4 0.061618 0.528856 0.162890
O O5 0.000000 0.728484 0.122434
O O6 0.900456 0.780288 0.126228
O O7 0.183654 0.881642 0.219710
O O8 0.178507 0.661877 0.021503
O O9 0.161624 0.911489 0.924788
O O10 0.251405 0.007962 0.896663
O O11 0.181390 0.161582 0.021474
O O12 0.679315 0.120345 0.717797
O O13 0.660575 0.910777 0.919224
#
# Coordination Sequence:
#
# PCOD9352102 Si02
#       6
#     8   8   8   8   8   8
#     4  10  20  39  67  98 126 159 207 265 323 374
#     4  10  22  42  69  97 127 165 211 270 325 386
#     4  12  25  45  63  93 130 172 217 266 324 387
#     4  12  27  41  63  92 132 176 212 265 323 384
#     4  12  23  42  66  93 129 170 221 264 316 383
#     4  12  23  41  66  99 126 166 218 266 323 380
#
# _framework density 21.957557999999999
#
# number of rings (size 3 to 8) (size 9 to 14) (size 15 to 20)
#    0.000    0.667    3.333    5.000    2.333    0.000 
#    0.000    1.667    0.000    0.000    0.000    0.000 
#    0.000    0.000    0.000    0.000    0.000    0.000 
#
# Total GULP energy -134444.024806 kJ/mol
# GULP energy per Si atom -5601.834367 kJ/mol
# Density = 2.190758 g / cm^3
# Si number density = 21.957558 Si / 1000 Ang^3
#
#
#
# Elastic Constant Matrix: (Units=GPa)
#
#
# Indices 1 2 3 4 5 6 
#
# 1 123.0692 0.3084 7.1819 0.0000 0.0000 0.0000
# 2 0.3084 46.1633 0.7624 0.0000 0.0000 0.0000
# 3 7.1819 0.7624 50.6096 0.0000 0.0000 0.0000
# 4 0.0000 0.0000 0.0000 29.2719 0.0000 0.0000
# 5 0.0000 0.0000 0.0000 0.0000 27.1850 0.0000
# 6 0.0000 0.0000 0.0000 0.0000 0.0000 5.7825
#
#
#
# Elastic Compliance Matrix: (Units=1/GPa)
#
#
# Indices 1 2 3 4 5 6 
#
# 1 0.008193 -0.000036 -0.001162 0.000000 0.000000 0.000000
# 2 -0.000036 0.021668 -0.000321 0.000000 0.000000 0.000000
# 3 -0.001162 -0.000321 0.019929 0.000000 0.000000 0.000000
# 4 0.000000 0.000000 0.000000 0.034162 0.000000 0.000000
# 5 0.000000 0.000000 0.000000 0.000000 0.036785 0.000000
# 6 0.000000 0.000000 0.000000 0.000000 0.000000 0.172936
#
#
# Mechanical properties :
#
#
# Convention : Reuss Voigt Hill
#
# Bulk Modulus (GPa) = 21.38950 26.26083 23.82516
# Shear Modulus (GPa) = 16.01046 26.55383 21.28215
#
# Velocity S-wave (km/s) = 2.70322 3.48131 3.11664
# Velocity P-wave (km/s) = 4.41652 5.30520 4.88112
#
# Compressibility (1/GPa) = 0.04675191
#
# Stress axis : x y z
#
# Youngs Moduli (GPa) = 122.04920 46.15144 50.17845
#
# Poissons Ratio (x) = 0.00164 0.05832
# Poissons Ratio (y) = 0.00434 0.01613
# Poissons Ratio (z) = 0.14184 0.01483
#
# Static dielectric constant tensor:
#      x y z
#    x 1.785770 0.000000 0.000000 
#    y 0.000000 1.758610 0.000000 
#    z 0.000000 0.000000 1.865860 
# 
# From -- ./inp_files/5964.got.cif
#   From: 2010.05.17/outbox.cif.g08.bks.cpg/sg36_3_cif.got.tgz:5964.got - 2010.06.03 17:41:39.
