data_PCOD9352661
_publ_section_title
;
Structure prediction by ZEFSAII (Michael W. Deem and Ramdas Pophale) SiO2 
 PCOD9352661
Probable space group: C M C 21
;
_chemical_formula_sum "Si O2"
_cell_formula_units_Z 64
_cell_length_a 17.431006
_cell_length_b 17.099253
_cell_length_c 10.850567
_cell_angle_alpha 90.000000
_cell_angle_beta 90.000000
_cell_angle_gamma 90.000000
_cell_volume 3234.089419
_symmetry_space_group_name_H-M "C M C 21"
_symmetry_group_IT_number 36
_symmetry_cell_setting 'orthorhombic'
loop_
_space_group_symop_operation_xyz
x,y,z
-x,-y,1/2+z
x,-y,1/2+z
-x,y,z
1/2+x,1/2+y,z
1/2-x,1/2-y,1/2+z
1/2+x,1/2-y,1/2+z
1/2-x,1/2+y,z
loop_
_atom_site_type_symbol
_atom_site_label
_atom_site_fract_x
_atom_site_fract_y
_atom_site_fract_z
Si Si1 0.702676 0.206579 0.986990
Si Si2 0.796175 0.041177 0.370645
Si Si3 0.694215 0.373369 0.285713
Si Si4 0.911978 0.261759 0.819757
Si Si5 0.315442 0.066976 0.597495
Si Si6 0.091264 0.181159 0.351480
Si Si7 0.639314 0.237716 0.594030
Si Si8 0.669830 0.092527 0.196021
O O1 0.745541 0.177031 0.864988
O O2 0.633337 0.260252 0.945407
O O3 0.770165 0.246215 0.067768
O O4 0.673059 0.134773 0.065495
O O5 0.724302 0.045187 0.466973
O O6 0.867562 0.099145 0.383800
O O7 0.754529 0.075460 0.248549
O O8 0.825075 0.951957 0.362079
O O9 0.627788 0.312448 0.254390
O O10 0.739681 0.408334 0.172247
O O11 0.870852 0.343837 0.784436
O O12 0.000000 0.268757 0.786590
O O13 0.901925 0.242240 0.965012
O O14 0.367686 0.143919 0.601965
O O15 0.357812 0.995261 0.665833
O O16 0.111238 0.214696 0.213347
O O17 0.000000 0.178041 0.363982
#
# Coordination Sequence:
#
# PCOD9352661 Si02
#       8
#     8   8   8   8   8   8   8   8
#     4  11  20  37  63  91 123 168 217 261 308 391
#     4  11  21  40  64  97 123 162 213 273 316 380
#     4  10  22  37  65  92 119 163 218 261 310 382
#     4  11  24  41  60  88 130 171 208 257 328 394
#     4  11  20  37  68  91 117 155 224 274 309 362
#     4  12  25  39  63 101 137 167 208 271 336 386
#     4  11  21  41  66  90 122 175 221 259 314 392
#     4  11  22  38  66  92 117 165 221 266 308 377
#
# _framework density 19.789186999999998
#
# number of rings (size 3 to 8) (size 9 to 14) (size 15 to 20)
#    0.000    1.000    6.250    1.875    0.000    1.000 
#    0.000    1.250    0.000    0.750    0.000    0.000 
#    0.000    0.000    0.000    0.000    0.000    0.000 
#
# Total GULP energy -178385.535308 kJ/mol
# GULP energy per Si atom -5574.547978 kJ/mol
# Density = 1.974415 g / cm^3
# Si number density = 19.789187 Si / 1000 Ang^3
#
#
#
# Elastic Constant Matrix: (Units=GPa)
#
#
# Indices 1 2 3 4 5 6 
#
# 1 88.0424 34.3924 3.5821 0.0000 0.0000 0.0000
# 2 34.3924 125.7956 3.2108 0.0000 0.0000 0.0000
# 3 3.5821 3.2108 34.3635 0.0000 0.0000 0.0000
# 4 0.0000 0.0000 0.0000 30.9230 0.0000 0.0000
# 5 0.0000 0.0000 0.0000 0.0000 14.6625 0.0000
# 6 0.0000 0.0000 0.0000 0.0000 0.0000 9.9741
#
#
#
# Elastic Compliance Matrix: (Units=1/GPa)
#
#
# Indices 1 2 3 4 5 6 
#
# 1 0.012751 -0.003460 -0.001006 0.000000 0.000000 0.000000
# 2 -0.003460 0.008908 -0.000472 0.000000 0.000000 0.000000
# 3 -0.001006 -0.000472 0.029250 0.000000 0.000000 0.000000
# 4 0.000000 0.000000 0.000000 0.032338 0.000000 0.000000
# 5 0.000000 0.000000 0.000000 0.000000 0.068201 0.000000
# 6 0.000000 0.000000 0.000000 0.000000 0.000000 0.100260
#
#
# Mechanical properties :
#
#
# Convention : Reuss Voigt Hill
#
# Bulk Modulus (GPa) = 24.37104 36.73024 30.55064
# Shear Modulus (GPa) = 18.16458 24.91297 21.53878
#
# Velocity S-wave (km/s) = 3.03298 3.55197 3.30269
# Velocity P-wave (km/s) = 4.96058 5.95173 5.47861
#
# Compressibility (1/GPa) = 0.04103231
#
# Stress axis : x y z
#
# Youngs Moduli (GPa) = 78.42618 112.26479 34.18852
#
# Poissons Ratio (x) = 0.38848 0.03439
# Poissons Ratio (y) = 0.27139 0.01612
# Poissons Ratio (z) = 0.07888 0.05294
#
# Static dielectric constant tensor:
#      x y z
#    x 1.665870 0.000000 0.000000 
#    y 0.000000 1.748960 0.000000 
#    z 0.000000 0.000000 1.780800 
# 
# From -- ./inp_files/9001.got.cif
#   From: 2010.05.17/outbox.cif.g08.bks.cpg/sg36_5_cif.got.tgz:9001.got - 2010.06.03 17:41:39.
