data_PCOD9352094
_publ_section_title
;
Structure prediction by ZEFSAII (Michael W. Deem and Ramdas Pophale) SiO2 
 PCOD9352094
Probable space group: C M C 21
;
_chemical_formula_sum "Si O2"
_cell_formula_units_Z 40
_cell_length_a 11.371885
_cell_length_b 28.106825
_cell_length_c 5.232514
_cell_angle_alpha 90.000000
_cell_angle_beta 90.000000
_cell_angle_gamma 90.000000
_cell_volume 1672.455796
_symmetry_space_group_name_H-M "C M C 21"
_symmetry_group_IT_number 36
_symmetry_cell_setting 'orthorhombic'
loop_
_space_group_symop_operation_xyz
x,y,z
-x,-y,1/2+z
x,-y,1/2+z
-x,y,z
1/2+x,1/2+y,z
1/2-x,1/2-y,1/2+z
1/2+x,1/2-y,1/2+z
1/2-x,1/2+y,z
loop_
_atom_site_type_symbol
_atom_site_label
_atom_site_fract_x
_atom_site_fract_y
_atom_site_fract_z
Si Si1 0.000000 0.396665 0.832561
Si Si2 0.749993 0.624977 0.123254
Si Si3 0.239882 0.023329 0.855639
Si Si4 0.500000 0.279286 0.272840
Si Si5 0.000000 0.155811 0.279890
Si Si6 0.000000 0.539799 0.830017
Si Si7 0.216295 0.730290 0.028662
O O1 0.868241 0.374314 0.800255
O O2 0.000000 0.429859 0.585203
O O3 0.000000 0.423518 0.098175
O O4 0.741575 0.578023 0.946553
O O5 0.623825 0.627634 0.262524
O O6 0.765019 0.674759 0.973768
O O7 0.188535 0.990542 0.081254
O O8 0.378737 0.011326 0.822720
O O9 0.500000 0.309002 0.533059
O O10 0.608907 0.245034 0.214948
O O11 0.500000 0.317899 0.048528
O O12 0.308819 0.745807 0.253166
#
# Coordination Sequence:
#
# PCOD9352094 Si02
#       7
#     4   8   8   4   4   4   8
#     4  10  23  39  68  99 144 173 238 294 351 415
#     4  11  25  47  69 108 141 197 238 301 365 434
#     4  11  23  40  67 100 141 182 237 292 353 421
#     4  12  23  46  66 104 140 189 232 301 361 430
#     4  12  26  44  75  96 146 192 248 282 361 446
#     4  10  20  39  65  99 136 182 226 293 363 421
#     4  12  24  42  70 100 141 183 242 299 358 436
#
# _framework density 23.916924000000002
#
# number of rings (size 3 to 8) (size 9 to 14) (size 15 to 20)
#    0.000    0.800    4.000    3.600    0.000    9.600 
#    0.000    5.000    0.000    0.000    0.000    0.000 
#    0.000    0.000    0.000    0.000    0.000    0.000 
#
# Total GULP energy -111488.286580 kJ/mol
# GULP energy per Si atom -5574.414329 kJ/mol
# Density = 2.386249 g / cm^3
# Si number density = 23.916924 Si / 1000 Ang^3
#
#
#
# Elastic Constant Matrix: (Units=GPa)
#
#
# Indices 1 2 3 4 5 6 
#
# 1 112.1136 8.7287 20.0091 0.0000 0.0000 0.0000
# 2 8.7287 128.5567 60.1223 0.0000 0.0000 0.0000
# 3 20.0091 60.1223 156.7505 0.0000 0.0000 0.0000
# 4 0.0000 0.0000 0.0000 26.5874 0.0000 0.0000
# 5 0.0000 0.0000 0.0000 0.0000 16.8909 0.0000
# 6 0.0000 0.0000 0.0000 0.0000 0.0000 35.0199
#
#
#
# Elastic Compliance Matrix: (Units=1/GPa)
#
#
# Indices 1 2 3 4 5 6 
#
# 1 0.009128 -0.000091 -0.001130 0.000000 0.000000 0.000000
# 2 -0.000091 0.009480 -0.003624 0.000000 0.000000 0.000000
# 3 -0.001130 -0.003624 0.007914 0.000000 0.000000 0.000000
# 4 0.000000 0.000000 0.000000 0.037612 0.000000 0.000000
# 5 0.000000 0.000000 0.000000 0.000000 0.059204 0.000000
# 6 0.000000 0.000000 0.000000 0.000000 0.000000 0.028555
#
#
# Mechanical properties :
#
#
# Convention : Reuss Voigt Hill
#
# Bulk Modulus (GPa) = 59.41594 63.90457 61.66025
# Shear Modulus (GPa) = 29.90524 36.27035 33.08780
#
# Velocity S-wave (km/s) = 3.53991 3.89847 3.72351
# Velocity P-wave (km/s) = 6.45015 6.85868 6.65755
#
# Compressibility (1/GPa) = 0.01683050
#
# Stress axis : x y z
#
# Youngs Moduli (GPa) = 109.54892 105.48645 126.35847
#
# Poissons Ratio (x) = 0.00962 0.14282
# Poissons Ratio (y) = 0.00999 0.45797
# Poissons Ratio (z) = 0.12382 0.38233
#
# Static dielectric constant tensor:
#      x y z
#    x 2.241080 0.000000 0.000000 
#    y 0.000000 1.916420 0.000000 
#    z 0.000000 0.000000 1.915390 
# 
# From -- ./inp_files/540.got.cif
#   From: 2010.05.17/outbox.cif.g08.bks.cpg/sg36_1_cif.got.tgz:540.got - 2010.06.03 17:41:39.
