data_PCOD9352398
_publ_section_title
;
Structure prediction by ZEFSAII (Michael W. Deem and Ramdas Pophale) SiO2 
 PCOD9352398
Probable space group: C M C 21
;
_chemical_formula_sum "Si O2"
_cell_formula_units_Z 64
_cell_length_a 16.873650
_cell_length_b 14.625833
_cell_length_c 12.799403
_cell_angle_alpha 90.000000
_cell_angle_beta 90.000000
_cell_angle_gamma 90.000000
_cell_volume 3158.779859
_symmetry_space_group_name_H-M "C M C 21"
_symmetry_group_IT_number 36
_symmetry_cell_setting 'orthorhombic'
loop_
_space_group_symop_operation_xyz
x,y,z
-x,-y,1/2+z
x,-y,1/2+z
-x,y,z
1/2+x,1/2+y,z
1/2-x,1/2-y,1/2+z
1/2+x,1/2-y,1/2+z
1/2-x,1/2+y,z
loop_
_atom_site_type_symbol
_atom_site_label
_atom_site_fract_x
_atom_site_fract_y
_atom_site_fract_z
Si Si1 0.711209 0.550989 0.213450
Si Si2 0.584650 0.836953 0.215891
Si Si3 0.409306 0.886116 0.986301
Si Si4 0.789779 0.442879 0.502016
Si Si5 0.089091 0.844295 0.857539
Si Si6 0.658584 0.809296 0.777590
Si Si7 0.752449 0.877468 0.288696
Si Si8 0.906019 0.277138 0.548163
O O1 0.725654 0.574021 0.092744
O O2 0.645122 0.591720 0.289224
O O3 0.792733 0.597314 0.256987
O O4 0.700168 0.441781 0.210884
O O5 0.500000 0.885353 0.233066
O O6 0.583983 0.745931 0.284422
O O7 0.661884 0.888091 0.253390
O O8 0.593086 0.824466 0.091390
O O9 0.500000 0.923527 0.980202
O O10 0.391396 0.829362 0.881459
O O11 0.342304 0.964480 0.003393
O O12 0.741833 0.430240 0.396635
O O13 0.854338 0.361614 0.506499
O O14 0.000000 0.881856 0.868703
O O15 0.116281 0.808694 0.972532
O O16 0.720540 0.726420 0.795388
O O17 0.612340 0.778527 0.672400
O O18 0.000000 0.290483 0.532392
#
# Coordination Sequence:
#
# PCOD9352398 Si02
#       8
#     8   8   8   8   8   8   8   8
#     4  11  23  40  61  96 126 165 221 268 325 390
#     4  10  21  38  61  88 120 162 209 260 322 380
#     4  11  23  39  61  94 135 169 206 263 332 394
#     4  11  22  36  61  95 128 166 210 270 330 391
#     4  10  21  41  67  89 119 168 221 270 316 378
#     4  11  24  39  61  92 131 171 212 265 326 382
#     4  12  23  40  61  92 127 167 213 267 318 388
#     4  10  21  39  63  92 126 172 218 263 321 385
#
# _framework density 20.260988000000001
#
# number of rings (size 3 to 8) (size 9 to 14) (size 15 to 20)
#    0.000    1.250    5.000    0.750    1.750    2.500 
#    0.000    1.250    0.000    0.750    0.000    0.000 
#    0.000    0.000    0.000    0.000    0.000    0.000 
#
# Total GULP energy -178208.500406 kJ/mol
# GULP energy per Si atom -5569.015638 kJ/mol
# Density = 2.021487 g / cm^3
# Si number density = 20.260988 Si / 1000 Ang^3
#
#
#
# Elastic Constant Matrix: (Units=GPa)
#
#
# Indices 1 2 3 4 5 6 
#
# 1 57.8492 14.1279 20.7797 0.0000 0.0000 0.0000
# 2 14.1279 53.3337 -2.1257 0.0000 0.0000 0.0000
# 3 20.7797 -2.1257 100.1689 0.0000 0.0000 0.0000
# 4 0.0000 0.0000 0.0000 18.0252 0.0000 0.0000
# 5 0.0000 0.0000 0.0000 0.0000 31.9898 0.0000
# 6 0.0000 0.0000 0.0000 0.0000 0.0000 1.5837
#
#
#
# Elastic Compliance Matrix: (Units=1/GPa)
#
#
# Indices 1 2 3 4 5 6 
#
# 1 0.020179 -0.005517 -0.004303 0.000000 0.000000 0.000000
# 2 -0.005517 0.020274 0.001575 0.000000 0.000000 0.000000
# 3 -0.004303 0.001575 0.010909 0.000000 0.000000 0.000000
# 4 0.000000 0.000000 0.000000 0.055478 0.000000 0.000000
# 5 0.000000 0.000000 0.000000 0.000000 0.031260 0.000000
# 6 0.000000 0.000000 0.000000 0.000000 0.000000 0.631428
#
#
# Mechanical properties :
#
#
# Convention : Reuss Voigt Hill
#
# Bulk Modulus (GPa) = 28.67649 30.76839 29.72244
# Shear Modulus (GPa) = 6.26846 22.22440 14.24643
#
# Velocity S-wave (km/s) = 1.76084 3.31555 2.65457
# Velocity P-wave (km/s) = 4.28000 5.46591 4.90890
#
# Compressibility (1/GPa) = 0.03487178
#
# Stress axis : x y z
#
# Youngs Moduli (GPa) = 49.55547 49.32405 91.66539
#
# Poissons Ratio (x) = 0.27212 0.39446
# Poissons Ratio (y) = 0.27340 -0.14435
# Poissons Ratio (z) = 0.21325 -0.07767
#
# Static dielectric constant tensor:
#      x y z
#    x 1.747150 0.000000 0.000000 
#    y 0.000000 1.720900 0.000000 
#    z 0.000000 0.000000 1.758430 
# 
# From -- ./inp_files/9003.got.cif
#   From: 2010.05.17/outbox.cif.g08.bks.cpg/sg36_5_cif.got.tgz:9003.got - 2010.06.03 17:41:39.
