data_PCOD9352447
_publ_section_title
;
Structure prediction by ZEFSAII (Michael W. Deem and Ramdas Pophale) SiO2 
 PCOD9352447
Probable space group: C M C 21
;
_chemical_formula_sum "Si O2"
_cell_formula_units_Z 64
_cell_length_a 23.260169
_cell_length_b 8.939808
_cell_length_c 14.277994
_cell_angle_alpha 90.000000
_cell_angle_beta 90.000000
_cell_angle_gamma 90.000000
_cell_volume 2968.986703
_symmetry_space_group_name_H-M "C M C 21"
_symmetry_group_IT_number 36
_symmetry_cell_setting 'orthorhombic'
loop_
_space_group_symop_operation_xyz
x,y,z
-x,-y,1/2+z
x,-y,1/2+z
-x,y,z
1/2+x,1/2+y,z
1/2-x,1/2-y,1/2+z
1/2+x,1/2-y,1/2+z
1/2-x,1/2+y,z
loop_
_atom_site_type_symbol
_atom_site_label
_atom_site_fract_x
_atom_site_fract_y
_atom_site_fract_z
Si Si1 0.632794 0.577120 0.218350
Si Si2 0.626111 0.232412 0.986029
Si Si3 0.757053 0.790127 0.448204
Si Si4 0.121596 0.235323 0.032898
Si Si5 0.567403 0.031822 0.125702
Si Si6 0.749306 0.539939 0.312951
Si Si7 0.568337 0.476340 0.390560
Si Si8 0.873804 0.584153 0.795885
O O1 0.619169 0.602158 0.110209
O O2 0.697412 0.523617 0.240793
O O3 0.590069 0.482807 0.283314
O O4 0.628110 0.746419 0.258159
O O5 0.695216 0.234808 0.994593
O O6 0.599565 0.384453 0.943959
O O7 0.614767 0.105188 0.905852
O O8 0.597336 0.176066 0.080639
O O9 0.811579 0.739840 0.507434
O O10 0.755192 0.709577 0.346975
O O11 0.764829 0.959787 0.412728
O O12 0.093876 0.384183 0.075478
O O13 0.089424 0.173583 0.941701
O O14 0.500000 0.037484 0.109331
O O15 0.581543 0.008880 0.235057
O O16 0.810971 0.484917 0.280094
O O17 0.500000 0.493755 0.396027
#
# Coordination Sequence:
#
# PCOD9352447 Si02
#       8
#     8   8   8   8   8   8   8   8
#     4  10  21  39  58  90 120 163 202 247 316 364
#     4  10  21  41  61  89 118 165 200 252 311 360
#     4  11  20  37  64  88 127 151 201 253 306 367
#     4  11  23  38  62  94 120 162 206 262 313 362
#     4  11  24  41  61  89 123 161 211 250 299 372
#     4  11  18  39  60  88 123 155 198 246 308 369
#     4  11  22  41  63  85 121 166 207 250 305 372
#     4   9  21  38  61  87 116 161 203 248 302 362
#
# _framework density 21.556175
#
# number of rings (size 3 to 8) (size 9 to 14) (size 15 to 20)
#    0.000    1.500    5.000    2.250    1.750    5.500 
#    4.500    0.000    0.000    3.000    0.000    0.000 
#    0.000    0.000    0.000    0.000    0.000    0.000 
#
# Total GULP energy -178740.642802 kJ/mol
# GULP energy per Si atom -5585.645088 kJ/mol
# Density = 2.150711 g / cm^3
# Si number density = 21.556175 Si / 1000 Ang^3
#
#
#
# Elastic Constant Matrix: (Units=GPa)
#
#
# Indices 1 2 3 4 5 6 
#
# 1 94.0178 6.0690 16.8163 0.0000 0.0000 0.0000
# 2 6.0690 16.7042 -7.1772 0.0000 0.0000 0.0000
# 3 16.8163 -7.1772 32.5018 0.0000 0.0000 0.0000
# 4 0.0000 0.0000 0.0000 18.5871 0.0000 0.0000
# 5 0.0000 0.0000 0.0000 0.0000 27.2475 0.0000
# 6 0.0000 0.0000 0.0000 0.0000 0.0000 21.8813
#
#
#
# Elastic Compliance Matrix: (Units=1/GPa)
#
#
# Indices 1 2 3 4 5 6 
#
# 1 0.012660 -0.008191 -0.008359 0.000000 0.000000 0.000000
# 2 -0.008191 0.071441 0.020014 0.000000 0.000000 0.000000
# 3 -0.008359 0.020014 0.039512 0.000000 0.000000 0.000000
# 4 0.000000 0.000000 0.000000 0.053801 0.000000 0.000000
# 5 0.000000 0.000000 0.000000 0.000000 0.036701 0.000000
# 6 0.000000 0.000000 0.000000 0.000000 0.000000 0.045701
#
#
# Mechanical properties :
#
#
# Convention : Reuss Voigt Hill
#
# Bulk Modulus (GPa) = 7.66048 19.40443 13.53245
# Shear Modulus (GPa) = 16.86899 22.04422 19.45661
#
# Velocity S-wave (km/s) = 2.80046 3.20134 3.00759
# Velocity P-wave (km/s) = 3.74409 4.76300 4.28394
#
# Compressibility (1/GPa) = 0.13054019
#
# Stress axis : x y z
#
# Youngs Moduli (GPa) = 78.98768 13.99762 25.30866
#
# Poissons Ratio (x) = 0.11466 0.21156
# Poissons Ratio (y) = 0.64702 -0.50653
# Poissons Ratio (z) = 0.66027 -0.28015
#
# Static dielectric constant tensor:
#      x y z
#    x 1.735820 0.000000 0.000000 
#    y 0.000000 1.802100 0.000000 
#    z 0.000000 0.000000 1.814830 
# 
# From -- ./inp_files/12987.got.cif
#   From: 2010.05.17/outbox.cif.g08.bks.cpg/sg36_7_cif.got.tgz:12987.got - 2010.06.03 17:41:39.
