data_PCOD9352534
_publ_section_title
;
Structure prediction by ZEFSAII (Michael W. Deem and Ramdas Pophale) SiO2 
 PCOD9352534
Probable space group: C M C 21
;
_chemical_formula_sum "Si O2"
_cell_formula_units_Z 56
_cell_length_a 23.350957
_cell_length_b 7.765674
_cell_length_c 12.110647
_cell_angle_alpha 90.000000
_cell_angle_beta 90.000000
_cell_angle_gamma 90.000000
_cell_volume 2196.095311
_symmetry_space_group_name_H-M "C M C 21"
_symmetry_group_IT_number 36
_symmetry_cell_setting 'orthorhombic'
loop_
_space_group_symop_operation_xyz
x,y,z
-x,-y,1/2+z
x,-y,1/2+z
-x,y,z
1/2+x,1/2+y,z
1/2-x,1/2-y,1/2+z
1/2+x,1/2-y,1/2+z
1/2-x,1/2+y,z
loop_
_atom_site_type_symbol
_atom_site_label
_atom_site_fract_x
_atom_site_fract_y
_atom_site_fract_z
Si Si1 0.401071 0.100531 0.612830
Si Si2 0.192811 0.831117 0.199566
Si Si3 0.440109 0.640169 0.941746
Si Si4 0.685809 0.198706 0.781517
Si Si5 0.180307 0.034835 0.905312
Si Si6 0.206791 0.534540 0.020131
Si Si7 0.564562 0.273993 0.191689
O O1 0.438918 0.233692 0.546064
O O2 0.375594 0.161808 0.729300
O O3 0.342619 0.103359 0.539395
O O4 0.426765 0.910848 0.631823
O O5 0.262559 0.869992 0.204338
O O6 0.189092 0.791654 0.333400
O O7 0.124578 0.880739 0.175595
O O8 0.196484 0.672569 0.115300
O O9 0.500000 0.541748 0.938293
O O10 0.384154 0.522276 0.943507
O O11 0.437118 0.743754 0.825588
O O12 0.691322 0.403113 0.803135
O O13 0.691841 0.119301 0.901930
O O14 0.225357 0.000812 0.001836
O O15 0.500000 0.340888 0.163079
#
# Coordination Sequence:
#
# PCOD9352534 Si02
#       7
#     8   8   8   8   8   8   8
#     4  11  22  37  62  93 120 155 202 256 309 360
#     4   9  21  36  57  86 119 155 196 245 305 362
#     4  10  21  40  63  86 121 168 206 243 301 369
#     4  11  24  37  59  94 123 156 199 254 314 361
#     4  10  23  38  59  88 123 157 204 245 308 368
#     4  10  23  37  60  89 124 154 198 252 312 363
#     4   9  19  37  60  86 117 155 203 251 289 351
#
# _framework density 25.499804999999999
#
# number of rings (size 3 to 8) (size 9 to 14) (size 15 to 20)
#    0.000    2.000    0.000    2.143   16.000    1.143 
#    0.000    1.429    0.000   12.000    0.000    0.000 
#    0.000    0.000    0.000    0.000    0.000    0.000 
#
# Total GULP energy -155961.665937 kJ/mol
# GULP energy per Si atom -5570.059498 kJ/mol
# Density = 2.544177 g / cm^3
# Si number density = 25.499805 Si / 1000 Ang^3
#
#
#
# Elastic Constant Matrix: (Units=GPa)
#
#
# Indices 1 2 3 4 5 6 
#
# 1 228.4078 14.7803 37.8728 0.0000 0.0000 0.0000
# 2 14.7803 0.6081 46.1705 0.0000 0.0000 0.0000
# 3 37.8728 46.1705 15.5311 0.0000 0.0000 0.0000
# 4 0.0000 0.0000 0.0000 38.2899 0.0000 0.0000
# 5 0.0000 0.0000 0.0000 0.0000 22.0935 0.0000
# 6 0.0000 0.0000 0.0000 0.0000 0.0000 24.1368
#
#
#
# Elastic Compliance Matrix: (Units=1/GPa)
#
#
# Indices 1 2 3 4 5 6 
#
# 1 0.004853 -0.003474 -0.001508 0.000000 0.000000 0.000000
# 2 -0.003474 -0.004832 0.022834 0.000000 0.000000 0.000000
# 3 -0.001508 0.022834 0.000182 0.000000 0.000000 0.000000
# 4 0.000000 0.000000 0.000000 0.026117 0.000000 0.000000
# 5 0.000000 0.000000 0.000000 0.000000 0.045262 0.000000
# 6 0.000000 0.000000 0.000000 0.000000 0.000000 0.041430
#
#
# Mechanical properties :
#
#
# Convention : Reuss Voigt Hill
#
# Bulk Modulus (GPa) = 27.84802 49.13269 38.49035
# Shear Modulus (GPa) = 56.00631 26.61895 41.31263
#
# Velocity S-wave (km/s) = 4.69160 3.23443 4.02943
# Velocity P-wave (km/s) = 6.34766 5.76701 6.06429
#
# Compressibility (1/GPa) = 0.03590919
#
# Stress axis : x y z
#
# Youngs Moduli (GPa) = 206.06158 -206.95745 5495.76159
#
# Poissons Ratio (x) = -0.71888 8.28647
# Poissons Ratio (y) = 0.71577 -125.49277
# Poissons Ratio (z) = 0.31070 4.72576
#
# Static dielectric constant tensor:
#      x y z
#    x 2.110950 0.000000 0.000000 
#    y 0.000000 2.841210 0.000000 
#    z 0.000000 0.000000 2.071340 
# 
# From -- ./inp_files/9483.got.cif
#   From: 2010.05.17/outbox.cif.g08.bks.cpg/sg36_5_cif.got.tgz:9483.got - 2010.06.03 17:41:39.
