data_PCOD9352603
_publ_section_title
;
Structure prediction by ZEFSAII (Michael W. Deem and Ramdas Pophale) SiO2 
 PCOD9352603
Probable space group: C M C 21
;
_chemical_formula_sum "Si O2"
_cell_formula_units_Z 64
_cell_length_a 8.450380
_cell_length_b 31.247451
_cell_length_c 12.399472
_cell_angle_alpha 90.000000
_cell_angle_beta 90.000000
_cell_angle_gamma 90.000000
_cell_volume 3274.115734
_symmetry_space_group_name_H-M "C M C 21"
_symmetry_group_IT_number 36
_symmetry_cell_setting 'orthorhombic'
loop_
_space_group_symop_operation_xyz
x,y,z
-x,-y,1/2+z
x,-y,1/2+z
-x,y,z
1/2+x,1/2+y,z
1/2-x,1/2-y,1/2+z
1/2+x,1/2-y,1/2+z
1/2-x,1/2+y,z
loop_
_atom_site_type_symbol
_atom_site_label
_atom_site_fract_x
_atom_site_fract_y
_atom_site_fract_z
Si Si1 0.315857 0.827153 0.055660
Si Si2 0.685624 0.456781 0.292047
Si Si3 0.818413 0.082124 0.555338
Si Si4 0.309468 0.878687 0.438470
Si Si5 0.189003 0.124210 0.184291
Si Si6 0.307602 0.201287 0.788560
Si Si7 0.309230 0.797006 0.825552
Si Si8 0.685868 0.951262 0.839779
O O1 0.500000 0.814854 0.056457
O O2 0.297230 0.877761 0.051295
O O3 0.248942 0.812219 0.169684
O O4 0.247606 0.809300 0.944843
O O5 0.500000 0.464718 0.314140
O O6 0.700405 0.440764 0.169331
O O7 0.746011 0.419622 0.372138
O O8 0.780227 0.500794 0.301381
O O9 0.778210 0.053913 0.452167
O O10 0.000000 0.097399 0.547340
O O11 0.500000 0.880369 0.438476
O O12 0.249557 0.878301 0.561332
O O13 0.260410 0.835239 0.374761
O O14 0.242873 0.168613 0.240403
O O15 0.255305 0.084779 0.255660
O O16 0.000000 0.121982 0.185044
O O17 0.500000 0.202381 0.789496
O O18 0.242373 0.248425 0.807905
O O19 0.500000 0.800488 0.822614
O O20 0.500000 0.944642 0.857365
#
# Coordination Sequence:
#
# PCOD9352603 Si02
#       8
#     8   8   8   8   8   8   8   8
#     4  10  21  41  66  92 126 167 212 267 322 378
#     4  11  25  44  67  98 133 171 217 265 322 384
#     4  11  23  41  68  97 128 167 213 267 325 383
#     4  11  24  44  68  96 131 172 218 266 323 386
#     4  12  26  45  67  93 132 172 214 268 328 389
#     4  10  23  42  65  95 130 170 214 263 320 381
#     4  11  24  41  65  97 130 168 217 266 320 384
#     4  12  26  44  68  96 130 171 219 268 322 385
#
# _framework density 19.547262
#
# number of rings (size 3 to 8) (size 9 to 14) (size 15 to 20)
#    0.000    1.000    2.500    3.750    3.500    3.500 
#    0.000    0.000    0.000    0.000    0.000    0.000 
#    0.000    0.000    0.000    0.000    0.000    0.000 
#
# Total GULP energy -178855.216820 kJ/mol
# GULP energy per Si atom -5589.225526 kJ/mol
# Density = 1.950277 g / cm^3
# Si number density = 19.547262 Si / 1000 Ang^3
#
#
#
# Elastic Constant Matrix: (Units=GPa)
#
#
# Indices 1 2 3 4 5 6 
#
# 1 49.2312 16.1157 35.5213 0.0000 0.0000 0.0000
# 2 16.1157 113.7291 49.0349 0.0000 0.0000 0.0000
# 3 35.5213 49.0349 152.9887 0.0000 0.0000 0.0000
# 4 0.0000 0.0000 0.0000 16.8331 0.0000 0.0000
# 5 0.0000 0.0000 0.0000 0.0000 -1.3627 0.0000
# 6 0.0000 0.0000 0.0000 0.0000 0.0000 38.2784
#
#
#
# Elastic Compliance Matrix: (Units=1/GPa)
#
#
# Indices 1 2 3 4 5 6 
#
# 1 0.024537 -0.001184 -0.005317 0.000000 0.000000 0.000000
# 2 -0.001184 0.010260 -0.003013 0.000000 0.000000 0.000000
# 3 -0.005317 -0.003013 0.008737 0.000000 0.000000 0.000000
# 4 0.000000 0.000000 0.000000 0.059407 0.000000 0.000000
# 5 0.000000 0.000000 0.000000 0.000000 -0.733861 0.000000
# 6 0.000000 0.000000 0.000000 0.000000 0.000000 0.026124
#
#
# Mechanical properties :
#
#
# Convention : Reuss Voigt Hill
#
# Bulk Modulus (GPa) = 40.81110 57.47696 49.14403
# Shear Modulus (GPa) = -8.65653 25.10158 8.22253
#
# Velocity S-wave (km/s) = -2.10669 3.58739 2.05320
# Velocity P-wave (km/s) = 3.87376 6.82840 5.55126
#
# Compressibility (1/GPa) = 0.02450314
#
# Stress axis : x y z
#
# Youngs Moduli (GPa) = 40.75542 97.46675 114.45715
#
# Poissons Ratio (x) = 0.11543 0.60861
# Poissons Ratio (y) = 0.04827 0.34491
# Poissons Ratio (z) = 0.21671 0.29371
#
# Static dielectric constant tensor:
#      x y z
#    x 1.680400 0.000000 0.000000 
#    y 0.000000 1.679450 0.000000 
#    z 0.000000 0.000000 1.652040 
# 
# From -- ./inp_files/7109.got.cif
#   From: 2010.05.17/outbox.cif.g08.bks.cpg/sg36_4_cif.got.tgz:7109.got - 2010.06.03 17:41:39.
