data_PCOD9352073
_publ_section_title
;
Structure prediction by ZEFSAII (Michael W. Deem and Ramdas Pophale) SiO2 
 PCOD9352073
Probable space group: C M C 21
;
_chemical_formula_sum "Si O2"
_cell_formula_units_Z 64
_cell_length_a 8.861999
_cell_length_b 29.476051
_cell_length_c 12.526879
_cell_angle_alpha 90.000000
_cell_angle_beta 90.000000
_cell_angle_gamma 90.000000
_cell_volume 3272.230426
_symmetry_space_group_name_H-M "C M C 21"
_symmetry_group_IT_number 36
_symmetry_cell_setting 'orthorhombic'
loop_
_space_group_symop_operation_xyz
x,y,z
-x,-y,1/2+z
x,-y,1/2+z
-x,y,z
1/2+x,1/2+y,z
1/2-x,1/2-y,1/2+z
1/2+x,1/2-y,1/2+z
1/2-x,1/2+y,z
loop_
_atom_site_type_symbol
_atom_site_label
_atom_site_fract_x
_atom_site_fract_y
_atom_site_fract_z
Si Si1 0.822011 0.223465 0.250000
Si Si2 0.681121 0.027267 0.535662
Si Si3 0.833440 0.318126 0.938403
Si Si4 0.179591 0.571733 0.963766
Si Si5 0.320365 0.418556 0.234934
Si Si6 0.172977 0.583331 0.334172
Si Si7 0.180789 0.131566 0.137442
Si Si8 0.322141 0.821759 0.191092
O O1 0.789861 0.207636 0.369862
O O2 0.765308 0.181821 0.175505
O O3 0.761442 0.274047 0.235192
O O4 0.000000 0.226598 0.228637
O O5 0.500000 0.035144 0.542011
O O6 0.756757 0.053033 0.634293
O O7 0.729684 0.046642 0.419440
O O8 0.709477 0.973704 0.532494
O O9 0.830847 0.370324 0.902568
O O10 0.000000 0.299833 0.909802
O O11 0.815117 0.316305 0.063752
O O12 0.250745 0.565645 0.847226
O O13 0.000000 0.576831 0.953329
O O14 0.248546 0.614123 0.027582
O O15 0.500000 0.422004 0.236825
O O16 0.268251 0.366360 0.222555
O O17 0.268148 0.596487 0.230425
O O18 0.000000 0.571959 0.301944
O O19 0.000000 0.132098 0.130589
O O20 0.500000 0.828035 0.220515
#
# Coordination Sequence:
#
# PCOD9352073 Si02
#       8
#     8   8   8   8   8   8   8   8
#     4   9  20  36  58  87 121 161 205 253 309 366
#     4  10  22  42  66  89 117 159 210 252 294 364
#     4   9  17  32  56  82 112 151 200 252 301 354
#     4  11  25  43  65  90 123 169 212 250 300 371
#     4  12  26  42  63  94 129 159 198 257 320 368
#     4   9  17  34  60  86 110 150 204 254 298 356
#     4  10  21  38  58  89 130 162 199 257 315 362
#     4  10  20  39  62  85 118 163 208 251 301 367
#
# _framework density 19.558523000000001
#
# number of rings (size 3 to 8) (size 9 to 14) (size 15 to 20)
#    0.000    2.000    1.250    1.875    1.750    4.000 
#    0.000    1.250    0.000    0.000    0.000    0.000 
#    0.000    0.000    0.000    0.000    0.000    0.000 
#
# Total GULP energy -178587.739215 kJ/mol
# GULP energy per Si atom -5580.866850 kJ/mol
# Density = 1.951401 g / cm^3
# Si number density = 19.558523 Si / 1000 Ang^3
#
#
#
# Elastic Constant Matrix: (Units=GPa)
#
#
# Indices 1 2 3 4 5 6 
#
# 1 53.7886 41.5148 23.1102 0.0000 0.0000 0.0000
# 2 41.5148 97.2484 37.7090 0.0000 0.0000 0.0000
# 3 23.1102 37.7090 51.0495 0.0000 0.0000 0.0000
# 4 0.0000 0.0000 0.0000 21.2378 0.0000 0.0000
# 5 0.0000 0.0000 0.0000 0.0000 28.3599 0.0000
# 6 0.0000 0.0000 0.0000 0.0000 0.0000 14.6873
#
#
#
# Elastic Compliance Matrix: (Units=1/GPa)
#
#
# Indices 1 2 3 4 5 6 
#
# 1 0.028805 -0.010147 -0.005545 0.000000 0.000000 0.000000
# 2 -0.010147 0.017985 -0.008691 0.000000 0.000000 0.000000
# 3 -0.005545 -0.008691 0.028519 0.000000 0.000000 0.000000
# 4 0.000000 0.000000 0.000000 0.047086 0.000000 0.000000
# 5 0.000000 0.000000 0.000000 0.000000 0.035261 0.000000
# 6 0.000000 0.000000 0.000000 0.000000 0.000000 0.068086
#
#
# Mechanical properties :
#
#
# Convention : Reuss Voigt Hill
#
# Bulk Modulus (GPa) = 37.67507 45.19494 41.43500
# Shear Modulus (GPa) = 17.64568 19.50716 18.57642
#
# Velocity S-wave (km/s) = 3.00692 3.16155 3.08520
# Velocity P-wave (km/s) = 5.60000 6.04027 5.82430
#
# Compressibility (1/GPa) = 0.02654275
#
# Stress axis : x y z
#
# Youngs Moduli (GPa) = 34.71626 55.60301 35.06401
#
# Poissons Ratio (x) = 0.56418 0.19443
# Poissons Ratio (y) = 0.35225 0.30476
# Poissons Ratio (z) = 0.19250 0.48327
#
# Static dielectric constant tensor:
#      x y z
#    x 1.675900 0.000000 0.000000 
#    y 0.000000 1.699400 0.000000 
#    z 0.000000 0.000000 1.672840 
# 
# From -- ./inp_files/7154.got.cif
#   From: 2010.05.17/outbox.cif.g08.bks.cpg/sg36_4_cif.got.tgz:7154.got - 2010.06.03 17:41:39.
