data_PCOD9352312
_publ_section_title
;
Structure prediction by ZEFSAII (Michael W. Deem and Ramdas Pophale) SiO2 
 PCOD9352312
Probable space group: C M C 21
;
_chemical_formula_sum "Si O2"
_cell_formula_units_Z 64
_cell_length_a 8.315611
_cell_length_b 23.392303
_cell_length_c 16.566043
_cell_angle_alpha 90.000000
_cell_angle_beta 90.000000
_cell_angle_gamma 90.000000
_cell_volume 3222.448090
_symmetry_space_group_name_H-M "C M C 21"
_symmetry_group_IT_number 36
_symmetry_cell_setting 'orthorhombic'
loop_
_space_group_symop_operation_xyz
x,y,z
-x,-y,1/2+z
x,-y,1/2+z
-x,y,z
1/2+x,1/2+y,z
1/2-x,1/2-y,1/2+z
1/2+x,1/2-y,1/2+z
1/2-x,1/2+y,z
loop_
_atom_site_type_symbol
_atom_site_label
_atom_site_fract_x
_atom_site_fract_y
_atom_site_fract_z
Si Si1 0.311895 0.860319 0.381280
Si Si2 0.693384 0.462222 0.709716
Si Si3 0.312014 0.834156 0.681424
Si Si4 0.187138 0.785769 0.518036
Si Si5 0.308939 0.538455 0.554196
Si Si6 0.307039 0.167151 0.575926
Si Si7 0.805931 0.725452 0.748036
Si Si8 0.806451 0.510782 0.882373
O O1 0.500000 0.866718 0.361333
O O2 0.290770 0.827903 0.464661
O O3 0.242319 0.817001 0.316059
O O4 0.244393 0.923810 0.383917
O O5 0.500000 0.459703 0.706597
O O6 0.763890 0.398758 0.699384
O O7 0.748113 0.502535 0.633837
O O8 0.743848 0.484133 0.798515
O O9 0.500000 0.831168 0.660557
O O10 0.205366 0.809929 0.608188
O O11 0.274410 0.787628 0.750523
O O12 0.241850 0.719568 0.517315
O O13 0.000000 0.788197 0.494486
O O14 0.500000 0.531177 0.551266
O O15 0.268320 0.605396 0.563909
O O16 0.241707 0.517442 0.467806
O O17 0.500000 0.161309 0.569310
O O18 0.271731 0.192514 0.664429
O O19 0.000000 0.732540 0.754371
O O20 0.000000 0.509585 0.879096
#
# Coordination Sequence:
#
# PCOD9352312 Si02
#       8
#     8   8   8   8   8   8   8   8
#     4  10  21  37  59  86 114 148 190 236 289 346
#     4  11  24  42  63  88 121 160 201 247 300 353
#     4  11  22  37  59  86 115 150 194 238 288 349
#     4  10  21  37  58  84 115 151 190 236 289 344
#     4  11  24  40  61  89 121 159 199 245 301 355
#     4   9  19  37  59  82 112 152 195 238 288 346
#     4   9  19  37  59  84 116 150 186 235 292 348
#     4  11  24  41  62  89 120 156 201 247 293 355
#
# _framework density 19.860678
#
# number of rings (size 3 to 8) (size 9 to 14) (size 15 to 20)
#    0.000    1.750    0.000    4.875    0.000   10.000 
#    0.000    2.500    0.000    0.000    0.000    0.000 
#    0.000    0.000    0.000    0.000    0.000    0.000 
#
# Total GULP energy -178560.248684 kJ/mol
# GULP energy per Si atom -5580.007771 kJ/mol
# Density = 1.981547 g / cm^3
# Si number density = 19.860678 Si / 1000 Ang^3
#
#
#
# Elastic Constant Matrix: (Units=GPa)
#
#
# Indices 1 2 3 4 5 6 
#
# 1 36.7923 20.0196 5.0547 0.0000 0.0000 0.0000
# 2 20.0196 177.6869 57.5780 0.0000 0.0000 0.0000
# 3 5.0547 57.5780 83.5269 0.0000 0.0000 0.0000
# 4 0.0000 0.0000 0.0000 28.2409 0.0000 0.0000
# 5 0.0000 0.0000 0.0000 0.0000 23.2897 0.0000
# 6 0.0000 0.0000 0.0000 0.0000 0.0000 17.2489
#
#
#
# Elastic Compliance Matrix: (Units=1/GPa)
#
#
# Indices 1 2 3 4 5 6 
#
# 1 0.028981 -0.003473 0.000640 0.000000 0.000000 0.000000
# 2 -0.003473 0.007663 -0.005072 0.000000 0.000000 0.000000
# 3 0.000640 -0.005072 0.015430 0.000000 0.000000 0.000000
# 4 0.000000 0.000000 0.000000 0.035410 0.000000 0.000000
# 5 0.000000 0.000000 0.000000 0.000000 0.042938 0.000000
# 6 0.000000 0.000000 0.000000 0.000000 0.000000 0.057975
#
#
# Mechanical properties :
#
#
# Convention : Reuss Voigt Hill
#
# Bulk Modulus (GPa) = 27.57528 51.47896 39.52712
# Shear Modulus (GPa) = 23.11680 28.11282 25.61481
#
# Velocity S-wave (km/s) = 3.41537 3.76640 3.59517
# Velocity P-wave (km/s) = 5.42840 6.70005 6.09746
#
# Compressibility (1/GPa) = 0.03626437
#
# Stress axis : x y z
#
# Youngs Moduli (GPa) = 34.50511 130.50282 64.80977
#
# Poissons Ratio (x) = 0.45319 -0.04148
# Poissons Ratio (y) = 0.11982 0.32872
# Poissons Ratio (z) = -0.02208 0.66191
#
# Static dielectric constant tensor:
#      x y z
#    x 1.683070 0.000000 0.000000 
#    y 0.000000 1.694850 0.000000 
#    z 0.000000 0.000000 1.734610 
# 
# From -- ./inp_files/11078.got.cif
#   From: 2010.05.17/outbox.cif.g08.bks.cpg/sg36_6_cif.got.tgz:11078.got - 2010.06.03 17:41:39.
