data_PCOD9352255
_publ_section_title
;
Structure prediction by ZEFSAII (Michael W. Deem and Ramdas Pophale) SiO2 
 PCOD9352255
Probable space group: C M C 21
;
_chemical_formula_sum "Si O2"
_cell_formula_units_Z 40
_cell_length_a 22.665176
_cell_length_b 16.127160
_cell_length_c 5.126461
_cell_angle_alpha 90.000000
_cell_angle_beta 90.000000
_cell_angle_gamma 90.000000
_cell_volume 1873.849246
_symmetry_space_group_name_H-M "C M C 21"
_symmetry_group_IT_number 36
_symmetry_cell_setting 'orthorhombic'
loop_
_space_group_symop_operation_xyz
x,y,z
-x,-y,1/2+z
x,-y,1/2+z
-x,y,z
1/2+x,1/2+y,z
1/2-x,1/2-y,1/2+z
1/2+x,1/2-y,1/2+z
1/2-x,1/2+y,z
loop_
_atom_site_type_symbol
_atom_site_label
_atom_site_fract_x
_atom_site_fract_y
_atom_site_fract_z
Si Si1 0.674659 0.056056 0.412450
Si Si2 0.068115 0.035375 0.232058
Si Si3 0.403622 0.287190 0.945134
Si Si4 0.067411 0.318292 0.940218
Si Si5 0.266340 0.298733 0.854487
O O1 0.616024 0.112006 0.381247
O O2 0.730502 0.116129 0.371173
O O3 0.675281 0.015852 0.697593
O O4 0.069465 0.126244 0.351719
O O5 0.000000 0.011479 0.181770
O O6 0.096260 0.974726 0.447524
O O7 0.419753 0.219588 0.725066
O O8 0.333717 0.301987 0.943665
O O9 0.424694 0.253758 0.223533
O O10 0.000000 0.348494 0.928858
O O11 0.264051 0.263596 0.561274
#
# Coordination Sequence:
#
# PCOD9352255 Si02
#       5
#     8   8   8   8   8
#     4  12  26  44  69 102 138 174 224 283 338 395
#     4  10  21  36  56  88 130 166 206 266 326 378
#     4  12  23  42  70  96 133 174 233 275 330 406
#     4  12  25  43  69 101 135 183 229 273 334 408
#     4  12  23  45  70  95 130 175 218 275 336 391
#
# _framework density 21.346435
#
# number of rings (size 3 to 8) (size 9 to 14) (size 15 to 20)
#    0.000    0.400    4.000    5.400    0.000    4.000 
#    0.000    0.000    0.000    0.000    0.000    0.000 
#    0.000    0.000    0.000    0.000    0.000    0.000 
#
# Total GULP energy -111892.389949 kJ/mol
# GULP energy per Si atom -5594.619497 kJ/mol
# Density = 2.129785 g / cm^3
# Si number density = 21.346435 Si / 1000 Ang^3
#
#
#
# Elastic Constant Matrix: (Units=GPa)
#
#
# Indices 1 2 3 4 5 6 
#
# 1 99.6738 -1.0051 5.1846 0.0000 0.0000 0.0000
# 2 -1.0051 42.7700 -14.4698 0.0000 0.0000 0.0000
# 3 5.1846 -14.4698 54.1157 0.0000 0.0000 0.0000
# 4 0.0000 0.0000 0.0000 47.5036 0.0000 0.0000
# 5 0.0000 0.0000 0.0000 0.0000 33.9316 0.0000
# 6 0.0000 0.0000 0.0000 0.0000 0.0000 -196.2608
#
#
#
# Elastic Compliance Matrix: (Units=1/GPa)
#
#
# Indices 1 2 3 4 5 6 
#
# 1 0.010083 -0.000099 -0.000992 0.000000 0.000000 0.000000
# 2 -0.000099 0.025707 0.006883 0.000000 0.000000 0.000000
# 3 -0.000992 0.006883 0.020415 0.000000 0.000000 0.000000
# 4 0.000000 0.000000 0.000000 0.021051 0.000000 0.000000
# 5 0.000000 0.000000 0.000000 0.000000 0.029471 0.000000
# 6 0.000000 0.000000 0.000000 0.000000 0.000000 -0.005095
#
#
# Mechanical properties :
#
#
# Convention : Reuss Voigt Hill
#
# Bulk Modulus (GPa) = 14.75164 19.55321 17.15243
# Shear Modulus (GPa) = 44.38748 -9.17515 17.60616
#
# Velocity S-wave (km/s) = 4.56498 -2.07546 2.87502
# Velocity P-wave (km/s) = 5.89160 1.85376 4.36734
#
# Compressibility (1/GPa) = 0.06778906
#
# Stress axis : x y z
#
# Youngs Moduli (GPa) = 99.17338 38.89954 48.98477
#
# Poissons Ratio (x) = 0.00384 0.04862
# Poissons Ratio (y) = 0.00980 -0.33717
# Poissons Ratio (z) = 0.09843 -0.26776
#
# Static dielectric constant tensor:
#      x y z
#    x 1.736700 0.000000 0.000000 
#    y 0.000000 1.748070 0.000000 
#    z 0.000000 0.000000 1.790320 
# 
# From -- ./inp_files/1534.got.cif
#   From: 2010.05.17/outbox.cif.g08.bks.cpg/sg36_1_cif.got.tgz:1534.got - 2010.06.03 17:41:39.
