data_PCOD9352400
_publ_section_title
;
Structure prediction by ZEFSAII (Michael W. Deem and Ramdas Pophale) SiO2 
 PCOD9352400
Probable space group: C M C 21
;
_chemical_formula_sum "Si O2"
_cell_formula_units_Z 48
_cell_length_a 13.708434
_cell_length_b 17.966855
_cell_length_c 7.028197
_cell_angle_alpha 90.000000
_cell_angle_beta 90.000000
_cell_angle_gamma 90.000000
_cell_volume 1731.026971
_symmetry_space_group_name_H-M "C M C 21"
_symmetry_group_IT_number 36
_symmetry_cell_setting 'orthorhombic'
loop_
_space_group_symop_operation_xyz
x,y,z
-x,-y,1/2+z
x,-y,1/2+z
-x,y,z
1/2+x,1/2+y,z
1/2-x,1/2-y,1/2+z
1/2+x,1/2-y,1/2+z
1/2-x,1/2+y,z
loop_
_atom_site_type_symbol
_atom_site_label
_atom_site_fract_x
_atom_site_fract_y
_atom_site_fract_z
Si Si1 0.889009 0.062959 0.615470
Si Si2 0.315234 0.596755 0.223099
Si Si3 0.390492 0.105836 0.670447
Si Si4 0.610836 0.716632 0.781064
Si Si5 0.609966 0.063046 0.233570
Si Si6 0.678871 0.747819 0.356138
O O1 0.812490 0.083856 0.452672
O O2 0.880555 0.125566 0.780017
O O3 0.000000 0.071512 0.542574
O O4 0.872242 0.976765 0.661159
O O5 0.206194 0.597349 0.138959
O O6 0.357222 0.679716 0.221087
O O7 0.500000 0.120682 0.735567
O O8 0.394753 0.096248 0.443941
O O9 0.333334 0.174093 0.754104
O O10 0.363886 0.024228 0.747731
O O11 0.500000 0.736390 0.839560
O O12 0.624454 0.739000 0.557147
O O13 0.703423 0.755860 0.876845
O O14 0.500000 0.068710 0.151262
#
# Coordination Sequence:
#
# PCOD9352400 Si02
#       6
#     8   8   8   8   8   8
#     4  10  22  41  63  88 121 161 207 254 307 377
#     4  11  22  38  63  91 123 162 205 256 310 369
#     4  10  21  39  63  91 124 161 205 256 313 376
#     4  10  23  43  65  92 129 170 212 263 321 381
#     4  10  21  38  61  89 121 159 202 249 304 373
#     4  11  23  41  65  95 130 167 209 266 327 376
#
# _framework density 27.729203999999999
#
# number of rings (size 3 to 8) (size 9 to 14) (size 15 to 20)
#    0.000    1.667    0.000    5.000    0.000    6.667 
#    0.000    3.333    0.000    1.000    0.000    0.000 
#    0.000    0.000    0.000    0.000    0.000    0.000 
#
# Total GULP energy -134461.188813 kJ/mol
# GULP energy per Si atom -5602.549534 kJ/mol
# Density = 2.766609 g / cm^3
# Si number density = 27.729204 Si / 1000 Ang^3
#
#
#
# Elastic Constant Matrix: (Units=GPa)
#
#
# Indices 1 2 3 4 5 6 
#
# 1 123.9514 51.6999 -3.8682 0.0000 0.0000 0.0000
# 2 51.6999 131.9628 25.7672 0.0000 0.0000 0.0000
# 3 -3.8682 25.7672 56.3689 0.0000 0.0000 0.0000
# 4 0.0000 0.0000 0.0000 44.3738 0.0000 0.0000
# 5 0.0000 0.0000 0.0000 0.0000 33.3357 0.0000
# 6 0.0000 0.0000 0.0000 0.0000 0.0000 30.7509
#
#
#
# Elastic Compliance Matrix: (Units=1/GPa)
#
#
# Indices 1 2 3 4 5 6 
#
# 1 0.010010 -0.004453 0.002723 0.000000 0.000000 0.000000
# 2 -0.004453 0.010302 -0.005015 0.000000 0.000000 0.000000
# 3 0.002723 -0.005015 0.020219 0.000000 0.000000 0.000000
# 4 0.000000 0.000000 0.000000 0.022536 0.000000 0.000000
# 5 0.000000 0.000000 0.000000 0.000000 0.029998 0.000000
# 6 0.000000 0.000000 0.000000 0.000000 0.000000 0.032519
#
#
# Mechanical properties :
#
#
# Convention : Reuss Voigt Hill
#
# Bulk Modulus (GPa) = 36.98164 51.05343 44.01754
# Shear Modulus (GPa) = 33.76354 37.60437 35.68395
#
# Velocity S-wave (km/s) = 3.49322 3.68656 3.59119
# Velocity P-wave (km/s) = 5.44388 6.04751 5.75361
#
# Compressibility (1/GPa) = 0.02704044
#
# Stress axis : x y z
#
# Youngs Moduli (GPa) = 99.89879 97.07047 49.45739
#
# Poissons Ratio (x) = 0.43229 -0.13465
# Poissons Ratio (y) = 0.44488 0.24802
# Poissons Ratio (z) = -0.27199 0.48678
#
# Static dielectric constant tensor:
#      x y z
#    x 2.114450 0.000000 0.000000 
#    y 0.000000 2.187320 0.000000 
#    z 0.000000 0.000000 2.223180 
# 
# From -- ./inp_files/3988.got.cif
#   From: 2010.05.17/outbox.cif.g08.bks.cpg/sg36_2_cif.got.tgz:3988.got - 2010.06.03 17:41:39.
