data_PCOD9352374
_publ_section_title
;
Structure prediction by ZEFSAII (Michael W. Deem and Ramdas Pophale) SiO2 
 PCOD9352374
Probable space group: C M C 21
;
_chemical_formula_sum "Si O2"
_cell_formula_units_Z 64
_cell_length_a 7.463961
_cell_length_b 19.885756
_cell_length_c 17.036087
_cell_angle_alpha 90.000000
_cell_angle_beta 90.000000
_cell_angle_gamma 90.000000
_cell_volume 2528.606890
_symmetry_space_group_name_H-M "C M C 21"
_symmetry_group_IT_number 36
_symmetry_cell_setting 'orthorhombic'
loop_
_space_group_symop_operation_xyz
x,y,z
-x,-y,1/2+z
x,-y,1/2+z
-x,y,z
1/2+x,1/2+y,z
1/2-x,1/2-y,1/2+z
1/2+x,1/2-y,1/2+z
1/2-x,1/2+y,z
loop_
_atom_site_type_symbol
_atom_site_label
_atom_site_fract_x
_atom_site_fract_y
_atom_site_fract_z
Si Si1 0.781731 0.288715 0.685520
Si Si2 0.208080 0.408134 0.260645
Si Si3 0.713209 0.901496 0.577534
Si Si4 0.704048 0.306452 0.857121
Si Si5 0.716429 0.457892 0.838677
Si Si6 0.219923 0.330372 0.417965
Si Si7 0.796430 0.160827 0.600743
Si Si8 0.713789 0.461692 0.011159
O O1 0.722585 0.360976 0.653128
O O2 0.705949 0.274028 0.770622
O O3 0.719997 0.232663 0.623670
O O4 0.000000 0.285376 0.691637
O O5 0.220936 0.488119 0.275435
O O6 0.276031 0.371592 0.340128
O O7 0.300200 0.381035 0.182377
O O8 0.000000 0.390745 0.251186
O O9 0.500000 0.892584 0.577048
O O10 0.780531 0.866768 0.497337
O O11 0.748822 0.980048 0.572809
O O12 0.500000 0.318468 0.883454
O O13 0.782169 0.380584 0.841179
O O14 0.779708 0.247530 0.911657
O O15 0.500000 0.457140 0.832869
O O16 0.774765 0.483738 0.925086
O O17 0.000000 0.329810 0.417796
O O18 0.000000 0.174735 0.575150
O O19 0.712843 0.110429 0.537742
O O20 0.500000 0.454798 0.006862
#
# Coordination Sequence:
#
# PCOD9352374 Si02
#       8
#     8   8   8   8   8   8   8   8
#     4  10  22  38  58  84 114 148 187 234 283 334
#     4  11  21  37  61  85 111 149 191 234 281 338
#     4  10  21  38  59  83 113 149 189 234 286 337
#     4  10  21  38  60  83 113 149 190 235 280 337
#     4  10  22  38  59  86 115 149 189 238 286 334
#     4   9  18  35  59  83 106 142 188 231 277 331
#     4  10  22  39  58  83 116 152 190 236 285 338
#     4  10  22  39  58  83 114 150 192 232 280 339
#
# _framework density 25.310378
#
# number of rings (size 3 to 8) (size 9 to 14) (size 15 to 20)
#    0.000    2.000    2.500    0.375    3.500    1.500 
#    0.000    0.625    0.000    0.000    0.000    0.000 
#    0.000    0.000    0.000    0.000    0.000    0.000 
#
# Total GULP energy -178947.513551 kJ/mol
# GULP energy per Si atom -5592.109798 kJ/mol
# Density = 2.525277 g / cm^3
# Si number density = 25.310378 Si / 1000 Ang^3
#
#
#
# Elastic Constant Matrix: (Units=GPa)
#
#
# Indices 1 2 3 4 5 6 
#
# 1 83.5570 -7.6512 -0.6753 0.0000 0.0000 0.0000
# 2 -7.6512 117.2077 -12.9878 0.0000 0.0000 0.0000
# 3 -0.6753 -12.9878 53.2210 0.0000 0.0000 0.0000
# 4 0.0000 0.0000 0.0000 50.3507 0.0000 0.0000
# 5 0.0000 0.0000 0.0000 0.0000 6.9088 0.0000
# 6 0.0000 0.0000 0.0000 0.0000 0.0000 30.0301
#
#
#
# Elastic Compliance Matrix: (Units=1/GPa)
#
#
# Indices 1 2 3 4 5 6 
#
# 1 0.012046 0.000826 0.000354 0.000000 0.000000 0.000000
# 2 0.000826 0.008826 0.002164 0.000000 0.000000 0.000000
# 3 0.000354 0.002164 0.019322 0.000000 0.000000 0.000000
# 4 0.000000 0.000000 0.000000 0.019861 0.000000 0.000000
# 5 0.000000 0.000000 0.000000 0.000000 0.144743 0.000000
# 6 0.000000 0.000000 0.000000 0.000000 0.000000 0.033300
#
#
# Mechanical properties :
#
#
# Convention : Reuss Voigt Hill
#
# Bulk Modulus (GPa) = 21.32990 23.48412 22.40701
# Shear Modulus (GPa) = 20.23990 35.81126 28.02558
#
# Velocity S-wave (km/s) = 2.83091 3.76558 3.33119
# Velocity P-wave (km/s) = 4.37390 5.31081 4.86496
#
# Compressibility (1/GPa) = 0.04688255
#
# Stress axis : x y z
#
# Youngs Moduli (GPa) = 83.01277 113.30703 51.75385
#
# Poissons Ratio (x) = -0.09355 -0.01834
# Poissons Ratio (y) = -0.06854 -0.11201
# Poissons Ratio (z) = -0.02941 -0.24522
#
# Static dielectric constant tensor:
#      x y z
#    x 2.008720 0.000000 0.000000 
#    y 0.000000 2.013060 0.000000 
#    z 0.000000 0.000000 1.978570 
# 
# From -- ./inp_files/13762.got.cif
#   From: 2010.05.17/outbox.cif.g08.bks.cpg/sg36_7_cif.got.tgz:13762.got - 2010.06.03 17:41:39.
