data_PCOD9352282
_publ_section_title
;
Structure prediction by ZEFSAII (Michael W. Deem and Ramdas Pophale) SiO2 
 PCOD9352282
Probable space group: C M C 21
;
_chemical_formula_sum "Si O2"
_cell_formula_units_Z 64
_cell_length_a 7.560294
_cell_length_b 21.668447
_cell_length_c 17.587903
_cell_angle_alpha 90.000000
_cell_angle_beta 90.000000
_cell_angle_gamma 90.000000
_cell_volume 2881.247277
_symmetry_space_group_name_H-M "C M C 21"
_symmetry_group_IT_number 36
_symmetry_cell_setting 'orthorhombic'
loop_
_space_group_symop_operation_xyz
x,y,z
-x,-y,1/2+z
x,-y,1/2+z
-x,y,z
1/2+x,1/2+y,z
1/2-x,1/2-y,1/2+z
1/2+x,1/2-y,1/2+z
1/2-x,1/2+y,z
loop_
_atom_site_type_symbol
_atom_site_label
_atom_site_fract_x
_atom_site_fract_y
_atom_site_fract_z
Si Si1 0.287159 0.612996 0.889490
Si Si2 0.710930 0.247049 0.879661
Si Si3 0.712629 0.367338 0.561470
Si Si4 0.290484 0.000560 0.121650
Si Si5 0.703030 0.625812 0.335333
Si Si6 0.293187 0.497578 0.288760
Si Si7 0.716417 0.105043 0.510711
Si Si8 0.701166 0.235358 0.554690
O O1 0.500000 0.608775 0.892500
O O2 0.243496 0.678346 0.850614
O O3 0.217130 0.554048 0.844474
O O4 0.220969 0.617137 0.976233
O O5 0.500000 0.254953 0.890770
O O6 0.776984 0.304877 0.830241
O O7 0.797930 0.252073 0.963188
O O8 0.500000 0.360811 0.557380
O O9 0.749395 0.427423 0.610721
O O10 0.780759 0.299488 0.586026
O O11 0.500000 0.993366 0.124212
O O12 0.217494 0.977839 0.201764
O O13 0.227415 0.957635 0.052291
O O14 0.500000 0.630238 0.307960
O O15 0.787103 0.565967 0.296895
O O16 0.710354 0.610747 0.425625
O O17 0.500000 0.503981 0.309763
O O18 0.500000 0.106910 0.505230
O O19 0.775340 0.166028 0.557980
O O20 0.500000 0.231009 0.583235
#
# Coordination Sequence:
#
# PCOD9352282 Si02
#       8
#     8   8   8   8   8   8   8   8
#     4   9  18  33  54  77  99 128 166 203 241 292
#     4   9  16  27  48  78 105 124 150 199 253 292
#     4   9  17  32  55  77  97 127 164 200 240 290
#     4  11  23  35  48  72 104 133 164 205 251 294
#     4   9  18  33  54  78  99 125 166 207 242 288
#     4  10  21  37  53  69  96 135 174 206 238 286
#     4   9  18  33  53  76 101 129 161 201 249 295
#     4   8  15  30  51  73  97 127 163 199 238 289
#
# _framework density 22.212603999999999
#
# number of rings (size 3 to 8) (size 9 to 14) (size 15 to 20)
#    0.000    2.750    0.000    2.250    0.000    5.500 
#    0.000    1.250    0.000    6.000    0.000    0.000 
#    0.000    0.000    0.000    0.000    0.000    0.000 
#
# Total GULP energy -178393.429457 kJ/mol
# GULP energy per Si atom -5574.794671 kJ/mol
# Density = 2.216205 g / cm^3
# Si number density = 22.212604 Si / 1000 Ang^3
#
#
#
# Elastic Constant Matrix: (Units=GPa)
#
#
# Indices 1 2 3 4 5 6 
#
# 1 62.8213 -1.9601 -8.2650 0.0000 0.0000 0.0000
# 2 -1.9601 85.3230 5.8757 0.0000 0.0000 0.0000
# 3 -8.2650 5.8757 22.3838 0.0000 0.0000 0.0000
# 4 0.0000 0.0000 0.0000 0.9027 0.0000 0.0000
# 5 0.0000 0.0000 0.0000 0.0000 11.9121 0.0000
# 6 0.0000 0.0000 0.0000 0.0000 0.0000 15.0153
#
#
#
# Elastic Compliance Matrix: (Units=1/GPa)
#
#
# Indices 1 2 3 4 5 6 
#
# 1 0.016731 -0.000042 0.006189 0.000000 0.000000 0.000000
# 2 -0.000042 0.011936 -0.003149 0.000000 0.000000 0.000000
# 3 0.006189 -0.003149 0.047787 0.000000 0.000000 0.000000
# 4 0.000000 0.000000 0.000000 1.107769 0.000000 0.000000
# 5 0.000000 0.000000 0.000000 0.000000 0.083948 0.000000
# 6 0.000000 0.000000 0.000000 0.000000 0.000000 0.066599
#
#
# Mechanical properties :
#
#
# Convention : Reuss Voigt Hill
#
# Bulk Modulus (GPa) = 12.12849 17.98104 15.05476
# Shear Modulus (GPa) = 3.68662 17.22454 10.45558
#
# Velocity S-wave (km/s) = 1.28969 2.78769 2.17193
# Velocity P-wave (km/s) = 2.77304 4.29816 3.61690
#
# Compressibility (1/GPa) = 0.08245052
#
# Stress axis : x y z
#
# Youngs Moduli (GPa) = 59.76907 83.77993 20.92628
#
# Poissons Ratio (x) = 0.00350 -0.12951
# Poissons Ratio (y) = 0.00250 0.06589
# Poissons Ratio (z) = -0.36990 0.26379
#
# Static dielectric constant tensor:
#      x y z
#    x 1.763050 0.000000 0.000000 
#    y 0.000000 1.896330 0.000000 
#    z 0.000000 0.000000 1.783340 
# 
# From -- ./inp_files/13773.got.cif
#   From: 2010.05.17/outbox.cif.g08.bks.cpg/sg36_7_cif.got.tgz:13773.got - 2010.06.03 17:41:39.
