data_PCOD9352654
_publ_section_title
;
Structure prediction by ZEFSAII (Michael W. Deem and Ramdas Pophale) SiO2 
 PCOD9352654
Probable space group: C M C 21
;
_chemical_formula_sum "Si O2"
_cell_formula_units_Z 64
_cell_length_a 13.995632
_cell_length_b 8.792905
_cell_length_c 24.357179
_cell_angle_alpha 90.000000
_cell_angle_beta 90.000000
_cell_angle_gamma 90.000000
_cell_volume 2997.449558
_symmetry_space_group_name_H-M "C M C 21"
_symmetry_group_IT_number 36
_symmetry_cell_setting 'orthorhombic'
loop_
_space_group_symop_operation_xyz
x,y,z
-x,-y,1/2+z
x,-y,1/2+z
-x,y,z
1/2+x,1/2+y,z
1/2-x,1/2-y,1/2+z
1/2+x,1/2-y,1/2+z
1/2-x,1/2+y,z
loop_
_atom_site_type_symbol
_atom_site_label
_atom_site_fract_x
_atom_site_fract_y
_atom_site_fract_z
Si Si1 0.702942 0.130578 0.889240
Si Si2 0.210918 0.869701 0.541094
Si Si3 0.289082 0.130300 0.460994
Si Si4 0.612176 0.226730 0.219544
Si Si5 0.888407 0.112524 0.826524
Si Si6 0.388407 0.112525 0.675564
Si Si7 0.887824 0.226731 0.282544
Si Si8 0.202942 0.130579 0.612848
O O1 0.704816 0.270990 0.931933
O O2 0.656757 0.176681 0.831872
O O3 0.662953 0.973026 0.913770
O O4 0.816131 0.111746 0.876946
O O5 0.158258 0.750001 0.501044
O O6 0.295184 0.770991 0.570154
O O7 0.250000 0.000001 0.501044
O O8 0.162953 0.973028 0.588318
O O9 0.500000 0.264715 0.220310
O O10 0.645111 0.265391 0.280970
O O11 0.656757 0.323318 0.170216
O O12 0.622382 0.050334 0.205189
O O13 0.877619 0.949666 0.796899
O O14 0.000000 0.134158 0.840889
O O15 0.500000 0.134158 0.661198
O O16 0.354889 0.234609 0.721118
O O17 0.316132 0.111747 0.625141
O O18 0.000000 0.264716 0.281778
#
# Coordination Sequence:
#
# PCOD9352654 Si02
#       8
#     8   8   8   8   8   8   8   8
#     4  11  19  36  63  82 108 155 185 224 282 341
#     4   9  20  36  58  84 109 141 190 239 286 323
#     4   9  20  36  58  84 109 141 190 239 286 323
#     4  10  22  37  55  85 120 150 183 224 271 334
#     4  10  22  37  55  85 121 149 183 226 270 334
#     4  10  22  37  55  85 121 149 183 226 270 334
#     4  10  22  37  55  85 120 150 183 224 271 334
#     4  11  19  36  63  82 108 155 185 224 282 341
#
# _framework density 21.351486000000001
#
# number of rings (size 3 to 8) (size 9 to 14) (size 15 to 20)
#    0.000    2.000    2.500    0.750    3.500    2.000 
#    0.000    0.000    0.000   30.000    0.000    0.000 
#    0.000    0.000    0.000    0.000    0.000    0.000 
#
# Total GULP energy -178416.939747 kJ/mol
# GULP energy per Si atom -5575.529367 kJ/mol
# Density = 2.130289 g / cm^3
# Si number density = 21.351486 Si / 1000 Ang^3
#
#
#
# Elastic Constant Matrix: (Units=GPa)
#
#
# Indices 1 2 3 4 5 6 
#
# 1 35.0944 11.5151 19.6877 0.0000 0.0000 0.0000
# 2 11.5151 79.7271 21.0343 0.0000 0.0000 0.0000
# 3 19.6877 21.0343 79.2997 0.0000 0.0000 0.0000
# 4 0.0000 0.0000 0.0000 50.5445 0.0000 0.0000
# 5 0.0000 0.0000 0.0000 0.0000 6.6023 0.0000
# 6 0.0000 0.0000 0.0000 0.0000 0.0000 15.8073
#
#
#
# Elastic Compliance Matrix: (Units=1/GPa)
#
#
# Indices 1 2 3 4 5 6 
#
# 1 0.033701 -0.002860 -0.007608 0.000000 0.000000 0.000000
# 2 -0.002860 0.013729 -0.002932 0.000000 0.000000 0.000000
# 3 -0.007608 -0.002932 0.015277 0.000000 0.000000 0.000000
# 4 0.000000 0.000000 0.000000 0.019785 0.000000 0.000000
# 5 0.000000 0.000000 0.000000 0.000000 0.151463 0.000000
# 6 0.000000 0.000000 0.000000 0.000000 0.000000 0.063262
#
#
# Mechanical properties :
#
#
# Convention : Reuss Voigt Hill
#
# Bulk Modulus (GPa) = 27.84958 33.17728 30.51343
# Shear Modulus (GPa) = 14.88155 24.04974 19.46564
#
# Velocity S-wave (km/s) = 2.64290 3.35979 3.02267
# Velocity P-wave (km/s) = 4.73127 5.53383 5.14821
#
# Compressibility (1/GPa) = 0.03590718
#
# Stress axis : x y z
#
# Youngs Moduli (GPa) = 29.67245 72.83675 65.45823
#
# Poissons Ratio (x) = 0.20833 0.49803
# Poissons Ratio (y) = 0.08487 0.19190
# Poissons Ratio (z) = 0.22576 0.21353
#
# Static dielectric constant tensor:
#      x y z
#    x 1.759750 0.000000 0.000000 
#    y 0.000000 1.829690 0.000000 
#    z 0.000000 0.000000 1.830680 
# 
# From -- ./inp_files/16962.got.cif
#   From: 2010.05.17/outbox.cif.g08.bks.cpg/sg36_9_cif.got.tgz:16962.got - 2010.06.03 17:41:39.
