data_PCOD9352907
_publ_section_title
;
Structure prediction by ZEFSAII (Michael W. Deem and Ramdas Pophale) SiO2 
 PCOD9352907
Probable space group: C M C 21
;
_chemical_formula_sum "Si O2"
_cell_formula_units_Z 64
_cell_length_a 21.176410
_cell_length_b 27.158810
_cell_length_c 5.707561
_cell_angle_alpha 90.000000
_cell_angle_beta 90.000000
_cell_angle_gamma 90.000000
_cell_volume 3282.567274
_symmetry_space_group_name_H-M "C M C 21"
_symmetry_group_IT_number 36
_symmetry_cell_setting 'orthorhombic'
loop_
_space_group_symop_operation_xyz
x,y,z
-x,-y,1/2+z
x,-y,1/2+z
-x,y,z
1/2+x,1/2+y,z
1/2-x,1/2-y,1/2+z
1/2+x,1/2-y,1/2+z
1/2-x,1/2+y,z
loop_
_atom_site_type_symbol
_atom_site_label
_atom_site_fract_x
_atom_site_fract_y
_atom_site_fract_z
Si Si1 0.785734 0.023967 0.040320
Si Si2 0.071474 0.704697 0.120164
Si Si3 0.428493 0.109327 0.826003
Si Si4 0.841491 0.209465 0.506457
Si Si5 0.759529 0.700790 0.846311
Si Si6 0.366670 0.023276 0.053346
Si Si7 0.218596 0.126851 0.223789
Si Si8 0.838262 0.642265 0.461219
O O1 0.709276 0.022760 0.040664
O O2 0.805597 0.080848 0.077822
O O3 0.805884 0.996293 0.283364
O O4 0.120885 0.679171 0.298459
O O5 0.000000 0.707395 0.215990
O O6 0.070155 0.666170 0.905920
O O7 0.096339 0.757652 0.031372
O O8 0.500000 0.092220 0.796319
O O9 0.387423 0.107305 0.593067
O O10 0.393511 0.078418 0.026465
O O11 0.788986 0.246622 0.398957
O O12 0.812708 0.201588 0.763454
O O13 0.833437 0.158602 0.365051
O O14 0.802967 0.676837 0.649560
O O15 0.757558 0.665235 0.065976
O O16 0.387628 0.001188 0.303751
O O17 0.277702 0.109433 0.383131
#
# Coordination Sequence:
#
# PCOD9352907 Si02
#       8
#     8   8   8   8   8   8   8   8
#     4  10  23  39  58  85 114 150 190 234 301 360
#     4  11  23  38  54  78 114 154 193 236 287 358
#     4  11  24  38  55  74 103 149 201 248 296 348
#     4  11  20  34  54  85 111 148 187 231 292 351
#     4  11  19  32  55  80 111 140 185 238 285 344
#     4  10  23  39  58  79 108 147 199 259 307 347
#     4  11  23  34  59  84 115 148 185 246 292 361
#     4  11  20  34  54  77 107 142 195 234 290 343
#
# _framework density 19.496934
#
# number of rings (size 3 to 8) (size 9 to 14) (size 15 to 20)
#    0.000    1.250    3.750    2.625   10.500    0.500 
#    0.000    0.000    0.000    0.000    0.000    0.000 
#    0.000    1.000    0.000    0.000    0.000    0.000 
#
# Total GULP energy -178442.164406 kJ/mol
# GULP energy per Si atom -5576.317638 kJ/mol
# Density = 1.945256 g / cm^3
# Si number density = 19.496934 Si / 1000 Ang^3
#
#
#
# Elastic Constant Matrix: (Units=GPa)
#
#
# Indices 1 2 3 4 5 6 
#
# 1 40.2492 17.0948 10.8791 0.0000 0.0000 0.0000
# 2 17.0948 67.5983 16.4634 0.0000 0.0000 0.0000
# 3 10.8791 16.4634 57.6730 0.0000 0.0000 0.0000
# 4 0.0000 0.0000 0.0000 24.5105 0.0000 0.0000
# 5 0.0000 0.0000 0.0000 0.0000 12.0979 0.0000
# 6 0.0000 0.0000 0.0000 0.0000 0.0000 17.9107
#
#
#
# Elastic Compliance Matrix: (Units=1/GPa)
#
#
# Indices 1 2 3 4 5 6 
#
# 1 0.028502 -0.006339 -0.003567 0.000000 0.000000 0.000000
# 2 -0.006339 0.017308 -0.003745 0.000000 0.000000 0.000000
# 3 -0.003567 -0.003745 0.019081 0.000000 0.000000 0.000000
# 4 0.000000 0.000000 0.000000 0.040799 0.000000 0.000000
# 5 0.000000 0.000000 0.000000 0.000000 0.082659 0.000000
# 6 0.000000 0.000000 0.000000 0.000000 0.000000 0.055833
#
#
# Mechanical properties :
#
#
# Convention : Reuss Voigt Hill
#
# Bulk Modulus (GPa) = 26.60344 28.26614 27.43479
# Shear Modulus (GPa) = 17.60481 18.97603 18.29042
#
# Velocity S-wave (km/s) = 3.00818 3.12313 3.06619
# Velocity P-wave (km/s) = 5.07347 5.24733 5.16113
#
# Compressibility (1/GPa) = 0.03758913
#
# Stress axis : x y z
#
# Youngs Moduli (GPa) = 35.08567 57.77529 52.40803
#
# Poissons Ratio (x) = 0.36624 0.18693
# Poissons Ratio (y) = 0.22241 0.19627
# Poissons Ratio (z) = 0.12515 0.21637
#
# Static dielectric constant tensor:
#      x y z
#    x 1.697820 0.000000 0.000000 
#    y 0.000000 1.790400 0.000000 
#    z 0.000000 0.000000 1.806840 
# 
# From -- ./inp_files/1494.got.cif
#   From: 2010.05.17/outbox.cif.g08.bks.cpg/sg36_1_cif.got.tgz:1494.got - 2010.06.03 17:41:39.
