data_PCOD9352755
_publ_section_title
;
Structure prediction by ZEFSAII (Michael W. Deem and Ramdas Pophale) SiO2 
 PCOD9352755
Probable space group: C M C 21
;
_chemical_formula_sum "Si O2"
_cell_formula_units_Z 64
_cell_length_a 17.683727
_cell_length_b 11.723093
_cell_length_c 15.620826
_cell_angle_alpha 90.000000
_cell_angle_beta 90.000000
_cell_angle_gamma 90.000000
_cell_volume 3238.321825
_symmetry_space_group_name_H-M "C M C 21"
_symmetry_group_IT_number 36
_symmetry_cell_setting 'orthorhombic'
loop_
_space_group_symop_operation_xyz
x,y,z
-x,-y,1/2+z
x,-y,1/2+z
-x,y,z
1/2+x,1/2+y,z
1/2-x,1/2-y,1/2+z
1/2+x,1/2-y,1/2+z
1/2-x,1/2+y,z
loop_
_atom_site_type_symbol
_atom_site_label
_atom_site_fract_x
_atom_site_fract_y
_atom_site_fract_z
Si Si1 0.184830 0.353744 0.698500
Si Si2 0.801450 0.534813 0.555473
Si Si3 0.583246 0.368423 0.194526
Si Si4 0.653001 0.736623 0.151613
Si Si5 0.623578 0.474275 0.542248
Si Si6 0.816150 0.494875 0.363794
Si Si7 0.412415 0.770986 0.328043
Si Si8 0.363625 0.514262 0.354717
O O1 0.168163 0.432371 0.615546
O O2 0.142570 0.233862 0.695143
O O3 0.274651 0.326525 0.695049
O O4 0.164002 0.422283 0.784693
O O5 0.816084 0.651769 0.604761
O O6 0.712152 0.510528 0.545666
O O7 0.832391 0.540805 0.459040
O O8 0.500000 0.320756 0.209477
O O9 0.585193 0.434636 0.104492
O O10 0.601924 0.458729 0.269597
O O11 0.617621 0.648775 0.085179
O O12 0.594894 0.768797 0.225342
O O13 0.600942 0.470708 0.443544
O O14 0.859961 0.375562 0.356803
O O15 0.725227 0.481896 0.355295
O O16 0.500000 0.781740 0.354323
O O17 0.378140 0.649826 0.357118
#
# Coordination Sequence:
#
# PCOD9352755 Si02
#       8
#     8   8   8   8   8   8   8   8
#     4  11  22  41  65  93 129 168 222 270 328 390
#     4  10  22  40  67 100 123 163 223 273 322 391
#     4  12  25  41  60  90 134 172 212 269 333 393
#     4  11  20  42  69  90 127 169 216 277 319 394
#     4  10  23  38  66  96 123 160 219 272 325 383
#     4  11  24  41  72  97 128 171 219 274 326 395
#     4  12  25  43  67  96 135 179 221 270 335 401
#     4  11  24  42  68  98 126 172 224 275 329 399
#
# _framework density 19.763323
#
# number of rings (size 3 to 8) (size 9 to 14) (size 15 to 20)
#    0.000    1.000    5.000    1.875    3.500    3.500 
#    0.000    0.625    0.000    0.000    0.000    0.000 
#    0.000    0.000    0.000    0.000    0.000    0.000 
#
# Total GULP energy -178772.170508 kJ/mol
# GULP energy per Si atom -5586.630328 kJ/mol
# Density = 1.971834 g / cm^3
# Si number density = 19.763323 Si / 1000 Ang^3
#
#
#
# Elastic Constant Matrix: (Units=GPa)
#
#
# Indices 1 2 3 4 5 6 
#
# 1 71.3117 21.3769 11.7375 0.0000 0.0000 0.0000
# 2 21.3769 82.2631 25.9284 0.0000 0.0000 0.0000
# 3 11.7375 25.9284 83.1080 0.0000 0.0000 0.0000
# 4 0.0000 0.0000 0.0000 28.0906 0.0000 0.0000
# 5 0.0000 0.0000 0.0000 0.0000 -1.2033 0.0000
# 6 0.0000 0.0000 0.0000 0.0000 0.0000 9.8103
#
#
#
# Elastic Compliance Matrix: (Units=1/GPa)
#
#
# Indices 1 2 3 4 5 6 
#
# 1 0.015285 -0.003651 -0.001020 0.000000 0.000000 0.000000
# 2 -0.003651 0.014354 -0.003963 0.000000 0.000000 0.000000
# 3 -0.001020 -0.003963 0.013413 0.000000 0.000000 0.000000
# 4 0.000000 0.000000 0.000000 0.035599 0.000000 0.000000
# 5 0.000000 0.000000 0.000000 0.000000 -0.831053 0.000000
# 6 0.000000 0.000000 0.000000 0.000000 0.000000 0.101934
#
#
# Mechanical properties :
#
#
# Convention : Reuss Voigt Hill
#
# Bulk Modulus (GPa) = 38.78111 39.41873 39.09992
# Shear Modulus (GPa) = -8.00503 19.18218 5.58858
#
# Velocity S-wave (km/s) = -2.01476 3.11882 1.68342
# Velocity P-wave (km/s) = 3.77532 5.74091 4.85855
#
# Compressibility (1/GPa) = 0.02578575
#
# Stress axis : x y z
#
# Youngs Moduli (GPa) = 65.42314 69.66843 74.55550
#
# Poissons Ratio (x) = 0.25433 0.07603
# Poissons Ratio (y) = 0.23883 0.29543
# Poissons Ratio (z) = 0.06672 0.27607
#
# Static dielectric constant tensor:
#      x y z
#    x 1.704970 0.000000 0.000000 
#    y 0.000000 1.660790 0.000000 
#    z 0.000000 0.000000 1.707260 
# 
# From -- ./inp_files/12646.got.cif
#   From: 2010.05.17/outbox.cif.g08.bks.cpg/sg36_7_cif.got.tgz:12646.got - 2010.06.03 17:41:39.
