data_PCOD9352459
_publ_section_title
;
Structure prediction by ZEFSAII (Michael W. Deem and Ramdas Pophale) SiO2 
 PCOD9352459
Probable space group: C M C 21
;
_chemical_formula_sum "Si O2"
_cell_formula_units_Z 64
_cell_length_a 7.500124
_cell_length_b 15.804264
_cell_length_c 23.982610
_cell_angle_alpha 90.000000
_cell_angle_beta 90.000000
_cell_angle_gamma 90.000000
_cell_volume 2842.753248
_symmetry_space_group_name_H-M "C M C 21"
_symmetry_group_IT_number 36
_symmetry_cell_setting 'orthorhombic'
loop_
_space_group_symop_operation_xyz
x,y,z
-x,-y,1/2+z
x,-y,1/2+z
-x,y,z
1/2+x,1/2+y,z
1/2-x,1/2-y,1/2+z
1/2+x,1/2-y,1/2+z
1/2-x,1/2+y,z
loop_
_atom_site_type_symbol
_atom_site_label
_atom_site_fract_x
_atom_site_fract_y
_atom_site_fract_z
Si Si1 0.219035 0.190816 0.894650
Si Si2 0.794001 0.377295 0.896448
Si Si3 0.203892 0.964739 0.467033
Si Si4 0.783173 0.126162 0.773864
Si Si5 0.280965 0.309184 0.153078
Si Si6 0.785552 0.928976 0.773864
Si Si7 0.294001 0.877295 0.651281
Si Si8 0.203892 0.035261 0.580696
O O1 0.275917 0.284645 0.912008
O O2 0.281261 0.116862 0.935975
O O3 0.275579 0.169397 0.831366
O O4 0.000000 0.190243 0.893986
O O5 0.701296 0.457743 0.923740
O O6 0.781831 0.385509 0.829839
O O7 0.000000 0.382699 0.913468
O O8 0.000000 0.940539 0.481156
O O9 0.287569 0.000000 0.523864
O O10 0.724421 0.169397 0.716362
O O11 0.000000 0.127872 0.773864
O O12 0.730477 0.027564 0.773864
O O13 0.500000 0.309757 0.153743
O O14 0.224083 0.215355 0.135721
O O15 0.218739 0.383138 0.111753
O O16 0.718170 0.885509 0.717889
O O17 0.000000 0.926169 0.773864
O O18 0.500000 0.882699 0.634261
O O19 0.201296 0.957743 0.623988
O O20 0.000000 0.059461 0.566573
#
# Coordination Sequence:
#
# PCOD9352459 Si02
#       8
#     8   8   8   8   8   8   8   8
#     4   9  18  34  56  82 111 150 186 222 284 348
#     4  11  22  36  58  86 116 147 184 232 288 340
#     4  10  21  39  61  82 109 152 201 237 273 334
#     4   9  15  29  57  80 103 143 186 218 265 340
#     4   9  18  34  56  82 111 150 186 222 284 348
#     4  11  20  35  61  86 113 149 188 228 275 338
#     4  11  22  36  58  86 116 147 184 232 288 340
#     4  10  21  39  61  82 109 152 201 237 273 334
#
# _framework density 22.513383999999999
#
# number of rings (size 3 to 8) (size 9 to 14) (size 15 to 20)
#    0.000    2.000    2.500    1.875    0.000    3.500 
#    0.000    2.500    0.000    0.000    0.000    0.000 
#    0.000    0.000    0.000    0.000    0.000    0.000 
#
# Total GULP energy -178843.500338 kJ/mol
# GULP energy per Si atom -5588.859386 kJ/mol
# Density = 2.246214 g / cm^3
# Si number density = 22.513384 Si / 1000 Ang^3
#
#
#
# Elastic Constant Matrix: (Units=GPa)
#
#
# Indices 1 2 3 4 5 6 
#
# 1 65.7388 -4.7554 -15.1395 0.0000 0.0000 0.0000
# 2 -4.7554 130.2365 -0.0229 0.0000 0.0000 0.0000
# 3 -15.1395 -0.0229 66.2934 0.0000 0.0000 0.0000
# 4 0.0000 0.0000 0.0000 -12.5231 0.0000 0.0000
# 5 0.0000 0.0000 0.0000 0.0000 4.9732 0.0000
# 6 0.0000 0.0000 0.0000 0.0000 0.0000 2.9169
#
#
#
# Elastic Compliance Matrix: (Units=1/GPa)
#
#
# Indices 1 2 3 4 5 6 
#
# 1 0.016101 0.000589 0.003677 0.000000 0.000000 0.000000
# 2 0.000589 0.007700 0.000137 0.000000 0.000000 0.000000
# 3 0.003677 0.000137 0.015924 0.000000 0.000000 0.000000
# 4 0.000000 0.000000 0.000000 -0.079852 0.000000 0.000000
# 5 0.000000 0.000000 0.000000 0.000000 0.201076 0.000000
# 6 0.000000 0.000000 0.000000 0.000000 0.000000 0.342828
#
#
# Mechanical properties :
#
#
# Convention : Reuss Voigt Hill
#
# Bulk Modulus (GPa) = 20.60539 24.71480 22.66009
# Shear Modulus (GPa) = 9.78189 17.88583 13.83386
#
# Velocity S-wave (km/s) = 2.08671 2.82166 2.48155
# Velocity P-wave (km/s) = 3.87017 4.64945 4.27759
#
# Compressibility (1/GPa) = 0.04853100
#
# Stress axis : x y z
#
# Youngs Moduli (GPa) = 62.10737 129.87258 62.79718
#
# Poissons Ratio (x) = -0.07644 -0.23092
# Poissons Ratio (y) = -0.03655 -0.00861
# Poissons Ratio (z) = -0.22838 -0.01780
#
# Static dielectric constant tensor:
#      x y z
#    x 1.852080 0.000000 0.000000 
#    y 0.000000 1.811510 0.000000 
#    z 0.000000 0.000000 1.800980 
# 
# From -- ./inp_files/16633.got.cif
#   From: 2010.05.17/outbox.cif.g08.bks.cpg/sg36_9_cif.got.tgz:16633.got - 2010.06.03 17:41:39.
