data_PCOD9352356
_publ_section_title
;
Structure prediction by ZEFSAII (Michael W. Deem and Ramdas Pophale) SiO2 
 PCOD9352356
Probable space group: C M C 21
;
_chemical_formula_sum "Si O2"
_cell_formula_units_Z 40
_cell_length_a 9.936854
_cell_length_b 24.463901
_cell_length_c 7.993505
_cell_angle_alpha 90.000000
_cell_angle_beta 90.000000
_cell_angle_gamma 90.000000
_cell_volume 1943.174803
_symmetry_space_group_name_H-M "C M C 21"
_symmetry_group_IT_number 36
_symmetry_cell_setting 'orthorhombic'
loop_
_space_group_symop_operation_xyz
x,y,z
-x,-y,1/2+z
x,-y,1/2+z
-x,y,z
1/2+x,1/2+y,z
1/2-x,1/2-y,1/2+z
1/2+x,1/2-y,1/2+z
1/2-x,1/2+y,z
loop_
_atom_site_type_symbol
_atom_site_label
_atom_site_fract_x
_atom_site_fract_y
_atom_site_fract_z
Si Si1 0.000000 0.744015 0.746060
Si Si2 0.500000 0.917238 0.259134
Si Si3 0.500000 0.193262 0.378224
Si Si4 0.284232 0.834948 0.370608
Si Si5 0.500000 0.030494 0.125936
Si Si6 0.785414 0.386974 0.740973
Si Si7 0.000000 0.806870 0.217275
Si Si8 0.500000 0.638120 0.352663
O O1 0.869716 0.720636 0.843818
O O2 0.000000 0.720980 0.558567
O O3 0.000000 0.808670 0.734014
O O4 0.369695 0.878657 0.262120
O O5 0.500000 0.947707 0.437614
O O6 0.500000 0.965445 0.127372
O O7 0.628610 0.154490 0.354434
O O8 0.500000 0.241016 0.238282
O O9 0.283664 0.857170 0.559425
O O10 0.134903 0.826828 0.307272
O O11 0.630155 0.057550 0.214625
O O12 0.636831 0.393975 0.814010
O O13 0.000000 0.833342 0.033978
#
# Coordination Sequence:
#
# PCOD9352356 Si02
#       8
#     4   4   4   8   4   8   4   4
#     4  11  21  35  55  80 111 150 186 221 262 318
#     4   9  20  38  62  83 104 135 176 223 273 324
#     4  11  21  35  55  80 111 150 186 221 262 318
#     4  10  21  38  56  80 111 145 182 224 268 318
#     4   9  20  38  62  83 104 135 176 223 273 324
#     4  10  21  38  56  80 111 145 182 224 268 318
#     4  12  23  35  53  81 113 147 182 224 270 318
#     4  12  23  35  53  81 113 147 182 224 270 318
#
# _framework density 20.584871
#
# number of rings (size 3 to 8) (size 9 to 14) (size 15 to 20)
#    0.000    1.600    0.000    7.200    0.000    4.800 
#    0.000    1.000    0.000    0.000    0.000    0.000 
#    0.000    0.000    0.000    0.000    0.000    0.000 
#
# Total GULP energy -111871.798780 kJ/mol
# GULP energy per Si atom -5593.589939 kJ/mol
# Density = 2.053802 g / cm^3
# Si number density = 20.584871 Si / 1000 Ang^3
#
#
#
# Elastic Constant Matrix: (Units=GPa)
#
#
# Indices 1 2 3 4 5 6 
#
# 1 168.3241 16.2582 13.4611 0.0000 0.0000 0.0000
# 2 16.2582 48.8037 -17.2627 0.0000 0.0000 0.0000
# 3 13.4611 -17.2627 67.5771 0.0000 0.0000 0.0000
# 4 0.0000 0.0000 0.0000 32.2230 0.0000 0.0000
# 5 0.0000 0.0000 0.0000 0.0000 20.0360 0.0000
# 6 0.0000 0.0000 0.0000 0.0000 0.0000 -16.0278
#
#
#
# Elastic Compliance Matrix: (Units=1/GPa)
#
#
# Indices 1 2 3 4 5 6 
#
# 1 0.006373 -0.002828 -0.001992 0.000000 0.000000 0.000000
# 2 -0.002828 0.023780 0.006638 0.000000 0.000000 0.000000
# 3 -0.001992 0.006638 0.016890 0.000000 0.000000 0.000000
# 4 0.000000 0.000000 0.000000 0.031034 0.000000 0.000000
# 5 0.000000 0.000000 0.000000 0.000000 0.049910 0.000000
# 6 0.000000 0.000000 0.000000 0.000000 0.000000 -0.062392
#
#
# Mechanical properties :
#
#
# Convention : Reuss Voigt Hill
#
# Bulk Modulus (GPa) = 19.73142 34.40203 27.06672
# Shear Modulus (GPa) = 63.40916 25.39613 44.40265
#
# Velocity S-wave (km/s) = 5.55614 3.51626 4.64945
# Velocity P-wave (km/s) = 7.12510 5.76489 6.48078
#
# Compressibility (1/GPa) = 0.05068059
#
# Stress axis : x y z
#
# Youngs Moduli (GPa) = 156.90347 42.05172 59.20534
#
# Poissons Ratio (x) = 0.11891 0.11793
# Poissons Ratio (y) = 0.44368 -0.39300
# Poissons Ratio (z) = 0.31254 -0.27914
#
# Static dielectric constant tensor:
#      x y z
#    x 1.719500 0.000000 0.000000 
#    y 0.000000 1.716720 0.000000 
#    z 0.000000 0.000000 1.775800 
# 
# From -- ./inp_files/2480.got.cif
#   From: 2010.05.17/outbox.cif.g08.bks.cpg/sg36_2_cif.got.tgz:2480.got - 2010.06.03 17:41:39.
