data_PCOD9352479
_publ_section_title
;
Structure prediction by ZEFSAII (Michael W. Deem and Ramdas Pophale) SiO2 
 PCOD9352479
Probable space group: C M C 21
;
_chemical_formula_sum "Si O2"
_cell_formula_units_Z 56
_cell_length_a 10.944919
_cell_length_b 22.496834
_cell_length_c 11.622393
_cell_angle_alpha 90.000000
_cell_angle_beta 90.000000
_cell_angle_gamma 90.000000
_cell_volume 2861.735640
_symmetry_space_group_name_H-M "C M C 21"
_symmetry_group_IT_number 36
_symmetry_cell_setting 'orthorhombic'
loop_
_space_group_symop_operation_xyz
x,y,z
-x,-y,1/2+z
x,-y,1/2+z
-x,y,z
1/2+x,1/2+y,z
1/2-x,1/2-y,1/2+z
1/2+x,1/2-y,1/2+z
1/2-x,1/2+y,z
loop_
_atom_site_type_symbol
_atom_site_label
_atom_site_fract_x
_atom_site_fract_y
_atom_site_fract_z
Si Si1 0.361970 0.190289 0.193530
Si Si2 0.250000 0.889001 0.494350
Si Si3 0.368377 0.619335 0.560584
Si Si4 0.861102 0.510502 0.835831
Si Si5 0.638897 0.510502 0.152869
Si Si6 0.868377 0.380665 0.928119
Si Si7 0.638031 0.309711 0.295172
O O1 0.500000 0.207883 0.160291
O O2 0.365512 0.145201 0.300074
O O3 0.300523 0.250000 0.244350
O O4 0.310161 0.154799 0.086583
O O5 0.333782 0.933199 0.417468
O O6 0.166217 0.933199 0.571231
O O7 0.189841 0.845199 0.402120
O O8 0.500000 0.635703 0.507807
O O9 0.362620 0.548433 0.574470
O O10 0.250000 0.641270 0.494352
O O11 0.365512 0.645200 0.688630
O O12 0.750000 0.500000 0.744350
O O13 0.862619 0.451567 0.914231
O O14 0.000000 0.515442 0.784992
O O15 0.500000 0.515443 0.203709
O O16 0.000000 0.364298 0.980897
O O17 0.500000 0.292117 0.328410
#
# Coordination Sequence:
#
# PCOD9352479 Si02
#       7
#     8   8   8   8   8   8   8
#     4  10  23  42  62  87 125 173 219 262 317 380
#     4  12  22  40  66  96 126 168 218 266 324 382
#     4  10  21  39  62  91 126 166 207 260 320 377
#     4  11  23  38  61  94 129 163 204 258 319 385
#     4  11  23  38  61  94 129 163 204 258 319 385
#     4  10  21  39  62  91 126 166 207 260 320 377
#     4  10  23  42  62  87 125 173 219 262 317 380
#
# _framework density 19.568542999999998
#
# number of rings (size 3 to 8) (size 9 to 14) (size 15 to 20)
#    0.000    1.429    4.286    0.857    2.000    2.286 
#    0.000    0.000    0.000    4.286    0.000    0.000 
#    0.000    0.000    0.000    0.000    0.000    0.000 
#
# Total GULP energy -156021.915931 kJ/mol
# GULP energy per Si atom -5572.211283 kJ/mol
# Density = 1.952400 g / cm^3
# Si number density = 19.568543 Si / 1000 Ang^3
#
#
#
# Elastic Constant Matrix: (Units=GPa)
#
#
# Indices 1 2 3 4 5 6 
#
# 1 157.2294 20.4005 69.2855 0.0000 0.0000 0.0000
# 2 20.4005 115.3447 36.6754 0.0000 0.0000 0.0000
# 3 69.2855 36.6754 87.0233 0.0000 0.0000 0.0000
# 4 0.0000 0.0000 0.0000 36.1976 0.0000 0.0000
# 5 0.0000 0.0000 0.0000 0.0000 28.9975 0.0000
# 6 0.0000 0.0000 0.0000 0.0000 0.0000 35.9954
#
#
#
# Elastic Compliance Matrix: (Units=1/GPa)
#
#
# Indices 1 2 3 4 5 6 
#
# 1 0.009873 0.000870 -0.008227 0.000000 0.000000 0.000000
# 2 0.000870 0.010088 -0.004944 0.000000 0.000000 0.000000
# 3 -0.008227 -0.004944 0.020125 0.000000 0.000000 0.000000
# 4 0.000000 0.000000 0.000000 0.027626 0.000000 0.000000
# 5 0.000000 0.000000 0.000000 0.000000 0.034486 0.000000
# 6 0.000000 0.000000 0.000000 0.000000 0.000000 0.027781
#
#
# Mechanical properties :
#
#
# Convention : Reuss Voigt Hill
#
# Bulk Modulus (GPa) = 64.58641 68.03558 66.31100
# Shear Modulus (GPa) = 31.30065 35.78718 33.54391
#
# Velocity S-wave (km/s) = 4.00376 4.28110 4.14475
# Velocity P-wave (km/s) = 7.37905 7.69938 7.54091
#
# Compressibility (1/GPa) = 0.01548313
#
# Stress axis : x y z
#
# Youngs Moduli (GPa) = 101.29107 99.12949 49.69028
#
# Poissons Ratio (x) = -0.08621 0.40879
# Poissons Ratio (y) = -0.08809 0.24566
# Poissons Ratio (z) = 0.83330 0.49008
#
# Static dielectric constant tensor:
#      x y z
#    x 1.906270 0.000000 0.000000 
#    y 0.000000 1.716630 0.000000 
#    z 0.000000 0.000000 1.688860 
# 
# From -- ./inp_files/7847.got.cif
#   From: 2010.05.17/outbox.cif.g08.bks.cpg/sg36_4_cif.got.tgz:7847.got - 2010.06.03 17:41:39.
