data_PCOD9352934
_publ_section_title
;
Structure prediction by ZEFSAII (Michael W. Deem and Ramdas Pophale) SiO2 
 PCOD9352934
Probable space group: C M C 21
;
_chemical_formula_sum "Si O2"
_cell_formula_units_Z 64
_cell_length_a 9.577326
_cell_length_b 21.558316
_cell_length_c 13.917752
_cell_angle_alpha 90.000000
_cell_angle_beta 90.000000
_cell_angle_gamma 90.000000
_cell_volume 2873.612456
_symmetry_space_group_name_H-M "C M C 21"
_symmetry_group_IT_number 36
_symmetry_cell_setting 'orthorhombic'
loop_
_space_group_symop_operation_xyz
x,y,z
-x,-y,1/2+z
x,-y,1/2+z
-x,y,z
1/2+x,1/2+y,z
1/2-x,1/2-y,1/2+z
1/2+x,1/2-y,1/2+z
1/2-x,1/2+y,z
loop_
_atom_site_type_symbol
_atom_site_label
_atom_site_fract_x
_atom_site_fract_y
_atom_site_fract_z
Si Si1 0.841275 0.463440 0.947540
Si Si2 0.165253 0.903044 0.790849
Si Si3 0.842713 0.592350 0.757765
Si Si4 0.839440 0.279650 0.560435
Si Si5 0.657346 0.214027 0.291666
Si Si6 0.659979 0.035602 0.136730
Si Si7 0.655571 0.835038 0.065073
Si Si8 0.662626 0.343691 0.407573
O O1 0.729938 0.452987 0.864758
O O2 0.000000 0.472389 0.909861
O O3 0.812080 0.515526 0.027370
O O4 0.841971 0.398583 0.005961
O O5 0.228436 0.836561 0.819848
O O6 0.000000 0.903603 0.790353
O O7 0.231237 0.919761 0.687616
O O8 0.834732 0.528085 0.699279
O O9 0.824787 0.644553 0.675441
O O10 0.732832 0.603974 0.841293
O O11 0.000000 0.598651 0.796549
O O12 0.833800 0.281165 0.676159
O O13 0.770879 0.213612 0.534857
O O14 0.749202 0.330413 0.503993
O O15 0.000000 0.284229 0.530632
O O16 0.500000 0.190593 0.315127
O O17 0.672870 0.279802 0.344432
O O18 0.500000 0.059715 0.142736
O O19 0.500000 0.806929 0.054909
O O20 0.500000 0.355703 0.426088
#
# Coordination Sequence:
#
# PCOD9352934 Si02
#       8
#     8   8   8   8   8   8   8   8
#     4   9  19  38  64  90 115 155 203 241 290 358
#     4  12  25  39  60  91 123 156 197 251 306 347
#     4   9  18  35  60  86 111 144 190 238 287 345
#     4  11  22  36  55  84 118 157 200 237 287 354
#     4  10  23  42  60  82 120 165 203 237 288 359
#     4   9  20  41  66  88 114 155 201 242 290 355
#     4   9  17  32  57  86 115 146 188 243 290 338
#     4  11  22  37  58  87 120 156 194 239 296 352
#
# _framework density 22.271619000000001
#
# number of rings (size 3 to 8) (size 9 to 14) (size 15 to 20)
#    0.000    2.000    1.250    4.125    0.000    6.500 
#    2.250    2.500    0.000    0.000    0.000    0.000 
#    0.000    0.000    0.000    0.000    0.000    0.000 
#
# Total GULP energy -179018.511840 kJ/mol
# GULP energy per Si atom -5594.328495 kJ/mol
# Density = 2.222093 g / cm^3
# Si number density = 22.271619 Si / 1000 Ang^3
#
#
#
# Elastic Constant Matrix: (Units=GPa)
#
#
# Indices 1 2 3 4 5 6 
#
# 1 145.3826 33.2779 58.5678 0.0000 0.0000 0.0000
# 2 33.2779 56.1603 14.6950 0.0000 0.0000 0.0000
# 3 58.5678 14.6950 100.0845 0.0000 0.0000 0.0000
# 4 0.0000 0.0000 0.0000 41.5582 0.0000 0.0000
# 5 0.0000 0.0000 0.0000 0.0000 26.4386 0.0000
# 6 0.0000 0.0000 0.0000 0.0000 0.0000 19.1005
#
#
#
# Elastic Compliance Matrix: (Units=1/GPa)
#
#
# Indices 1 2 3 4 5 6 
#
# 1 0.010017 -0.004578 -0.005190 0.000000 0.000000 0.000000
# 2 -0.004578 0.020610 -0.000347 0.000000 0.000000 0.000000
# 3 -0.005190 -0.000347 0.013079 0.000000 0.000000 0.000000
# 4 0.000000 0.000000 0.000000 0.024063 0.000000 0.000000
# 5 0.000000 0.000000 0.000000 0.000000 0.037824 0.000000
# 6 0.000000 0.000000 0.000000 0.000000 0.000000 0.052355
#
#
# Mechanical properties :
#
#
# Convention : Reuss Voigt Hill
#
# Bulk Modulus (GPa) = 42.59516 57.18988 49.89252
# Shear Modulus (GPa) = 26.88155 30.42522 28.65338
#
# Velocity S-wave (km/s) = 3.47794 3.70009 3.59073
# Velocity P-wave (km/s) = 5.94095 6.63237 6.29616
#
# Compressibility (1/GPa) = 0.02347685
#
# Stress axis : x y z
#
# Youngs Moduli (GPa) = 99.83183 48.52131 76.45609
#
# Poissons Ratio (x) = 0.22211 0.39678
# Poissons Ratio (y) = 0.45699 0.02655
# Poissons Ratio (z) = 0.51809 0.01685
#
# Static dielectric constant tensor:
#      x y z
#    x 1.755550 0.000000 0.000000 
#    y 0.000000 1.850770 0.000000 
#    z 0.000000 0.000000 1.853560 
# 
# From -- ./inp_files/11024.got.cif
#   From: 2010.05.17/outbox.cif.g08.bks.cpg/sg36_6_cif.got.tgz:11024.got - 2010.06.03 17:41:39.
