data_PCOD9352022
_publ_section_title
;
Structure prediction by ZEFSAII (Michael W. Deem and Ramdas Pophale) SiO2 
 PCOD9352022
Probable space group: C M C 21
;
_chemical_formula_sum "Si O2"
_cell_formula_units_Z 48
_cell_length_a 8.841233
_cell_length_b 31.379654
_cell_length_c 9.327693
_cell_angle_alpha 90.000000
_cell_angle_beta 90.000000
_cell_angle_gamma 90.000000
_cell_volume 2587.826945
_symmetry_space_group_name_H-M "C M C 21"
_symmetry_group_IT_number 36
_symmetry_cell_setting 'orthorhombic'
loop_
_space_group_symop_operation_xyz
x,y,z
-x,-y,1/2+z
x,-y,1/2+z
-x,y,z
1/2+x,1/2+y,z
1/2-x,1/2-y,1/2+z
1/2+x,1/2-y,1/2+z
1/2-x,1/2+y,z
loop_
_atom_site_type_symbol
_atom_site_label
_atom_site_fract_x
_atom_site_fract_y
_atom_site_fract_z
Si Si1 0.177292 0.787147 0.644720
Si Si2 0.680551 0.877124 0.645673
Si Si3 0.177367 0.207825 0.486441
Si Si4 0.818048 0.461950 0.467926
Si Si5 0.819249 0.960662 0.150567
Si Si6 0.819972 0.617842 0.482164
O O1 0.236602 0.833813 0.601081
O O2 0.198025 0.784696 0.816389
O O3 0.266633 0.749157 0.569994
O O4 0.000000 0.783156 0.612216
O O5 0.500000 0.869787 0.639056
O O6 0.717373 0.917449 0.547485
O O7 0.717223 0.886745 0.812540
O O8 0.270625 0.165468 0.525154
O O9 0.000000 0.200140 0.512511
O O10 0.748177 0.500339 0.559180
O O11 0.750194 0.462196 0.309292
O O12 0.000000 0.466572 0.462086
O O13 0.000000 0.963380 0.156272
O O14 0.767094 0.917320 0.073063
O O15 0.000000 0.612310 0.499496
#
# Coordination Sequence:
#
# PCOD9352022 Si02
#       6
#     8   8   8   8   8   8
#     4  10  21  36  57  84 114 150 190 234 287 344
#     4   9  20  38  61  85 111 147 191 238 286 339
#     4  10  21  37  57  83 115 150 191 238 287 340
#     4  11  23  41  63  87 117 155 196 238 289 348
#     4  12  25  40  60  89 121 153 192 240 292 344
#     4  10  20  38  62  86 114 151 194 238 289 347
#
# _framework density 18.548380999999999
#
# number of rings (size 3 to 8) (size 9 to 14) (size 15 to 20)
#    0.000    1.667    0.000    4.500    0.000    6.667 
#    0.000    1.667    0.000    0.000    0.000    0.000 
#    0.000    0.000    0.000    0.000    0.000    0.000 
#
# Total GULP energy -134167.441162 kJ/mol
# GULP energy per Si atom -5590.310048 kJ/mol
# Density = 1.850616 g / cm^3
# Si number density = 18.548381 Si / 1000 Ang^3
#
#
#
# Elastic Constant Matrix: (Units=GPa)
#
#
# Indices 1 2 3 4 5 6 
#
# 1 94.6550 70.6671 59.6695 0.0000 0.0000 0.0000
# 2 70.6671 136.5316 76.1127 0.0000 0.0000 0.0000
# 3 59.6695 76.1127 92.5161 0.0000 0.0000 0.0000
# 4 0.0000 0.0000 0.0000 33.4969 0.0000 0.0000
# 5 0.0000 0.0000 0.0000 0.0000 27.5125 0.0000
# 6 0.0000 0.0000 0.0000 0.0000 0.0000 40.3811
#
#
#
# Elastic Compliance Matrix: (Units=1/GPa)
#
#
# Indices 1 2 3 4 5 6 
#
# 1 0.020052 -0.005854 -0.008117 0.000000 0.000000 0.000000
# 2 -0.005854 0.015238 -0.008761 0.000000 0.000000 0.000000
# 3 -0.008117 -0.008761 0.023252 0.000000 0.000000 0.000000
# 4 0.000000 0.000000 0.000000 0.029854 0.000000 0.000000
# 5 0.000000 0.000000 0.000000 0.000000 0.036347 0.000000
# 6 0.000000 0.000000 0.000000 0.000000 0.000000 0.024764
#
#
# Mechanical properties :
#
#
# Convention : Reuss Voigt Hill
#
# Bulk Modulus (GPa) = 76.46121 81.84461 79.15291
# Shear Modulus (GPa) = 25.08426 28.09498 26.58962
#
# Velocity S-wave (km/s) = 3.68145 3.89612 3.79030
# Velocity P-wave (km/s) = 7.70602 8.02872 7.86903
#
# Compressibility (1/GPa) = 0.01307853
#
# Stress axis : x y z
#
# Youngs Moduli (GPa) = 49.87147 65.62518 43.00771
#
# Poissons Ratio (x) = 0.38414 0.34909
# Poissons Ratio (y) = 0.29192 0.37679
# Poissons Ratio (z) = 0.40480 0.57494
#
# Static dielectric constant tensor:
#      x y z
#    x 1.617790 0.000000 0.000000 
#    y 0.000000 1.604250 0.000000 
#    z 0.000000 0.000000 1.617230 
# 
# From -- ./inp_files/2635.got.cif
#   From: 2010.05.17/outbox.cif.g08.bks.cpg/sg36_2_cif.got.tgz:2635.got - 2010.06.03 17:41:39.
