data_PCOD9352061
_publ_section_title
;
Structure prediction by ZEFSAII (Michael W. Deem and Ramdas Pophale) SiO2 
 PCOD9352061
Probable space group: C M C 21
;
_chemical_formula_sum "Si O2"
_cell_formula_units_Z 40
_cell_length_a 21.689618
_cell_length_b 8.881598
_cell_length_c 8.003177
_cell_angle_alpha 90.000000
_cell_angle_beta 90.000000
_cell_angle_gamma 90.000000
_cell_volume 1541.719755
_symmetry_space_group_name_H-M "C M C 21"
_symmetry_group_IT_number 36
_symmetry_cell_setting 'orthorhombic'
loop_
_space_group_symop_operation_xyz
x,y,z
-x,-y,1/2+z
x,-y,1/2+z
-x,y,z
1/2+x,1/2+y,z
1/2-x,1/2-y,1/2+z
1/2+x,1/2-y,1/2+z
1/2-x,1/2+y,z
loop_
_atom_site_type_symbol
_atom_site_label
_atom_site_fract_x
_atom_site_fract_y
_atom_site_fract_z
Si Si1 0.500000 0.248915 0.911581
Si Si2 0.128832 0.672981 0.565960
Si Si3 0.620745 0.429088 0.817679
Si Si4 0.186665 0.153395 0.643918
Si Si5 0.301193 0.034311 0.272453
Si Si6 0.500000 0.058208 0.569102
O O1 0.558458 0.360025 0.894152
O O2 0.500000 0.136679 0.751715
O O3 0.500000 0.123914 0.058467
O O4 0.131181 0.838725 0.643335
O O5 0.140725 0.570215 0.729954
O O6 0.183413 0.622316 0.442750
O O7 0.063058 0.625261 0.493237
O O8 0.627915 0.601534 0.758070
O O9 0.672085 0.391262 0.955073
O O10 0.199950 0.328804 0.642407
O O11 0.242279 0.068024 0.736604
#
# Coordination Sequence:
#
# PCOD9352061 Si02
#       6
#     4   8   8   8   8   4
#     4  10  22  42  70 106 146 192 238 292 352 426
#     4  11  23  43  69 103 138 183 234 296 352 427
#     4  11  25  45  69 100 142 185 239 294 359 426
#     4  12  26  45  66  97 136 187 238 300 360 428
#     4  12  25  42  67  97 136 182 237 292 359 425
#     4  10  20  38  68 102 138 180 230 276 340 418
#
# _framework density 25.945053999999999
#
# number of rings (size 3 to 8) (size 9 to 14) (size 15 to 20)
#    0.000    0.800    0.000    8.400    0.000    4.000 
#    0.000    4.000    0.000    0.000    0.000    0.000 
#    0.000    0.000    0.000    0.000    0.000    0.000 
#
# Total GULP energy -111890.983941 kJ/mol
# GULP energy per Si atom -5594.549197 kJ/mol
# Density = 2.588600 g / cm^3
# Si number density = 25.945054 Si / 1000 Ang^3
#
#
#
# Elastic Constant Matrix: (Units=GPa)
#
#
# Indices 1 2 3 4 5 6 
#
# 1 152.7840 35.2864 21.4148 0.0000 0.0000 0.0000
# 2 35.2864 112.9424 -30.3287 0.0000 0.0000 0.0000
# 3 21.4148 -30.3287 50.8479 0.0000 0.0000 0.0000
# 4 0.0000 0.0000 0.0000 47.0110 0.0000 0.0000
# 5 0.0000 0.0000 0.0000 0.0000 37.4982 0.0000
# 6 0.0000 0.0000 0.0000 0.0000 0.0000 20.8481
#
#
#
# Elastic Compliance Matrix: (Units=1/GPa)
#
#
# Indices 1 2 3 4 5 6 
#
# 1 0.008374 -0.004243 -0.006058 0.000000 0.000000 0.000000
# 2 -0.004243 0.012692 0.009357 0.000000 0.000000 0.000000
# 3 -0.006058 0.009357 0.027799 0.000000 0.000000 0.000000
# 4 0.000000 0.000000 0.000000 0.021272 0.000000 0.000000
# 5 0.000000 0.000000 0.000000 0.000000 0.026668 0.000000
# 6 0.000000 0.000000 0.000000 0.000000 0.000000 0.047966
#
#
# Mechanical properties :
#
#
# Convention : Reuss Voigt Hill
#
# Bulk Modulus (GPa) = 21.28587 41.03547 31.16067
# Shear Modulus (GPa) = 30.80387 40.41825 35.61106
#
# Velocity S-wave (km/s) = 3.44942 3.95123 3.70882
# Velocity P-wave (km/s) = 4.90782 6.05532 5.51152
#
# Compressibility (1/GPa) = 0.04697953
#
# Stress axis : x y z
#
# Youngs Moduli (GPa) = 119.41466 78.78676 35.97252
#
# Poissons Ratio (x) = 0.33429 0.21791
# Poissons Ratio (y) = 0.50667 -0.33661
# Poissons Ratio (z) = 0.72336 -0.73725
#
# Static dielectric constant tensor:
#      x y z
#    x 2.060730 0.000000 0.000000 
#    y 0.000000 1.973380 0.000000 
#    z 0.000000 0.000000 2.134330 
# 
# From -- ./inp_files/5492.got.cif
#   From: 2010.05.17/outbox.cif.g08.bks.cpg/sg36_3_cif.got.tgz:5492.got - 2010.06.03 17:41:39.
