data_PCOD9352170
_publ_section_title
;
Structure prediction by ZEFSAII (Michael W. Deem and Ramdas Pophale) SiO2 
 PCOD9352170
Probable space group: C M C 21
;
_chemical_formula_sum "Si O2"
_cell_formula_units_Z 60
_cell_length_a 12.614596
_cell_length_b 14.351757
_cell_length_c 15.404961
_cell_angle_alpha 90.000000
_cell_angle_beta 90.000000
_cell_angle_gamma 90.000000
_cell_volume 2788.939041
_symmetry_space_group_name_H-M "C M C 21"
_symmetry_group_IT_number 36
_symmetry_cell_setting 'orthorhombic'
loop_
_space_group_symop_operation_xyz
x,y,z
-x,-y,1/2+z
x,-y,1/2+z
-x,y,z
1/2+x,1/2+y,z
1/2-x,1/2-y,1/2+z
1/2+x,1/2-y,1/2+z
1/2-x,1/2+y,z
loop_
_atom_site_type_symbol
_atom_site_label
_atom_site_fract_x
_atom_site_fract_y
_atom_site_fract_z
Si Si1 0.879688 0.428405 0.218590
Si Si2 0.809919 0.839292 0.493469
Si Si3 0.123917 0.353205 0.926364
Si Si4 0.876081 0.467323 0.539231
Si Si5 0.000000 0.915883 0.768482
Si Si6 0.116648 0.286049 0.737911
Si Si7 0.847566 0.784431 0.673293
Si Si8 0.839912 0.081647 0.814022
O O1 0.860010 0.498848 0.138590
O O2 0.875278 0.324591 0.176405
O O3 0.783775 0.430495 0.287180
O O4 0.000000 0.443186 0.252423
O O5 0.807515 0.733857 0.458760
O O6 0.875319 0.834034 0.582561
O O7 0.855458 0.902572 0.416611
O O8 0.695678 0.881355 0.513437
O O9 0.128501 0.352291 0.822200
O O10 0.000000 0.333424 0.948212
O O11 0.153960 0.446578 0.975966
O O12 0.000000 0.449571 0.526782
O O13 0.091759 0.836463 0.749175
O O14 0.092188 0.995881 0.781463
O O15 0.221415 0.294428 0.682009
O O16 0.121837 0.179264 0.771994
O O17 0.000000 0.302694 0.698809
#
# Coordination Sequence:
#
# PCOD9352170 Si02
#       8
#     8   8   8   8   4   8   8   8
#     4  10  20  43  65  91 122 173 213 265 318 393
#     4  11  23  39  64  96 124 170 212 266 324 388
#     4   9  19  38  64  86 119 165 213 254 314 389
#     4  10  21  38  63  89 124 159 213 266 316 383
#     4  12  24  40  58 100 126 166 212 276 314 400
#     4   9  19  40  64  91 121 170 207 263 325 387
#     4  11  23  37  67  92 128 167 216 263 325 388
#     4  10  23  40  63  91 133 164 215 267 330 383
#
# _framework density 21.513556999999999
#
# number of rings (size 3 to 8) (size 9 to 14) (size 15 to 20)
#    0.000    1.867    2.667    0.800    3.733    1.067 
#    0.000    0.667    0.000    0.800    0.000    0.000 
#    0.000    0.000    0.000    0.000    0.000    0.000 
#
# Total GULP energy -167161.433525 kJ/mol
# GULP energy per Si atom -5572.047784 kJ/mol
# Density = 2.146459 g / cm^3
# Si number density = 21.513557 Si / 1000 Ang^3
#
#
#
# Elastic Constant Matrix: (Units=GPa)
#
#
# Indices 1 2 3 4 5 6 
#
# 1 134.2332 38.1469 27.4480 0.0000 0.0000 0.0000
# 2 38.1469 85.0633 16.5514 0.0000 0.0000 0.0000
# 3 27.4480 16.5514 33.2381 0.0000 0.0000 0.0000
# 4 0.0000 0.0000 0.0000 21.2125 0.0000 0.0000
# 5 0.0000 0.0000 0.0000 0.0000 9.6064 0.0000
# 6 0.0000 0.0000 0.0000 0.0000 0.0000 34.6439
#
#
#
# Elastic Compliance Matrix: (Units=1/GPa)
#
#
# Indices 1 2 3 4 5 6 
#
# 1 0.009637 -0.003071 -0.006429 0.000000 0.000000 0.000000
# 2 -0.003071 0.013996 -0.004434 0.000000 0.000000 0.000000
# 3 -0.006429 -0.004434 0.037603 0.000000 0.000000 0.000000
# 4 0.000000 0.000000 0.000000 0.047142 0.000000 0.000000
# 5 0.000000 0.000000 0.000000 0.000000 0.104097 0.000000
# 6 0.000000 0.000000 0.000000 0.000000 0.000000 0.028865
#
#
# Mechanical properties :
#
#
# Convention : Reuss Voigt Hill
#
# Bulk Modulus (GPa) = 29.96813 46.31414 38.14114
# Shear Modulus (GPa) = 17.83612 24.45176 21.14394
#
# Velocity S-wave (km/s) = 2.88247 3.37497 3.13840
# Velocity P-wave (km/s) = 5.00383 6.06315 5.55878
#
# Compressibility (1/GPa) = 0.03336878
#
# Stress axis : x y z
#
# Youngs Moduli (GPa) = 103.76661 71.45041 26.59369
#
# Poissons Ratio (x) = 0.21941 0.17097
# Poissons Ratio (y) = 0.31865 0.11790
# Poissons Ratio (z) = 0.66713 0.31678
#
# Static dielectric constant tensor:
#      x y z
#    x 1.740950 0.000000 0.000000 
#    y 0.000000 1.757470 0.000000 
#    z 0.000000 0.000000 1.833210 
# 
# From -- ./inp_files/12281.got.cif
#   From: 2010.05.17/outbox.cif.g08.bks.cpg/sg36_7_cif.got.tgz:12281.got - 2010.06.03 17:41:39.
