data_PCOD9352420
_publ_section_title
;
Structure prediction by ZEFSAII (Michael W. Deem and Ramdas Pophale) SiO2 
 PCOD9352420
Probable space group: C M C 21
;
_chemical_formula_sum "Si O2"
_cell_formula_units_Z 56
_cell_length_a 18.385515
_cell_length_b 12.015405
_cell_length_c 13.408889
_cell_angle_alpha 90.000000
_cell_angle_beta 90.000000
_cell_angle_gamma 90.000000
_cell_volume 2962.149742
_symmetry_space_group_name_H-M "C M C 21"
_symmetry_group_IT_number 36
_symmetry_cell_setting 'orthorhombic'
loop_
_space_group_symop_operation_xyz
x,y,z
-x,-y,1/2+z
x,-y,1/2+z
-x,y,z
1/2+x,1/2+y,z
1/2-x,1/2-y,1/2+z
1/2+x,1/2-y,1/2+z
1/2-x,1/2+y,z
loop_
_atom_site_type_symbol
_atom_site_label
_atom_site_fract_x
_atom_site_fract_y
_atom_site_fract_z
Si Si1 0.673863 0.384589 0.787610
Si Si2 0.665187 0.607523 0.663147
Si Si3 0.414160 0.835250 0.723144
Si Si4 0.701773 0.250001 0.598870
Si Si5 0.173862 0.615411 0.410132
Si Si6 0.085840 0.835252 0.974597
Si Si7 0.165187 0.607523 0.034594
O O1 0.672258 0.504571 0.735739
O O2 0.664066 0.294928 0.698625
O O3 0.750001 0.366735 0.848871
O O4 0.609938 0.377484 0.867456
O O5 0.623418 0.713985 0.709827
O O6 0.744641 0.650359 0.632188
O O7 0.621114 0.587587 0.560676
O O8 0.500000 0.827277 0.710251
O O9 0.390063 0.877482 0.830285
O O10 0.378886 0.912412 0.637065
O O11 0.664064 0.205072 0.499117
O O12 0.755359 0.349642 0.565551
O O13 0.172256 0.495429 0.462002
O O14 0.000000 0.827278 0.987489
O O15 0.123418 0.713986 0.987914
#
# Coordination Sequence:
#
# PCOD9352420 Si02
#       7
#     8   8   8   8   8   8   8
#     4  12  23  37  66  95 120 156 206 254 307 354
#     4  10  21  38  63  85 122 159 202 249 293 371
#     4  10  23  42  60  87 124 165 201 243 306 368
#     4  10  22  40  56  96 120 152 196 264 296 350
#     4  12  23  37  66  95 120 156 206 254 307 354
#     4  10  23  42  60  87 124 165 201 243 306 368
#     4  10  21  38  63  85 122 159 202 249 293 371
#
# _framework density 18.905189
#
# number of rings (size 3 to 8) (size 9 to 14) (size 15 to 20)
#    0.000    1.714    5.714    2.571    4.000    2.286 
#    0.000    0.714    0.000    0.000    0.000    0.000 
#    0.000    0.000    0.000    0.000    0.000    0.000 
#
# Total GULP energy -156287.679658 kJ/mol
# GULP energy per Si atom -5581.702845 kJ/mol
# Density = 1.886216 g / cm^3
# Si number density = 18.905189 Si / 1000 Ang^3
#
#
#
# Elastic Constant Matrix: (Units=GPa)
#
#
# Indices 1 2 3 4 5 6 
#
# 1 31.9227 -1.6992 12.5851 0.0000 0.0000 0.0000
# 2 -1.6992 35.2405 45.9791 0.0000 0.0000 0.0000
# 3 12.5851 45.9791 136.0379 0.0000 0.0000 0.0000
# 4 0.0000 0.0000 0.0000 42.6293 0.0000 0.0000
# 5 0.0000 0.0000 0.0000 0.0000 16.0264 0.0000
# 6 0.0000 0.0000 0.0000 0.0000 0.0000 5.2800
#
#
#
# Elastic Compliance Matrix: (Units=1/GPa)
#
#
# Indices 1 2 3 4 5 6 
#
# 1 0.034531 0.010434 -0.006721 0.000000 0.000000 0.000000
# 2 0.010434 0.053914 -0.019188 0.000000 0.000000 0.000000
# 3 -0.006721 -0.019188 0.014458 0.000000 0.000000 0.000000
# 4 0.000000 0.000000 0.000000 0.023458 0.000000 0.000000
# 5 0.000000 0.000000 0.000000 0.000000 0.062397 0.000000
# 6 0.000000 0.000000 0.000000 0.000000 0.000000 0.189396
#
#
# Mechanical properties :
#
#
# Convention : Reuss Voigt Hill
#
# Bulk Modulus (GPa) = 13.89779 35.21456 24.55618
# Shear Modulus (GPa) = 11.54502 22.54287 17.04395
#
# Velocity S-wave (km/s) = 2.47388 3.45689 3.00584
# Velocity P-wave (km/s) = 3.94048 5.88224 5.00640
#
# Compressibility (1/GPa) = 0.07195387
#
# Stress axis : x y z
#
# Youngs Moduli (GPa) = 28.95963 18.54802 69.16653
#
# Poissons Ratio (x) = -0.19354 0.46488
# Poissons Ratio (y) = -0.30217 1.32714
# Poissons Ratio (z) = 0.19464 0.35589
#
# Static dielectric constant tensor:
#      x y z
#    x 1.639530 0.000000 0.000000 
#    y 0.000000 1.665810 0.000000 
#    z 0.000000 0.000000 1.722350 
# 
# From -- ./inp_files/9239.got.cif
#   From: 2010.05.17/outbox.cif.g08.bks.cpg/sg36_5_cif.got.tgz:9239.got - 2010.06.03 17:41:39.
