data_PCOD9352129
_publ_section_title
;
Structure prediction by ZEFSAII (Michael W. Deem and Ramdas Pophale) SiO2 
 PCOD9352129
Probable space group: C M C 21
;
_chemical_formula_sum "Si O2"
_cell_formula_units_Z 64
_cell_length_a 18.254764
_cell_length_b 9.365063
_cell_length_c 16.189103
_cell_angle_alpha 90.000000
_cell_angle_beta 90.000000
_cell_angle_gamma 90.000000
_cell_volume 2767.640723
_symmetry_space_group_name_H-M "C M C 21"
_symmetry_group_IT_number 36
_symmetry_cell_setting 'orthorhombic'
loop_
_space_group_symop_operation_xyz
x,y,z
-x,-y,1/2+z
x,-y,1/2+z
-x,y,z
1/2+x,1/2+y,z
1/2-x,1/2-y,1/2+z
1/2+x,1/2-y,1/2+z
1/2-x,1/2+y,z
loop_
_atom_site_type_symbol
_atom_site_label
_atom_site_fract_x
_atom_site_fract_y
_atom_site_fract_z
Si Si1 0.416534 0.637136 0.247020
Si Si2 0.790171 0.787692 0.994808
Si Si3 0.837103 0.901526 0.323138
Si Si4 0.580042 0.446079 0.086365
Si Si5 0.640951 0.285706 0.506427
Si Si6 0.411804 0.867137 0.763564
Si Si7 0.693761 0.979133 0.386035
Si Si8 0.912571 0.401009 0.136741
O O1 0.500000 0.666422 0.272443
O O2 0.373817 0.557432 0.319255
O O3 0.415813 0.513939 0.177188
O O4 0.386686 0.777011 0.200887
O O5 0.851652 0.856755 0.052171
O O6 0.723622 0.707212 0.042186
O O7 0.823461 0.663079 0.937722
O O8 0.743701 0.908412 0.941305
O O9 0.850044 0.826193 0.411380
O O10 0.871836 0.784061 0.263797
O O11 0.751130 0.928020 0.315634
O O12 0.500000 0.376308 0.076198
O O13 0.585317 0.594322 0.036019
O O14 0.613328 0.136903 0.544769
O O15 0.500000 0.853803 0.772734
O O16 0.375801 0.954332 0.839931
O O17 0.394707 0.949843 0.678730
O O18 0.000000 0.388689 0.136060
#
# Coordination Sequence:
#
# PCOD9352129 Si02
#       8
#     8   8   8   8   8   8   8   8
#     4   9  20  38  61  94 130 166 215 269 316 383
#     4  11  21  42  63  94 131 165 213 269 315 382
#     4  11  22  40  66  94 127 172 214 264 323 387
#     4  10  21  40  65  94 127 168 217 264 318 384
#     4  10  20  40  67  92 124 172 216 259 318 389
#     4  11  24  42  63  93 131 167 211 268 329 382
#     4  11  23  42  61  96 130 166 210 274 314 384
#     4   9  21  40  62  93 132 170 216 269 321 387
#
# _framework density 23.124389000000001
#
# number of rings (size 3 to 8) (size 9 to 14) (size 15 to 20)
#    0.000    1.750    5.000    1.500    1.750    3.500 
#    2.250    2.500    0.000    0.000    0.000    0.000 
#    0.000    0.000    0.000    0.000    0.000    0.000 
#
# Total GULP energy -178393.968305 kJ/mol
# GULP energy per Si atom -5574.811510 kJ/mol
# Density = 2.307176 g / cm^3
# Si number density = 23.124389 Si / 1000 Ang^3
#
#
#
# Elastic Constant Matrix: (Units=GPa)
#
#
# Indices 1 2 3 4 5 6 
#
# 1 75.3806 17.6368 16.2562 0.0000 0.0000 0.0000
# 2 17.6368 70.9890 9.8958 0.0000 0.0000 0.0000
# 3 16.2562 9.8958 23.8089 0.0000 0.0000 0.0000
# 4 0.0000 0.0000 0.0000 33.5883 0.0000 0.0000
# 5 0.0000 0.0000 0.0000 0.0000 33.3391 0.0000
# 6 0.0000 0.0000 0.0000 0.0000 0.0000 28.7031
#
#
#
# Elastic Compliance Matrix: (Units=1/GPa)
#
#
# Indices 1 2 3 4 5 6 
#
# 1 0.015997 -0.002603 -0.009841 0.000000 0.000000 0.000000
# 2 -0.002603 0.015376 -0.004614 0.000000 0.000000 0.000000
# 3 -0.009841 -0.004614 0.050638 0.000000 0.000000 0.000000
# 4 0.000000 0.000000 0.000000 0.029772 0.000000 0.000000
# 5 0.000000 0.000000 0.000000 0.000000 0.029995 0.000000
# 6 0.000000 0.000000 0.000000 0.000000 0.000000 0.034839
#
#
# Mechanical properties :
#
#
# Convention : Reuss Voigt Hill
#
# Bulk Modulus (GPa) = 20.87823 28.63956 24.75890
# Shear Modulus (GPa) = 22.05573 27.55207 24.80390
#
# Velocity S-wave (km/s) = 3.09169 3.45552 3.27866
# Velocity P-wave (km/s) = 4.66830 5.32284 5.00628
#
# Compressibility (1/GPa) = 0.04789678
#
# Stress axis : x y z
#
# Youngs Moduli (GPa) = 62.51105 65.03439 19.74805
#
# Poissons Ratio (x) = 0.16926 0.19434
# Poissons Ratio (y) = 0.16269 0.09112
# Poissons Ratio (z) = 0.61516 0.30007
#
# Static dielectric constant tensor:
#      x y z
#    x 1.777170 0.000000 0.000000 
#    y 0.000000 1.957720 0.000000 
#    z 0.000000 0.000000 1.974540 
# 
# From -- ./inp_files/15048.got.cif
#   From: 2010.05.17/outbox.cif.g08.bks.cpg/sg36_8_cif.got.tgz:15048.got - 2010.06.03 17:41:39.
