data_PCOD9352363
_publ_section_title
;
Structure prediction by ZEFSAII (Michael W. Deem and Ramdas Pophale) SiO2 
 PCOD9352363
Probable space group: C M C 21
;
_chemical_formula_sum "Si O2"
_cell_formula_units_Z 64
_cell_length_a 13.792491
_cell_length_b 25.413128
_cell_length_c 9.940121
_cell_angle_alpha 90.000000
_cell_angle_beta 90.000000
_cell_angle_gamma 90.000000
_cell_volume 3484.115184
_symmetry_space_group_name_H-M "C M C 21"
_symmetry_group_IT_number 36
_symmetry_cell_setting 'orthorhombic'
loop_
_space_group_symop_operation_xyz
x,y,z
-x,-y,1/2+z
x,-y,1/2+z
-x,y,z
1/2+x,1/2+y,z
1/2-x,1/2-y,1/2+z
1/2+x,1/2-y,1/2+z
1/2-x,1/2+y,z
loop_
_atom_site_type_symbol
_atom_site_label
_atom_site_fract_x
_atom_site_fract_y
_atom_site_fract_z
Si Si1 0.689618 0.551951 0.220680
Si Si2 0.889220 0.528624 0.128741
Si Si3 0.749703 0.664276 0.857499
Si Si4 0.114049 0.155235 0.604260
Si Si5 0.615550 0.464944 0.011755
Si Si6 0.611162 0.935313 0.329828
Si Si7 0.385794 0.264989 0.859447
Si Si8 0.388062 0.341317 0.614541
O O1 0.802926 0.562940 0.191871
O O2 0.655500 0.508109 0.114366
O O3 0.668788 0.530954 0.369112
O O4 0.629137 0.604738 0.196127
O O5 0.875098 0.472127 0.199746
O O6 0.000000 0.545346 0.160540
O O7 0.879646 0.530598 0.967407
O O8 0.681022 0.670481 0.728465
O O9 0.813836 0.611961 0.838017
O O10 0.819907 0.714028 0.873122
O O11 0.682914 0.658714 0.988508
O O12 0.130537 0.094123 0.566627
O O13 0.134114 0.192464 0.476551
O O14 0.000000 0.160708 0.637853
O O15 0.500000 0.472684 0.992863
O O16 0.500000 0.915538 0.327086
O O17 0.500000 0.251459 0.867559
O O18 0.368978 0.293681 0.716977
O O19 0.500000 0.338988 0.571059
#
# Coordination Sequence:
#
# PCOD9352363 Si02
#       8
#     8   8   8   8   8   8   8   8
#     4  12  22  38  60  89 122 163 199 243 295 357
#     4  10  21  38  57  82 118 157 196 242 295 348
#     4  12  22  38  61  93 113 153 203 250 289 357
#     4  10  22  40  59  86 122 158 194 243 300 354
#     4  11  23  37  58  88 125 161 201 242 292 360
#     4  10  21  38  59  86 118 154 197 244 292 350
#     4  10  22  43  65  83 114 158 199 247 300 351
#     4  11  23  40  61  89 124 158 193 243 303 359
#
# _framework density 18.369084000000001
#
# number of rings (size 3 to 8) (size 9 to 14) (size 15 to 20)
#    0.000    1.250    2.500    4.125    1.750    0.000 
#    0.000    0.000    0.000    1.500    0.000    0.000 
#    0.000    0.000    0.000    0.000    0.000    0.000 
#
# Total GULP energy -178827.525982 kJ/mol
# GULP energy per Si atom -5588.360187 kJ/mol
# Density = 1.832727 g / cm^3
# Si number density = 18.369084 Si / 1000 Ang^3
#
#
#
# Elastic Constant Matrix: (Units=GPa)
#
#
# Indices 1 2 3 4 5 6 
#
# 1 82.6381 33.0717 37.4321 0.0000 0.0000 0.0000
# 2 33.0717 70.8230 28.9753 0.0000 0.0000 0.0000
# 3 37.4321 28.9753 76.0194 0.0000 0.0000 0.0000
# 4 0.0000 0.0000 0.0000 20.4622 0.0000 0.0000
# 5 0.0000 0.0000 0.0000 0.0000 29.8418 0.0000
# 6 0.0000 0.0000 0.0000 0.0000 0.0000 33.4497
#
#
#
# Elastic Compliance Matrix: (Units=1/GPa)
#
#
# Indices 1 2 3 4 5 6 
#
# 1 0.017155 -0.005396 -0.006390 0.000000 0.000000 0.000000
# 2 -0.005396 0.018426 -0.004366 0.000000 0.000000 0.000000
# 3 -0.006390 -0.004366 0.017965 0.000000 0.000000 0.000000
# 4 0.000000 0.000000 0.000000 0.048871 0.000000 0.000000
# 5 0.000000 0.000000 0.000000 0.000000 0.033510 0.000000
# 6 0.000000 0.000000 0.000000 0.000000 0.000000 0.029896
#
#
# Mechanical properties :
#
#
# Convention : Reuss Voigt Hill
#
# Bulk Modulus (GPa) = 47.07900 47.60430 47.34165
# Shear Modulus (GPa) = 24.36550 25.41752 24.89151
#
# Velocity S-wave (km/s) = 3.64598 3.72386 3.68513
# Velocity P-wave (km/s) = 6.58858 6.66793 6.62837
#
# Compressibility (1/GPa) = 0.02124089
#
# Stress axis : x y z
#
# Youngs Moduli (GPa) = 58.29142 54.27168 55.66292
#
# Poissons Ratio (x) = 0.29287 0.35571
# Poissons Ratio (y) = 0.31456 0.24302
# Poissons Ratio (z) = 0.37250 0.23695
#
# Static dielectric constant tensor:
#      x y z
#    x 1.645760 0.000000 0.000000 
#    y 0.000000 1.597750 0.000000 
#    z 0.000000 0.000000 1.610200 
# 
# From -- ./inp_files/4359.got.cif
#   From: 2010.05.17/outbox.cif.g08.bks.cpg/sg36_3_cif.got.tgz:4359.got - 2010.06.03 17:41:39.
