data_PCOD9352349
_publ_section_title
;
Structure prediction by ZEFSAII (Michael W. Deem and Ramdas Pophale) SiO2 
 PCOD9352349
Probable space group: C M C 21
;
_chemical_formula_sum "Si O2"
_cell_formula_units_Z 64
_cell_length_a 7.795878
_cell_length_b 31.657448
_cell_length_c 12.170080
_cell_angle_alpha 90.000000
_cell_angle_beta 90.000000
_cell_angle_gamma 90.000000
_cell_volume 3003.546565
_symmetry_space_group_name_H-M "C M C 21"
_symmetry_group_IT_number 36
_symmetry_cell_setting 'orthorhombic'
loop_
_space_group_symop_operation_xyz
x,y,z
-x,-y,1/2+z
x,-y,1/2+z
-x,y,z
1/2+x,1/2+y,z
1/2-x,1/2-y,1/2+z
1/2+x,1/2-y,1/2+z
1/2-x,1/2+y,z
loop_
_atom_site_type_symbol
_atom_site_label
_atom_site_fract_x
_atom_site_fract_y
_atom_site_fract_z
Si Si1 0.702249 0.956206 0.144780
Si Si2 0.295128 0.049417 0.110688
Si Si3 0.697268 0.193199 0.091625
Si Si4 0.709591 0.124185 0.267128
Si Si5 0.206061 0.079583 0.868870
Si Si6 0.302189 0.326056 0.350303
Si Si7 0.289822 0.871892 0.021155
Si Si8 0.303598 0.785883 0.140136
O O1 0.500000 0.956939 0.118056
O O2 0.725016 0.950988 0.275096
O O3 0.776070 0.001821 0.113056
O O4 0.771385 0.914179 0.084384
O O5 0.500000 0.046492 0.127759
O O6 0.231453 0.081818 0.203914
O O7 0.263317 0.068664 0.991032
O O8 0.500000 0.180609 0.072622
O O9 0.761893 0.164144 0.191969
O O10 0.707314 0.242583 0.117427
O O11 0.792610 0.184801 0.978043
O O12 0.500000 0.123886 0.269278
O O13 0.763805 0.126937 0.393692
O O14 0.266779 0.126535 0.838014
O O15 0.000000 0.079442 0.866352
O O16 0.500000 0.324888 0.315002
O O17 0.202827 0.295318 0.269725
O O18 0.500000 0.871919 0.025435
O O19 0.236303 0.828236 0.079965
O O20 0.500000 0.779628 0.103985
#
# Coordination Sequence:
#
# PCOD9352349 Si02
#       8
#     8   8   8   8   8   8   8   8
#     4  10  21  37  63  92 118 153 203 252 294 356
#     4  10  21  37  63  92 118 153 203 252 294 356
#     4  11  23  39  62  90 122 158 200 251 305 364
#     4   9  19  36  57  85 120 155 191 241 300 352
#     4  11  23  39  61  86 123 162 199 252 306 359
#     4  11  23  41  63  86 119 162 209 254 300 357
#     4   9  19  36  57  85 120 155 191 241 300 352
#     4  11  23  39  62  90 122 158 200 251 305 364
#
# _framework density 21.308143000000001
#
# number of rings (size 3 to 8) (size 9 to 14) (size 15 to 20)
#    0.000    1.750    2.500    1.500    3.500    1.500 
#    0.000    0.000    0.000    3.000    0.000    0.000 
#    0.000    0.000    0.000    0.000    0.000    0.000 
#
# Total GULP energy -178768.574785 kJ/mol
# GULP energy per Si atom -5586.517962 kJ/mol
# Density = 2.125965 g / cm^3
# Si number density = 21.308143 Si / 1000 Ang^3
#
#
#
# Elastic Constant Matrix: (Units=GPa)
#
#
# Indices 1 2 3 4 5 6 
#
# 1 30.3565 8.3406 -5.3861 0.0000 0.0000 0.0000
# 2 8.3406 114.5382 31.0837 0.0000 0.0000 0.0000
# 3 -5.3861 31.0837 109.8830 0.0000 0.0000 0.0000
# 4 0.0000 0.0000 0.0000 45.7964 0.0000 0.0000
# 5 0.0000 0.0000 0.0000 0.0000 8.0102 0.0000
# 6 0.0000 0.0000 0.0000 0.0000 0.0000 15.2908
#
#
#
# Elastic Compliance Matrix: (Units=1/GPa)
#
#
# Indices 1 2 3 4 5 6 
#
# 1 0.034279 -0.003198 0.002585 0.000000 0.000000 0.000000
# 2 -0.003198 0.009755 -0.002916 0.000000 0.000000 0.000000
# 3 0.002585 -0.002916 0.010052 0.000000 0.000000 0.000000
# 4 0.000000 0.000000 0.000000 0.021836 0.000000 0.000000
# 5 0.000000 0.000000 0.000000 0.000000 0.124841 0.000000
# 6 0.000000 0.000000 0.000000 0.000000 0.000000 0.065399
#
#
# Mechanical properties :
#
#
# Convention : Reuss Voigt Hill
#
# Bulk Modulus (GPa) = 21.26390 35.87266 28.56828
# Shear Modulus (GPa) = 17.30727 28.53544 22.92136
#
# Velocity S-wave (km/s) = 2.85307 3.66345 3.28336
# Velocity P-wave (km/s) = 4.56664 5.89629 5.27354
#
# Compressibility (1/GPa) = 0.04702807
#
# Stress axis : x y z
#
# Youngs Moduli (GPa) = 29.17238 102.51183 99.48042
#
# Poissons Ratio (x) = 0.32779 -0.25714
# Poissons Ratio (y) = 0.09328 0.29011
# Poissons Ratio (z) = -0.07540 0.29895
#
# Static dielectric constant tensor:
#      x y z
#    x 1.782820 0.000000 0.000000 
#    y 0.000000 1.765060 0.000000 
#    z 0.000000 0.000000 1.717890 
# 
# From -- ./inp_files/7164.got.cif
#   From: 2010.05.17/outbox.cif.g08.bks.cpg/sg36_4_cif.got.tgz:7164.got - 2010.06.03 17:41:39.
