data_PCOD9352474
_publ_section_title
;
Structure prediction by ZEFSAII (Michael W. Deem and Ramdas Pophale) SiO2 
 PCOD9352474
Probable space group: C M C 21
;
_chemical_formula_sum "Si O2"
_cell_formula_units_Z 64
_cell_length_a 8.882366
_cell_length_b 33.867346
_cell_length_c 10.354577
_cell_angle_alpha 90.000000
_cell_angle_beta 90.000000
_cell_angle_gamma 90.000000
_cell_volume 3114.886246
_symmetry_space_group_name_H-M "C M C 21"
_symmetry_group_IT_number 36
_symmetry_cell_setting 'orthorhombic'
loop_
_space_group_symop_operation_xyz
x,y,z
-x,-y,1/2+z
x,-y,1/2+z
-x,y,z
1/2+x,1/2+y,z
1/2-x,1/2-y,1/2+z
1/2+x,1/2-y,1/2+z
1/2-x,1/2+y,z
loop_
_atom_site_type_symbol
_atom_site_label
_atom_site_fract_x
_atom_site_fract_y
_atom_site_fract_z
Si Si1 0.318759 0.233940 0.593700
Si Si2 0.676037 0.611299 0.958816
Si Si3 0.331291 0.079638 0.571131
Si Si4 0.818555 0.289875 0.803806
Si Si5 0.675427 0.453795 0.838538
Si Si6 0.821402 0.375596 0.720510
Si Si7 0.822301 0.846941 0.181324
Si Si8 0.169428 0.537158 0.845921
O O1 0.500000 0.232615 0.599695
O O2 0.258330 0.270236 0.678828
O O3 0.276930 0.230553 0.440946
O O4 0.245767 0.196002 0.662897
O O5 0.500000 0.610606 0.991940
O O6 0.693675 0.635959 0.826454
O O7 0.734300 0.566537 0.935433
O O8 0.770245 0.630484 0.073318
O O9 0.500000 0.078859 0.513553
O O10 0.211898 0.056124 0.487044
O O11 0.271805 0.123643 0.590803
O O12 0.339748 0.059977 0.710701
O O13 0.780296 0.336538 0.801918
O O14 0.000000 0.286502 0.790539
O O15 0.500000 0.457484 0.811712
O O16 0.742880 0.415862 0.765994
O O17 0.757994 0.495097 0.816219
O O18 0.000000 0.380531 0.726787
O O19 0.000000 0.847640 0.150038
O O20 0.000000 0.532179 0.898907
#
# Coordination Sequence:
#
# PCOD9352474 Si02
#       8
#     8   8   8   8   8   8   8   8
#     4  11  24  42  69  99 133 175 220 274 333 398
#     4  10  22  40  63  94 131 168 212 268 326 389
#     4  10  21  39  62  87 118 157 207 258 312 381
#     4  10  25  46  66  97 135 173 222 279 334 398
#     4  12  25  39  61  89 124 165 209 263 324 385
#     4  11  24  43  66  91 129 173 219 272 330 396
#     4  10  21  39  65  94 128 165 207 262 322 386
#     4  10  22  40  62  89 122 164 212 260 315 383
#
# _framework density 20.546496000000001
#
# number of rings (size 3 to 8) (size 9 to 14) (size 15 to 20)
#    0.000    1.500    0.000    4.125    3.500    6.000 
#    0.000    0.000    0.000    0.000    0.000    0.000 
#    0.000    0.000    0.000    0.000    0.000    0.000 
#
# Total GULP energy -178817.463727 kJ/mol
# GULP energy per Si atom -5588.045741 kJ/mol
# Density = 2.049973 g / cm^3
# Si number density = 20.546496 Si / 1000 Ang^3
#
#
#
# Elastic Constant Matrix: (Units=GPa)
#
#
# Indices 1 2 3 4 5 6 
#
# 1 59.0892 30.0792 23.0495 0.0000 0.0000 0.0000
# 2 30.0792 94.3211 31.1760 0.0000 0.0000 0.0000
# 3 23.0495 31.1760 66.1977 0.0000 0.0000 0.0000
# 4 0.0000 0.0000 0.0000 20.7076 0.0000 0.0000
# 5 0.0000 0.0000 0.0000 0.0000 28.9800 0.0000
# 6 0.0000 0.0000 0.0000 0.0000 0.0000 2.3822
#
#
#
# Elastic Compliance Matrix: (Units=1/GPa)
#
#
# Indices 1 2 3 4 5 6 
#
# 1 0.021541 -0.005200 -0.005052 0.000000 0.000000 0.000000
# 2 -0.005200 0.013812 -0.004694 0.000000 0.000000 0.000000
# 3 -0.005052 -0.004694 0.019076 0.000000 0.000000 0.000000
# 4 0.000000 0.000000 0.000000 0.048291 0.000000 0.000000
# 5 0.000000 0.000000 0.000000 0.000000 0.034507 0.000000
# 6 0.000000 0.000000 0.000000 0.000000 0.000000 0.419787
#
#
# Mechanical properties :
#
#
# Convention : Reuss Voigt Hill
#
# Bulk Modulus (GPa) = 40.75360 43.13526 41.94443
# Shear Modulus (GPa) = 8.40217 19.43419 13.91818
#
# Velocity S-wave (km/s) = 2.02441 3.07883 2.60551
# Velocity P-wave (km/s) = 5.03410 5.80331 5.43234
#
# Compressibility (1/GPa) = 0.02453771
#
# Stress axis : x y z
#
# Youngs Moduli (GPa) = 46.42306 72.40140 52.42208
#
# Poissons Ratio (x) = 0.37647 0.26481
# Poissons Ratio (y) = 0.24139 0.24608
# Poissons Ratio (z) = 0.23451 0.33987
#
# Static dielectric constant tensor:
#      x y z
#    x 1.703440 0.000000 0.000000 
#    y 0.000000 1.843370 0.000000 
#    z 0.000000 0.000000 1.760900 
# 
# From -- ./inp_files/7093.got.cif
#   From: 2010.05.17/outbox.cif.g08.bks.cpg/sg36_4_cif.got.tgz:7093.got - 2010.06.03 17:41:39.
