data_PCOD9352987
_publ_section_title
;
Structure prediction by ZEFSAII (Michael W. Deem and Ramdas Pophale) SiO2 
 PCOD9352987
Probable space group: C M C 21
;
_chemical_formula_sum "Si O2"
_cell_formula_units_Z 48
_cell_length_a 15.397437
_cell_length_b 12.080139
_cell_length_c 11.919319
_cell_angle_alpha 90.000000
_cell_angle_beta 90.000000
_cell_angle_gamma 90.000000
_cell_volume 2217.031228
_symmetry_space_group_name_H-M "C M C 21"
_symmetry_group_IT_number 36
_symmetry_cell_setting 'orthorhombic'
loop_
_space_group_symop_operation_xyz
x,y,z
-x,-y,1/2+z
x,-y,1/2+z
-x,y,z
1/2+x,1/2+y,z
1/2-x,1/2-y,1/2+z
1/2+x,1/2-y,1/2+z
1/2-x,1/2+y,z
loop_
_atom_site_type_symbol
_atom_site_label
_atom_site_fract_x
_atom_site_fract_y
_atom_site_fract_z
Si Si1 0.397844 0.581017 0.161250
Si Si2 0.601799 0.132924 0.275020
Si Si3 0.400920 0.766943 0.004144
Si Si4 0.843436 0.833306 0.125138
Si Si5 0.845580 0.606037 0.712656
Si Si6 0.103712 0.209740 0.378906
O O1 0.500000 0.609142 0.162850
O O2 0.360158 0.656713 0.060323
O O3 0.387800 0.452261 0.141901
O O4 0.366627 0.623033 0.282445
O O5 0.500000 0.101747 0.288346
O O6 0.638040 0.179244 0.393112
O O7 0.609958 0.233202 0.188198
O O8 0.650761 0.024125 0.232784
O O9 0.500000 0.738596 0.970512
O O10 0.401035 0.855452 0.104872
O O11 0.749369 0.850519 0.179741
O O12 0.845194 0.806761 0.993565
O O13 0.880223 0.671697 0.820920
O O14 0.000000 0.195585 0.401068
#
# Coordination Sequence:
#
# PCOD9352987 Si02
#       6
#     8   8   8   8   8   8
#     4   9  20  42  69  98 133 177 229 286 349 419
#     4  11  25  45  70 101 137 185 238 285 346 434
#     4   9  21  43  70  94 131 181 230 279 346 423
#     4  12  27  40  71 103 142 174 236 294 354 412
#     4  11  26  43  69  99 143 179 229 293 356 407
#     4  10  23  47  73  97 136 188 234 281 353 435
#
# _framework density 21.650573999999999
#
# number of rings (size 3 to 8) (size 9 to 14) (size 15 to 20)
#    0.000    1.667    0.000    4.000   11.667    0.000 
#    0.000    0.000    0.000    0.000    0.000    0.000 
#    0.000    0.000    0.000    0.000    0.000    0.000 
#
# Total GULP energy -134107.986297 kJ/mol
# GULP energy per Si atom -5587.832762 kJ/mol
# Density = 2.160130 g / cm^3
# Si number density = 21.650574 Si / 1000 Ang^3
#
#
#
# Elastic Constant Matrix: (Units=GPa)
#
#
# Indices 1 2 3 4 5 6 
#
# 1 54.1864 -9.2375 2.9072 0.0000 0.0000 0.0000
# 2 -9.2375 150.9880 66.5418 0.0000 0.0000 0.0000
# 3 2.9072 66.5418 121.0985 0.0000 0.0000 0.0000
# 4 0.0000 0.0000 0.0000 15.0556 0.0000 0.0000
# 5 0.0000 0.0000 0.0000 0.0000 12.8989 0.0000
# 6 0.0000 0.0000 0.0000 0.0000 0.0000 110.4929
#
#
#
# Elastic Compliance Matrix: (Units=1/GPa)
#
#
# Indices 1 2 3 4 5 6 
#
# 1 0.018836 0.001784 -0.001432 0.000000 0.000000 0.000000
# 2 0.001784 0.008908 -0.004938 0.000000 0.000000 0.000000
# 3 -0.001432 -0.004938 0.011005 0.000000 0.000000 0.000000
# 4 0.000000 0.000000 0.000000 0.066421 0.000000 0.000000
# 5 0.000000 0.000000 0.000000 0.000000 0.077526 0.000000
# 6 0.000000 0.000000 0.000000 0.000000 0.000000 0.009050
#
#
# Mechanical properties :
#
#
# Convention : Reuss Voigt Hill
#
# Bulk Modulus (GPa) = 33.81068 49.63289 41.72178
# Shear Modulus (GPa) = 23.72165 45.42690 34.57428
#
# Velocity S-wave (km/s) = 3.31367 4.58556 4.00049
# Velocity P-wave (km/s) = 5.50372 7.14219 6.37580
#
# Compressibility (1/GPa) = 0.02957646
#
# Stress axis : x y z
#
# Youngs Moduli (GPa) = 53.09067 112.25502 90.86481
#
# Poissons Ratio (x) = -0.20022 0.13014
# Poissons Ratio (y) = -0.09469 0.44867
# Poissons Ratio (z) = 0.07604 0.55429
#
# Static dielectric constant tensor:
#      x y z
#    x 1.899770 0.000000 0.000000 
#    y 0.000000 1.747460 0.000000 
#    z 0.000000 0.000000 1.766420 
# 
# From -- ./inp_files/8867.got.cif
#   From: 2010.05.17/outbox.cif.g08.bks.cpg/sg36_5_cif.got.tgz:8867.got - 2010.06.03 17:41:39.
