data_PCOD9352933
_publ_section_title
;
Structure prediction by ZEFSAII (Michael W. Deem and Ramdas Pophale) SiO2 
 PCOD9352933
Probable space group: C M C 21
;
_chemical_formula_sum "Si O2"
_cell_formula_units_Z 48
_cell_length_a 12.509697
_cell_length_b 8.607438
_cell_length_c 19.922786
_cell_angle_alpha 90.000000
_cell_angle_beta 90.000000
_cell_angle_gamma 90.000000
_cell_volume 2145.214698
_symmetry_space_group_name_H-M "C M C 21"
_symmetry_group_IT_number 36
_symmetry_cell_setting 'orthorhombic'
loop_
_space_group_symop_operation_xyz
x,y,z
-x,-y,1/2+z
x,-y,1/2+z
-x,y,z
1/2+x,1/2+y,z
1/2-x,1/2-y,1/2+z
1/2+x,1/2-y,1/2+z
1/2-x,1/2+y,z
loop_
_atom_site_type_symbol
_atom_site_label
_atom_site_fract_x
_atom_site_fract_y
_atom_site_fract_z
Si Si1 0.874953 0.645069 0.945430
Si Si2 0.335025 0.197471 0.411320
Si Si3 0.500000 0.339288 0.747290
Si Si4 0.000000 0.918743 0.126288
Si Si5 0.500000 0.351826 0.501864
Si Si6 0.500000 0.577062 0.861882
Si Si7 0.879462 0.341992 0.153143
Si Si8 0.681317 0.166990 0.101149
O O1 0.789663 0.767385 0.917119
O O2 0.856008 0.484108 0.905883
O O3 0.000000 0.679706 0.943132
O O4 0.841734 0.623381 0.023874
O O5 0.397128 0.249072 0.480328
O O6 0.397072 0.307113 0.357773
O O7 0.500000 0.479574 0.693217
O O8 0.500000 0.428155 0.816089
O O9 0.599767 0.229016 0.727246
O O10 0.101595 0.806419 0.120190
O O11 0.000000 0.041764 0.065978
O O12 0.500000 0.473316 0.439412
O O13 0.839637 0.516498 0.146635
O O14 0.000000 0.341454 0.122975
O O15 0.798875 0.229806 0.115395
#
# Coordination Sequence:
#
# PCOD9352933 Si02
#       8
#     8   8   4   4   4   4   8   8
#     4  12  22  38  61 101 130 174 208 271 329 400
#     4   9  23  39  67  89 137 167 218 267 333 383
#     4  10  23  41  73  94 132 181 234 271 337 391
#     4  12  23  37  68 108 128 182 220 276 340 408
#     4   8  22  40  65  92 136 163 218 269 336 380
#     4   8  20  48  66  92 130 184 220 278 331 393
#     4  10  24  42  62  94 133 182 216 273 329 399
#     4  12  24  40  63 101 150 167 220 276 343 401
#
# _framework density 22.375384
#
# number of rings (size 3 to 8) (size 9 to 14) (size 15 to 20)
#    1.500    0.000    3.333    2.000    9.333    0.000 
#    3.000    3.333    0.000    6.000    0.000    0.000 
#    0.000    0.000    0.000    0.000    0.000    0.000 
#
# Total GULP energy -133965.507522 kJ/mol
# GULP energy per Si atom -5581.896147 kJ/mol
# Density = 2.232446 g / cm^3
# Si number density = 22.375384 Si / 1000 Ang^3
#
#
#
# Elastic Constant Matrix: (Units=GPa)
#
#
# Indices 1 2 3 4 5 6 
#
# 1 163.6832 20.4908 -8.2351 0.0000 0.0000 0.0000
# 2 20.4908 93.3326 -7.7471 0.0000 0.0000 0.0000
# 3 -8.2351 -7.7471 30.4105 0.0000 0.0000 0.0000
# 4 0.0000 0.0000 0.0000 6.5432 0.0000 0.0000
# 5 0.0000 0.0000 0.0000 0.0000 9.5498 0.0000
# 6 0.0000 0.0000 0.0000 0.0000 0.0000 35.5111
#
#
#
# Elastic Compliance Matrix: (Units=1/GPa)
#
#
# Indices 1 2 3 4 5 6 
#
# 1 0.006339 -0.001276 0.001392 0.000000 0.000000 0.000000
# 2 -0.001276 0.011203 0.002508 0.000000 0.000000 0.000000
# 3 0.001392 0.002508 0.033899 0.000000 0.000000 0.000000
# 4 0.000000 0.000000 0.000000 0.152831 0.000000 0.000000
# 5 0.000000 0.000000 0.000000 0.000000 0.104714 0.000000
# 6 0.000000 0.000000 0.000000 0.000000 0.000000 0.028160
#
#
# Mechanical properties :
#
#
# Convention : Reuss Voigt Hill
#
# Bulk Modulus (GPa) = 17.64032 32.93816 25.28924
# Shear Modulus (GPa) = 14.25331 29.18199 21.71765
#
# Velocity S-wave (km/s) = 2.52664 3.61529 3.11883
# Velocity P-wave (km/s) = 4.05127 5.67272 4.92913
#
# Compressibility (1/GPa) = 0.05668830
#
# Stress axis : x y z
#
# Youngs Moduli (GPa) = 157.75020 89.26366 29.49920
#
# Poissons Ratio (x) = 0.11392 -0.04105
# Poissons Ratio (y) = 0.20133 -0.07399
# Poissons Ratio (z) = -0.21951 -0.22390
#
# Static dielectric constant tensor:
#      x y z
#    x 1.880120 0.000000 0.000000 
#    y 0.000000 1.812580 0.000000 
#    z 0.000000 0.000000 1.881660 
# 
# From -- ./inp_files/16840.got.cif
#   From: 2010.05.17/outbox.cif.g08.bks.cpg/sg36_9_cif.got.tgz:16840.got - 2010.06.03 17:41:39.
