data_PCOD9352326
_publ_section_title
;
Structure prediction by ZEFSAII (Michael W. Deem and Ramdas Pophale) SiO2 
 PCOD9352326
Probable space group: C M C 21
;
_chemical_formula_sum "Si O2"
_cell_formula_units_Z 64
_cell_length_a 7.765458
_cell_length_b 31.812843
_cell_length_c 12.288373
_cell_angle_alpha 90.000000
_cell_angle_beta 90.000000
_cell_angle_gamma 90.000000
_cell_volume 3035.735594
_symmetry_space_group_name_H-M "C M C 21"
_symmetry_group_IT_number 36
_symmetry_cell_setting 'orthorhombic'
loop_
_space_group_symop_operation_xyz
x,y,z
-x,-y,1/2+z
x,-y,1/2+z
-x,y,z
1/2+x,1/2+y,z
1/2-x,1/2-y,1/2+z
1/2+x,1/2-y,1/2+z
1/2-x,1/2+y,z
loop_
_atom_site_type_symbol
_atom_site_label
_atom_site_fract_x
_atom_site_fract_y
_atom_site_fract_z
Si Si1 0.699314 0.957973 0.144780
Si Si2 0.295895 0.050764 0.115418
Si Si3 0.710236 0.201119 0.110299
Si Si4 0.710723 0.126610 0.268485
Si Si5 0.195140 0.071854 0.872479
Si Si6 0.199947 0.336468 0.381376
Si Si7 0.291212 0.875113 0.020024
Si Si8 0.204797 0.794378 0.165273
O O1 0.500000 0.960395 0.108964
O O2 0.706662 0.949569 0.273381
O O3 0.778592 0.003794 0.124726
O O4 0.772501 0.917212 0.082225
O O5 0.500000 0.047863 0.138716
O O6 0.229154 0.086196 0.198616
O O7 0.271875 0.065291 0.991687
O O8 0.500000 0.201385 0.109444
O O9 0.763946 0.168999 0.205260
O O10 0.767483 0.248992 0.124842
O O11 0.764590 0.182760 0.993993
O O12 0.500000 0.126244 0.267635
O O13 0.764825 0.125310 0.394147
O O14 0.200322 0.121525 0.850910
O O15 0.000000 0.056308 0.871871
O O16 0.213850 0.304891 0.281527
O O17 0.000000 0.348731 0.396125
O O18 0.500000 0.876051 0.022264
O O19 0.240228 0.832779 0.083256
O O20 0.000000 0.791724 0.180508
#
# Coordination Sequence:
#
# PCOD9352326 Si02
#       8
#     8   8   8   8   8   8   8   8
#     4  10  22  38  62  92 119 155 205 250 288 349
#     4  10  21  39  66  91 116 154 202 249 292 351
#     4   9  20  37  59  86 118 153 192 245 301 351
#     4   9  18  36  60  86 115 151 195 245 292 341
#     4  12  24  39  61  89 124 160 196 248 306 356
#     4  11  21  40  65  86 114 157 208 252 292 348
#     4  10  21  37  59  86 118 155 200 244 289 347
#     4  11  23  38  58  88 122 155 194 243 306 361
#
# _framework density 21.082207
#
# number of rings (size 3 to 8) (size 9 to 14) (size 15 to 20)
#    0.000    1.750    2.500    1.875    3.500    0.500 
#    0.000    2.500    0.000    0.000    0.000    0.000 
#    0.000    0.000    0.000    0.000    0.000    0.000 
#
# Total GULP energy -178754.938786 kJ/mol
# GULP energy per Si atom -5586.091837 kJ/mol
# Density = 2.103422 g / cm^3
# Si number density = 21.082207 Si / 1000 Ang^3
#
#
#
# Elastic Constant Matrix: (Units=GPa)
#
#
# Indices 1 2 3 4 5 6 
#
# 1 33.3195 12.5435 -0.6172 0.0000 0.0000 0.0000
# 2 12.5435 129.0171 36.9063 0.0000 0.0000 0.0000
# 3 -0.6172 36.9063 119.1603 0.0000 0.0000 0.0000
# 4 0.0000 0.0000 0.0000 18.5087 0.0000 0.0000
# 5 0.0000 0.0000 0.0000 0.0000 0.2139 0.0000
# 6 0.0000 0.0000 0.0000 0.0000 0.0000 15.0512
#
#
#
# Elastic Compliance Matrix: (Units=1/GPa)
#
#
# Indices 1 2 3 4 5 6 
#
# 1 0.031312 -0.003391 0.001212 0.000000 0.000000 0.000000
# 2 -0.003391 0.008872 -0.002765 0.000000 0.000000 0.000000
# 3 0.001212 -0.002765 0.009255 0.000000 0.000000 0.000000
# 4 0.000000 0.000000 0.000000 0.054029 0.000000 0.000000
# 5 0.000000 0.000000 0.000000 0.000000 4.674813 0.000000
# 6 0.000000 0.000000 0.000000 0.000000 0.000000 0.066440
#
#
# Mechanical properties :
#
#
# Convention : Reuss Voigt Hill
#
# Bulk Modulus (GPa) = 25.28433 42.12913 33.70673
# Shear Modulus (GPa) = 1.02716 22.26571 11.64644
#
# Velocity S-wave (km/s) = 0.69877 3.25335 2.35293
# Velocity P-wave (km/s) = 3.55953 5.84286 4.83784
#
# Compressibility (1/GPa) = 0.03955019
#
# Stress axis : x y z
#
# Youngs Moduli (GPa) = 31.93714 112.71888 108.05199
#
# Poissons Ratio (x) = 0.38223 -0.13101
# Poissons Ratio (y) = 0.10830 0.29879
# Poissons Ratio (z) = -0.03872 0.31170
#
# Static dielectric constant tensor:
#      x y z
#    x 1.801820 0.000000 0.000000 
#    y 0.000000 1.750570 0.000000 
#    z 0.000000 0.000000 1.706640 
# 
# From -- ./inp_files/7107.got.cif
#   From: 2010.05.17/outbox.cif.g08.bks.cpg/sg36_4_cif.got.tgz:7107.got - 2010.06.03 17:41:39.
