data_PCOD9352984
_publ_section_title
;
Structure prediction by ZEFSAII (Michael W. Deem and Ramdas Pophale) SiO2 
 PCOD9352984
Probable space group: C M C 21
;
_chemical_formula_sum "Si O2"
_cell_formula_units_Z 64
_cell_length_a 26.415026
_cell_length_b 10.212946
_cell_length_c 10.630520
_cell_angle_alpha 90.000000
_cell_angle_beta 90.000000
_cell_angle_gamma 90.000000
_cell_volume 2867.851022
_symmetry_space_group_name_H-M "C M C 21"
_symmetry_group_IT_number 36
_symmetry_cell_setting 'orthorhombic'
loop_
_space_group_symop_operation_xyz
x,y,z
-x,-y,1/2+z
x,-y,1/2+z
-x,y,z
1/2+x,1/2+y,z
1/2-x,1/2-y,1/2+z
1/2+x,1/2-y,1/2+z
1/2-x,1/2+y,z
loop_
_atom_site_type_symbol
_atom_site_label
_atom_site_fract_x
_atom_site_fract_y
_atom_site_fract_z
Si Si1 0.941192 0.070316 0.375000
Si Si2 0.060135 0.232737 0.871168
Si Si3 0.609126 0.028733 0.500377
Si Si4 0.157992 0.836381 0.756673
Si Si5 0.795013 0.201405 0.503665
Si Si6 0.091239 0.261607 0.583524
Si Si7 0.241284 0.942920 0.600565
Si Si8 0.172325 0.470882 0.255575
O O1 0.901198 0.137667 0.278878
O O2 0.935024 0.143735 0.508228
O O3 0.000000 0.076610 0.334256
O O4 0.925633 0.918772 0.390039
O O5 0.076602 0.269337 0.728932
O O6 0.000000 0.240917 0.877386
O O7 0.081811 0.335298 0.971971
O O8 0.635628 0.018962 0.635002
O O9 0.577349 0.893717 0.505708
O O10 0.648289 0.016234 0.385794
O O11 0.184669 0.903023 0.639245
O O12 0.175255 0.685736 0.763496
O O13 0.185698 0.881495 0.883922
O O14 0.848271 0.236803 0.570986
O O15 0.763937 0.338005 0.502557
O O16 0.759176 0.095684 0.568761
O O17 0.278954 0.943094 0.720628
#
# Coordination Sequence:
#
# PCOD9352984 Si02
#       8
#     8   8   8   8   8   8   8   8
#     4  10  23  46  71 100 143 189 238 303 364 426
#     4  11  25  44  71 108 138 184 247 302 367 432
#     4  12  24  46  72  99 145 187 238 302 360 436
#     4  11  25  42  69 103 136 184 245 284 358 435
#     4  11  24  41  63  98 141 182 236 284 358 426
#     4  11  22  46  71 100 143 189 240 301 362 436
#     4  12  24  40  65  99 140 186 228 294 350 424
#     4  12  24  45  69 103 143 187 239 294 359 427
#
# _framework density 22.316361000000001
#
# number of rings (size 3 to 8) (size 9 to 14) (size 15 to 20)
#    0.000    0.750    6.250    1.125    3.500    4.000 
#    0.000    1.875    0.000    0.000    0.000    0.000 
#    0.000    0.000    0.000    0.000    0.000    0.000 
#
# Total GULP energy -178625.754286 kJ/mol
# GULP energy per Si atom -5582.054821 kJ/mol
# Density = 2.226557 g / cm^3
# Si number density = 22.316361 Si / 1000 Ang^3
#
#
#
# Elastic Constant Matrix: (Units=GPa)
#
#
# Indices 1 2 3 4 5 6 
#
# 1 81.4190 36.4539 17.1242 0.0000 0.0000 0.0000
# 2 36.4539 84.8740 6.5179 0.0000 0.0000 0.0000
# 3 17.1242 6.5179 51.4176 0.0000 0.0000 0.0000
# 4 0.0000 0.0000 0.0000 22.6828 0.0000 0.0000
# 5 0.0000 0.0000 0.0000 0.0000 25.4711 0.0000
# 6 0.0000 0.0000 0.0000 0.0000 0.0000 34.3005
#
#
#
# Elastic Compliance Matrix: (Units=1/GPa)
#
#
# Indices 1 2 3 4 5 6 
#
# 1 0.016199 -0.006608 -0.004557 0.000000 0.000000 0.000000
# 2 -0.006608 0.014593 0.000351 0.000000 0.000000 0.000000
# 3 -0.004557 0.000351 0.020922 0.000000 0.000000 0.000000
# 4 0.000000 0.000000 0.000000 0.044086 0.000000 0.000000
# 5 0.000000 0.000000 0.000000 0.000000 0.039260 0.000000
# 6 0.000000 0.000000 0.000000 0.000000 0.000000 0.029154
#
#
# Mechanical properties :
#
#
# Convention : Reuss Voigt Hill
#
# Bulk Modulus (GPa) = 33.23835 37.54473 35.39154
# Shear Modulus (GPa) = 25.52686 26.99851 26.26269
#
# Velocity S-wave (km/s) = 3.38577 3.48200 3.43423
# Velocity P-wave (km/s) = 5.49646 5.74684 5.62305
#
# Compressibility (1/GPa) = 0.03008573
#
# Stress axis : x y z
#
# Youngs Moduli (GPa) = 61.73172 68.52473 47.79672
#
# Poissons Ratio (x) = 0.45279 0.21783
# Poissons Ratio (y) = 0.40790 -0.01676
# Poissons Ratio (z) = 0.28133 -0.02403
#
# Static dielectric constant tensor:
#      x y z
#    x 1.841340 0.000000 0.000000 
#    y 0.000000 1.892370 0.000000 
#    z 0.000000 0.000000 1.936260 
# 
# From -- ./inp_files/9735.got.cif
#   From: 2010.05.17/outbox.cif.g08.bks.cpg/sg36_5_cif.got.tgz:9735.got - 2010.06.03 17:41:39.
