data_PCOD9352532
_publ_section_title
;
Structure prediction by ZEFSAII (Michael W. Deem and Ramdas Pophale) SiO2 
 PCOD9352532
Probable space group: C M C 21
;
_chemical_formula_sum "Si O2"
_cell_formula_units_Z 48
_cell_length_a 7.797564
_cell_length_b 29.651774
_cell_length_c 8.451374
_cell_angle_alpha 90.000000
_cell_angle_beta 90.000000
_cell_angle_gamma 90.000000
_cell_volume 1954.055751
_symmetry_space_group_name_H-M "C M C 21"
_symmetry_group_IT_number 36
_symmetry_cell_setting 'orthorhombic'
loop_
_space_group_symop_operation_xyz
x,y,z
-x,-y,1/2+z
x,-y,1/2+z
-x,y,z
1/2+x,1/2+y,z
1/2-x,1/2-y,1/2+z
1/2+x,1/2-y,1/2+z
1/2-x,1/2+y,z
loop_
_atom_site_type_symbol
_atom_site_label
_atom_site_fract_x
_atom_site_fract_y
_atom_site_fract_z
Si Si1 0.801522 0.900895 0.629190
Si Si2 0.197886 0.149604 0.828164
Si Si3 0.702074 0.816016 0.788549
Si Si4 0.791656 0.771079 0.119171
Si Si5 0.795801 0.983011 0.827314
Si Si6 0.303011 0.933631 0.148447
O O1 0.720711 0.875182 0.479505
O O2 0.794675 0.863478 0.767206
O O3 0.728124 0.947044 0.697601
O O4 0.000000 0.911018 0.587981
O O5 0.272356 0.195551 0.758513
O O6 0.205049 0.111991 0.690613
O O7 0.000000 0.159177 0.868946
O O8 0.500000 0.824287 0.769565
O O9 0.762451 0.779823 0.657006
O O10 0.731045 0.791693 0.955053
O O11 0.000000 0.771817 0.120814
O O12 0.000000 0.988345 0.807879
O O13 0.715159 0.031424 0.794137
O O14 0.763307 0.960803 0.996817
O O15 0.500000 0.921558 0.122283
#
# Coordination Sequence:
#
# PCOD9352532 Si02
#       6
#     8   8   8   8   8   8
#     4  10  22  40  63  88 117 156 200 244 289 349
#     4  10  21  40  63  86 117 160 205 242 288 358
#     4  11  23  38  60  89 119 153 195 245 298 349
#     4  10  22  39  59  85 118 157 199 242 291 353
#     4  11  23  41  64  88 118 162 207 241 290 365
#     4  12  25  40  61  92 125 154 194 254 310 348
#
# _framework density 24.564294
#
# number of rings (size 3 to 8) (size 9 to 14) (size 15 to 20)
#    0.000    1.333    0.000    5.500    0.000   10.667 
#    0.000    0.000    0.000    0.000    0.000    0.000 
#    0.000    0.000    0.000    0.000    0.000    0.000 
#
# Total GULP energy -134367.291093 kJ/mol
# GULP energy per Si atom -5598.637129 kJ/mol
# Density = 2.450838 g / cm^3
# Si number density = 24.564294 Si / 1000 Ang^3
#
#
#
# Elastic Constant Matrix: (Units=GPa)
#
#
# Indices 1 2 3 4 5 6 
#
# 1 60.9128 -6.7620 -7.9233 0.0000 0.0000 0.0000
# 2 -6.7620 101.1408 -7.5341 0.0000 0.0000 0.0000
# 3 -7.9233 -7.5341 66.0807 0.0000 0.0000 0.0000
# 4 0.0000 0.0000 0.0000 44.3617 0.0000 0.0000
# 5 0.0000 0.0000 0.0000 0.0000 23.2455 0.0000
# 6 0.0000 0.0000 0.0000 0.0000 0.0000 13.1221
#
#
#
# Elastic Compliance Matrix: (Units=1/GPa)
#
#
# Indices 1 2 3 4 5 6 
#
# 1 0.016842 0.001287 0.002166 0.000000 0.000000 0.000000
# 2 0.001287 0.010070 0.001303 0.000000 0.000000 0.000000
# 3 0.002166 0.001303 0.015541 0.000000 0.000000 0.000000
# 4 0.000000 0.000000 0.000000 0.022542 0.000000 0.000000
# 5 0.000000 0.000000 0.000000 0.000000 0.043019 0.000000
# 6 0.000000 0.000000 0.000000 0.000000 0.000000 0.076208
#
#
# Mechanical properties :
#
#
# Convention : Reuss Voigt Hill
#
# Bulk Modulus (GPa) = 19.24369 20.41062 19.82715
# Shear Modulus (GPa) = 26.03740 32.83610 29.43675
#
# Velocity S-wave (km/s) = 3.25925 3.66011 3.46548
# Velocity P-wave (km/s) = 4.69197 5.11752 4.90936
#
# Compressibility (1/GPa) = 0.05196509
#
# Stress axis : x y z
#
# Youngs Moduli (GPa) = 59.37683 99.30190 64.34489
#
# Poissons Ratio (x) = -0.12783 -0.13938
# Poissons Ratio (y) = -0.07644 -0.08381
# Poissons Ratio (z) = -0.12862 -0.12934
#
# Static dielectric constant tensor:
#      x y z
#    x 1.907500 0.000000 0.000000 
#    y 0.000000 1.900210 0.000000 
#    z 0.000000 0.000000 2.015600 
# 
# From -- ./inp_files/2715.got.cif
#   From: 2010.05.17/outbox.cif.g08.bks.cpg/sg36_2_cif.got.tgz:2715.got - 2010.06.03 17:41:39.
