data_PCOD9352075
_publ_section_title
;
Structure prediction by ZEFSAII (Michael W. Deem and Ramdas Pophale) SiO2 
 PCOD9352075
Probable space group: C M C 21
;
_chemical_formula_sum "Si O2"
_cell_formula_units_Z 64
_cell_length_a 16.714841
_cell_length_b 20.015355
_cell_length_c 8.861934
_cell_angle_alpha 90.000000
_cell_angle_beta 90.000000
_cell_angle_gamma 90.000000
_cell_volume 2964.790827
_symmetry_space_group_name_H-M "C M C 21"
_symmetry_group_IT_number 36
_symmetry_cell_setting 'orthorhombic'
loop_
_space_group_symop_operation_xyz
x,y,z
-x,-y,1/2+z
x,-y,1/2+z
-x,y,z
1/2+x,1/2+y,z
1/2-x,1/2-y,1/2+z
1/2+x,1/2-y,1/2+z
1/2-x,1/2+y,z
loop_
_atom_site_type_symbol
_atom_site_label
_atom_site_fract_x
_atom_site_fract_y
_atom_site_fract_z
Si Si1 0.159029 0.116504 0.740690
Si Si2 0.693089 0.044825 0.108161
Si Si3 0.905354 0.639017 0.295453
Si Si4 0.161481 0.600907 0.627343
Si Si5 0.406957 0.228330 0.765228
Si Si6 0.591338 0.353173 0.950452
Si Si7 0.811491 0.982477 0.859746
Si Si8 0.591890 0.718345 0.924172
O O1 0.243961 0.111809 0.655853
O O2 0.097758 0.152796 0.629758
O O3 0.136762 0.042020 0.788860
O O4 0.157032 0.162501 0.887567
O O5 0.635636 0.106832 0.147198
O O6 0.645027 0.977244 0.153490
O O7 0.763633 0.053326 0.227758
O O8 0.743454 0.021371 0.960088
O O9 0.865891 0.614000 0.454557
O O10 0.897354 0.718598 0.313172
O O11 0.000000 0.623257 0.298694
O O12 0.124294 0.652896 0.746154
O O13 0.500000 0.222566 0.806698
O O14 0.372136 0.286813 0.872161
O O15 0.398943 0.255817 0.594735
O O16 0.500000 0.358796 0.897624
O O17 0.634899 0.424139 0.926767
O O18 0.500000 0.693695 0.914465
#
# Coordination Sequence:
#
# PCOD9352075 Si02
#       8
#     8   8   8   8   8   8   8   8
#     4  11  23  39  61  93 122 165 206 264 326 375
#     4  11  21  42  64  89 128 162 210 267 316 385
#     4  10  21  40  66  92 125 169 209 262 326 384
#     4  10  20  39  62  89 126 161 210 262 318 380
#     4   9  21  39  61  88 122 164 212 263 314 384
#     4  11  23  41  63  90 126 167 213 264 323 382
#     4  11  23  42  61  89 128 163 210 269 317 379
#     4   9  20  40  60  88 125 161 212 263 312 381
#
# _framework density 21.586680999999999
#
# number of rings (size 3 to 8) (size 9 to 14) (size 15 to 20)
#    0.000    1.750    3.750    1.500    1.750    5.000 
#    6.750    0.000    0.000    0.000    0.000    0.000 
#    0.000    0.000    0.000    0.000    0.000    0.000 
#
# Total GULP energy -178210.829205 kJ/mol
# GULP energy per Si atom -5569.088413 kJ/mol
# Density = 2.153755 g / cm^3
# Si number density = 21.586681 Si / 1000 Ang^3
#
#
#
# Elastic Constant Matrix: (Units=GPa)
#
#
# Indices 1 2 3 4 5 6 
#
# 1 16.1107 15.0041 -1.6876 0.0000 0.0000 0.0000
# 2 15.0041 85.3492 9.6714 0.0000 0.0000 0.0000
# 3 -1.6876 9.6714 39.9712 0.0000 0.0000 0.0000
# 4 0.0000 0.0000 0.0000 39.5539 0.0000 0.0000
# 5 0.0000 0.0000 0.0000 0.0000 29.6013 0.0000
# 6 0.0000 0.0000 0.0000 0.0000 0.0000 -23.2062
#
#
#
# Elastic Compliance Matrix: (Units=1/GPa)
#
#
# Indices 1 2 3 4 5 6 
#
# 1 0.075885 -0.014090 0.006613 0.000000 0.000000 0.000000
# 2 -0.014090 0.014663 -0.004143 0.000000 0.000000 0.000000
# 3 0.006613 -0.004143 0.026300 0.000000 0.000000 0.000000
# 4 0.000000 0.000000 0.000000 0.025282 0.000000 0.000000
# 5 0.000000 0.000000 0.000000 0.000000 0.033782 0.000000
# 6 0.000000 0.000000 0.000000 0.000000 0.000000 -0.043092
#
#
# Mechanical properties :
#
#
# Convention : Reuss Voigt Hill
#
# Bulk Modulus (GPa) = 10.68277 20.82300 15.75288
# Shear Modulus (GPa) = 26.70063 17.08603 21.89333
#
# Velocity S-wave (km/s) = 3.52078 2.81643 3.18811
# Velocity P-wave (km/s) = 4.63545 4.49928 4.56787
#
# Compressibility (1/GPa) = 0.09360871
#
# Stress axis : x y z
#
# Youngs Moduli (GPa) = 13.17782 68.19919 38.02346
#
# Poissons Ratio (x) = 0.96091 -0.25145
# Poissons Ratio (y) = 0.18567 0.15752
# Poissons Ratio (z) = -0.08714 0.28253
#
# Static dielectric constant tensor:
#      x y z
#    x 1.805070 0.000000 0.000000 
#    y 0.000000 1.814580 0.000000 
#    z 0.000000 0.000000 1.862440 
# 
# From -- ./inp_files/4938.got.cif
#   From: 2010.05.17/outbox.cif.g08.bks.cpg/sg36_3_cif.got.tgz:4938.got - 2010.06.03 17:41:39.
