data_PCOD9352035
_publ_section_title
;
Structure prediction by ZEFSAII (Michael W. Deem and Ramdas Pophale) SiO2 
 PCOD9352035
Probable space group: C M C 21
;
_chemical_formula_sum "Si O2"
_cell_formula_units_Z 64
_cell_length_a 16.085465
_cell_length_b 9.581072
_cell_length_c 20.688427
_cell_angle_alpha 90.000000
_cell_angle_beta 90.000000
_cell_angle_gamma 90.000000
_cell_volume 3188.417581
_symmetry_space_group_name_H-M "C M C 21"
_symmetry_group_IT_number 36
_symmetry_cell_setting 'orthorhombic'
loop_
_space_group_symop_operation_xyz
x,y,z
-x,-y,1/2+z
x,-y,1/2+z
-x,y,z
1/2+x,1/2+y,z
1/2-x,1/2-y,1/2+z
1/2+x,1/2-y,1/2+z
1/2-x,1/2+y,z
loop_
_atom_site_type_symbol
_atom_site_label
_atom_site_fract_x
_atom_site_fract_y
_atom_site_fract_z
Si Si1 0.658428 0.460580 0.235950
Si Si2 0.402314 0.073073 0.095253
Si Si3 0.093523 0.763565 0.337363
Si Si4 0.743536 0.236539 0.420645
Si Si5 0.685608 0.774139 0.279836
Si Si6 0.247214 0.485300 0.508890
Si Si7 0.596193 0.971259 0.741664
Si Si8 0.403411 0.592440 0.590981
O O1 0.598476 0.397250 0.291003
O O2 0.677495 0.621769 0.249512
O O3 0.741064 0.367083 0.247368
O O4 0.619542 0.437785 0.165724
O O5 0.500000 0.029839 0.088679
O O6 0.336041 0.991738 0.051165
O O7 0.399509 0.239470 0.082374
O O8 0.372598 0.051001 0.169221
O O9 0.151656 0.778984 0.398298
O O10 0.131137 0.635016 0.295029
O O11 0.000000 0.732083 0.356018
O O12 0.798341 0.262449 0.356702
O O13 0.761840 0.328736 0.483022
O O14 0.747459 0.078830 0.444471
O O15 0.606982 0.871589 0.264987
O O16 0.168367 0.018564 0.548238
O O17 0.500000 0.930163 0.737379
O O18 0.500000 0.550553 0.578018
#
# Coordination Sequence:
#
# PCOD9352035 Si02
#       8
#     8   8   8   8   8   8   8   8
#     4  11  22  37  66  92 125 161 208 270 336 399
#     4  10  22  43  69  95 129 169 213 266 329 391
#     4  10  20  38  63  88 122 167 205 264 338 388
#     4  11  24  40  60  88 126 170 221 263 303 379
#     4  11  23  40  61  95 126 162 211 268 328 381
#     4  12  24  42  65  92 126 179 224 261 312 374
#     4  10  20  38  65  94 124 156 204 267 333 393
#     4  11  24  42  66  96 132 172 213 267 329 391
#
# _framework density 20.072652999999999
#
# number of rings (size 3 to 8) (size 9 to 14) (size 15 to 20)
#    0.000    1.250    2.500    4.875    1.750    3.000 
#    0.000    2.500    0.000    0.000    0.000    0.000 
#    0.000    0.000    0.000    0.000    0.000    0.000 
#
# Total GULP energy -178606.479836 kJ/mol
# GULP energy per Si atom -5581.452495 kJ/mol
# Density = 2.002697 g / cm^3
# Si number density = 20.072653 Si / 1000 Ang^3
#
#
#
# Elastic Constant Matrix: (Units=GPa)
#
#
# Indices 1 2 3 4 5 6 
#
# 1 75.8780 6.1152 45.3463 0.0000 0.0000 0.0000
# 2 6.1152 89.3857 3.1023 0.0000 0.0000 0.0000
# 3 45.3463 3.1023 72.9166 0.0000 0.0000 0.0000
# 4 0.0000 0.0000 0.0000 31.9364 0.0000 0.0000
# 5 0.0000 0.0000 0.0000 0.0000 15.4204 0.0000
# 6 0.0000 0.0000 0.0000 0.0000 0.0000 25.0537
#
#
#
# Elastic Compliance Matrix: (Units=1/GPa)
#
#
# Indices 1 2 3 4 5 6 
#
# 1 0.021061 -0.000988 -0.013056 0.000000 0.000000 0.000000
# 2 -0.000988 0.011250 0.000136 0.000000 0.000000 0.000000
# 3 -0.013056 0.000136 0.021828 0.000000 0.000000 0.000000
# 4 0.000000 0.000000 0.000000 0.031312 0.000000 0.000000
# 5 0.000000 0.000000 0.000000 0.000000 0.064849 0.000000
# 6 0.000000 0.000000 0.000000 0.000000 0.000000 0.039914
#
#
# Mechanical properties :
#
#
# Convention : Reuss Voigt Hill
#
# Bulk Modulus (GPa) = 37.98885 38.58978 38.28932
# Shear Modulus (GPa) = 22.04539 26.72321 24.38430
#
# Velocity S-wave (km/s) = 3.31763 3.65269 3.48918
# Velocity P-wave (km/s) = 5.80020 6.08739 5.94553
#
# Compressibility (1/GPa) = 0.02632351
#
# Stress axis : x y z
#
# Youngs Moduli (GPa) = 47.48110 88.88621 45.81324
#
# Poissons Ratio (x) = 0.08780 0.59812
# Poissons Ratio (y) = 0.04690 -0.00621
# Poissons Ratio (z) = 0.61990 -0.01205
#
# Static dielectric constant tensor:
#      x y z
#    x 1.748000 0.000000 0.000000 
#    y 0.000000 1.699940 0.000000 
#    z 0.000000 0.000000 1.740410 
# 
# From -- ./inp_files/16242.got.cif
#   From: 2010.05.17/outbox.cif.g08.bks.cpg/sg36_9_cif.got.tgz:16242.got - 2010.06.03 17:41:39.
