data_PCOD9352955
_publ_section_title
;
Structure prediction by ZEFSAII (Michael W. Deem and Ramdas Pophale) SiO2 
 PCOD9352955
Probable space group: C M C 21
;
_chemical_formula_sum "Si O2"
_cell_formula_units_Z 36
_cell_length_a 12.564946
_cell_length_b 24.389828
_cell_length_c 4.791076
_cell_angle_alpha 90.000000
_cell_angle_beta 90.000000
_cell_angle_gamma 90.000000
_cell_volume 1468.258163
_symmetry_space_group_name_H-M "C M C 21"
_symmetry_group_IT_number 36
_symmetry_cell_setting 'orthorhombic'
loop_
_space_group_symop_operation_xyz
x,y,z
-x,-y,1/2+z
x,-y,1/2+z
-x,y,z
1/2+x,1/2+y,z
1/2-x,1/2-y,1/2+z
1/2+x,1/2-y,1/2+z
1/2-x,1/2+y,z
loop_
_atom_site_type_symbol
_atom_site_label
_atom_site_fract_x
_atom_site_fract_y
_atom_site_fract_z
Si Si1 0.000000 0.961793 0.812510
Si Si2 0.118231 0.461950 0.193139
Si Si3 0.500000 0.753706 0.360281
Si Si4 0.000000 0.175205 0.873299
Si Si5 0.818536 0.107324 0.601599
Si Si6 0.786897 0.716470 0.588439
O O1 0.106039 0.928690 0.901448
O O2 0.000000 0.982364 0.496593
O O3 0.122636 0.517232 0.375666
O O4 0.000000 0.436980 0.244054
O O5 0.223871 0.427094 0.242900
O O6 0.500000 0.728835 0.669553
O O7 0.500000 0.697089 0.184525
O O8 0.602226 0.786465 0.252602
O O9 0.100326 0.136736 0.811373
O O10 0.756749 0.159390 0.471327
O O11 0.712610 0.742354 0.829112
#
# Coordination Sequence:
#
# PCOD9352955 Si02
#       6
#     4   8   4   4   8   8
#     4  11  26  45  70 100 132 170 219 282 339 398
#     4  10  23  43  65  91 128 167 213 275 338 402
#     4  12  22  45  60  91 140 169 223 264 328 382
#     4  11  24  40  66  91 130 177 210 278 323 392
#     4  11  24  42  68  99 127 173 224 269 338 399
#     4  12  25  42  67  97 136 178 220 273 327 400
#
# _framework density 24.518848999999999
#
# number of rings (size 3 to 8) (size 9 to 14) (size 15 to 20)
#    0.000    0.889    4.444    1.333    1.556    8.889 
#    0.000    0.000    0.000    0.000    0.000    0.000 
#    0.000    0.000    0.000    0.000    0.000    0.000 
#
# Total GULP energy -100697.189465 kJ/mol
# GULP energy per Si atom -5594.288304 kJ/mol
# Density = 2.446304 g / cm^3
# Si number density = 24.518849 Si / 1000 Ang^3
#
#
#
# Elastic Constant Matrix: (Units=GPa)
#
#
# Indices 1 2 3 4 5 6 
#
# 1 217.5567 54.0771 -0.0733 0.0000 0.0000 0.0000
# 2 54.0771 90.3390 -6.6077 0.0000 0.0000 0.0000
# 3 -0.0733 -6.6077 55.1932 0.0000 0.0000 0.0000
# 4 0.0000 0.0000 0.0000 26.5976 0.0000 0.0000
# 5 0.0000 0.0000 0.0000 0.0000 17.1319 0.0000
# 6 0.0000 0.0000 0.0000 0.0000 0.0000 59.1060
#
#
#
# Elastic Compliance Matrix: (Units=1/GPa)
#
#
# Indices 1 2 3 4 5 6 
#
# 1 0.005408 -0.003265 -0.000384 0.000000 0.000000 0.000000
# 2 -0.003265 0.013139 0.001569 0.000000 0.000000 0.000000
# 3 -0.000384 0.001569 0.018305 0.000000 0.000000 0.000000
# 4 0.000000 0.000000 0.000000 0.037597 0.000000 0.000000
# 5 0.000000 0.000000 0.000000 0.000000 0.058371 0.000000
# 6 0.000000 0.000000 0.000000 0.000000 0.000000 0.016919
#
#
# Mechanical properties :
#
#
# Convention : Reuss Voigt Hill
#
# Bulk Modulus (GPa) = 30.58910 50.87570 40.73240
# Shear Modulus (GPa) = 30.34036 41.61328 35.97682
#
# Velocity S-wave (km/s) = 3.52153 4.12417 3.83471
# Velocity P-wave (km/s) = 5.38867 6.59341 6.02125
#
# Compressibility (1/GPa) = 0.03269138
#
# Stress axis : x y z
#
# Youngs Moduli (GPa) = 184.91058 76.11060 54.62852
#
# Poissons Ratio (x) = 0.24853 0.02096
# Poissons Ratio (y) = 0.60379 -0.08569
# Poissons Ratio (z) = 0.07096 -0.11939
#
# Static dielectric constant tensor:
#      x y z
#    x 2.008270 0.000000 0.000000 
#    y 0.000000 1.961900 0.000000 
#    z 0.000000 0.000000 1.881850 
# 
# From -- ./inp_files/474.got.cif
#   From: 2010.05.17/outbox.cif.g08.bks.cpg/sg36_1_cif.got.tgz:474.got - 2010.06.03 17:41:39.
