data_PCOD9352344
_publ_section_title
;
Structure prediction by ZEFSAII (Michael W. Deem and Ramdas Pophale) SiO2 
 PCOD9352344
Probable space group: C M C 21
;
_chemical_formula_sum "Si O2"
_cell_formula_units_Z 64
_cell_length_a 8.655268
_cell_length_b 22.192536
_cell_length_c 14.258126
_cell_angle_alpha 90.000000
_cell_angle_beta 90.000000
_cell_angle_gamma 90.000000
_cell_volume 2738.734301
_symmetry_space_group_name_H-M "C M C 21"
_symmetry_group_IT_number 36
_symmetry_cell_setting 'orthorhombic'
loop_
_space_group_symop_operation_xyz
x,y,z
-x,-y,1/2+z
x,-y,1/2+z
-x,y,z
1/2+x,1/2+y,z
1/2-x,1/2-y,1/2+z
1/2+x,1/2-y,1/2+z
1/2-x,1/2+y,z
loop_
_atom_site_type_symbol
_atom_site_label
_atom_site_fract_x
_atom_site_fract_y
_atom_site_fract_z
Si Si1 0.682356 0.031786 0.608990
Si Si2 0.318403 0.781073 0.067110
Si Si3 0.315826 0.659359 0.389831
Si Si4 0.183281 0.230623 0.773345
Si Si5 0.323866 0.644182 0.037484
Si Si6 0.181263 0.098540 0.767605
Si Si7 0.680811 0.034830 0.934649
Si Si8 0.819633 0.922500 0.725963
O O1 0.500000 0.035693 0.600417
O O2 0.744668 0.015712 0.505848
O O3 0.726973 0.975112 0.674816
O O4 0.742849 0.088042 0.666865
O O5 0.500000 0.789736 0.088652
O O6 0.263160 0.829086 0.989841
O O7 0.301922 0.714546 0.020371
O O8 0.222853 0.775196 0.163044
O O9 0.500000 0.654555 0.401587
O O10 0.276168 0.717803 0.326222
O O11 0.262611 0.603076 0.325208
O O12 0.223212 0.163501 0.809421
O O13 0.000000 0.241571 0.786095
O O14 0.500000 0.627462 0.007225
O O15 0.206611 0.597563 0.991034
O O16 0.316689 0.631736 0.149387
O O17 0.231207 0.046493 0.838813
O O18 0.000000 0.097641 0.754309
O O19 0.500000 0.025327 0.916073
O O20 0.000000 0.940716 0.734229
#
# Coordination Sequence:
#
# PCOD9352344 Si02
#       8
#     8   8   8   8   8   8   8   8
#     4  10  22  40  63  91 119 150 197 254 304 353
#     4  11  22  37  57  87 123 163 203 246 302 362
#     4  11  22  38  60  90 124 162 202 245 302 366
#     4  11  24  41  61  89 124 163 207 254 302 362
#     4   9  17  33  56  82 115 153 196 241 288 350
#     4  11  24  42  63  88 120 163 205 246 301 364
#     4  10  21  37  61  93 120 152 199 251 304 354
#     4   9  18  36  59  82 113 152 193 239 293 355
#
# _framework density 23.368459000000001
#
# number of rings (size 3 to 8) (size 9 to 14) (size 15 to 20)
#    0.000    1.750    1.250    3.000    0.000    8.500 
#    2.250    0.000    0.000    0.000    0.000    0.000 
#    0.000    0.000    0.000    0.000    0.000    0.000 
#
# Total GULP energy -178984.936667 kJ/mol
# GULP energy per Si atom -5593.279271 kJ/mol
# Density = 2.331527 g / cm^3
# Si number density = 23.368459 Si / 1000 Ang^3
#
#
#
# Elastic Constant Matrix: (Units=GPa)
#
#
# Indices 1 2 3 4 5 6 
#
# 1 22.4668 -1.9291 0.8915 0.0000 0.0000 0.0000
# 2 -1.9291 45.3610 7.9524 0.0000 0.0000 0.0000
# 3 0.8915 7.9524 105.4605 0.0000 0.0000 0.0000
# 4 0.0000 0.0000 0.0000 48.5303 0.0000 0.0000
# 5 0.0000 0.0000 0.0000 0.0000 30.2332 0.0000
# 6 0.0000 0.0000 0.0000 0.0000 0.0000 25.5549
#
#
#
# Elastic Compliance Matrix: (Units=1/GPa)
#
#
# Indices 1 2 3 4 5 6 
#
# 1 0.044702 0.001994 -0.000528 0.000000 0.000000 0.000000
# 2 0.001994 0.022430 -0.001708 0.000000 0.000000 0.000000
# 3 -0.000528 -0.001708 0.009616 0.000000 0.000000 0.000000
# 4 0.000000 0.000000 0.000000 0.020606 0.000000 0.000000
# 5 0.000000 0.000000 0.000000 0.000000 0.033076 0.000000
# 6 0.000000 0.000000 0.000000 0.000000 0.000000 0.039132
#
#
# Mechanical properties :
#
#
# Convention : Reuss Voigt Hill
#
# Bulk Modulus (GPa) = 13.11272 20.79089 16.95181
# Shear Modulus (GPa) = 25.57977 31.95523 28.76750
#
# Velocity S-wave (km/s) = 3.31211 3.70192 3.51242
# Velocity P-wave (km/s) = 4.50002 5.21427 4.87026
#
# Compressibility (1/GPa) = 0.07626182
#
# Stress axis : x y z
#
# Youngs Moduli (GPa) = 22.37025 44.58389 103.99874
#
# Poissons Ratio (x) = -0.08888 0.05493
# Poissons Ratio (y) = -0.04460 0.17765
# Poissons Ratio (z) = 0.01182 0.07616
#
# Static dielectric constant tensor:
#      x y z
#    x 1.791550 0.000000 0.000000 
#    y 0.000000 1.929090 0.000000 
#    z 0.000000 0.000000 1.917690 
# 
# From -- ./inp_files/10893.got.cif
#   From: 2010.05.17/outbox.cif.g08.bks.cpg/sg36_6_cif.got.tgz:10893.got - 2010.06.03 17:41:39.
