data_PCOD9352636
_publ_section_title
;
Structure prediction by ZEFSAII (Michael W. Deem and Ramdas Pophale) SiO2 
 PCOD9352636
Probable space group: C M C 21
;
_chemical_formula_sum "Si O2"
_cell_formula_units_Z 40
_cell_length_a 13.659019
_cell_length_b 8.257746
_cell_length_c 12.969282
_cell_angle_alpha 90.000000
_cell_angle_beta 90.000000
_cell_angle_gamma 90.000000
_cell_volume 1462.840457
_symmetry_space_group_name_H-M "C M C 21"
_symmetry_group_IT_number 36
_symmetry_cell_setting 'orthorhombic'
loop_
_space_group_symop_operation_xyz
x,y,z
-x,-y,1/2+z
x,-y,1/2+z
-x,y,z
1/2+x,1/2+y,z
1/2-x,1/2-y,1/2+z
1/2+x,1/2-y,1/2+z
1/2-x,1/2+y,z
loop_
_atom_site_type_symbol
_atom_site_label
_atom_site_fract_x
_atom_site_fract_y
_atom_site_fract_z
Si Si1 0.500000 0.577201 0.767581
Si Si2 0.000000 0.294453 0.245705
Si Si3 0.000000 0.309140 0.998884
Si Si4 0.812818 0.480094 0.202483
Si Si5 0.812211 0.249643 0.548262
Si Si6 0.828025 0.715635 0.370538
Si Si7 0.500000 0.431182 0.018850
O O1 0.500000 0.385586 0.790601
O O2 0.598503 0.671028 0.803903
O O3 0.500000 0.573164 0.643618
O O4 0.102042 0.385658 0.262726
O O5 0.000000 0.304903 0.120413
O O6 0.000000 0.113839 0.979407
O O7 0.905424 0.378773 0.943247
O O8 0.852993 0.605273 0.117391
O O9 0.744959 0.365136 0.131820
O O10 0.770415 0.598177 0.292029
O O11 0.738411 0.300742 0.457056
O O12 0.899543 0.156089 0.493958
#
# Coordination Sequence:
#
# PCOD9352636 Si02
#       7
#     4   4   4   8   8   8   4
#     4  10  23  49  90 116 162 219 272 344 428 505
#     4  11  23  50  87 120 161 216 274 348 428 493
#     4  10  21  44  82 113 164 207 269 348 413 492
#     4  12  27  48  82 117 166 217 280 347 417 503
#     4  12  27  48  80 122 165 222 285 347 414 494
#     4  11  24  51  81 120 168 219 276 343 421 506
#     4  11  23  49  81 111 159 218 271 344 415 480
#
# _framework density 27.344061
#
# number of rings (size 3 to 8) (size 9 to 14) (size 15 to 20)
#    0.000    0.800    4.000    3.000    2.800    3.200 
#    0.000    6.000    0.000    0.000    0.000    0.000 
#    0.000    0.000    0.000    0.000    0.000    0.000 
#
# Total GULP energy -111950.222669 kJ/mol
# GULP energy per Si atom -5597.511133 kJ/mol
# Density = 2.728182 g / cm^3
# Si number density = 27.344061 Si / 1000 Ang^3
#
#
#
# Elastic Constant Matrix: (Units=GPa)
#
#
# Indices 1 2 3 4 5 6 
#
# 1 115.0578 43.8497 35.8592 0.0000 0.0000 0.0000
# 2 43.8497 124.0011 49.3026 0.0000 0.0000 0.0000
# 3 35.8592 49.3026 144.0380 0.0000 0.0000 0.0000
# 4 0.0000 0.0000 0.0000 66.3695 0.0000 0.0000
# 5 0.0000 0.0000 0.0000 0.0000 52.3095 0.0000
# 6 0.0000 0.0000 0.0000 0.0000 0.0000 26.0370
#
#
#
# Elastic Compliance Matrix: (Units=1/GPa)
#
#
# Indices 1 2 3 4 5 6 
#
# 1 0.010328 -0.003044 -0.001529 0.000000 0.000000 0.000000
# 2 -0.003044 0.010232 -0.002744 0.000000 0.000000 0.000000
# 3 -0.001529 -0.002744 0.008263 0.000000 0.000000 0.000000
# 4 0.000000 0.000000 0.000000 0.015067 0.000000 0.000000
# 5 0.000000 0.000000 0.000000 0.000000 0.019117 0.000000
# 6 0.000000 0.000000 0.000000 0.000000 0.000000 0.038407
#
#
# Mechanical properties :
#
#
# Convention : Reuss Voigt Hill
#
# Bulk Modulus (GPa) = 70.48665 71.23554 70.86110
# Shear Modulus (GPa) = 41.39795 45.88222 43.64008
#
# Velocity S-wave (km/s) = 3.89519 4.10073 3.99928
# Velocity P-wave (km/s) = 6.78702 6.96631 6.87725
#
# Compressibility (1/GPa) = 0.01418708
#
# Stress axis : x y z
#
# Youngs Moduli (GPa) = 96.82348 97.73119 121.02544
#
# Poissons Ratio (x) = 0.29752 0.18508
# Poissons Ratio (y) = 0.29475 0.33215
# Poissons Ratio (z) = 0.14807 0.26822
#
# Static dielectric constant tensor:
#      x y z
#    x 2.095280 0.000000 0.000000 
#    y 0.000000 2.112740 0.000000 
#    z 0.000000 0.000000 2.131640 
# 
# From -- ./inp_files/11986.got.cif
#   From: 2010.05.17/outbox.cif.g08.bks.cpg/sg36_6_cif.got.tgz:11986.got - 2010.06.03 17:41:39.
