data_PCOD9352643
_publ_section_title
;
Structure prediction by ZEFSAII (Michael W. Deem and Ramdas Pophale) SiO2 
 PCOD9352643
Probable space group: C M C 21
;
_chemical_formula_sum "Si O2"
_cell_formula_units_Z 56
_cell_length_a 24.328002
_cell_length_b 15.922524
_cell_length_c 7.927701
_cell_angle_alpha 90.000000
_cell_angle_beta 90.000000
_cell_angle_gamma 90.000000
_cell_volume 3070.899594
_symmetry_space_group_name_H-M "C M C 21"
_symmetry_group_IT_number 36
_symmetry_cell_setting 'orthorhombic'
loop_
_space_group_symop_operation_xyz
x,y,z
-x,-y,1/2+z
x,-y,1/2+z
-x,y,z
1/2+x,1/2+y,z
1/2-x,1/2-y,1/2+z
1/2+x,1/2-y,1/2+z
1/2-x,1/2+y,z
loop_
_atom_site_type_symbol
_atom_site_label
_atom_site_fract_x
_atom_site_fract_y
_atom_site_fract_z
Si Si1 0.766613 0.421058 0.946830
Si Si2 0.357381 0.753392 0.676686
Si Si3 0.563328 0.458352 0.667266
Si Si4 0.062303 0.131783 0.807649
Si Si5 0.695999 0.901989 0.566373
Si Si6 0.729718 0.790883 0.242608
Si Si7 0.344500 0.359298 0.868327
O O1 0.775506 0.409134 0.748349
O O2 0.700035 0.421936 0.956047
O O3 0.799786 0.503950 0.997587
O O4 0.783090 0.346767 0.076583
O O5 0.397673 0.711447 0.809956
O O6 0.358659 0.850703 0.622042
O O7 0.293892 0.733905 0.726148
O O8 0.369875 0.699904 0.510418
O O9 0.500000 0.448565 0.731178
O O10 0.575443 0.557698 0.673995
O O11 0.564831 0.419214 0.481991
O O12 0.609639 0.409608 0.770230
O O13 0.000000 0.160277 0.778102
O O14 0.721437 0.845004 0.414772
O O15 0.690841 0.709262 0.259129
#
# Coordination Sequence:
#
# PCOD9352643 Si02
#       7
#     8   8   8   8   8   8   8
#     4  11  22  35  54  80 116 154 187 241 285 359
#     4  10  22  37  56  80 112 152 193 245 287 347
#     4  10  22  37  56  84 119 157 201 244 288 351
#     4  10  22  38  57  82 114 155 201 246 293 350
#     4  11  22  36  55  80 113 154 189 235 293 349
#     4  10  22  38  52  84 117 149 202 230 293 350
#     4  10  22  35  56  82 113 157 191 239 293 346
#
# _framework density 18.235697999999999
#
# number of rings (size 3 to 8) (size 9 to 14) (size 15 to 20)
#    0.000    1.714    2.857    0.857    6.000    1.714 
#    0.000    0.000    0.000    0.000    0.000    2.000 
#    0.000    0.000    0.000    0.000    0.000    0.000 
#
# Total GULP energy -155921.287458 kJ/mol
# GULP energy per Si atom -5568.617409 kJ/mol
# Density = 1.819419 g / cm^3
# Si number density = 18.235698 Si / 1000 Ang^3
#
#
#
# Elastic Constant Matrix: (Units=GPa)
#
#
# Indices 1 2 3 4 5 6 
#
# 1 59.1758 46.2060 7.0264 0.0000 0.0000 0.0000
# 2 46.2060 102.9827 12.1410 0.0000 0.0000 0.0000
# 3 7.0264 12.1410 70.8329 0.0000 0.0000 0.0000
# 4 0.0000 0.0000 0.0000 25.7767 0.0000 0.0000
# 5 0.0000 0.0000 0.0000 0.0000 24.3167 0.0000
# 6 0.0000 0.0000 0.0000 0.0000 0.0000 30.6592
#
#
#
# Elastic Compliance Matrix: (Units=1/GPa)
#
#
# Indices 1 2 3 4 5 6 
#
# 1 0.026036 -0.011612 -0.000592 0.000000 0.000000 0.000000
# 2 -0.011612 0.015090 -0.001435 0.000000 0.000000 0.000000
# 3 -0.000592 -0.001435 0.014422 0.000000 0.000000 0.000000
# 4 0.000000 0.000000 0.000000 0.038795 0.000000 0.000000
# 5 0.000000 0.000000 0.000000 0.000000 0.041124 0.000000
# 6 0.000000 0.000000 0.000000 0.000000 0.000000 0.032617
#
#
# Mechanical properties :
#
#
# Convention : Reuss Voigt Hill
#
# Bulk Modulus (GPa) = 35.37287 40.41535 37.89411
# Shear Modulus (GPa) = 24.41593 27.32506 25.87050
#
# Velocity S-wave (km/s) = 3.66308 3.87517 3.77061
# Velocity P-wave (km/s) = 6.10987 6.49872 6.30730
#
# Compressibility (1/GPa) = 0.02827026
#
# Stress axis : x y z
#
# Youngs Moduli (GPa) = 38.40829 66.27123 69.33670
#
# Poissons Ratio (x) = 0.76954 0.04107
# Poissons Ratio (y) = 0.44599 0.09946
# Poissons Ratio (z) = 0.02275 0.09507
#
# Static dielectric constant tensor:
#      x y z
#    x 1.648370 0.000000 0.000000 
#    y 0.000000 1.689730 0.000000 
#    z 0.000000 0.000000 1.700550 
# 
# From -- ./inp_files/5291.got.cif
#   From: 2010.05.17/outbox.cif.g08.bks.cpg/sg36_3_cif.got.tgz:5291.got - 2010.06.03 17:41:39.
