data_PCOD9352443
_publ_section_title
;
Structure prediction by ZEFSAII (Michael W. Deem and Ramdas Pophale) SiO2 
 PCOD9352443
Probable space group: C M C 21
;
_chemical_formula_sum "Si O2"
_cell_formula_units_Z 64
_cell_length_a 25.006961
_cell_length_b 11.085422
_cell_length_c 11.723419
_cell_angle_alpha 90.000000
_cell_angle_beta 90.000000
_cell_angle_gamma 90.000000
_cell_volume 3249.880817
_symmetry_space_group_name_H-M "C M C 21"
_symmetry_group_IT_number 36
_symmetry_cell_setting 'orthorhombic'
loop_
_space_group_symop_operation_xyz
x,y,z
-x,-y,1/2+z
x,-y,1/2+z
-x,y,z
1/2+x,1/2+y,z
1/2-x,1/2-y,1/2+z
1/2+x,1/2-y,1/2+z
1/2-x,1/2+y,z
loop_
_atom_site_type_symbol
_atom_site_label
_atom_site_fract_x
_atom_site_fract_y
_atom_site_fract_z
Si Si1 0.860626 0.454960 0.739690
Si Si2 0.561160 0.345195 0.615432
Si Si3 0.870513 0.069018 0.701957
Si Si4 0.744506 0.270222 0.522448
Si Si5 0.060561 0.658381 0.819660
Si Si6 0.250189 0.480247 0.166154
Si Si7 0.630817 0.270423 0.406454
Si Si8 0.137101 0.288155 0.525012
O O1 0.904785 0.553932 0.762263
O O2 0.800367 0.506178 0.749639
O O3 0.870695 0.349832 0.830924
O O4 0.863566 0.401706 0.611516
O O5 0.500000 0.371332 0.579620
O O6 0.594319 0.462922 0.650792
O O7 0.559077 0.264927 0.728443
O O8 0.593819 0.275105 0.517411
O O9 0.808542 0.034243 0.719760
O O10 0.888309 0.122410 0.822973
O O11 0.870734 0.174924 0.608276
O O12 0.745540 0.391353 0.600009
O O13 0.740630 0.141890 0.590676
O O14 0.692837 0.282471 0.443376
O O15 0.804079 0.272310 0.469097
O O16 0.000000 0.619889 0.845311
O O17 0.091675 0.699163 0.932152
#
# Coordination Sequence:
#
# PCOD9352443 Si02
#       8
#     8   8   8   8   8   8   8   8
#     4  10  24  41  67  97 133 171 218 271 336 395
#     4  11  26  45  66  95 131 174 225 276 331 396
#     4  10  23  43  67  97 133 172 219 273 333 398
#     4  10  21  38  67  98 138 176 214 271 336 400
#     4  11  26  43  67  94 128 176 223 276 328 386
#     4  10  21  40  64  99 139 176 216 273 333 402
#     4  11  24  42  67 100 131 174 219 270 337 404
#     4   9  23  44  63  98 131 171 218 268 334 397
#
# _framework density 19.693028999999999
#
# number of rings (size 3 to 8) (size 9 to 14) (size 15 to 20)
#    0.000    1.750    1.250    1.500    8.750    3.000 
#    0.000    2.500    0.000    0.000    0.000    0.000 
#    0.000    0.000    0.000    0.000    0.000    0.000 
#
# Total GULP energy -178633.294219 kJ/mol
# GULP energy per Si atom -5582.290444 kJ/mol
# Density = 1.964821 g / cm^3
# Si number density = 19.693029 Si / 1000 Ang^3
#
#
#
# Elastic Constant Matrix: (Units=GPa)
#
#
# Indices 1 2 3 4 5 6 
#
# 1 141.9974 21.3920 33.5504 0.0000 0.0000 0.0000
# 2 21.3920 66.7473 -1.6332 0.0000 0.0000 0.0000
# 3 33.5504 -1.6332 52.0049 0.0000 0.0000 0.0000
# 4 0.0000 0.0000 0.0000 1.7635 0.0000 0.0000
# 5 0.0000 0.0000 0.0000 0.0000 25.3392 0.0000
# 6 0.0000 0.0000 0.0000 0.0000 0.0000 19.2143
#
#
#
# Elastic Compliance Matrix: (Units=1/GPa)
#
#
# Indices 1 2 3 4 5 6 
#
# 1 0.008865 -0.002984 -0.005813 0.000000 0.000000 0.000000
# 2 -0.002984 0.015997 0.002427 0.000000 0.000000 0.000000
# 3 -0.005813 0.002427 0.023055 0.000000 0.000000 0.000000
# 4 0.000000 0.000000 0.000000 0.567052 0.000000 0.000000
# 5 0.000000 0.000000 0.000000 0.000000 0.039465 0.000000
# 6 0.000000 0.000000 0.000000 0.000000 0.000000 0.052045
#
#
# Mechanical properties :
#
#
# Convention : Reuss Voigt Hill
#
# Bulk Modulus (GPa) = 28.42571 40.81867 34.62219
# Shear Modulus (GPa) = 6.84047 23.09276 14.96661
#
# Velocity S-wave (km/s) = 1.86577 3.42809 2.75979
# Velocity P-wave (km/s) = 4.37118 6.03668 5.27014
#
# Compressibility (1/GPa) = 0.03517942
#
# Stress axis : x y z
#
# Youngs Moduli (GPa) = 112.79891 62.50989 43.37374
#
# Poissons Ratio (x) = 0.18650 0.25213
# Poissons Ratio (y) = 0.33654 -0.10528
# Poissons Ratio (z) = 0.65571 -0.15172
#
# Static dielectric constant tensor:
#      x y z
#    x 1.689900 0.000000 0.000000 
#    y 0.000000 1.739880 0.000000 
#    z 0.000000 0.000000 1.677060 
# 
# From -- ./inp_files/9512.got.cif
#   From: 2010.05.17/outbox.cif.g08.bks.cpg/sg36_5_cif.got.tgz:9512.got - 2010.06.03 17:41:39.
