data_PCOD9352026
_publ_section_title
;
Structure prediction by ZEFSAII (Michael W. Deem and Ramdas Pophale) SiO2 
 PCOD9352026
Probable space group: C M C 21
;
_chemical_formula_sum "Si O2"
_cell_formula_units_Z 48
_cell_length_a 14.429374
_cell_length_b 8.151823
_cell_length_c 15.712461
_cell_angle_alpha 90.000000
_cell_angle_beta 90.000000
_cell_angle_gamma 90.000000
_cell_volume 1848.189269
_symmetry_space_group_name_H-M "C M C 21"
_symmetry_group_IT_number 36
_symmetry_cell_setting 'orthorhombic'
loop_
_space_group_symop_operation_xyz
x,y,z
-x,-y,1/2+z
x,-y,1/2+z
-x,y,z
1/2+x,1/2+y,z
1/2-x,1/2-y,1/2+z
1/2+x,1/2-y,1/2+z
1/2-x,1/2+y,z
loop_
_atom_site_type_symbol
_atom_site_label
_atom_site_fract_x
_atom_site_fract_y
_atom_site_fract_z
Si Si1 0.098190 0.928172 0.728200
Si Si2 0.693520 0.333656 0.331660
Si Si3 0.746991 0.712302 0.147249
Si Si4 0.609545 0.286503 0.505424
Si Si5 0.897748 0.180469 0.519892
Si Si6 0.601811 0.879343 0.344814
O O1 0.188663 0.953189 0.670580
O O2 0.099891 0.743576 0.763672
O O3 0.000000 0.954082 0.685391
O O4 0.110451 0.043626 0.808647
O O5 0.709799 0.242175 0.241539
O O6 0.661311 0.241562 0.417108
O O7 0.790070 0.432497 0.344691
O O8 0.828556 0.721977 0.080465
O O9 0.663084 0.789236 0.087413
O O10 0.500000 0.246550 0.504952
O O11 0.619938 0.485919 0.508086
O O12 0.898483 0.267082 0.428572
O O13 0.000000 0.200905 0.556103
O O14 0.500000 0.968330 0.343126
#
# Coordination Sequence:
#
# PCOD9352026 Si02
#       6
#     8   8   8   8   8   8
#     4  10  20  38  62  90 119 155 204 256 305 362
#     4  11  21  36  62  93 125 160 207 261 315 372
#     4  11  23  36  57  95 129 156 200 263 322 367
#     4  11  22  39  65  93 122 164 217 264 309 372
#     4  10  20  38  62  87 119 158 204 254 303 366
#     4   9  18  35  60  86 116 155 196 244 306 365
#
# _framework density 25.971366
#
# number of rings (size 3 to 8) (size 9 to 14) (size 15 to 20)
#    0.000    1.667    3.333    2.000    0.000    3.333 
#    0.000    0.833    0.000   14.000    0.000    0.000 
#    0.000    0.000    0.000    0.000    0.000    0.000 
#
# Total GULP energy -133642.624029 kJ/mol
# GULP energy per Si atom -5568.442668 kJ/mol
# Density = 2.591225 g / cm^3
# Si number density = 25.971366 Si / 1000 Ang^3
#
#
#
# Elastic Constant Matrix: (Units=GPa)
#
#
# Indices 1 2 3 4 5 6 
#
# 1 189.1212 13.5372 66.5861 0.0000 0.0000 0.0000
# 2 13.5372 24.0251 20.5153 0.0000 0.0000 0.0000
# 3 66.5861 20.5153 212.0338 0.0000 0.0000 0.0000
# 4 0.0000 0.0000 0.0000 38.5606 0.0000 0.0000
# 5 0.0000 0.0000 0.0000 0.0000 18.0089 0.0000
# 6 0.0000 0.0000 0.0000 0.0000 0.0000 16.0502
#
#
#
# Elastic Compliance Matrix: (Units=1/GPa)
#
#
# Indices 1 2 3 4 5 6 
#
# 1 0.006027 -0.001940 -0.001705 0.000000 0.000000 0.000000
# 2 -0.001940 0.045996 -0.003841 0.000000 0.000000 0.000000
# 3 -0.001705 -0.003841 0.005623 0.000000 0.000000 0.000000
# 4 0.000000 0.000000 0.000000 0.025933 0.000000 0.000000
# 5 0.000000 0.000000 0.000000 0.000000 0.055528 0.000000
# 6 0.000000 0.000000 0.000000 0.000000 0.000000 0.062304
#
#
# Mechanical properties :
#
#
# Convention : Reuss Voigt Hill
#
# Bulk Modulus (GPa) = 23.43335 69.60638 46.51986
# Shear Modulus (GPa) = 21.68173 36.16003 28.92088
#
# Velocity S-wave (km/s) = 2.89248 3.73541 3.34064
# Velocity P-wave (km/s) = 4.49418 6.74268 5.72981
#
# Compressibility (1/GPa) = 0.04267423
#
# Stress axis : x y z
#
# Youngs Moduli (GPa) = 165.92704 21.74088 177.83209
#
# Poissons Ratio (x) = 0.04218 0.30319
# Poissons Ratio (y) = 0.32190 0.68308
# Poissons Ratio (z) = 0.28289 0.08351
#
# Static dielectric constant tensor:
#      x y z
#    x 2.103260 0.000000 0.000000 
#    y 0.000000 2.224920 0.000000 
#    z 0.000000 0.000000 2.084000 
# 
# From -- ./inp_files/12094.got.cif
#   From: 2010.05.17/outbox.cif.g08.bks.cpg/sg36_7_cif.got.tgz:12094.got - 2010.06.03 17:41:39.
