data_PCOD9352108
_publ_section_title
;
Structure prediction by ZEFSAII (Michael W. Deem and Ramdas Pophale) SiO2 
 PCOD9352108
Probable space group: C M C 21
;
_chemical_formula_sum "Si O2"
_cell_formula_units_Z 40
_cell_length_a 25.428452
_cell_length_b 5.120305
_cell_length_c 13.627693
_cell_angle_alpha 90.000000
_cell_angle_beta 90.000000
_cell_angle_gamma 90.000000
_cell_volume 1774.345115
_symmetry_space_group_name_H-M "C M C 21"
_symmetry_group_IT_number 36
_symmetry_cell_setting 'orthorhombic'
loop_
_space_group_symop_operation_xyz
x,y,z
-x,-y,1/2+z
x,-y,1/2+z
-x,y,z
1/2+x,1/2+y,z
1/2-x,1/2-y,1/2+z
1/2+x,1/2-y,1/2+z
1/2-x,1/2+y,z
loop_
_atom_site_type_symbol
_atom_site_label
_atom_site_fract_x
_atom_site_fract_y
_atom_site_fract_z
Si Si1 0.115362 0.893292 0.582240
Si Si2 0.607800 0.874021 0.284076
Si Si3 0.000000 0.905012 0.596452
Si Si4 0.342699 0.131628 0.983765
Si Si5 0.500000 0.900531 0.725304
Si Si6 0.218361 0.494599 0.806898
O O1 0.108889 0.839116 0.698248
O O2 0.133158 0.620978 0.535052
O O3 0.055885 0.955560 0.545665
O O4 0.155643 0.122411 0.555371
O O5 0.620994 0.772366 0.392129
O O6 0.659912 0.050084 0.266111
O O7 0.553519 0.028559 0.280820
O O8 0.000000 0.604279 0.633167
O O9 0.000000 0.106546 0.687720
O O10 0.291236 0.033029 0.924608
O O11 0.257636 0.270004 0.776762
#
# Coordination Sequence:
#
# PCOD9352108 Si02
#       6
#     8   8   4   8   4   8
#     4  11  21  42  60  97 128 171 215 258 327 390
#     4   9  24  40  68  92 136 166 217 266 325 389
#     4  10  22  34  64  90 135 164 203 264 304 376
#     4  10  24  38  67  89 127 171 216 268 318 386
#     4  10  20  40  60  98 127 174 195 258 322 378
#     4  10  22  43  65  89 129 167 216 281 321 370
#
# _framework density 22.543527999999998
#
# number of rings (size 3 to 8) (size 9 to 14) (size 15 to 20)
#    1.200    0.800    0.000    3.600    0.000   11.200 
#    0.000    6.000    0.000    0.000    0.000    0.000 
#    0.000    0.000    0.000    0.000    0.000    0.000 
#
# Total GULP energy -111466.439405 kJ/mol
# GULP energy per Si atom -5573.321970 kJ/mol
# Density = 2.249222 g / cm^3
# Si number density = 22.543528 Si / 1000 Ang^3
#
#
#
# Elastic Constant Matrix: (Units=GPa)
#
#
# Indices 1 2 3 4 5 6 
#
# 1 81.7248 9.9693 -10.4438 0.0000 0.0000 0.0000
# 2 9.9693 89.6003 31.4101 0.0000 0.0000 0.0000
# 3 -10.4438 31.4101 58.8230 0.0000 0.0000 0.0000
# 4 0.0000 0.0000 0.0000 18.3561 0.0000 0.0000
# 5 0.0000 0.0000 0.0000 0.0000 20.7873 0.0000
# 6 0.0000 0.0000 0.0000 0.0000 0.0000 15.0487
#
#
#
# Elastic Compliance Matrix: (Units=1/GPa)
#
#
# Indices 1 2 3 4 5 6 
#
# 1 0.013063 -0.002788 0.003808 0.000000 0.000000 0.000000
# 2 -0.002788 0.014326 -0.008145 0.000000 0.000000 0.000000
# 3 0.003808 -0.008145 0.022026 0.000000 0.000000 0.000000
# 4 0.000000 0.000000 0.000000 0.054478 0.000000 0.000000
# 5 0.000000 0.000000 0.000000 0.000000 0.048106 0.000000
# 6 0.000000 0.000000 0.000000 0.000000 0.000000 0.066451
#
#
# Mechanical properties :
#
#
# Convention : Reuss Voigt Hill
#
# Bulk Modulus (GPa) = 28.43783 32.44661 30.44222
# Shear Modulus (GPa) = 20.45646 24.11925 22.28785
#
# Velocity S-wave (km/s) = 3.01561 3.27448 3.14771
# Velocity P-wave (km/s) = 4.97667 5.35914 5.17144
#
# Compressibility (1/GPa) = 0.03516442
#
# Stress axis : x y z
#
# Youngs Moduli (GPa) = 76.55201 69.80216 45.40191
#
# Poissons Ratio (x) = 0.19464 -0.17290
# Poissons Ratio (y) = 0.21346 0.36980
# Poissons Ratio (z) = -0.29153 0.56853
#
# Static dielectric constant tensor:
#      x y z
#    x 1.888400 0.000000 0.000000 
#    y 0.000000 1.796870 0.000000 
#    z 0.000000 0.000000 1.865070 
# 
# From -- ./inp_files/13017.got.cif
#   From: 2010.05.17/outbox.cif.g08.bks.cpg/sg36_7_cif.got.tgz:13017.got - 2010.06.03 17:41:39.
