data_PCOD9352735
_publ_section_title
;
Structure prediction by ZEFSAII (Michael W. Deem and Ramdas Pophale) SiO2 
 PCOD9352735
Probable space group: C M C 21
;
_chemical_formula_sum "Si O2"
_cell_formula_units_Z 32
_cell_length_a 13.064402
_cell_length_b 13.122515
_cell_length_c 8.480550
_cell_angle_alpha 90.000000
_cell_angle_beta 90.000000
_cell_angle_gamma 90.000000
_cell_volume 1453.886930
_symmetry_space_group_name_H-M "C M C 21"
_symmetry_group_IT_number 36
_symmetry_cell_setting 'orthorhombic'
loop_
_space_group_symop_operation_xyz
x,y,z
-x,-y,1/2+z
x,-y,1/2+z
-x,y,z
1/2+x,1/2+y,z
1/2-x,1/2-y,1/2+z
1/2+x,1/2-y,1/2+z
1/2-x,1/2+y,z
loop_
_atom_site_type_symbol
_atom_site_label
_atom_site_fract_x
_atom_site_fract_y
_atom_site_fract_z
Si Si1 0.670089 0.633128 0.220180
Si Si2 0.170089 0.366872 0.172252
Si Si3 0.386570 0.931213 0.819954
Si Si4 0.386570 0.568787 0.572479
O O1 0.629821 0.597390 0.390619
O O2 0.642817 0.750000 0.196215
O O3 0.870178 0.597389 0.501814
O O4 0.627263 0.552622 0.095230
O O5 0.127263 0.447377 0.297203
O O6 0.293310 0.380373 0.167522
O O7 0.500000 0.901591 0.767608
O O8 0.293310 0.119626 0.224911
O O9 0.500000 0.598410 0.624825
#
# Coordination Sequence:
#
# PCOD9352735 Si02
#       4
#     8   8   8   8
#     4  10  23  42  62  90 126 159 200 253 302 357
#     4  10  23  42  62  90 126 159 200 253 302 357
#     4  10  22  40  63  90 120 158 205 252 301 360
#     4  10  22  40  63  90 120 158 205 252 301 360
#
# _framework density 22.009962999999999
#
# number of rings (size 3 to 8) (size 9 to 14) (size 15 to 20)
#    0.000    2.000    0.000    1.500    0.000   21.000 
#    0.000    0.000    0.000    0.000    0.000    0.000 
#    0.000    0.000    0.000    0.000    0.000    0.000 
#
# Total GULP energy -89489.827582 kJ/mol
# GULP energy per Si atom -5593.114224 kJ/mol
# Density = 2.195987 g / cm^3
# Si number density = 22.009963 Si / 1000 Ang^3
#
#
#
# Elastic Constant Matrix: (Units=GPa)
#
#
# Indices 1 2 3 4 5 6 
#
# 1 123.6755 -36.2178 1.2227 0.0000 0.0000 0.0000
# 2 -36.2178 137.1342 48.1466 0.0000 0.0000 0.0000
# 3 1.2227 48.1466 64.4262 0.0000 0.0000 0.0000
# 4 0.0000 0.0000 0.0000 21.2781 0.0000 0.0000
# 5 0.0000 0.0000 0.0000 0.0000 4.3467 0.0000
# 6 0.0000 0.0000 0.0000 0.0000 0.0000 -4.1803
#
#
#
# Elastic Compliance Matrix: (Units=1/GPa)
#
#
# Indices 1 2 3 4 5 6 
#
# 1 0.009089 0.003336 -0.002666 0.000000 0.000000 0.000000
# 2 0.003336 0.011111 -0.008367 0.000000 0.000000 0.000000
# 3 -0.002666 -0.008367 0.021825 0.000000 0.000000 0.000000
# 4 0.000000 0.000000 0.000000 0.046997 0.000000 0.000000
# 5 0.000000 0.000000 0.000000 0.000000 0.230059 0.000000
# 6 0.000000 0.000000 0.000000 0.000000 0.000000 -0.239220
#
#
# Mechanical properties :
#
#
# Convention : Reuss Voigt Hill
#
# Bulk Modulus (GPa) = 37.54803 39.05990 38.30397
# Shear Modulus (GPa) = 48.01689 25.09453 36.55571
#
# Velocity S-wave (km/s) = 4.67583 3.38026 4.07980
# Velocity P-wave (km/s) = 6.80057 5.74630 6.29554
#
# Compressibility (1/GPa) = 0.02663255
#
# Stress axis : x y z
#
# Youngs Moduli (GPa) = 110.02205 90.00335 45.81976
#
# Poissons Ratio (x) = -0.30029 0.12215
# Poissons Ratio (y) = -0.36708 0.38335
# Poissons Ratio (z) = 0.29330 0.75301
#
# Static dielectric constant tensor:
#      x y z
#    x 1.832000 0.000000 0.000000 
#    y 0.000000 1.771240 0.000000 
#    z 0.000000 0.000000 1.804230 
# 
# From -- ./inp_files/7369.got.cif
#   From: 2010.05.17/outbox.cif.g08.bks.cpg/sg36_4_cif.got.tgz:7369.got - 2010.06.03 17:41:39.
