data_PCOD9352796
_publ_section_title
;
Structure prediction by ZEFSAII (Michael W. Deem and Ramdas Pophale) SiO2 
 PCOD9352796
Probable space group: C M C 21
;
_chemical_formula_sum "Si O2"
_cell_formula_units_Z 48
_cell_length_a 22.297121
_cell_length_b 9.692219
_cell_length_c 8.404200
_cell_angle_alpha 90.000000
_cell_angle_beta 90.000000
_cell_angle_gamma 90.000000
_cell_volume 1816.219726
_symmetry_space_group_name_H-M "C M C 21"
_symmetry_group_IT_number 36
_symmetry_cell_setting 'orthorhombic'
loop_
_space_group_symop_operation_xyz
x,y,z
-x,-y,1/2+z
x,-y,1/2+z
-x,y,z
1/2+x,1/2+y,z
1/2-x,1/2-y,1/2+z
1/2+x,1/2-y,1/2+z
1/2-x,1/2+y,z
loop_
_atom_site_type_symbol
_atom_site_label
_atom_site_fract_x
_atom_site_fract_y
_atom_site_fract_z
Si Si1 0.073388 0.294039 0.844060
Si Si2 0.932324 0.544572 0.037133
Si Si3 0.410858 0.707351 0.335748
Si Si4 0.895072 0.043461 0.028752
Si Si5 0.723079 0.798738 0.396586
Si Si6 0.242849 0.041851 0.583896
O O1 0.093082 0.365105 0.680252
O O2 0.094362 0.400093 0.982200
O O3 0.000000 0.282866 0.845950
O O4 0.100936 0.145794 0.877979
O O5 0.935591 0.644236 0.883077
O O6 0.000000 0.512393 0.085942
O O7 0.424570 0.629648 0.172011
O O8 0.425669 0.598651 0.475761
O O9 0.339956 0.738177 0.339380
O O10 0.826094 0.007552 0.065700
O O11 0.757466 0.664967 0.460117
O O12 0.718479 0.907460 0.541769
O O13 0.749710 0.889016 0.254876
#
# Coordination Sequence:
#
# PCOD9352796 Si02
#       6
#     8   8   8   8   8   8
#     4  10  22  42  67  95 131 174 220 272 330 391
#     4  10  22  41  66  98 134 173 221 273 326 391
#     4  11  24  40  63  92 125 168 216 268 328 390
#     4  11  23  41  64  92 127 169 217 272 327 390
#     4  11  24  41  64  92 126 168 211 266 326 390
#     4  11  23  43  66  93 129 168 217 269 327 392
#
# _framework density 26.428519000000001
#
# number of rings (size 3 to 8) (size 9 to 14) (size 15 to 20)
#    0.000    1.333    0.000    6.000    0.000    8.000 
#    0.000    0.000    0.000    0.000    0.000    0.000 
#    0.000    0.000    0.000    0.000    0.000    0.000 
#
# Total GULP energy -134486.610004 kJ/mol
# GULP energy per Si atom -5603.608750 kJ/mol
# Density = 2.636837 g / cm^3
# Si number density = 26.428519 Si / 1000 Ang^3
#
#
#
# Elastic Constant Matrix: (Units=GPa)
#
#
# Indices 1 2 3 4 5 6 
#
# 1 81.7097 16.0152 20.1818 0.0000 0.0000 0.0000
# 2 16.0152 171.9606 31.7078 0.0000 0.0000 0.0000
# 3 20.1818 31.7078 96.7890 0.0000 0.0000 0.0000
# 4 0.0000 0.0000 0.0000 72.3193 0.0000 0.0000
# 5 0.0000 0.0000 0.0000 0.0000 25.2860 0.0000
# 6 0.0000 0.0000 0.0000 0.0000 0.0000 188.7801
#
#
#
# Elastic Compliance Matrix: (Units=1/GPa)
#
#
# Indices 1 2 3 4 5 6 
#
# 1 0.012995 -0.000756 -0.002462 0.000000 0.000000 0.000000
# 2 -0.000756 0.006233 -0.001884 0.000000 0.000000 0.000000
# 3 -0.002462 -0.001884 0.011462 0.000000 0.000000 0.000000
# 4 0.000000 0.000000 0.000000 0.013828 0.000000 0.000000
# 5 0.000000 0.000000 0.000000 0.000000 0.039548 0.000000
# 6 0.000000 0.000000 0.000000 0.000000 0.000000 0.005297
#
#
# Mechanical properties :
#
#
# Convention : Reuss Voigt Hill
#
# Bulk Modulus (GPa) = 48.81507 54.02989 51.42248
# Shear Modulus (GPa) = 46.99432 76.11406 61.55419
#
# Velocity S-wave (km/s) = 4.22141 5.37238 4.83129
# Velocity P-wave (km/s) = 6.50162 7.67929 7.11486
#
# Compressibility (1/GPa) = 0.02048548
#
# Stress axis : x y z
#
# Youngs Moduli (GPa) = 76.95423 160.43226 87.24214
#
# Poissons Ratio (x) = 0.12134 0.21477
# Poissons Ratio (y) = 0.05820 0.16439
# Poissons Ratio (z) = 0.18945 0.30230
#
# Static dielectric constant tensor:
#      x y z
#    x 2.052830 0.000000 0.000000 
#    y 0.000000 1.964640 0.000000 
#    z 0.000000 0.000000 2.138080 
# 
# From -- ./inp_files/5975.got.cif
#   From: 2010.05.17/outbox.cif.g08.bks.cpg/sg36_3_cif.got.tgz:5975.got - 2010.06.03 17:41:39.
