data_PCOD9352993
_publ_section_title
;
Structure prediction by ZEFSAII (Michael W. Deem and Ramdas Pophale) SiO2 
 PCOD9352993
Probable space group: C M C 21
;
_chemical_formula_sum "Si O2"
_cell_formula_units_Z 32
_cell_length_a 14.605514
_cell_length_b 17.747508
_cell_length_c 5.297757
_cell_angle_alpha 90.000000
_cell_angle_beta 90.000000
_cell_angle_gamma 90.000000
_cell_volume 1373.239414
_symmetry_space_group_name_H-M "C M C 21"
_symmetry_group_IT_number 36
_symmetry_cell_setting 'orthorhombic'
loop_
_space_group_symop_operation_xyz
x,y,z
-x,-y,1/2+z
x,-y,1/2+z
-x,y,z
1/2+x,1/2+y,z
1/2-x,1/2-y,1/2+z
1/2+x,1/2-y,1/2+z
1/2-x,1/2+y,z
loop_
_atom_site_type_symbol
_atom_site_label
_atom_site_fract_x
_atom_site_fract_y
_atom_site_fract_z
Si Si1 0.843131 0.319732 0.902540
Si Si2 0.500000 0.786408 0.233051
Si Si3 0.610704 0.044249 0.082889
Si Si4 0.865463 0.815951 0.065806
Si Si5 0.500000 0.450648 0.143044
O O1 0.852099 0.374025 0.660396
O O2 0.873261 0.236609 0.812213
O O3 0.920042 0.340058 0.104471
O O4 0.740571 0.321607 0.998359
O O5 0.579093 0.730756 0.356169
O O6 0.500000 0.050793 0.080474
O O7 0.639854 0.992007 0.319692
O O8 0.912931 0.895586 0.112019
O O9 0.500000 0.489956 0.414802
#
# Coordination Sequence:
#
# PCOD9352993 Si02
#       5
#     8   4   8   8   4
#     4  12  24  44  75 108 149 192 261 323 383 465
#     4  11  23  44  68 102 148 187 234 327 380 441
#     4  10  24  40  63  98 143 190 231 292 380 455
#     4  11  27  43  78 111 145 201 267 321 390 465
#     4  11  29  52  78 110 162 213 262 327 398 481
#
# _framework density 23.302565000000001
#
# number of rings (size 3 to 8) (size 9 to 14) (size 15 to 20)
#    0.000    1.000    3.750    1.500   10.500    2.000 
#    0.000    0.000    0.000    0.000    0.000    0.000 
#    0.000    0.000    0.000    0.000    0.000    0.000 
#
# Total GULP energy -89134.912625 kJ/mol
# GULP energy per Si atom -5570.932039 kJ/mol
# Density = 2.324953 g / cm^3
# Si number density = 23.302565 Si / 1000 Ang^3
#
#
#
# Elastic Constant Matrix: (Units=GPa)
#
#
# Indices 1 2 3 4 5 6 
#
# 1 146.4591 19.4199 34.6098 0.0000 0.0000 0.0000
# 2 19.4199 84.5951 25.1423 0.0000 0.0000 0.0000
# 3 34.6098 25.1423 79.2074 0.0000 0.0000 0.0000
# 4 0.0000 0.0000 0.0000 51.1149 0.0000 0.0000
# 5 0.0000 0.0000 0.0000 0.0000 -10.2047 0.0000
# 6 0.0000 0.0000 0.0000 0.0000 0.0000 21.7269
#
#
#
# Elastic Compliance Matrix: (Units=1/GPa)
#
#
# Indices 1 2 3 4 5 6 
#
# 1 0.007668 -0.000844 -0.003083 0.000000 0.000000 0.000000
# 2 -0.000844 0.013145 -0.003804 0.000000 0.000000 0.000000
# 3 -0.003083 -0.003804 0.015179 0.000000 0.000000 0.000000
# 4 0.000000 0.000000 0.000000 0.019564 0.000000 0.000000
# 5 0.000000 0.000000 0.000000 0.000000 -0.097994 0.000000
# 6 0.000000 0.000000 0.000000 0.000000 0.000000 0.046026
#
#
# Mechanical properties :
#
#
# Convention : Reuss Voigt Hill
#
# Bulk Modulus (GPa) = 48.70497 52.06729 50.38613
# Shear Modulus (GPa) = 193.09524 27.93339 110.51431
#
# Velocity S-wave (km/s) = 9.11286 3.46602 6.89411
# Velocity P-wave (km/s) = 11.47485 6.19760 9.22178
#
# Compressibility (1/GPa) = 0.02053179
#
# Stress axis : x y z
#
# Youngs Moduli (GPa) = 130.40785 76.07277 65.87840
#
# Poissons Ratio (x) = 0.06422 0.20308
# Poissons Ratio (y) = 0.11008 0.25059
# Poissons Ratio (z) = 0.40201 0.28936
#
# Static dielectric constant tensor:
#      x y z
#    x 1.862530 0.000000 0.000000 
#    y 0.000000 1.938830 0.000000 
#    z 0.000000 0.000000 2.002610 
# 
# From -- ./inp_files/644.got.cif
#   From: 2010.05.17/outbox.cif.g08.bks.cpg/sg36_1_cif.got.tgz:644.got - 2010.06.03 17:41:39.
