data_PCOD9352389
_publ_section_title
;
Structure prediction by ZEFSAII (Michael W. Deem and Ramdas Pophale) SiO2 
 PCOD9352389
Probable space group: C M C 21
;
_chemical_formula_sum "Si O2"
_cell_formula_units_Z 40
_cell_length_a 10.983174
_cell_length_b 15.217651
_cell_length_c 9.555816
_cell_angle_alpha 90.000000
_cell_angle_beta 90.000000
_cell_angle_gamma 90.000000
_cell_volume 1597.141014
_symmetry_space_group_name_H-M "C M C 21"
_symmetry_group_IT_number 36
_symmetry_cell_setting 'orthorhombic'
loop_
_space_group_symop_operation_xyz
x,y,z
-x,-y,1/2+z
x,-y,1/2+z
-x,y,z
1/2+x,1/2+y,z
1/2-x,1/2-y,1/2+z
1/2+x,1/2-y,1/2+z
1/2-x,1/2+y,z
loop_
_atom_site_type_symbol
_atom_site_label
_atom_site_fract_x
_atom_site_fract_y
_atom_site_fract_z
Si Si1 0.141058 0.489251 0.857750
Si Si2 0.852938 0.604951 0.617593
Si Si3 0.500000 0.382751 0.896281
Si Si4 0.270908 0.269050 0.802621
Si Si5 0.256304 0.364865 0.536341
Si Si6 0.000000 0.970899 0.611029
O O1 0.196837 0.524860 0.714201
O O2 0.157963 0.575082 0.957008
O O3 0.000000 0.471507 0.831953
O O4 0.188789 0.412450 0.958903
O O5 0.816130 0.692240 0.696313
O O6 0.000000 0.600982 0.615881
O O7 0.386923 0.319956 0.863876
O O8 0.500000 0.460449 0.779209
O O9 0.500000 0.431603 0.045361
O O10 0.207218 0.331720 0.687068
O O11 0.211991 0.215144 0.929750
O O12 0.380641 0.418881 0.558289
#
# Coordination Sequence:
#
# PCOD9352389 Si02
#       6
#     8   8   4   8   8   4
#     4   9  19  34  56  83 113 147 193 241 294 353
#     4   9  17  33  56  81 111 145 186 239 290 350
#     4  10  22  42  66  86 124 168 206 254 304 370
#     4  10  21  38  60  86 119 161 199 248 308 350
#     4  10  23  39  58  88 123 156 204 252 298 367
#     4  10  24  42  60  90 126 162 210 248 306 376
#
# _framework density 25.044750000000001
#
# number of rings (size 3 to 8) (size 9 to 14) (size 15 to 20)
#    0.000    2.400    1.000    0.000    1.400   11.200 
#    1.800    0.000    0.000    0.000    0.000    0.000 
#    0.000    0.000    0.000    0.000    0.000    0.000 
#
# Total GULP energy -111790.117279 kJ/mol
# GULP energy per Si atom -5589.505864 kJ/mol
# Density = 2.498775 g / cm^3
# Si number density = 25.044750 Si / 1000 Ang^3
#
#
#
# Elastic Constant Matrix: (Units=GPa)
#
#
# Indices 1 2 3 4 5 6 
#
# 1 68.4523 21.3148 15.2557 0.0000 0.0000 0.0000
# 2 21.3148 90.8761 10.9535 0.0000 0.0000 0.0000
# 3 15.2557 10.9535 130.9937 0.0000 0.0000 0.0000
# 4 0.0000 0.0000 0.0000 58.0725 0.0000 0.0000
# 5 0.0000 0.0000 0.0000 0.0000 20.3707 0.0000
# 6 0.0000 0.0000 0.0000 0.0000 0.0000 15.8794
#
#
#
# Elastic Compliance Matrix: (Units=1/GPa)
#
#
# Indices 1 2 3 4 5 6 
#
# 1 0.016074 -0.003581 -0.001573 0.000000 0.000000 0.000000
# 2 -0.003581 0.011914 -0.000579 0.000000 0.000000 0.000000
# 3 -0.001573 -0.000579 0.007866 0.000000 0.000000 0.000000
# 4 0.000000 0.000000 0.000000 0.017220 0.000000 0.000000
# 5 0.000000 0.000000 0.000000 0.000000 0.049090 0.000000
# 6 0.000000 0.000000 0.000000 0.000000 0.000000 0.062975
#
#
# Mechanical properties :
#
#
# Convention : Reuss Voigt Hill
#
# Bulk Modulus (GPa) = 41.00297 42.81889 41.91093
# Shear Modulus (GPa) = 27.06619 35.05105 31.05862
#
# Velocity S-wave (km/s) = 3.29099 3.74510 3.52536
# Velocity P-wave (km/s) = 5.55412 5.98624 5.77422
#
# Compressibility (1/GPa) = 0.02438848
#
# Stress axis : x y z
#
# Youngs Moduli (GPa) = 62.21173 83.93745 127.13694
#
# Poissons Ratio (x) = 0.30055 0.19994
# Poissons Ratio (y) = 0.22276 0.07364
# Poissons Ratio (z) = 0.09784 0.04862
#
# Static dielectric constant tensor:
#      x y z
#    x 1.876050 0.000000 0.000000 
#    y 0.000000 2.121740 0.000000 
#    z 0.000000 0.000000 2.018850 
# 
# From -- ./inp_files/3093.got.cif
#   From: 2010.05.17/outbox.cif.g08.bks.cpg/sg36_2_cif.got.tgz:3093.got - 2010.06.03 17:41:39.
