data_PCOD9352060
_publ_section_title
;
Structure prediction by ZEFSAII (Michael W. Deem and Ramdas Pophale) SiO2 
 PCOD9352060
Probable space group: C M C 21
;
_chemical_formula_sum "Si O2"
_cell_formula_units_Z 60
_cell_length_a 14.669717
_cell_length_b 11.789706
_cell_length_c 14.814262
_cell_angle_alpha 90.000000
_cell_angle_beta 90.000000
_cell_angle_gamma 90.000000
_cell_volume 2562.151064
_symmetry_space_group_name_H-M "C M C 21"
_symmetry_group_IT_number 36
_symmetry_cell_setting 'orthorhombic'
loop_
_space_group_symop_operation_xyz
x,y,z
-x,-y,1/2+z
x,-y,1/2+z
-x,y,z
1/2+x,1/2+y,z
1/2-x,1/2-y,1/2+z
1/2+x,1/2-y,1/2+z
1/2-x,1/2+y,z
loop_
_atom_site_type_symbol
_atom_site_label
_atom_site_fract_x
_atom_site_fract_y
_atom_site_fract_z
Si Si1 0.904640 0.268532 0.069310
Si Si2 0.147820 0.412330 0.911329
Si Si3 0.397872 0.788434 0.740457
Si Si4 0.862436 0.109249 0.428201
Si Si5 0.245214 0.372011 0.611307
Si Si6 0.500000 0.585483 0.944543
Si Si7 0.394898 0.565567 0.632986
Si Si8 0.602934 0.851727 0.445464
O O1 0.811092 0.237620 0.116764
O O2 0.000000 0.277022 0.121983
O O3 0.889612 0.379976 0.009895
O O4 0.922557 0.163315 0.999179
O O5 0.111395 0.315140 0.845121
O O6 0.256418 0.410666 0.914297
O O7 0.112562 0.535783 0.885480
O O8 0.500000 0.814981 0.711358
O O9 0.326501 0.866722 0.690858
O O10 0.383226 0.658765 0.710277
O O11 0.921184 0.000074 0.402396
O O12 0.887954 0.124155 0.534758
O O13 0.885220 0.234032 0.391604
O O14 0.314942 0.474501 0.628186
O O15 0.184859 0.365495 0.519574
O O16 0.500000 0.519393 0.637084
O O17 0.500000 0.851255 0.484467
#
# Coordination Sequence:
#
# PCOD9352060 Si02
#       8
#     8   8   8   8   8   4   8   8
#     4  10  20  38  68  93 128 160 212 279 320 370
#     4  12  25  42  61  99 134 174 216 270 333 395
#     4  11  26  44  62  88 134 178 216 259 336 408
#     4  12  20  39  68  95 128 164 223 268 322 388
#     4  12  21  39  65  98 119 165 221 272 320 376
#     4  10  20  38  68 100 124 160 214 280 320 382
#     4  11  20  41  67  94 124 165 220 278 322 389
#     4  12  23  37  65  96 131 169 215 267 321 389
#
# _framework density 23.417822999999999
#
# number of rings (size 3 to 8) (size 9 to 14) (size 15 to 20)
#    0.400    0.267    6.667    2.000    0.000    1.067 
#    0.000    0.000    1.467    0.000    0.000    0.000 
#    0.000    0.000    0.000    0.000    0.000    0.000 
#
# Total GULP energy -167063.895142 kJ/mol
# GULP energy per Si atom -5568.796505 kJ/mol
# Density = 2.336452 g / cm^3
# Si number density = 23.417823 Si / 1000 Ang^3
#
#
#
# Elastic Constant Matrix: (Units=GPa)
#
#
# Indices 1 2 3 4 5 6 
#
# 1 184.5794 28.6594 -2.6345 0.0000 0.0000 0.0000
# 2 28.6594 68.6675 -13.9612 0.0000 0.0000 0.0000
# 3 -2.6345 -13.9612 17.1304 0.0000 0.0000 0.0000
# 4 0.0000 0.0000 0.0000 22.1958 0.0000 0.0000
# 5 0.0000 0.0000 0.0000 0.0000 4.8557 0.0000
# 6 0.0000 0.0000 0.0000 0.0000 0.0000 11.3867
#
#
#
# Elastic Compliance Matrix: (Units=1/GPa)
#
#
# Indices 1 2 3 4 5 6 
#
# 1 0.005817 -0.002692 -0.001299 0.000000 0.000000 0.000000
# 2 -0.002692 0.018701 0.014827 0.000000 0.000000 0.000000
# 3 -0.001299 0.014827 0.070260 0.000000 0.000000 0.000000
# 4 0.000000 0.000000 0.000000 0.045054 0.000000 0.000000
# 5 0.000000 0.000000 0.000000 0.000000 0.205942 0.000000
# 6 0.000000 0.000000 0.000000 0.000000 0.000000 0.087822
#
#
# Mechanical properties :
#
#
# Convention : Reuss Voigt Hill
#
# Bulk Modulus (GPa) = 8.58736 32.72276 20.65506
# Shear Modulus (GPa) = 11.09283 24.90854 18.00069
#
# Velocity S-wave (km/s) = 2.17881 3.26491 2.77551
# Velocity P-wave (km/s) = 3.16300 5.31194 4.37157
#
# Compressibility (1/GPa) = 0.11645027
#
# Stress axis : x y z
#
# Youngs Moduli (GPa) = 171.90484 53.47260 14.23281
#
# Poissons Ratio (x) = 0.14395 0.01849
# Poissons Ratio (y) = 0.46278 -0.21104
# Poissons Ratio (z) = 0.22338 -0.79286
#
# Static dielectric constant tensor:
#      x y z
#    x 1.856380 0.000000 0.000000 
#    y 0.000000 1.988020 0.000000 
#    z 0.000000 0.000000 1.924640 
# 
# From -- ./inp_files/14688.got.cif
#   From: 2010.05.17/outbox.cif.g08.bks.cpg/sg36_8_cif.got.tgz:14688.got - 2010.06.03 17:41:39.
