data_PCOD9352148
_publ_section_title
;
Structure prediction by ZEFSAII (Michael W. Deem and Ramdas Pophale) SiO2 
 PCOD9352148
Probable space group: C M C 21
;
_chemical_formula_sum "Si O2"
_cell_formula_units_Z 56
_cell_length_a 16.238294
_cell_length_b 13.502149
_cell_length_c 11.540340
_cell_angle_alpha 90.000000
_cell_angle_beta 90.000000
_cell_angle_gamma 90.000000
_cell_volume 2530.241069
_symmetry_space_group_name_H-M "C M C 21"
_symmetry_group_IT_number 36
_symmetry_cell_setting 'orthorhombic'
loop_
_space_group_symop_operation_xyz
x,y,z
-x,-y,1/2+z
x,-y,1/2+z
-x,y,z
1/2+x,1/2+y,z
1/2-x,1/2-y,1/2+z
1/2+x,1/2-y,1/2+z
1/2-x,1/2+y,z
loop_
_atom_site_type_symbol
_atom_site_label
_atom_site_fract_x
_atom_site_fract_y
_atom_site_fract_z
Si Si1 0.720888 0.522772 0.781940
Si Si2 0.910386 0.262169 0.133069
Si Si3 0.854324 0.824366 0.870213
Si Si4 0.701647 0.707606 0.934598
Si Si5 0.090848 0.895947 0.107724
Si Si6 0.908686 0.693226 0.246500
Si Si7 0.906680 0.527311 0.714695
O O1 0.699450 0.411258 0.812821
O O2 0.689849 0.600182 0.878565
O O3 0.668894 0.548657 0.665203
O O4 0.819025 0.540585 0.777933
O O5 0.901853 0.230727 0.267140
O O6 0.905077 0.381692 0.124875
O O7 0.000000 0.229602 0.090129
O O8 0.837547 0.215132 0.060202
O O9 0.794866 0.744457 0.930466
O O10 0.903769 0.880085 0.970688
O O11 0.653299 0.783571 0.850034
O O12 0.095489 0.785808 0.161231
O O13 0.000000 0.938392 0.139267
O O14 0.899768 0.588424 0.181280
O O15 0.000000 0.692235 0.299220
O O16 0.000000 0.536862 0.768533
#
# Coordination Sequence:
#
# PCOD9352148 Si02
#       7
#     8   8   8   8   8   8   8
#     4  11  24  44  69 102 130 181 228 275 344 411
#     4  11  25  45  67 100 138 174 228 289 343 403
#     4  12  25  42  69 100 137 180 228 283 340 407
#     4  11  23  42  67  96 134 179 221 282 343 407
#     4  10  24  45  68  97 138 180 229 282 337 405
#     4   9  19  41  69  96 129 173 223 274 338 407
#     4  10  20  41  69  99 132 167 218 277 338 402
#
# _framework density 22.132277999999999
#
# number of rings (size 3 to 8) (size 9 to 14) (size 15 to 20)
#    0.000    1.429    2.857    1.714    4.000    1.714 
#    5.143    0.000    0.000    0.000    0.000    0.000 
#    0.000    0.000    0.000    0.000    0.000    0.000 
#
# Total GULP energy -156158.755678 kJ/mol
# GULP energy per Si atom -5577.098417 kJ/mol
# Density = 2.208190 g / cm^3
# Si number density = 22.132278 Si / 1000 Ang^3
#
#
#
# Elastic Constant Matrix: (Units=GPa)
#
#
# Indices 1 2 3 4 5 6 
#
# 1 107.4528 17.9567 28.0225 0.0000 0.0000 0.0000
# 2 17.9567 64.5350 -1.8854 0.0000 0.0000 0.0000
# 3 28.0225 -1.8854 65.0036 0.0000 0.0000 0.0000
# 4 0.0000 0.0000 0.0000 10.2028 0.0000 0.0000
# 5 0.0000 0.0000 0.0000 0.0000 25.1117 0.0000
# 6 0.0000 0.0000 0.0000 0.0000 0.0000 24.8281
#
#
#
# Elastic Compliance Matrix: (Units=1/GPa)
#
#
# Indices 1 2 3 4 5 6 
#
# 1 0.011122 -0.003238 -0.004889 0.000000 0.000000 0.000000
# 2 -0.003238 0.016451 0.001873 0.000000 0.000000 0.000000
# 3 -0.004889 0.001873 0.017546 0.000000 0.000000 0.000000
# 4 0.000000 0.000000 0.000000 0.098013 0.000000 0.000000
# 5 0.000000 0.000000 0.000000 0.000000 0.039822 0.000000
# 6 0.000000 0.000000 0.000000 0.000000 0.000000 0.040277
#
#
# Mechanical properties :
#
#
# Convention : Reuss Voigt Hill
#
# Bulk Modulus (GPa) = 30.66341 36.13099 33.39720
# Shear Modulus (GPa) = 20.27508 24.88835 22.58171
#
# Velocity S-wave (km/s) = 3.02998 3.35704 3.19769
# Velocity P-wave (km/s) = 5.11133 5.60238 5.36248
#
# Compressibility (1/GPa) = 0.03261216
#
# Stress axis : x y z
#
# Youngs Moduli (GPa) = 89.90892 60.78641 56.99452
#
# Poissons Ratio (x) = 0.19680 0.27863
# Poissons Ratio (y) = 0.29109 -0.10674
# Poissons Ratio (z) = 0.43954 -0.11384
#
# Static dielectric constant tensor:
#      x y z
#    x 1.869880 0.000000 0.000000 
#    y 0.000000 1.793810 0.000000 
#    z 0.000000 0.000000 1.804390 
# 
# From -- ./inp_files/8492.got.cif
#   From: 2010.05.17/outbox.cif.g08.bks.cpg/sg36_5_cif.got.tgz:8492.got - 2010.06.03 17:41:39.
