data_PCOD9352399
_publ_section_title
;
Structure prediction by ZEFSAII (Michael W. Deem and Ramdas Pophale) SiO2 
 PCOD9352399
Probable space group: C M C 21
;
_chemical_formula_sum "Si O2"
_cell_formula_units_Z 64
_cell_length_a 17.264021
_cell_length_b 31.754293
_cell_length_c 5.378085
_cell_angle_alpha 90.000000
_cell_angle_beta 90.000000
_cell_angle_gamma 90.000000
_cell_volume 2948.302667
_symmetry_space_group_name_H-M "C M C 21"
_symmetry_group_IT_number 36
_symmetry_cell_setting 'orthorhombic'
loop_
_space_group_symop_operation_xyz
x,y,z
-x,-y,1/2+z
x,-y,1/2+z
-x,y,z
1/2+x,1/2+y,z
1/2-x,1/2-y,1/2+z
1/2+x,1/2-y,1/2+z
1/2-x,1/2+y,z
loop_
_atom_site_type_symbol
_atom_site_label
_atom_site_fract_x
_atom_site_fract_y
_atom_site_fract_z
Si Si1 0.303112 0.389759 0.774860
Si Si2 0.855158 0.386238 0.535801
Si Si3 0.628719 0.725986 0.601676
Si Si4 0.822700 0.980660 0.591776
Si Si5 0.732599 0.170877 0.640738
Si Si6 0.135807 0.479453 0.507495
Si Si7 0.913908 0.821097 0.595085
Si Si8 0.915721 0.312528 0.800653
O O1 0.212023 0.397805 0.731188
O O2 0.338037 0.435428 0.720167
O O3 0.349115 0.357374 0.599019
O O4 0.295488 0.362507 0.026546
O O5 0.808015 0.354983 0.357441
O O6 0.880688 0.431064 0.433080
O O7 0.917978 0.357108 0.661291
O O8 0.717810 0.713607 0.664962
O O9 0.606333 0.708653 0.330358
O O10 0.605190 0.774455 0.616683
O O11 0.587240 0.703393 0.835083
O O12 0.729568 0.984907 0.541510
O O13 0.851389 0.987209 0.307680
O O14 0.659455 0.183584 0.472406
O O15 0.106494 0.508308 0.281480
O O16 0.000000 0.838658 0.637048
O O17 0.000000 0.304405 0.918589
#
# Coordination Sequence:
#
# PCOD9352399 Si02
#       8
#     8   8   8   8   8   8   8   8
#     4   9  20  35  55  86 120 157 207 255 313 377
#     4  10  21  38  61  88 124 163 205 260 316 376
#     4  11  25  43  65  93 125 167 217 263 311 374
#     4   9  18  28  49  81 117 152 195 253 311 365
#     4  10  23  38  64  89 126 167 209 262 317 376
#     4   9  19  32  57  88 119 153 199 257 312 366
#     4  11  22  40  63  89 123 165 212 268 316 369
#     4  11  26  42  62  94 130 170 212 262 316 379
#
# _framework density 21.707405000000001
#
# number of rings (size 3 to 8) (size 9 to 14) (size 15 to 20)
#    0.000    2.000    1.250    1.125   14.000    0.500 
#    0.000    0.000    0.000    1.500    0.000    0.000 
#    0.000    0.000    0.000    0.000    0.000    0.000 
#
# Total GULP energy -178137.098229 kJ/mol
# GULP energy per Si atom -5566.784320 kJ/mol
# Density = 2.165800 g / cm^3
# Si number density = 21.707405 Si / 1000 Ang^3
#
#
#
# Elastic Constant Matrix: (Units=GPa)
#
#
# Indices 1 2 3 4 5 6 
#
# 1 81.1875 30.2292 16.4699 0.0000 0.0000 0.0000
# 2 30.2292 53.5112 2.4012 0.0000 0.0000 0.0000
# 3 16.4699 2.4012 74.6831 0.0000 0.0000 0.0000
# 4 0.0000 0.0000 0.0000 13.5792 0.0000 0.0000
# 5 0.0000 0.0000 0.0000 0.0000 -14.8263 0.0000
# 6 0.0000 0.0000 0.0000 0.0000 0.0000 -66.6464
#
#
#
# Elastic Compliance Matrix: (Units=1/GPa)
#
#
# Indices 1 2 3 4 5 6 
#
# 1 0.016381 -0.009105 -0.003320 0.000000 0.000000 0.000000
# 2 -0.009105 0.023775 0.001243 0.000000 0.000000 0.000000
# 3 -0.003320 0.001243 0.014082 0.000000 0.000000 0.000000
# 4 0.000000 0.000000 0.000000 0.073642 0.000000 0.000000
# 5 0.000000 0.000000 0.000000 0.000000 -0.067448 0.000000
# 6 0.000000 0.000000 0.000000 0.000000 0.000000 -0.015005
#
#
# Mechanical properties :
#
#
# Convention : Reuss Voigt Hill
#
# Bulk Modulus (GPa) = 31.37155 34.17582 32.77368
# Shear Modulus (GPa) = 63.76342 -2.89327 30.43508
#
# Velocity S-wave (km/s) = 5.42566 -1.15574 3.74847
# Velocity P-wave (km/s) = 7.33033 3.74126 5.81940
#
# Compressibility (1/GPa) = 0.03187602
#
# Stress axis : x y z
#
# Youngs Moduli (GPa) = 61.04782 42.06064 71.01253
#
# Poissons Ratio (x) = 0.38295 0.23574
# Poissons Ratio (y) = 0.55582 -0.08830
# Poissons Ratio (z) = 0.20266 -0.05230
#
# Static dielectric constant tensor:
#      x y z
#    x 1.804050 0.000000 0.000000 
#    y 0.000000 1.870190 0.000000 
#    z 0.000000 0.000000 1.871340 
# 
# From -- ./inp_files/1236.got.cif
#   From: 2010.05.17/outbox.cif.g08.bks.cpg/sg36_1_cif.got.tgz:1236.got - 2010.06.03 17:41:39.
