data_PCOD9352642
_publ_section_title
;
Structure prediction by ZEFSAII (Michael W. Deem and Ramdas Pophale) SiO2 
 PCOD9352642
Probable space group: C M C 21
;
_chemical_formula_sum "Si O2"
_cell_formula_units_Z 56
_cell_length_a 25.210550
_cell_length_b 13.576938
_cell_length_c 9.534660
_cell_angle_alpha 90.000000
_cell_angle_beta 90.000000
_cell_angle_gamma 90.000000
_cell_volume 3263.543203
_symmetry_space_group_name_H-M "C M C 21"
_symmetry_group_IT_number 36
_symmetry_cell_setting 'orthorhombic'
loop_
_space_group_symop_operation_xyz
x,y,z
-x,-y,1/2+z
x,-y,1/2+z
-x,y,z
1/2+x,1/2+y,z
1/2-x,1/2-y,1/2+z
1/2+x,1/2-y,1/2+z
1/2-x,1/2+y,z
loop_
_atom_site_type_symbol
_atom_site_label
_atom_site_fract_x
_atom_site_fract_y
_atom_site_fract_z
Si Si1 0.887545 0.278424 0.578340
Si Si2 0.201695 0.693664 0.589682
Si Si3 0.000000 0.544165 0.815093
Si Si4 0.000000 0.363642 0.621678
Si Si5 0.793738 0.089632 0.224347
Si Si6 0.381524 0.101092 0.800516
Si Si7 0.825581 0.401707 0.806100
Si Si8 0.182828 0.098538 0.550367
O O1 0.948602 0.296049 0.612110
O O2 0.877647 0.317695 0.421550
O O3 0.855976 0.350649 0.680434
O O4 0.864669 0.169907 0.594441
O O5 0.202498 0.804374 0.648891
O O6 0.158429 0.633048 0.678600
O O7 0.184614 0.677110 0.428892
O O8 0.261397 0.650210 0.595450
O O9 0.056236 0.589022 0.762431
O O10 0.000000 0.432610 0.758617
O O11 0.000000 0.564745 0.983161
O O12 0.731755 0.065319 0.250177
O O13 0.817249 0.090671 0.381368
O O14 0.818431 0.006307 0.125922
O O15 0.359558 0.995892 0.855492
#
# Coordination Sequence:
#
# PCOD9352642 Si02
#       8
#     8   8   4   4   8   8   8   8
#     4  11  22  38  58  85 118 157 193 240 293 353
#     4  11  23  37  57  88 121 154 191 240 293 353
#     4  10  22  34  58  85 117 155 189 238 294 356
#     4  10  22  38  60  85 119 153 199 238 298 348
#     4  11  24  38  57  86 119 156 193 240 292 353
#     4  11  21  39  56  87 120 157 192 236 294 351
#     4  11  22  33  59  87 121 154 186 237 289 359
#     4  11  24  38  60  84 119 156 197 240 295 348
#
# _framework density 17.159262999999999
#
# number of rings (size 3 to 8) (size 9 to 14) (size 15 to 20)
#    0.000    1.143    5.714    0.857    6.000    0.000 
#    0.000    0.000    0.000    1.714    0.000    0.000 
#    0.000    0.000    0.000    0.000    0.000    0.000 
#
# Total GULP energy -156267.897227 kJ/mol
# GULP energy per Si atom -5580.996330 kJ/mol
# Density = 1.712021 g / cm^3
# Si number density = 17.159263 Si / 1000 Ang^3
#
#
#
# Elastic Constant Matrix: (Units=GPa)
#
#
# Indices 1 2 3 4 5 6 
#
# 1 90.1625 28.5708 35.4581 0.0000 0.0000 0.0000
# 2 28.5708 106.7288 37.3617 0.0000 0.0000 0.0000
# 3 35.4581 37.3617 52.3833 0.0000 0.0000 0.0000
# 4 0.0000 0.0000 0.0000 25.4972 0.0000 0.0000
# 5 0.0000 0.0000 0.0000 0.0000 20.5339 0.0000
# 6 0.0000 0.0000 0.0000 0.0000 0.0000 5.3499
#
#
#
# Elastic Compliance Matrix: (Units=1/GPa)
#
#
# Indices 1 2 3 4 5 6 
#
# 1 0.015145 -0.000620 -0.009809 0.000000 0.000000 0.000000
# 2 -0.000620 0.012513 -0.008505 0.000000 0.000000 0.000000
# 3 -0.009809 -0.008505 0.031796 0.000000 0.000000 0.000000
# 4 0.000000 0.000000 0.000000 0.039220 0.000000 0.000000
# 5 0.000000 0.000000 0.000000 0.000000 0.048700 0.000000
# 6 0.000000 0.000000 0.000000 0.000000 0.000000 0.186919
#
#
# Mechanical properties :
#
#
# Convention : Reuss Voigt Hill
#
# Bulk Modulus (GPa) = 46.32814 50.22843 48.27828
# Shear Modulus (GPa) = 13.18020 20.13512 16.65766
#
# Velocity S-wave (km/s) = 2.77449 3.42925 3.11909
# Velocity P-wave (km/s) = 6.10911 6.70933 6.41624
#
# Compressibility (1/GPa) = 0.02158515
#
# Stress axis : x y z
#
# Youngs Moduli (GPa) = 66.02657 79.91835 31.45071
#
# Poissons Ratio (x) = 0.04959 0.30851
# Poissons Ratio (y) = 0.04097 0.26747
# Poissons Ratio (z) = 0.64768 0.67967
#
# Static dielectric constant tensor:
#      x y z
#    x 1.462970 0.000000 0.000000 
#    y 0.000000 1.565080 0.000000 
#    z 0.000000 0.000000 1.581220 
# 
# From -- ./inp_files/5797.got.cif
#   From: 2010.05.17/outbox.cif.g08.bks.cpg/sg36_3_cif.got.tgz:5797.got - 2010.06.03 17:41:39.
