data_PCOD9352232
_publ_section_title
;
Structure prediction by ZEFSAII (Michael W. Deem and Ramdas Pophale) SiO2 
 PCOD9352232
Probable space group: C M C 21
;
_chemical_formula_sum "Si O2"
_cell_formula_units_Z 64
_cell_length_a 7.441833
_cell_length_b 14.558896
_cell_length_c 25.817590
_cell_angle_alpha 90.000000
_cell_angle_beta 90.000000
_cell_angle_gamma 90.000000
_cell_volume 2797.203502
_symmetry_space_group_name_H-M "C M C 21"
_symmetry_group_IT_number 36
_symmetry_cell_setting 'orthorhombic'
loop_
_space_group_symop_operation_xyz
x,y,z
-x,-y,1/2+z
x,-y,1/2+z
-x,y,z
1/2+x,1/2+y,z
1/2-x,1/2-y,1/2+z
1/2+x,1/2-y,1/2+z
1/2-x,1/2+y,z
loop_
_atom_site_type_symbol
_atom_site_label
_atom_site_fract_x
_atom_site_fract_y
_atom_site_fract_z
Si Si1 0.217619 0.857067 0.070360
Si Si2 0.282500 0.576076 0.350629
Si Si3 0.792192 0.636317 0.866394
Si Si4 0.713623 0.918487 0.473926
Si Si5 0.203611 0.869386 0.959152
Si Si6 0.284334 0.564348 0.087362
Si Si7 0.212553 0.784754 0.661464
Si Si8 0.280866 0.732720 0.276382
O O1 0.265580 0.791004 0.117074
O O2 0.000000 0.858952 0.066462
O O3 0.281469 0.960109 0.083467
O O4 0.284914 0.831892 0.012498
O O5 0.500000 0.572100 0.354395
O O6 0.216288 0.472022 0.352975
O O7 0.217955 0.632668 0.401472
O O8 0.235901 0.632929 0.299743
O O9 0.719672 0.641695 0.925383
O O10 0.714318 0.693929 0.818853
O O11 0.000000 0.665312 0.869911
O O12 0.500000 0.931140 0.466787
O O13 0.742715 0.886987 0.532507
O O14 0.800148 0.019800 0.469361
O O15 0.000000 0.833002 0.955725
O O16 0.500000 0.560386 0.091173
O O17 0.213808 0.622283 0.135570
O O18 0.284750 0.757481 0.717688
O O19 0.000000 0.799246 0.668849
O O20 0.500000 0.740445 0.275398
#
# Coordination Sequence:
#
# PCOD9352232 Si02
#       8
#     8   8   8   8   8   8   8   8
#     4   9  18  33  52  74 101 129 158 200 250 293
#     4   9  17  32  55  77  97 128 167 201 239 294
#     4   9  18  33  52  75 103 130 157 199 252 295
#     4   9  16  27  49  78 102 125 158 199 244 296
#     4   8  15  29  50  75 102 129 158 196 245 298
#     4   9  19  35  52  71 100 134 163 198 246 294
#     4  10  21  36  52  71  97 132 173 208 239 285
#     4   9  19  35  52  71  98 133 170 203 241 293
#
# _framework density 22.879992999999999
#
# number of rings (size 3 to 8) (size 9 to 14) (size 15 to 20)
#    0.000    3.000    0.000    1.125    0.000    5.000 
#    0.000    5.625    0.000    0.000    0.000    0.000 
#    0.000    0.000    0.000    0.000    0.000    0.000 
#
# Total GULP energy -178563.273707 kJ/mol
# GULP energy per Si atom -5580.102303 kJ/mol
# Density = 2.282792 g / cm^3
# Si number density = 22.879993 Si / 1000 Ang^3
#
#
#
# Elastic Constant Matrix: (Units=GPa)
#
#
# Indices 1 2 3 4 5 6 
#
# 1 77.1164 -4.4482 1.8254 0.0000 0.0000 0.0000
# 2 -4.4482 55.4535 31.7189 0.0000 0.0000 0.0000
# 3 1.8254 31.7189 160.2986 0.0000 0.0000 0.0000
# 4 0.0000 0.0000 0.0000 31.5615 0.0000 0.0000
# 5 0.0000 0.0000 0.0000 0.0000 13.0739 0.0000
# 6 0.0000 0.0000 0.0000 0.0000 0.0000 -7.8784
#
#
#
# Elastic Compliance Matrix: (Units=1/GPa)
#
#
# Indices 1 2 3 4 5 6 
#
# 1 0.013051 0.001276 -0.000401 0.000000 0.000000 0.000000
# 2 0.001276 0.020459 -0.004063 0.000000 0.000000 0.000000
# 3 -0.000401 -0.004063 0.007047 0.000000 0.000000 0.000000
# 4 0.000000 0.000000 0.000000 0.031684 0.000000 0.000000
# 5 0.000000 0.000000 0.000000 0.000000 0.076488 0.000000
# 6 0.000000 0.000000 0.000000 0.000000 0.000000 -0.126930
#
#
# Mechanical properties :
#
#
# Convention : Reuss Voigt Hill
#
# Bulk Modulus (GPa) = 29.25576 39.00675 34.13126
# Shear Modulus (GPa) = 126.36320 24.93623 75.64972
#
# Velocity S-wave (km/s) = 7.43966 3.30490 5.75634
# Velocity P-wave (km/s) = 9.30658 5.62571 7.68964
#
# Compressibility (1/GPa) = 0.03418130
#
# Stress axis : x y z
#
# Youngs Moduli (GPa) = 76.62523 48.87710 141.90684
#
# Poissons Ratio (x) = -0.06238 0.05693
# Poissons Ratio (y) = -0.09780 0.57656
# Poissons Ratio (z) = 0.03074 0.19858
#
# Static dielectric constant tensor:
#      x y z
#    x 1.921040 0.000000 0.000000 
#    y 0.000000 1.852390 0.000000 
#    z 0.000000 0.000000 1.875760 
# 
# From -- ./inp_files/16628.got.cif
#   From: 2010.05.17/outbox.cif.g08.bks.cpg/sg36_9_cif.got.tgz:16628.got - 2010.06.03 17:41:39.
