data_PCOD9352769
_publ_section_title
;
Structure prediction by ZEFSAII (Michael W. Deem and Ramdas Pophale) SiO2 
 PCOD9352769
Probable space group: C M C 21
;
_chemical_formula_sum "Si O2"
_cell_formula_units_Z 48
_cell_length_a 14.301453
_cell_length_b 11.552276
_cell_length_c 13.688506
_cell_angle_alpha 90.000000
_cell_angle_beta 90.000000
_cell_angle_gamma 90.000000
_cell_volume 2261.537378
_symmetry_space_group_name_H-M "C M C 21"
_symmetry_group_IT_number 36
_symmetry_cell_setting 'orthorhombic'
loop_
_space_group_symop_operation_xyz
x,y,z
-x,-y,1/2+z
x,-y,1/2+z
-x,y,z
1/2+x,1/2+y,z
1/2-x,1/2-y,1/2+z
1/2+x,1/2-y,1/2+z
1/2-x,1/2+y,z
loop_
_atom_site_type_symbol
_atom_site_label
_atom_site_fract_x
_atom_site_fract_y
_atom_site_fract_z
Si Si1 0.207794 0.174990 0.383400
Si Si2 0.891162 0.066778 0.899031
Si Si3 0.103785 0.705068 0.484623
Si Si4 0.896230 0.470466 0.161682
Si Si5 0.110533 0.279642 0.560084
Si Si6 0.769124 0.165920 0.727662
O O1 0.313649 0.156685 0.419134
O O2 0.155876 0.268727 0.452892
O O3 0.213449 0.225135 0.274294
O O4 0.155909 0.056471 0.404344
O O5 0.878738 0.156552 0.989013
O O6 0.846679 0.132546 0.807188
O O7 0.000000 0.048984 0.884802
O O8 0.103897 0.636243 0.585076
O O9 0.000000 0.690887 0.440614
O O10 0.885521 0.590838 0.103852
O O11 0.804356 0.439700 0.222567
O O12 0.000000 0.472661 0.209435
O O13 0.176121 0.199861 0.629378
O O14 0.000000 0.245910 0.559372
#
# Coordination Sequence:
#
# PCOD9352769 Si02
#       6
#     8   8   8   8   8   8
#     4  11  23  39  68  95 126 165 215 266 317 374
#     4  10  22  41  61  91 127 162 210 258 317 383
#     4   9  20  38  62  87 117 162 205 250 310 376
#     4  10  22  41  63  91 124 161 212 262 314 378
#     4  11  24  43  65  93 129 168 212 263 322 382
#     4  11  23  40  65  93 127 170 212 263 320 377
#
# _framework density 21.224499999999999
#
# number of rings (size 3 to 8) (size 9 to 14) (size 15 to 20)
#    0.000    1.667    1.667    2.000    4.667    2.000 
#    3.000    0.833    0.000    0.000    0.000    0.000 
#    0.000    0.000    0.000    0.000    0.000    0.000 
#
# Total GULP energy -133919.833911 kJ/mol
# GULP energy per Si atom -5579.993080 kJ/mol
# Density = 2.117619 g / cm^3
# Si number density = 21.224500 Si / 1000 Ang^3
#
#
#
# Elastic Constant Matrix: (Units=GPa)
#
#
# Indices 1 2 3 4 5 6 
#
# 1 130.6981 34.2014 9.1585 0.0000 0.0000 0.0000
# 2 34.2014 71.0114 -10.8832 0.0000 0.0000 0.0000
# 3 9.1585 -10.8832 30.8834 0.0000 0.0000 0.0000
# 4 0.0000 0.0000 0.0000 26.2430 0.0000 0.0000
# 5 0.0000 0.0000 0.0000 0.0000 18.9007 0.0000
# 6 0.0000 0.0000 0.0000 0.0000 0.0000 38.0537
#
#
#
# Elastic Compliance Matrix: (Units=1/GPa)
#
#
# Indices 1 2 3 4 5 6 
#
# 1 0.009335 -0.005201 -0.004601 0.000000 0.000000 0.000000
# 2 -0.005201 0.017784 0.007809 0.000000 0.000000 0.000000
# 3 -0.004601 0.007809 0.036496 0.000000 0.000000 0.000000
# 4 0.000000 0.000000 0.000000 0.038105 0.000000 0.000000
# 5 0.000000 0.000000 0.000000 0.000000 0.052908 0.000000
# 6 0.000000 0.000000 0.000000 0.000000 0.000000 0.026279
#
#
# Mechanical properties :
#
#
# Convention : Reuss Voigt Hill
#
# Bulk Modulus (GPa) = 16.77012 33.06069 24.91541
# Shear Modulus (GPa) = 24.41774 29.98056 27.19915
#
# Velocity S-wave (km/s) = 3.39551 3.76246 3.58369
# Velocity P-wave (km/s) = 4.82609 5.87242 5.37477
#
# Compressibility (1/GPa) = 0.05962987
#
# Stress axis : x y z
#
# Youngs Moduli (GPa) = 107.12770 56.22997 27.40002
#
# Poissons Ratio (x) = 0.29245 0.12607
# Poissons Ratio (y) = 0.55717 -0.21398
# Poissons Ratio (z) = 0.49290 -0.43913
#
# Static dielectric constant tensor:
#      x y z
#    x 1.791190 0.000000 0.000000 
#    y 0.000000 1.791090 0.000000 
#    z 0.000000 0.000000 1.775950 
# 
# From -- ./inp_files/12096.got.cif
#   From: 2010.05.17/outbox.cif.g08.bks.cpg/sg36_7_cif.got.tgz:12096.got - 2010.06.03 17:41:39.
