data_PCOD9352380
_publ_section_title
;
Structure prediction by ZEFSAII (Michael W. Deem and Ramdas Pophale) SiO2 
 PCOD9352380
Probable space group: C M C 21
;
_chemical_formula_sum "Si O2"
_cell_formula_units_Z 48
_cell_length_a 7.712802
_cell_length_b 16.789407
_cell_length_c 14.753332
_cell_angle_alpha 90.000000
_cell_angle_beta 90.000000
_cell_angle_gamma 90.000000
_cell_volume 1910.458707
_symmetry_space_group_name_H-M "C M C 21"
_symmetry_group_IT_number 36
_symmetry_cell_setting 'orthorhombic'
loop_
_space_group_symop_operation_xyz
x,y,z
-x,-y,1/2+z
x,-y,1/2+z
-x,y,z
1/2+x,1/2+y,z
1/2-x,1/2-y,1/2+z
1/2+x,1/2-y,1/2+z
1/2-x,1/2+y,z
loop_
_atom_site_type_symbol
_atom_site_label
_atom_site_fract_x
_atom_site_fract_y
_atom_site_fract_z
Si Si1 0.800957 0.061705 0.169280
Si Si2 0.698732 0.195307 0.933556
Si Si3 0.800180 0.717978 0.270915
Si Si4 0.289315 0.537308 0.504065
Si Si5 0.787358 0.202754 0.593434
Si Si6 0.797963 0.455454 0.326739
O O1 0.709269 0.133197 0.221380
O O2 0.000000 0.085458 0.158793
O O3 0.792605 0.985444 0.236120
O O4 0.732432 0.033549 0.072029
O O5 0.500000 0.172259 0.951277
O O6 0.700934 0.270096 0.864405
O O7 0.777631 0.122356 0.877148
O O8 0.774536 0.226196 0.027495
O O9 0.732142 0.780316 0.195652
O O10 0.000000 0.734529 0.291539
O O11 0.500000 0.536576 0.500813
O O12 0.233688 0.619687 0.549952
O O13 0.219200 0.522992 0.404081
O O14 0.000000 0.204624 0.593532
O O15 0.000000 0.442740 0.305254
#
# Coordination Sequence:
#
# PCOD9352380 Si02
#       6
#     8   8   8   8   8   8
#     4  11  23  39  59  85 119 158 198 240 292 351
#     4  10  21  38  59  84 117 154 189 233 291 348
#     4  11  22  38  61  87 115 150 195 243 291 346
#     4  10  21  38  61  86 115 156 200 241 290 350
#     4   9  19  37  59  82 112 150 188 231 287 344
#     4  11  23  38  59  88 120 156 198 244 293 345
#
# _framework density 25.124855
#
# number of rings (size 3 to 8) (size 9 to 14) (size 15 to 20)
#    0.000    1.667    0.000    4.500    0.000    6.667 
#    0.000    3.333    0.000    0.000    0.000    0.000 
#    0.000    0.000    0.000    0.000    0.000    0.000 
#
# Total GULP energy -134369.996205 kJ/mol
# GULP energy per Si atom -5598.749842 kJ/mol
# Density = 2.506767 g / cm^3
# Si number density = 25.124855 Si / 1000 Ang^3
#
#
#
# Elastic Constant Matrix: (Units=GPa)
#
#
# Indices 1 2 3 4 5 6 
#
# 1 67.8527 3.8824 0.9802 0.0000 0.0000 0.0000
# 2 3.8824 68.7113 -11.3386 0.0000 0.0000 0.0000
# 3 0.9802 -11.3386 106.7258 0.0000 0.0000 0.0000
# 4 0.0000 0.0000 0.0000 48.6862 0.0000 0.0000
# 5 0.0000 0.0000 0.0000 0.0000 15.5523 0.0000
# 6 0.0000 0.0000 0.0000 0.0000 0.0000 22.4236
#
#
#
# Elastic Compliance Matrix: (Units=1/GPa)
#
#
# Indices 1 2 3 4 5 6 
#
# 1 0.014791 -0.000873 -0.000229 0.000000 0.000000 0.000000
# 2 -0.000873 0.014865 0.001587 0.000000 0.000000 0.000000
# 3 -0.000229 0.001587 0.009541 0.000000 0.000000 0.000000
# 4 0.000000 0.000000 0.000000 0.020540 0.000000 0.000000
# 5 0.000000 0.000000 0.000000 0.000000 0.064299 0.000000
# 6 0.000000 0.000000 0.000000 0.000000 0.000000 0.044596
#
#
# Mechanical properties :
#
#
# Convention : Reuss Voigt Hill
#
# Bulk Modulus (GPa) = 24.89613 25.59309 25.24461
# Shear Modulus (GPa) = 27.61669 33.98346 30.80007
#
# Velocity S-wave (km/s) = 3.31898 3.68174 3.50506
# Velocity P-wave (km/s) = 4.96165 5.31809 5.14296
#
# Compressibility (1/GPa) = 0.04016689
#
# Stress axis : x y z
#
# Youngs Moduli (GPa) = 67.60826 67.27244 104.81587
#
# Poissons Ratio (x) = 0.05876 0.02397
# Poissons Ratio (y) = 0.05905 -0.16637
# Poissons Ratio (z) = 0.01546 -0.10678
#
# Static dielectric constant tensor:
#      x y z
#    x 1.899410 0.000000 0.000000 
#    y 0.000000 2.066890 0.000000 
#    z 0.000000 0.000000 1.913580 
# 
# From -- ./inp_files/10349.got.cif
#   From: 2010.05.17/outbox.cif.g08.bks.cpg/sg36_6_cif.got.tgz:10349.got - 2010.06.03 17:41:39.
