data_PCOD9352186
_publ_section_title
;
Structure prediction by ZEFSAII (Michael W. Deem and Ramdas Pophale) SiO2 
 PCOD9352186
Probable space group: C M C 21
;
_chemical_formula_sum "Si O2"
_cell_formula_units_Z 48
_cell_length_a 14.185484
_cell_length_b 29.492890
_cell_length_c 5.180221
_cell_angle_alpha 90.000000
_cell_angle_beta 90.000000
_cell_angle_gamma 90.000000
_cell_volume 2167.253821
_symmetry_space_group_name_H-M "C M C 21"
_symmetry_group_IT_number 36
_symmetry_cell_setting 'orthorhombic'
loop_
_space_group_symop_operation_xyz
x,y,z
-x,-y,1/2+z
x,-y,1/2+z
-x,y,z
1/2+x,1/2+y,z
1/2-x,1/2-y,1/2+z
1/2+x,1/2-y,1/2+z
1/2-x,1/2+y,z
loop_
_atom_site_type_symbol
_atom_site_label
_atom_site_fract_x
_atom_site_fract_y
_atom_site_fract_z
Si Si1 0.660611 0.390474 0.314970
Si Si2 0.000000 0.175108 0.983770
Si Si3 0.386286 0.030356 0.381891
Si Si4 0.391720 0.483684 0.548737
Si Si5 0.733001 0.879518 0.813541
Si Si6 0.500000 0.282122 0.989214
Si Si7 0.216978 0.226159 0.337181
O O1 0.591869 0.349729 0.379796
O O2 0.611182 0.435263 0.418465
O O3 0.748479 0.385107 0.508135
O O4 0.684636 0.392429 0.016659
O O5 0.000000 0.219239 0.800704
O O6 0.000000 0.174078 0.292479
O O7 0.500000 0.034512 0.381662
O O8 0.344711 0.081749 0.378480
O O9 0.359629 0.000050 0.631700
O O10 0.346117 0.485296 0.829099
O O11 0.500000 0.497252 0.601000
O O12 0.737469 0.824618 0.858087
O O13 0.394499 0.267066 0.905904
O O14 0.269403 0.257111 0.546236
#
# Coordination Sequence:
#
# PCOD9352186 Si02
#       7
#     8   4   8   8   8   4   8
#     4  12  22  37  62  90 126 170 221 270 315 400
#     4  12  20  40  64  93 126 180 236 249 330 432
#     4  10  23  46  73 100 137 184 238 298 368 439
#     4  10  21  33  46  73 118 164 203 251 305 355
#     4  12  25  42  69 102 133 176 228 289 350 421
#     4  12  24  46  74  95 136 198 224 287 368 428
#     4  12  26  47  71 106 148 181 242 298 361 446
#
# _framework density 22.147846000000001
#
# number of rings (size 3 to 8) (size 9 to 14) (size 15 to 20)
#    0.000    0.667    4.167    4.000    0.000    4.000 
#    3.000    0.000    0.000    0.000    0.000    0.000 
#    0.000    0.000    0.000    0.000    0.000    0.000 
#
# Total GULP energy -133659.030564 kJ/mol
# GULP energy per Si atom -5569.126274 kJ/mol
# Density = 2.209744 g / cm^3
# Si number density = 22.147846 Si / 1000 Ang^3
#
#
#
# Elastic Constant Matrix: (Units=GPa)
#
#
# Indices 1 2 3 4 5 6 
#
# 1 74.0944 34.7897 -9.5476 0.0000 0.0000 0.0000
# 2 34.7897 101.4021 34.4116 0.0000 0.0000 0.0000
# 3 -9.5476 34.4116 81.4632 0.0000 0.0000 0.0000
# 4 0.0000 0.0000 0.0000 37.9552 0.0000 0.0000
# 5 0.0000 0.0000 0.0000 0.0000 -246.3147 0.0000
# 6 0.0000 0.0000 0.0000 0.0000 0.0000 38.4235
#
#
#
# Elastic Compliance Matrix: (Units=1/GPa)
#
#
# Indices 1 2 3 4 5 6 
#
# 1 0.017978 -0.008035 0.005501 0.000000 0.000000 0.000000
# 2 -0.008035 0.015103 -0.007321 0.000000 0.000000 0.000000
# 3 0.005501 -0.007321 0.016013 0.000000 0.000000 0.000000
# 4 0.000000 0.000000 0.000000 0.026347 0.000000 0.000000
# 5 0.000000 0.000000 0.000000 0.000000 -0.004060 0.000000
# 6 0.000000 0.000000 0.000000 0.000000 0.000000 0.026026
#
#
# Mechanical properties :
#
#
# Convention : Reuss Voigt Hill
#
# Bulk Modulus (GPa) = 34.03298 41.80746 37.92022
# Shear Modulus (GPa) = 39.39772 -20.83346 9.28213
#
# Velocity S-wave (km/s) = 4.22222 -3.07034 2.04941
# Velocity P-wave (km/s) = 6.25852 2.51957 4.77061
#
# Compressibility (1/GPa) = 0.02938326
#
# Stress axis : x y z
#
# Youngs Moduli (GPa) = 55.62454 66.21244 62.44961
#
# Poissons Ratio (x) = 0.53200 -0.34354
# Poissons Ratio (y) = 0.44693 0.45722
# Poissons Ratio (z) = -0.30599 0.48477
#
# Static dielectric constant tensor:
#      x y z
#    x 1.943850 0.000000 0.000000 
#    y 0.000000 1.871210 0.000000 
#    z 0.000000 0.000000 1.862910 
# 
# From -- ./inp_files/847.got.cif
#   From: 2010.05.17/outbox.cif.g08.bks.cpg/sg36_1_cif.got.tgz:847.got - 2010.06.03 17:41:39.
