data_PCOD9352906
_publ_section_title
;
Structure prediction by ZEFSAII (Michael W. Deem and Ramdas Pophale) SiO2 
 PCOD9352906
Probable space group: C M C 21
;
_chemical_formula_sum "Si O2"
_cell_formula_units_Z 64
_cell_length_a 8.504227
_cell_length_b 25.597935
_cell_length_c 15.034595
_cell_angle_alpha 90.000000
_cell_angle_beta 90.000000
_cell_angle_gamma 90.000000
_cell_volume 3272.890758
_symmetry_space_group_name_H-M "C M C 21"
_symmetry_group_IT_number 36
_symmetry_cell_setting 'orthorhombic'
loop_
_space_group_symop_operation_xyz
x,y,z
-x,-y,1/2+z
x,-y,1/2+z
-x,y,z
1/2+x,1/2+y,z
1/2-x,1/2-y,1/2+z
1/2+x,1/2-y,1/2+z
1/2-x,1/2+y,z
loop_
_atom_site_type_symbol
_atom_site_label
_atom_site_fract_x
_atom_site_fract_y
_atom_site_fract_z
Si Si1 0.318942 0.248891 0.508940
Si Si2 0.187258 0.439582 0.645342
Si Si3 0.681452 0.246201 0.291989
Si Si4 0.189845 0.558883 0.650674
Si Si5 0.814921 0.135057 0.295418
Si Si6 0.191268 0.635955 0.495488
Si Si7 0.809654 0.861868 0.499683
Si Si8 0.690112 0.639143 0.794461
O O1 0.500000 0.248795 0.540108
O O2 0.320630 0.248880 0.400438
O O3 0.249867 0.192389 0.532166
O O4 0.248679 0.305056 0.533651
O O5 0.245528 0.499177 0.651656
O O6 0.231855 0.406247 0.731786
O O7 0.256191 0.408497 0.561707
O O8 0.000000 0.441129 0.636298
O O9 0.500000 0.240018 0.263613
O O10 0.775138 0.194547 0.266669
O O11 0.744053 0.302918 0.263407
O O12 0.236472 0.589541 0.561084
O O13 0.250594 0.593264 0.732335
O O14 0.000000 0.558693 0.654004
O O15 0.755217 0.129003 0.396364
O O16 0.000000 0.127133 0.290796
O O17 0.000000 0.638661 0.490442
O O18 0.760594 0.868677 0.397066
O O19 0.000000 0.858945 0.500496
O O20 0.500000 0.640875 0.793313
#
# Coordination Sequence:
#
# PCOD9352906 Si02
#       8
#     8   8   8   8   8   8   8   8
#     4   7  12  27  54  81 107 136 167 207 266 330
#     4  11  24  40  54  75 109 150 193 234 273 323
#     4   8  15  32  56  83 114 146 174 211 270 336
#     4  10  23  39  56  79 109 148 194 232 269 323
#     4  11  22  36  57  85 111 142 184 230 276 326
#     4   9  18  37  60  81 109 144 177 221 279 334
#     4   9  18  35  57  83 111 141 177 222 275 330
#     4   9  19  36  60  87 116 145 176 221 280 332
#
# _framework density 19.554577999999999
#
# number of rings (size 3 to 8) (size 9 to 14) (size 15 to 20)
#    0.000    2.750    0.000    3.750    0.000    4.500 
#    0.000   10.000    0.000    0.000    0.000    0.000 
#    0.000    0.000    0.000    0.000    0.000    0.000 
#
# Total GULP energy -178514.355130 kJ/mol
# GULP energy per Si atom -5578.573598 kJ/mol
# Density = 1.951007 g / cm^3
# Si number density = 19.554578 Si / 1000 Ang^3
#
#
#
# Elastic Constant Matrix: (Units=GPa)
#
#
# Indices 1 2 3 4 5 6 
#
# 1 11.8018 12.5569 3.6983 0.0000 0.0000 0.0000
# 2 12.5569 187.7188 65.5627 0.0000 0.0000 0.0000
# 3 3.6983 65.5627 81.7847 0.0000 0.0000 0.0000
# 4 0.0000 0.0000 0.0000 32.7449 0.0000 0.0000
# 5 0.0000 0.0000 0.0000 0.0000 22.7781 0.0000
# 6 0.0000 0.0000 0.0000 0.0000 0.0000 -6.6915
#
#
#
# Elastic Compliance Matrix: (Units=1/GPa)
#
#
# Indices 1 2 3 4 5 6 
#
# 1 0.091292 -0.006479 0.001066 0.000000 0.000000 0.000000
# 2 -0.006479 0.007858 -0.006007 0.000000 0.000000 0.000000
# 3 0.001066 -0.006007 0.016994 0.000000 0.000000 0.000000
# 4 0.000000 0.000000 0.000000 0.030539 0.000000 0.000000
# 5 0.000000 0.000000 0.000000 0.000000 0.043902 0.000000
# 6 0.000000 0.000000 0.000000 0.000000 0.000000 -0.149443
#
#
# Mechanical properties :
#
#
# Convention : Reuss Voigt Hill
#
# Bulk Modulus (GPa) = 10.71753 49.43790 30.07771
# Shear Modulus (GPa) = 52.58465 23.06546 37.82506
#
# Velocity S-wave (km/s) = 5.19130 3.43817 4.40288
# Velocity P-wave (km/s) = 6.43627 6.41079 6.42354
#
# Compressibility (1/GPa) = 0.09330511
#
# Stress axis : x y z
#
# Youngs Moduli (GPa) = 10.95381 127.25220 58.84320
#
# Poissons Ratio (x) = 0.82445 -0.06270
# Poissons Ratio (y) = 0.07097 0.35345
# Poissons Ratio (z) = -0.01167 0.76437
#
# Static dielectric constant tensor:
#      x y z
#    x 1.666660 0.000000 0.000000 
#    y 0.000000 1.704330 0.000000 
#    z 0.000000 0.000000 1.681440 
# 
# From -- ./inp_files/10993.got.cif
#   From: 2010.05.17/outbox.cif.g08.bks.cpg/sg36_6_cif.got.tgz:10993.got - 2010.06.03 17:41:39.
