data_PCOD9352744
_publ_section_title
;
Structure prediction by ZEFSAII (Michael W. Deem and Ramdas Pophale) SiO2 
 PCOD9352744
Probable space group: C M C 21
;
_chemical_formula_sum "Si O2"
_cell_formula_units_Z 48
_cell_length_a 18.722358
_cell_length_b 15.486079
_cell_length_c 7.862578
_cell_angle_alpha 90.000000
_cell_angle_beta 90.000000
_cell_angle_gamma 90.000000
_cell_volume 2279.643747
_symmetry_space_group_name_H-M "C M C 21"
_symmetry_group_IT_number 36
_symmetry_cell_setting 'orthorhombic'
loop_
_space_group_symop_operation_xyz
x,y,z
-x,-y,1/2+z
x,-y,1/2+z
-x,y,z
1/2+x,1/2+y,z
1/2-x,1/2-y,1/2+z
1/2+x,1/2-y,1/2+z
1/2-x,1/2+y,z
loop_
_atom_site_type_symbol
_atom_site_label
_atom_site_fract_x
_atom_site_fract_y
_atom_site_fract_z
Si Si1 0.715816 0.712398 0.232800
Si Si2 0.115229 0.740937 0.184673
Si Si3 0.000000 0.639964 0.350413
Si Si4 0.284158 0.577166 0.937204
Si Si5 0.866163 0.624656 0.872052
Si Si6 0.000000 0.536609 0.698010
Si Si7 0.832865 0.100171 0.557501
O O1 0.800374 0.731204 0.222822
O O2 0.670762 0.800538 0.254593
O O3 0.701545 0.655558 0.402817
O O4 0.698176 0.656690 0.063769
O O5 0.102338 0.839071 0.122369
O O6 0.067665 0.702834 0.333374
O O7 0.101126 0.680631 0.023595
O O8 0.000000 0.581870 0.516312
O O9 0.000000 0.566430 0.204737
O O10 0.198080 0.566589 0.951751
O O11 0.292621 0.588832 0.736261
O O12 0.333556 0.496730 0.987862
O O13 0.927179 0.569427 0.785629
#
# Coordination Sequence:
#
# PCOD9352744 Si02
#       7
#     8   8   4   8   8   4   8
#     4  10  22  40  64  97 129 180 219 287 333 399
#     4  10  23  43  65  90 133 176 231 274 341 406
#     4  12  28  44  66  93 138 189 229 275 348 425
#     4  11  22  36  63  97 133 164 226 283 340 394
#     4  10  23  41  64  95 137 177 224 278 337 416
#     4  12  28  42  66  99 142 189 225 273 348 431
#     4  11  22  37  64  95 131 166 219 289 333 396
#
# _framework density 21.055921000000001
#
# number of rings (size 3 to 8) (size 9 to 14) (size 15 to 20)
#    0.000    1.333    3.333    1.500    7.000    0.000 
#    0.000    0.000    0.000    2.000    0.000    0.000 
#    0.000    0.000    0.000    0.000    0.000    0.000 
#
# Total GULP energy -133769.417491 kJ/mol
# GULP energy per Si atom -5573.725729 kJ/mol
# Density = 2.100800 g / cm^3
# Si number density = 21.055921 Si / 1000 Ang^3
#
#
#
# Elastic Constant Matrix: (Units=GPa)
#
#
# Indices 1 2 3 4 5 6 
#
# 1 60.4115 36.3581 2.7274 0.0000 0.0000 0.0000
# 2 36.3581 102.5373 12.2938 0.0000 0.0000 0.0000
# 3 2.7274 12.2938 83.5128 0.0000 0.0000 0.0000
# 4 0.0000 0.0000 0.0000 34.9786 0.0000 0.0000
# 5 0.0000 0.0000 0.0000 0.0000 27.6406 0.0000
# 6 0.0000 0.0000 0.0000 0.0000 0.0000 21.3545
#
#
#
# Elastic Compliance Matrix: (Units=1/GPa)
#
#
# Indices 1 2 3 4 5 6 
#
# 1 0.021058 -0.007517 0.000419 0.000000 0.000000 0.000000
# 2 -0.007517 0.012611 -0.001611 0.000000 0.000000 0.000000
# 3 0.000419 -0.001611 0.012198 0.000000 0.000000 0.000000
# 4 0.000000 0.000000 0.000000 0.028589 0.000000 0.000000
# 5 0.000000 0.000000 0.000000 0.000000 0.036179 0.000000
# 6 0.000000 0.000000 0.000000 0.000000 0.000000 0.046828
#
#
# Mechanical properties :
#
#
# Convention : Reuss Voigt Hill
#
# Bulk Modulus (GPa) = 35.15106 38.80224 36.97665
# Shear Modulus (GPa) = 27.12013 29.80021 28.46017
#
# Velocity S-wave (km/s) = 3.59277 3.76611 3.68046
# Velocity P-wave (km/s) = 5.82590 6.11389 5.97163
#
# Compressibility (1/GPa) = 0.02844864
#
# Stress axis : x y z
#
# Youngs Moduli (GPa) = 47.48700 79.29471 81.98276
#
# Poissons Ratio (x) = 0.59607 -0.03434
# Poissons Ratio (y) = 0.35697 0.13207
# Poissons Ratio (z) = -0.01989 0.12774
#
# Static dielectric constant tensor:
#      x y z
#    x 1.760290 0.000000 0.000000 
#    y 0.000000 1.833460 0.000000 
#    z 0.000000 0.000000 1.805230 
# 
# From -- ./inp_files/4675.got.cif
#   From: 2010.05.17/outbox.cif.g08.bks.cpg/sg36_3_cif.got.tgz:4675.got - 2010.06.03 17:41:39.
