data_PCOD9352967
_publ_section_title
;
Structure prediction by ZEFSAII (Michael W. Deem and Ramdas Pophale) SiO2 
 PCOD9352967
Probable space group: C M C 21
;
_chemical_formula_sum "Si O2"
_cell_formula_units_Z 32
_cell_length_a 21.713446
_cell_length_b 5.355722
_cell_length_c 9.219165
_cell_angle_alpha 90.000000
_cell_angle_beta 90.000000
_cell_angle_gamma 90.000000
_cell_volume 1072.107581
_symmetry_space_group_name_H-M "C M C 21"
_symmetry_group_IT_number 36
_symmetry_cell_setting 'orthorhombic'
loop_
_space_group_symop_operation_xyz
x,y,z
-x,-y,1/2+z
x,-y,1/2+z
-x,y,z
1/2+x,1/2+y,z
1/2-x,1/2-y,1/2+z
1/2+x,1/2-y,1/2+z
1/2-x,1/2+y,z
loop_
_atom_site_type_symbol
_atom_site_label
_atom_site_fract_x
_atom_site_fract_y
_atom_site_fract_z
Si Si1 0.264476 0.217724 0.636250
Si Si2 0.568210 0.020136 0.672879
Si Si3 0.664489 0.808844 0.876067
Si Si4 0.432161 0.522143 0.480755
O O1 0.282681 0.499643 0.589758
O O2 0.318332 0.093549 0.536196
O O3 0.228920 0.295509 0.786204
O O4 0.500000 0.992698 0.742240
O O5 0.621408 0.004849 0.793030
O O6 0.574139 0.776160 0.570257
O O7 0.567105 0.279948 0.586611
O O8 0.623431 0.558967 0.875280
O O9 0.500000 0.528134 0.409290
#
# Coordination Sequence:
#
# PCOD9352967 Si02
#       4
#     8   8   8   8
#     4  12  28  46  68  98 138 184 230 278 334 400
#     4  10  23  43  69 102 137 175 224 284 345 402
#     4  12  25  46  70 102 139 182 226 280 338 406
#     4  10  23  43  69 102 137 175 224 284 345 402
#
# _framework density 29.847747999999999
#
# number of rings (size 3 to 8) (size 9 to 14) (size 15 to 20)
#    0.000    1.000    0.000    5.250    0.000    6.000 
#    0.000    7.500    0.000    0.000    0.000    5.250 
#    0.000    0.000    0.000    0.000    0.000    0.000 
#
# Total GULP energy -89180.034067 kJ/mol
# GULP energy per Si atom -5573.752129 kJ/mol
# Density = 2.977981 g / cm^3
# Si number density = 29.847748 Si / 1000 Ang^3
#
#
#
# Elastic Constant Matrix: (Units=GPa)
#
#
# Indices 1 2 3 4 5 6 
#
# 1 179.7212 25.7802 104.9977 0.0000 0.0000 0.0000
# 2 25.7802 201.6228 54.0612 0.0000 0.0000 0.0000
# 3 104.9977 54.0612 134.2150 0.0000 0.0000 0.0000
# 4 0.0000 0.0000 0.0000 67.9612 0.0000 0.0000
# 5 0.0000 0.0000 0.0000 0.0000 50.2108 0.0000
# 6 0.0000 0.0000 0.0000 0.0000 0.0000 -12.7108
#
#
#
# Elastic Compliance Matrix: (Units=1/GPa)
#
#
# Indices 1 2 3 4 5 6 
#
# 1 0.010410 0.000956 -0.008529 0.000000 0.000000 0.000000
# 2 0.000956 0.005648 -0.003023 0.000000 0.000000 0.000000
# 3 -0.008529 -0.003023 0.015340 0.000000 0.000000 0.000000
# 4 0.000000 0.000000 0.000000 0.014714 0.000000 0.000000
# 5 0.000000 0.000000 0.000000 0.000000 0.019916 0.000000
# 6 0.000000 0.000000 0.000000 0.000000 0.000000 -0.078673
#
#
# Mechanical properties :
#
#
# Convention : Reuss Voigt Hill
#
# Bulk Modulus (GPa) = 97.97265 98.35969 98.16617
# Shear Modulus (GPa) = 418.45612 43.14021 230.79816
#
# Velocity S-wave (km/s) = 11.85332 3.80589 8.80301
# Velocity P-wave (km/s) = 14.84016 7.23453 11.67409
#
# Compressibility (1/GPa) = 0.01020693
#
# Stress axis : x y z
#
# Youngs Moduli (GPa) = 96.06434 177.05296 65.18799
#
# Poissons Ratio (x) = -0.16922 0.55596
# Poissons Ratio (y) = -0.09181 0.19704
# Poissons Ratio (z) = 0.81929 0.53518
#
# Static dielectric constant tensor:
#      x y z
#    x 2.720640 0.000000 0.000000 
#    y 0.000000 2.532770 0.000000 
#    z 0.000000 0.000000 2.724300 
# 
# From -- ./inp_files/9358.got.cif
#   From: 2010.05.17/outbox.cif.g08.bks.cpg/sg36_5_cif.got.tgz:9358.got - 2010.06.03 17:41:39.
