data_PCOD9352029
_publ_section_title
;
Structure prediction by ZEFSAII (Michael W. Deem and Ramdas Pophale) SiO2 
 PCOD9352029
Probable space group: C M C 21
;
_chemical_formula_sum "Si O2"
_cell_formula_units_Z 48
_cell_length_a 8.882122
_cell_length_b 20.274906
_cell_length_c 14.347669
_cell_angle_alpha 90.000000
_cell_angle_beta 90.000000
_cell_angle_gamma 90.000000
_cell_volume 2583.788331
_symmetry_space_group_name_H-M "C M C 21"
_symmetry_group_IT_number 36
_symmetry_cell_setting 'orthorhombic'
loop_
_space_group_symop_operation_xyz
x,y,z
-x,-y,1/2+z
x,-y,1/2+z
-x,y,z
1/2+x,1/2+y,z
1/2-x,1/2-y,1/2+z
1/2+x,1/2-y,1/2+z
1/2-x,1/2+y,z
loop_
_atom_site_type_symbol
_atom_site_label
_atom_site_fract_x
_atom_site_fract_y
_atom_site_fract_z
Si Si1 0.678976 0.948103 0.125000
Si Si2 0.819360 0.390827 0.326107
Si Si3 0.323286 0.192360 0.534320
Si Si4 0.678873 0.754781 0.828526
Si Si5 0.322696 0.810622 0.635886
Si Si6 0.678531 0.428587 0.521085
O O1 0.500000 0.963333 0.126169
O O2 0.723951 0.928222 0.230471
O O3 0.701036 0.883005 0.062152
O O4 0.765838 0.008565 0.079418
O O5 0.763397 0.314995 0.322942
O O6 0.752719 0.423997 0.418786
O O7 0.000000 0.390744 0.331333
O O8 0.500000 0.207434 0.555465
O O9 0.296522 0.209954 0.426934
O O10 0.216561 0.239528 0.593450
O O11 0.500000 0.740757 0.819967
O O12 0.719584 0.803425 0.744120
O O13 0.500000 0.825173 0.627535
O O14 0.231084 0.864276 0.578307
O O15 0.500000 0.428559 0.510802
#
# Coordination Sequence:
#
# PCOD9352029 Si02
#       6
#     8   8   8   8   8   8
#     4  10  23  42  64  91 125 164 209 258 313 373
#     4  11  22  39  65  93 122 162 206 255 316 377
#     4  10  20  38  62  90 121 159 204 256 309 361
#     4  10  21  36  61  94 127 160 201 255 309 367
#     4  11  22  37  60  92 125 162 206 253 306 365
#     4  12  26  42  62  90 128 169 210 257 309 369
#
# _framework density 18.577373000000001
#
# number of rings (size 3 to 8) (size 9 to 14) (size 15 to 20)
#    0.000    1.333    3.333    2.500    0.000    4.000 
#    0.000    3.333    0.000    0.000    0.000    0.000 
#    0.000    0.000    0.000    0.000    0.000    0.000 
#
# Total GULP energy -134109.889222 kJ/mol
# GULP energy per Si atom -5587.912051 kJ/mol
# Density = 1.853509 g / cm^3
# Si number density = 18.577373 Si / 1000 Ang^3
#
#
#
# Elastic Constant Matrix: (Units=GPa)
#
#
# Indices 1 2 3 4 5 6 
#
# 1 51.9876 27.4027 42.4288 0.0000 0.0000 0.0000
# 2 27.4027 54.0931 21.4869 0.0000 0.0000 0.0000
# 3 42.4288 21.4869 111.0578 0.0000 0.0000 0.0000
# 4 0.0000 0.0000 0.0000 26.0450 0.0000 0.0000
# 5 0.0000 0.0000 0.0000 0.0000 21.6064 0.0000
# 6 0.0000 0.0000 0.0000 0.0000 0.0000 36.9839
#
#
#
# Elastic Compliance Matrix: (Units=1/GPa)
#
#
# Indices 1 2 3 4 5 6 
#
# 1 0.035211 -0.013534 -0.010834 0.000000 0.000000 0.000000
# 2 -0.013534 0.025228 0.000290 0.000000 0.000000 0.000000
# 3 -0.010834 0.000290 0.013087 0.000000 0.000000 0.000000
# 4 0.000000 0.000000 0.000000 0.038395 0.000000 0.000000
# 5 0.000000 0.000000 0.000000 0.000000 0.046283 0.000000
# 6 0.000000 0.000000 0.000000 0.000000 0.000000 0.027039
#
#
# Mechanical properties :
#
#
# Convention : Reuss Voigt Hill
#
# Bulk Modulus (GPa) = 39.41677 44.41948 41.91812
# Shear Modulus (GPa) = 20.67363 25.31507 22.99435
#
# Velocity S-wave (km/s) = 3.33954 3.69546 3.52200
# Velocity P-wave (km/s) = 6.01114 6.49392 6.25719
#
# Compressibility (1/GPa) = 0.02536991
#
# Stress axis : x y z
#
# Youngs Moduli (GPa) = 28.40049 39.63911 76.41081
#
# Poissons Ratio (x) = 0.53647 0.82780
# Poissons Ratio (y) = 0.38437 -0.02213
# Poissons Ratio (z) = 0.30768 -0.01148
#
# Static dielectric constant tensor:
#      x y z
#    x 1.629320 0.000000 0.000000 
#    y 0.000000 1.601470 0.000000 
#    z 0.000000 0.000000 1.652850 
# 
# From -- ./inp_files/10401.got.cif
#   From: 2010.05.17/outbox.cif.g08.bks.cpg/sg36_6_cif.got.tgz:10401.got - 2010.06.03 17:41:39.
