data_PCOD9352006
_publ_section_title
;
Structure prediction by ZEFSAII (Michael W. Deem and Ramdas Pophale) SiO2 
 PCOD9352006
Probable space group: C M C 21
;
_chemical_formula_sum "Si O2"
_cell_formula_units_Z 64
_cell_length_a 8.370004
_cell_length_b 29.524723
_cell_length_c 12.884954
_cell_angle_alpha 90.000000
_cell_angle_beta 90.000000
_cell_angle_gamma 90.000000
_cell_volume 3184.156242
_symmetry_space_group_name_H-M "C M C 21"
_symmetry_group_IT_number 36
_symmetry_cell_setting 'orthorhombic'
loop_
_space_group_symop_operation_xyz
x,y,z
-x,-y,1/2+z
x,-y,1/2+z
-x,y,z
1/2+x,1/2+y,z
1/2-x,1/2-y,1/2+z
1/2+x,1/2-y,1/2+z
1/2-x,1/2+y,z
loop_
_atom_site_type_symbol
_atom_site_label
_atom_site_fract_x
_atom_site_fract_y
_atom_site_fract_z
Si Si1 0.683038 0.836366 0.357010
Si Si2 0.308674 0.614758 0.658110
Si Si3 0.307292 0.222159 0.047088
Si Si4 0.804720 0.179569 0.483144
Si Si5 0.688393 0.928274 0.692313
Si Si6 0.814164 0.977918 0.259468
Si Si7 0.816532 0.435272 0.456739
Si Si8 0.811531 0.831293 0.749230
O O1 0.500000 0.823347 0.331555
O O2 0.769184 0.849856 0.250562
O O3 0.752299 0.800643 0.439279
O O4 0.679800 0.883140 0.421490
O O5 0.500000 0.610725 0.653431
O O6 0.250633 0.636189 0.550118
O O7 0.249013 0.564657 0.690974
O O8 0.500000 0.219390 0.042153
O O9 0.257435 0.195828 0.150814
O O10 0.259631 0.274613 0.043383
O O11 0.749133 0.181510 0.363998
O O12 0.000000 0.177951 0.480512
O O13 0.500000 0.917637 0.691454
O O14 0.739582 0.936881 0.573941
O O15 0.777920 0.884604 0.735348
O O16 0.721779 0.975357 0.748293
O O17 0.794347 0.961272 0.377018
O O18 0.000000 0.985222 0.234045
O O19 0.000000 0.452284 0.449746
O O20 0.000000 0.822818 0.748583
#
# Coordination Sequence:
#
# PCOD9352006 Si02
#       8
#     8   8   8   8   8   8   8   8
#     4   9  17  32  56  81 108 144 189 240 288 338
#     4   9  19  37  57  81 115 154 195 241 294 348
#     4  10  20  38  60  83 116 157 194 237 295 353
#     4   9  21  39  59  84 122 163 193 235 299 359
#     4  11  22  39  61  85 117 157 200 244 300 362
#     4  10  21  35  56  87 118 152 199 250 300 352
#     4   9  18  35  55  78 109 149 194 239 289 349
#     4  11  23  39  60  89 121 154 200 250 299 355
#
# _framework density 20.099516000000001
#
# number of rings (size 3 to 8) (size 9 to 14) (size 15 to 20)
#    0.000    2.250    1.250    1.125    1.750    3.000 
#    0.000    3.750    0.000    0.000    0.000    0.000 
#    0.000    0.000    0.000    0.000    0.000    0.000 
#
# Total GULP energy -178496.931572 kJ/mol
# GULP energy per Si atom -5578.029112 kJ/mol
# Density = 2.005377 g / cm^3
# Si number density = 20.099516 Si / 1000 Ang^3
#
#
#
# Elastic Constant Matrix: (Units=GPa)
#
#
# Indices 1 2 3 4 5 6 
#
# 1 5.6599 1.4064 1.9275 0.0000 0.0000 0.0000
# 2 1.4064 78.5083 32.2550 0.0000 0.0000 0.0000
# 3 1.9275 32.2550 62.3492 0.0000 0.0000 0.0000
# 4 0.0000 0.0000 0.0000 15.9584 0.0000 0.0000
# 5 0.0000 0.0000 0.0000 0.0000 23.3111 0.0000
# 6 0.0000 0.0000 0.0000 0.0000 0.0000 14.8076
#
#
#
# Elastic Compliance Matrix: (Units=1/GPa)
#
#
# Indices 1 2 3 4 5 6 
#
# 1 0.178647 -0.001182 -0.004911 0.000000 0.000000 0.000000
# 2 -0.001182 0.016183 -0.008336 0.000000 0.000000 0.000000
# 3 -0.004911 -0.008336 0.020503 0.000000 0.000000 0.000000
# 4 0.000000 0.000000 0.000000 0.062663 0.000000 0.000000
# 5 0.000000 0.000000 0.000000 0.000000 0.042898 0.000000
# 6 0.000000 0.000000 0.000000 0.000000 0.000000 0.067533
#
#
# Mechanical properties :
#
#
# Convention : Reuss Voigt Hill
#
# Bulk Modulus (GPa) = 5.36265 24.18836 14.77551
# Shear Modulus (GPa) = 10.42875 18.21065 14.31970
#
# Velocity S-wave (km/s) = 2.28031 3.01329 2.67205
# Velocity P-wave (km/s) = 3.09951 4.91599 4.10937
#
# Compressibility (1/GPa) = 0.18647493
#
# Stress axis : x y z
#
# Youngs Moduli (GPa) = 5.59762 61.79198 48.77398
#
# Poissons Ratio (x) = 0.07307 0.23954
# Poissons Ratio (y) = 0.00662 0.40656
# Poissons Ratio (z) = 0.02749 0.51507
#
# Static dielectric constant tensor:
#      x y z
#    x 1.712850 0.000000 0.000000 
#    y 0.000000 1.710310 0.000000 
#    z 0.000000 0.000000 1.718910 
# 
# From -- ./inp_files/7091.got.cif
#   From: 2010.05.17/outbox.cif.g08.bks.cpg/sg36_4_cif.got.tgz:7091.got - 2010.06.03 17:41:39.
