data_PCOD9352614
_publ_section_title
;
Structure prediction by ZEFSAII (Michael W. Deem and Ramdas Pophale) SiO2 
 PCOD9352614
Probable space group: C M C 21
;
_chemical_formula_sum "Si O2"
_cell_formula_units_Z 52
_cell_length_a 7.670733
_cell_length_b 21.450655
_cell_length_c 14.597919
_cell_angle_alpha 90.000000
_cell_angle_beta 90.000000
_cell_angle_gamma 90.000000
_cell_volume 2401.974396
_symmetry_space_group_name_H-M "C M C 21"
_symmetry_group_IT_number 36
_symmetry_cell_setting 'orthorhombic'
loop_
_space_group_symop_operation_xyz
x,y,z
-x,-y,1/2+z
x,-y,1/2+z
-x,y,z
1/2+x,1/2+y,z
1/2-x,1/2-y,1/2+z
1/2+x,1/2-y,1/2+z
1/2-x,1/2+y,z
loop_
_atom_site_type_symbol
_atom_site_label
_atom_site_fract_x
_atom_site_fract_y
_atom_site_fract_z
Si Si1 0.301848 0.392863 0.715660
Si Si2 0.500000 0.166935 0.317255
Si Si3 0.289547 0.659355 0.024700
Si Si4 0.296729 0.284622 0.923405
Si Si5 0.707741 0.588252 0.520583
Si Si6 0.296663 0.028161 0.703653
Si Si7 0.710722 0.536492 0.916488
O O1 0.500000 0.379953 0.745076
O O2 0.155252 0.383775 0.791020
O O3 0.246547 0.349238 0.631400
O O4 0.299955 0.463723 0.680586
O O5 0.343065 0.217328 0.342102
O O6 0.500000 0.660715 0.019363
O O7 0.218064 0.722538 0.983108
O O8 0.228530 0.597890 0.970441
O O9 0.500000 0.291849 0.898509
O O10 0.230692 0.345573 0.980704
O O11 0.500000 0.589007 0.509187
O O12 0.746255 0.578810 0.627729
O O13 0.774351 0.527423 0.464990
O O14 0.500000 0.016808 0.693249
O O15 0.257659 0.041916 0.809661
O O16 0.500000 0.534746 0.921697
#
# Coordination Sequence:
#
# PCOD9352614 Si02
#       7
#     8   4   8   8   8   8   8
#     4  11  23  43  70 101 139 181 234 292 346 417
#     4  12  24  44  68 106 128 176 242 288 332 426
#     4  10  22  45  71  98 136 188 232 285 352 423
#     4  11  25  44  71  99 142 188 227 288 360 416
#     4  10  22  43  67  95 131 180 226 282 351 411
#     4  12  24  38  64 105 140 177 228 293 355 418
#     4  10  21  41  70  94 131 177 227 288 347 408
#
# _framework density 21.648858000000001
#
# number of rings (size 3 to 8) (size 9 to 14) (size 15 to 20)
#    0.000    1.231    3.077    2.769    2.154    2.462 
#    2.769    0.000    0.000    0.000    0.000    0.000 
#    0.000    0.000    0.000    0.000    0.000    0.000 
#
# Total GULP energy -144795.751644 kJ/mol
# GULP energy per Si atom -5569.067371 kJ/mol
# Density = 2.159958 g / cm^3
# Si number density = 21.648858 Si / 1000 Ang^3
#
#
#
# Elastic Constant Matrix: (Units=GPa)
#
#
# Indices 1 2 3 4 5 6 
#
# 1 97.1044 17.1635 8.5252 0.0000 0.0000 0.0000
# 2 17.1635 120.5807 40.2347 0.0000 0.0000 0.0000
# 3 8.5252 40.2347 76.4006 0.0000 0.0000 0.0000
# 4 0.0000 0.0000 0.0000 36.7311 0.0000 0.0000
# 5 0.0000 0.0000 0.0000 0.0000 -1.1949 0.0000
# 6 0.0000 0.0000 0.0000 0.0000 0.0000 25.1133
#
#
#
# Elastic Compliance Matrix: (Units=1/GPa)
#
#
# Indices 1 2 3 4 5 6 
#
# 1 0.010578 -0.001349 -0.000470 0.000000 0.000000 0.000000
# 2 -0.001349 0.010233 -0.005239 0.000000 0.000000 0.000000
# 3 -0.000470 -0.005239 0.015900 0.000000 0.000000 0.000000
# 4 0.000000 0.000000 0.000000 0.027225 0.000000 0.000000
# 5 0.000000 0.000000 0.000000 0.000000 -0.836884 0.000000
# 6 0.000000 0.000000 0.000000 0.000000 0.000000 0.039820
#
#
# Mechanical properties :
#
#
# Convention : Reuss Voigt Hill
#
# Bulk Modulus (GPa) = 44.25492 47.32584 45.79038
# Shear Modulus (GPa) = -7.02759 27.34072 10.15657
#
# Velocity S-wave (km/s) = -1.80367 3.55761 2.16834
# Velocity P-wave (km/s) = 4.01857 6.22765 5.24082
#
# Compressibility (1/GPa) = 0.02259636
#
# Stress axis : x y z
#
# Youngs Moduli (GPa) = 94.53698 97.72149 62.89262
#
# Poissons Ratio (x) = 0.13181 0.02956
# Poissons Ratio (y) = 0.12751 0.32947
# Poissons Ratio (z) = 0.04443 0.51192
#
# Static dielectric constant tensor:
#      x y z
#    x 1.821080 0.000000 0.000000 
#    y 0.000000 1.806200 0.000000 
#    z 0.000000 0.000000 1.868480 
# 
# From -- ./inp_files/10544.got.cif
#   From: 2010.05.17/outbox.cif.g08.bks.cpg/sg36_6_cif.got.tgz:10544.got - 2010.06.03 17:41:39.
