data_PCOD9352880
_publ_section_title
;
Structure prediction by ZEFSAII (Michael W. Deem and Ramdas Pophale) SiO2 
 PCOD9352880
Probable space group: C M C 21
;
_chemical_formula_sum "Si O2"
_cell_formula_units_Z 56
_cell_length_a 16.390080
_cell_length_b 13.839344
_cell_length_c 9.915396
_cell_angle_alpha 90.000000
_cell_angle_beta 90.000000
_cell_angle_gamma 90.000000
_cell_volume 2249.089001
_symmetry_space_group_name_H-M "C M C 21"
_symmetry_group_IT_number 36
_symmetry_cell_setting 'orthorhombic'
loop_
_space_group_symop_operation_xyz
x,y,z
-x,-y,1/2+z
x,-y,1/2+z
-x,y,z
1/2+x,1/2+y,z
1/2-x,1/2-y,1/2+z
1/2+x,1/2-y,1/2+z
1/2-x,1/2+y,z
loop_
_atom_site_type_symbol
_atom_site_label
_atom_site_fract_x
_atom_site_fract_y
_atom_site_fract_z
Si Si1 0.297374 0.778413 0.476030
Si Si2 0.410062 0.903038 0.950724
Si Si3 0.909934 0.252122 0.716203
Si Si4 0.403820 0.790079 0.225499
Si Si5 0.410880 0.523723 0.760900
Si Si6 0.169879 0.104447 0.088184
Si Si7 0.737547 0.448949 0.948530
O O1 0.338253 0.792082 0.622531
O O2 0.361395 0.813873 0.365804
O O3 0.213734 0.837800 0.466929
O O4 0.278072 0.664777 0.466332
O O5 0.500000 0.949177 0.937341
O O6 0.411308 0.807006 0.858141
O O7 0.330608 0.959821 0.902061
O O8 0.398049 0.868187 0.105174
O O9 0.902446 0.137000 0.731375
O O10 0.000000 0.269897 0.653441
O O11 0.500000 0.767364 0.240200
O O12 0.351933 0.696082 0.180078
O O13 0.500000 0.508745 0.823945
O O14 0.408010 0.461387 0.622902
O O15 0.336903 0.485097 0.853912
O O16 0.231712 0.012369 0.085175
#
# Coordination Sequence:
#
# PCOD9352880 Si02
#       7
#     8   8   8   8   8   8   8
#     4  12  25  42  70 102 144 186 237 299 359 441
#     4  10  23  46  73  98 140 196 247 296 353 423
#     4  10  22  44  73 105 140 183 237 300 368 433
#     4  11  24  46  71 103 140 187 240 300 369 433
#     4  11  24  41  68 108 149 186 232 297 375 448
#     4  12  25  41  66 101 142 188 237 293 362 435
#     4  12  25  42  67 103 143 192 239 297 357 437
#
# _framework density 24.898968
#
# number of rings (size 3 to 8) (size 9 to 14) (size 15 to 20)
#    0.000    0.857    4.286    2.571    0.000    4.000 
#    0.000    1.429    0.000    4.286    0.000    0.000 
#    0.000    0.000    0.000    0.000    0.000    0.000 
#
# Total GULP energy -156081.800582 kJ/mol
# GULP energy per Si atom -5574.350021 kJ/mol
# Density = 2.484230 g / cm^3
# Si number density = 24.898968 Si / 1000 Ang^3
#
#
#
# Elastic Constant Matrix: (Units=GPa)
#
#
# Indices 1 2 3 4 5 6 
#
# 1 191.9160 38.8285 70.8718 0.0000 0.0000 0.0000
# 2 38.8285 78.6674 14.9091 0.0000 0.0000 0.0000
# 3 70.8718 14.9091 83.2982 0.0000 0.0000 0.0000
# 4 0.0000 0.0000 0.0000 20.9251 0.0000 0.0000
# 5 0.0000 0.0000 0.0000 0.0000 48.2447 0.0000
# 6 0.0000 0.0000 0.0000 0.0000 0.0000 28.2992
#
#
#
# Elastic Compliance Matrix: (Units=1/GPa)
#
#
# Indices 1 2 3 4 5 6 
#
# 1 0.008155 -0.002805 -0.006436 0.000000 0.000000 0.000000
# 2 -0.002805 0.014123 -0.000141 0.000000 0.000000 0.000000
# 3 -0.006436 -0.000141 0.017507 0.000000 0.000000 0.000000
# 4 0.000000 0.000000 0.000000 0.047789 0.000000 0.000000
# 5 0.000000 0.000000 0.000000 0.000000 0.020728 0.000000
# 6 0.000000 0.000000 0.000000 0.000000 0.000000 0.035337
#
#
# Mechanical properties :
#
#
# Convention : Reuss Voigt Hill
#
# Bulk Modulus (GPa) = 47.57539 67.01116 57.29327
# Shear Modulus (GPa) = 29.51415 34.77861 32.14638
#
# Velocity S-wave (km/s) = 3.44664 3.74142 3.59705
# Velocity P-wave (km/s) = 5.91506 6.75544 6.34917
#
# Compressibility (1/GPa) = 0.02101927
#
# Stress axis : x y z
#
# Youngs Moduli (GPa) = 122.62341 70.80587 57.12164
#
# Poissons Ratio (x) = 0.19863 0.36766
# Poissons Ratio (y) = 0.34400 0.00805
# Poissons Ratio (z) = 0.78925 0.00998
#
# Static dielectric constant tensor:
#      x y z
#    x 1.983510 0.000000 0.000000 
#    y 0.000000 1.933720 0.000000 
#    z 0.000000 0.000000 2.175320 
# 
# From -- ./inp_files/8500.got.cif
#   From: 2010.05.17/outbox.cif.g08.bks.cpg/sg36_5_cif.got.tgz:8500.got - 2010.06.03 17:41:39.
