data_PCOD9352011
_publ_section_title
;
Structure prediction by ZEFSAII (Michael W. Deem and Ramdas Pophale) SiO2 
 PCOD9352011
Probable space group: C M C 21
;
_chemical_formula_sum "Si O2"
_cell_formula_units_Z 40
_cell_length_a 10.169426
_cell_length_b 8.855073
_cell_length_c 20.366946
_cell_angle_alpha 90.000000
_cell_angle_beta 90.000000
_cell_angle_gamma 90.000000
_cell_volume 1834.064050
_symmetry_space_group_name_H-M "C M C 21"
_symmetry_group_IT_number 36
_symmetry_cell_setting 'orthorhombic'
loop_
_space_group_symop_operation_xyz
x,y,z
-x,-y,1/2+z
x,-y,1/2+z
-x,y,z
1/2+x,1/2+y,z
1/2-x,1/2-y,1/2+z
1/2+x,1/2-y,1/2+z
1/2-x,1/2+y,z
loop_
_atom_site_type_symbol
_atom_site_label
_atom_site_fract_x
_atom_site_fract_y
_atom_site_fract_z
Si Si1 0.143386 0.099020 0.857240
Si Si2 0.780609 0.176139 0.446154
Si Si3 0.651828 0.066454 0.741856
Si Si4 0.354176 0.941463 0.534528
Si Si5 0.151569 0.734334 0.165965
O O1 0.164904 0.241734 0.905235
O O2 0.265366 0.095153 0.807550
O O3 0.000000 0.108659 0.824482
O O4 0.149781 0.943830 0.898810
O O5 0.857589 0.317253 0.476359
O O6 0.732820 0.076370 0.507468
O O7 0.500000 0.118788 0.745278
O O8 0.737867 0.146741 0.685408
O O9 0.649910 0.889974 0.723909
O O10 0.500000 0.999883 0.548245
O O11 0.311148 0.854569 0.599730
O O12 0.000000 0.790992 0.157855
#
# Coordination Sequence:
#
# PCOD9352011 Si02
#       5
#     8   8   8   8   8
#     4  11  23  39  60  87 119 155 196 241 291 347
#     4  10  22  37  59  89 118 151 192 239 290 347
#     4  11  24  40  60  87 118 155 199 244 291 344
#     4  10  20  38  61  85 117 153 190 236 290 348
#     4  10  22  40  62  88 118 154 195 240 292 348
#
# _framework density 21.80949
#
# number of rings (size 3 to 8) (size 9 to 14) (size 15 to 20)
#    0.000    1.600    0.000    4.200    0.000    9.600 
#    0.000    5.000    0.000    0.000    0.000    0.000 
#    0.000    0.000    0.000    0.000    0.000    0.000 
#
# Total GULP energy -111693.607734 kJ/mol
# GULP energy per Si atom -5584.680387 kJ/mol
# Density = 2.175985 g / cm^3
# Si number density = 21.809490 Si / 1000 Ang^3
#
#
#
# Elastic Constant Matrix: (Units=GPa)
#
#
# Indices 1 2 3 4 5 6 
#
# 1 129.3959 41.1246 23.2040 0.0000 0.0000 0.0000
# 2 41.1246 69.0976 0.8140 0.0000 0.0000 0.0000
# 3 23.2040 0.8140 67.2622 0.0000 0.0000 0.0000
# 4 0.0000 0.0000 0.0000 36.8421 0.0000 0.0000
# 5 0.0000 0.0000 0.0000 0.0000 24.0978 0.0000
# 6 0.0000 0.0000 0.0000 0.0000 0.0000 7.2358
#
#
#
# Elastic Compliance Matrix: (Units=1/GPa)
#
#
# Indices 1 2 3 4 5 6 
#
# 1 0.010283 -0.006079 -0.003474 0.000000 0.000000 0.000000
# 2 -0.006079 0.018068 0.001879 0.000000 0.000000 0.000000
# 3 -0.003474 0.001879 0.016043 0.000000 0.000000 0.000000
# 4 0.000000 0.000000 0.000000 0.027143 0.000000 0.000000
# 5 0.000000 0.000000 0.000000 0.000000 0.041498 0.000000
# 6 0.000000 0.000000 0.000000 0.000000 0.000000 0.138203
#
#
# Mechanical properties :
#
#
# Convention : Reuss Voigt Hill
#
# Bulk Modulus (GPa) = 34.42917 44.00457 39.21687
# Shear Modulus (GPa) = 18.09831 27.00932 22.55381
#
# Velocity S-wave (km/s) = 2.88381 3.52294 3.21928
# Velocity P-wave (km/s) = 5.18740 6.06372 5.64260
#
# Compressibility (1/GPa) = 0.02904514
#
# Stress axis : x y z
#
# Youngs Moduli (GPa) = 97.24465 55.34521 62.33287
#
# Poissons Ratio (x) = 0.33646 0.21654
# Poissons Ratio (y) = 0.59119 -0.11710
# Poissons Ratio (z) = 0.33782 -0.10397
#
# Static dielectric constant tensor:
#      x y z
#    x 1.791360 0.000000 0.000000 
#    y 0.000000 1.773020 0.000000 
#    z 0.000000 0.000000 1.834780 
# 
# From -- ./inp_files/14150.got.cif
#   From: 2010.05.17/outbox.cif.g08.bks.cpg/sg36_8_cif.got.tgz:14150.got - 2010.06.03 17:41:39.
