data_PCOD9352412
_publ_section_title
;
Structure prediction by ZEFSAII (Michael W. Deem and Ramdas Pophale) SiO2 
 PCOD9352412
Probable space group: C M C 21
;
_chemical_formula_sum "Si O2"
_cell_formula_units_Z 48
_cell_length_a 8.973909
_cell_length_b 24.338930
_cell_length_c 12.049562
_cell_angle_alpha 90.000000
_cell_angle_beta 90.000000
_cell_angle_gamma 90.000000
_cell_volume 2631.809217
_symmetry_space_group_name_H-M "C M C 21"
_symmetry_group_IT_number 36
_symmetry_cell_setting 'orthorhombic'
loop_
_space_group_symop_operation_xyz
x,y,z
-x,-y,1/2+z
x,-y,1/2+z
-x,y,z
1/2+x,1/2+y,z
1/2-x,1/2-y,1/2+z
1/2+x,1/2-y,1/2+z
1/2-x,1/2+y,z
loop_
_atom_site_type_symbol
_atom_site_label
_atom_site_fract_x
_atom_site_fract_y
_atom_site_fract_z
Si Si1 0.677612 0.291438 0.183930
Si Si2 0.678892 0.325818 0.642582
Si Si3 0.821777 0.865151 0.396598
Si Si4 0.322257 0.888520 0.050037
Si Si5 0.677209 0.962285 0.265113
Si Si6 0.678304 0.421772 0.817435
O O1 0.500000 0.291704 0.168021
O O2 0.741231 0.230591 0.173900
O O3 0.709505 0.318557 0.304194
O O4 0.753814 0.331563 0.094374
O O5 0.500000 0.317105 0.643819
O O6 0.720710 0.345120 0.518718
O O7 0.714199 0.373832 0.729638
O O8 0.738388 0.919881 0.357089
O O9 0.000000 0.875494 0.395351
O O10 0.500000 0.883257 0.037942
O O11 0.292299 0.933321 0.146644
O O12 0.248818 0.906690 0.935630
O O13 0.500000 0.968756 0.277068
O O14 0.756839 0.020410 0.276583
O O15 0.500000 0.425499 0.827143
#
# Coordination Sequence:
#
# PCOD9352412 Si02
#       6
#     8   8   8   8   8   8
#     4  10  21  38  62  90 118 155 198 243 296 355
#     4  10  23  40  59  88 122 156 195 244 296 350
#     4   9  20  40  62  86 117 156 197 239 295 356
#     4  10  22  41  63  87 120 159 199 246 297 353
#     4  10  22  40  62  89 118 154 197 247 300 351
#     4  11  24  39  60  90 123 158 198 245 296 355
#
# _framework density 18.238403000000002
#
# number of rings (size 3 to 8) (size 9 to 14) (size 15 to 20)
#    0.000    2.000    0.000    2.000    4.667    4.667 
#    0.000    0.000    0.000    0.000    0.000    0.000 
#    0.000    0.000    0.000    0.000    0.000    0.000 
#
# Total GULP energy -134110.378743 kJ/mol
# GULP energy per Si atom -5587.932448 kJ/mol
# Density = 1.819689 g / cm^3
# Si number density = 18.238403 Si / 1000 Ang^3
#
#
#
# Elastic Constant Matrix: (Units=GPa)
#
#
# Indices 1 2 3 4 5 6 
#
# 1 70.6092 93.4778 69.5394 0.0000 0.0000 0.0000
# 2 93.4778 199.4598 93.7511 0.0000 0.0000 0.0000
# 3 69.5394 93.7511 120.3085 0.0000 0.0000 0.0000
# 4 0.0000 0.0000 0.0000 11.8671 0.0000 0.0000
# 5 0.0000 0.0000 0.0000 0.0000 28.1206 0.0000
# 6 0.0000 0.0000 0.0000 0.0000 0.0000 41.5528
#
#
#
# Elastic Compliance Matrix: (Units=1/GPa)
#
#
# Indices 1 2 3 4 5 6 
#
# 1 0.054936 -0.017075 -0.018447 0.000000 0.000000 0.000000
# 2 -0.017075 0.013218 -0.000431 0.000000 0.000000 0.000000
# 3 -0.018447 -0.000431 0.019311 0.000000 0.000000 0.000000
# 4 0.000000 0.000000 0.000000 0.084266 0.000000 0.000000
# 5 0.000000 0.000000 0.000000 0.000000 0.035561 0.000000
# 6 0.000000 0.000000 0.000000 0.000000 0.000000 0.024066
#
#
# Mechanical properties :
#
#
# Convention : Reuss Voigt Hill
#
# Bulk Modulus (GPa) = 64.27699 100.43493 82.35596
# Shear Modulus (GPa) = 16.21001 25.21538 20.71270
#
# Velocity S-wave (km/s) = 2.98448 3.72229 3.37362
# Velocity P-wave (km/s) = 6.86989 8.58262 7.77357
#
# Compressibility (1/GPa) = 0.01555767
#
# Stress axis : x y z
#
# Youngs Moduli (GPa) = 18.20306 75.65178 51.78499
#
# Poissons Ratio (x) = 1.29177 0.95530
# Poissons Ratio (y) = 0.31082 0.02232
# Poissons Ratio (z) = 0.33580 0.03260
#
# Static dielectric constant tensor:
#      x y z
#    x 1.606550 0.000000 0.000000 
#    y 0.000000 1.586370 0.000000 
#    z 0.000000 0.000000 1.608380 
# 
# From -- ./inp_files/6731.got.cif
#   From: 2010.05.17/outbox.cif.g08.bks.cpg/sg36_4_cif.got.tgz:6731.got - 2010.06.03 17:41:39.
