data_PCOD9352164
_publ_section_title
;
Structure prediction by ZEFSAII (Michael W. Deem and Ramdas Pophale) SiO2 
 PCOD9352164
Probable space group: C M C 21
;
_chemical_formula_sum "Si O2"
_cell_formula_units_Z 52
_cell_length_a 7.416555
_cell_length_b 14.884367
_cell_length_c 17.712519
_cell_angle_alpha 90.000000
_cell_angle_beta 90.000000
_cell_angle_gamma 90.000000
_cell_volume 1955.297840
_symmetry_space_group_name_H-M "C M C 21"
_symmetry_group_IT_number 36
_symmetry_cell_setting 'orthorhombic'
loop_
_space_group_symop_operation_xyz
x,y,z
-x,-y,1/2+z
x,-y,1/2+z
-x,y,z
1/2+x,1/2+y,z
1/2-x,1/2-y,1/2+z
1/2+x,1/2-y,1/2+z
1/2-x,1/2+y,z
loop_
_atom_site_type_symbol
_atom_site_label
_atom_site_fract_x
_atom_site_fract_y
_atom_site_fract_z
Si Si1 0.203201 0.072658 0.534430
Si Si2 0.216028 0.155614 0.689202
Si Si3 0.780086 0.091050 0.854666
Si Si4 0.000000 0.569639 0.031934
Si Si5 0.703983 0.756275 0.939838
Si Si6 0.204711 0.145977 0.145071
Si Si7 0.717859 0.392634 0.812946
O O1 0.248302 0.083596 0.623290
O O2 0.344927 0.003093 0.504260
O O3 0.212778 0.171829 0.496936
O O4 0.000000 0.041730 0.522082
O O5 0.275561 0.127628 0.772189
O O6 0.299379 0.248365 0.662644
O O7 0.000000 0.167498 0.691896
O O8 0.707442 0.160552 0.917940
O O9 0.000000 0.096361 0.858883
O O10 0.733712 0.986744 0.850920
O O11 0.841346 0.625603 0.078700
O O12 0.500000 0.740658 0.966268
O O13 0.703266 0.810371 0.860250
O O14 0.268686 0.105320 0.225299
O O15 0.000000 0.114890 0.130483
O O16 0.500000 0.383084 0.815709
#
# Coordination Sequence:
#
# PCOD9352164 Si02
#       7
#     8   8   8   4   8   8   8
#     4  11  25  45  69  94 137 187 231 287 351 422
#     4  10  20  42  68  99 136 181 228 285 346 411
#     4   9  19  38  68  95 130 176 227 283 344 410
#     4  12  24  44  66  98 132 176 228 282 344 410
#     4  11  22  42  67  95 134 182 229 284 353 416
#     4  11  23  39  68 104 139 176 225 288 351 413
#     4  10  21  40  64  99 134 175 227 285 347 413
#
# _framework density 26.594411999999998
#
# number of rings (size 3 to 8) (size 9 to 14) (size 15 to 20)
#    0.000    1.538    3.077    1.846    2.154    2.462 
#    2.769    1.538    0.000    0.000    0.000    0.000 
#    0.000    0.000    0.000    0.000    0.000    0.000 
#
# Total GULP energy -145310.500751 kJ/mol
# GULP energy per Si atom -5588.865413 kJ/mol
# Density = 2.653388 g / cm^3
# Si number density = 26.594412 Si / 1000 Ang^3
#
#
#
# Elastic Constant Matrix: (Units=GPa)
#
#
# Indices 1 2 3 4 5 6 
#
# 1 87.0617 6.4856 7.5440 0.0000 0.0000 0.0000
# 2 6.4856 127.8223 15.1661 0.0000 0.0000 0.0000
# 3 7.5440 15.1661 125.8364 0.0000 0.0000 0.0000
# 4 0.0000 0.0000 0.0000 52.9217 0.0000 0.0000
# 5 0.0000 0.0000 0.0000 0.0000 1.5318 0.0000
# 6 0.0000 0.0000 0.0000 0.0000 0.0000 780.7353
#
#
#
# Elastic Compliance Matrix: (Units=1/GPa)
#
#
# Indices 1 2 3 4 5 6 
#
# 1 0.011579 -0.000512 -0.000632 0.000000 0.000000 0.000000
# 2 -0.000512 0.007960 -0.000929 0.000000 0.000000 0.000000
# 3 -0.000632 -0.000929 0.008097 0.000000 0.000000 0.000000
# 4 0.000000 0.000000 0.000000 0.018896 0.000000 0.000000
# 5 0.000000 0.000000 0.000000 0.000000 0.652845 0.000000
# 6 0.000000 0.000000 0.000000 0.000000 0.000000 0.001281
#
#
# Mechanical properties :
#
#
# Convention : Reuss Voigt Hill
#
# Bulk Modulus (GPa) = 42.57432 44.34577 43.46005
# Shear Modulus (GPa) = 7.01623 187.80604 97.41113
#
# Velocity S-wave (km/s) = 1.62603 8.41260 6.05871
# Velocity P-wave (km/s) = 4.42366 10.53915 8.08215
#
# Compressibility (1/GPa) = 0.02348834
#
# Stress axis : x y z
#
# Youngs Moduli (GPa) = 86.36259 125.63535 123.50782
#
# Poissons Ratio (x) = 0.06439 0.07811
# Poissons Ratio (y) = 0.04426 0.11469
# Poissons Ratio (z) = 0.05462 0.11666
#
# Static dielectric constant tensor:
#      x y z
#    x 2.010950 0.000000 0.000000 
#    y 0.000000 2.044110 0.000000 
#    z 0.000000 0.000000 2.144110 
# 
# From -- ./inp_files/15405.got.cif
#   From: 2010.05.17/outbox.cif.g08.bks.cpg/sg36_8_cif.got.tgz:15405.got - 2010.06.03 17:41:39.
