data_PCOD9352925
_publ_section_title
;
Structure prediction by ZEFSAII (Michael W. Deem and Ramdas Pophale) SiO2 
 PCOD9352925
Probable space group: C M C 21
;
_chemical_formula_sum "Si O2"
_cell_formula_units_Z 64
_cell_length_a 7.949253
_cell_length_b 28.995178
_cell_length_c 12.865011
_cell_angle_alpha 90.000000
_cell_angle_beta 90.000000
_cell_angle_gamma 90.000000
_cell_volume 2965.256459
_symmetry_space_group_name_H-M "C M C 21"
_symmetry_group_IT_number 36
_symmetry_cell_setting 'orthorhombic'
loop_
_space_group_symop_operation_xyz
x,y,z
-x,-y,1/2+z
x,-y,1/2+z
-x,y,z
1/2+x,1/2+y,z
1/2-x,1/2-y,1/2+z
1/2+x,1/2-y,1/2+z
1/2-x,1/2+y,z
loop_
_atom_site_type_symbol
_atom_site_label
_atom_site_fract_x
_atom_site_fract_y
_atom_site_fract_z
Si Si1 0.206911 0.368053 0.016920
Si Si2 0.807080 0.423971 0.827718
Si Si3 0.811356 0.015890 0.900999
Si Si4 0.294536 0.773786 0.124575
Si Si5 0.693686 0.080537 0.720375
Si Si6 0.691946 0.674519 0.057194
Si Si7 0.694279 0.073441 0.098646
Si Si8 0.193683 0.679549 0.832901
O O1 0.259218 0.316545 0.051209
O O2 0.259195 0.404653 0.106777
O O3 0.000000 0.368769 0.018789
O O4 0.265291 0.385033 0.904152
O O5 0.804982 0.471349 0.892014
O O6 0.731209 0.433962 0.714113
O O7 0.000000 0.410128 0.806282
O O8 0.787452 0.045350 0.795455
O O9 0.000000 0.998061 0.906247
O O10 0.778077 0.047380 0.001781
O O11 0.500000 0.773461 0.119085
O O12 0.236342 0.722656 0.098585
O O13 0.248577 0.786992 0.241650
O O14 0.500000 0.064261 0.709801
O O15 0.691342 0.128812 0.782659
O O16 0.500000 0.668330 0.094664
O O17 0.792500 0.628278 0.081390
O O18 0.693928 0.679989 0.933423
O O19 0.500000 0.058323 0.097070
O O20 0.000000 0.690523 0.861727
#
# Coordination Sequence:
#
# PCOD9352925 Si02
#       8
#     8   8   8   8   8   8   8   8
#     4   8  16  35  61  87 114 150 199 248 290 343
#     4  10  23  41  63  88 116 157 206 249 292 353
#     4  12  25  39  59  87 121 153 191 247 308 361
#     4   8  17  33  55  85 118 155 197 241 298 356
#     4   9  17  33  60  85 108 145 195 245 289 348
#     4  11  21  34  57  88 122 155 193 251 309 351
#     4  11  24  42  62  86 120 161 207 246 289 361
#     4   9  17  33  55  78 109 152 198 241 287 353
#
# _framework density 21.583293999999999
#
# number of rings (size 3 to 8) (size 9 to 14) (size 15 to 20)
#    0.000    2.250    1.250    3.375    1.750    2.000 
#    0.000    2.500    0.000    3.750    0.000    0.000 
#    0.000    0.000    0.000    0.000    0.000    0.000 
#
# Total GULP energy -178569.450345 kJ/mol
# GULP energy per Si atom -5580.295323 kJ/mol
# Density = 2.153417 g / cm^3
# Si number density = 21.583294 Si / 1000 Ang^3
#
#
#
# Elastic Constant Matrix: (Units=GPa)
#
#
# Indices 1 2 3 4 5 6 
#
# 1 31.1697 -8.7132 2.5958 0.0000 0.0000 0.0000
# 2 -8.7132 75.1567 39.6513 0.0000 0.0000 0.0000
# 3 2.5958 39.6513 78.6781 0.0000 0.0000 0.0000
# 4 0.0000 0.0000 0.0000 17.4285 0.0000 0.0000
# 5 0.0000 0.0000 0.0000 0.0000 -50.3482 0.0000
# 6 0.0000 0.0000 0.0000 0.0000 0.0000 11.8563
#
#
#
# Elastic Compliance Matrix: (Units=1/GPa)
#
#
# Indices 1 2 3 4 5 6 
#
# 1 0.034172 0.006207 -0.004255 0.000000 0.000000 0.000000
# 2 0.006207 0.019252 -0.009907 0.000000 0.000000 0.000000
# 3 -0.004255 -0.009907 0.017843 0.000000 0.000000 0.000000
# 4 0.000000 0.000000 0.000000 0.057377 0.000000 0.000000
# 5 0.000000 0.000000 0.000000 0.000000 -0.019862 0.000000
# 6 0.000000 0.000000 0.000000 0.000000 0.000000 0.084343
#
#
# Mechanical properties :
#
#
# Convention : Reuss Voigt Hill
#
# Bulk Modulus (GPa) = 18.06506 28.00804 23.03655
# Shear Modulus (GPa) = 21.97905 5.88536 13.93220
#
# Velocity S-wave (km/s) = 3.19460 1.65310 2.54344
# Velocity P-wave (km/s) = 4.68992 4.08026 4.39568
#
# Compressibility (1/GPa) = 0.05535547
#
# Stress axis : x y z
#
# Youngs Moduli (GPa) = 29.26381 51.94281 56.04343
#
# Poissons Ratio (x) = -0.32240 0.23849
# Poissons Ratio (y) = -0.18163 0.55523
# Poissons Ratio (z) = 0.12453 0.51461
#
# Static dielectric constant tensor:
#      x y z
#    x 1.816290 0.000000 0.000000 
#    y 0.000000 1.770280 0.000000 
#    z 0.000000 0.000000 1.805810 
# 
# From -- ./inp_files/7230.got.cif
#   From: 2010.05.17/outbox.cif.g08.bks.cpg/sg36_4_cif.got.tgz:7230.got - 2010.06.03 17:41:39.
