data_PCOD9352749
_publ_section_title
;
Structure prediction by ZEFSAII (Michael W. Deem and Ramdas Pophale) SiO2 
 PCOD9352749
Probable space group: C M C 21
;
_chemical_formula_sum "Si O2"
_cell_formula_units_Z 52
_cell_length_a 19.688921
_cell_length_b 19.575033
_cell_length_c 5.270261
_cell_angle_alpha 90.000000
_cell_angle_beta 90.000000
_cell_angle_gamma 90.000000
_cell_volume 2031.218029
_symmetry_space_group_name_H-M "C M C 21"
_symmetry_group_IT_number 36
_symmetry_cell_setting 'orthorhombic'
loop_
_space_group_symop_operation_xyz
x,y,z
-x,-y,1/2+z
x,-y,1/2+z
-x,y,z
1/2+x,1/2+y,z
1/2-x,1/2-y,1/2+z
1/2+x,1/2-y,1/2+z
1/2-x,1/2+y,z
loop_
_atom_site_type_symbol
_atom_site_label
_atom_site_fract_x
_atom_site_fract_y
_atom_site_fract_z
Si Si1 0.500000 0.958333 0.471180
Si Si2 0.335360 0.299306 0.000354
Si Si3 0.651360 0.953670 0.538698
Si Si4 0.425940 0.650999 0.107872
Si Si5 0.917691 0.039896 0.737316
Si Si6 0.801586 0.665710 0.726352
Si Si7 0.078451 0.295674 0.884169
O O1 0.573007 0.926539 0.527632
O O2 0.500000 0.021088 0.674471
O O3 0.272801 0.340424 0.114837
O O4 0.383103 0.245642 0.158471
O O5 0.377502 0.353745 0.841358
O O6 0.301842 0.244840 0.806833
O O7 0.692784 0.887148 0.458408
O O8 0.660996 0.992141 0.805851
O O9 0.500000 0.622444 0.171402
O O10 0.402115 0.615078 0.850962
O O11 0.431910 0.731666 0.071813
O O12 0.000000 0.039412 0.717763
O O13 0.894343 0.993322 0.975840
O O14 0.865948 0.657031 0.530559
O O15 0.000000 0.320003 0.832794
#
# Coordination Sequence:
#
# PCOD9352749 Si02
#       7
#     4   8   8   8   8   8   8
#     4   8  16  36  60  90 126 166 216 264 330 382
#     4  11  22  41  63  95 125 178 211 269 337 394
#     4  10  23  42  66  96 131 175 219 274 330 399
#     4   9  20  37  60  88 124 163 215 276 326 386
#     4   9  18  32  54  85 120 164 213 265 328 387
#     4  11  24  41  67  93 134 172 223 267 336 408
#     4  10  22  40  65  97 125 164 222 278 331 393
#
# _framework density 25.600403
#
# number of rings (size 3 to 8) (size 9 to 14) (size 15 to 20)
#    0.000    2.154    1.538    0.462    5.385    0.615 
#    0.000    1.538    0.000    0.000    0.000    0.000 
#    0.000    0.000    0.000    0.000    0.000    0.000 
#
# Total GULP energy -145138.683288 kJ/mol
# GULP energy per Si atom -5582.257050 kJ/mol
# Density = 2.554214 g / cm^3
# Si number density = 25.600403 Si / 1000 Ang^3
#
#
#
# Elastic Constant Matrix: (Units=GPa)
#
#
# Indices 1 2 3 4 5 6 
#
# 1 113.8910 -0.5674 15.0225 0.0000 0.0000 0.0000
# 2 -0.5674 77.2596 8.1999 0.0000 0.0000 0.0000
# 3 15.0225 8.1999 89.5178 0.0000 0.0000 0.0000
# 4 0.0000 0.0000 0.0000 42.3317 0.0000 0.0000
# 5 0.0000 0.0000 0.0000 0.0000 29.6111 0.0000
# 6 0.0000 0.0000 0.0000 0.0000 0.0000 15.0393
#
#
#
# Elastic Compliance Matrix: (Units=1/GPa)
#
#
# Indices 1 2 3 4 5 6 
#
# 1 0.008983 0.000228 -0.001528 0.000000 0.000000 0.000000
# 2 0.000228 0.013076 -0.001236 0.000000 0.000000 0.000000
# 3 -0.001528 -0.001236 0.011541 0.000000 0.000000 0.000000
# 4 0.000000 0.000000 0.000000 0.023623 0.000000 0.000000
# 5 0.000000 0.000000 0.000000 0.000000 0.033771 0.000000
# 6 0.000000 0.000000 0.000000 0.000000 0.000000 0.066492
#
#
# Mechanical properties :
#
#
# Convention : Reuss Voigt Hill
#
# Bulk Modulus (GPa) = 35.05404 36.21982 35.63693
# Shear Modulus (GPa) = 29.05826 34.59733 31.82780
#
# Velocity S-wave (km/s) = 3.37274 3.68018 3.52981
# Velocity P-wave (km/s) = 5.37491 5.67778 5.52842
#
# Compressibility (1/GPa) = 0.02852738
#
# Stress axis : x y z
#
# Youngs Moduli (GPa) = 111.32059 76.47459 86.65002
#
# Poissons Ratio (x) = -0.01745 0.13244
# Poissons Ratio (y) = -0.02540 0.10711
# Poissons Ratio (z) = 0.17014 0.09453
#
# Static dielectric constant tensor:
#      x y z
#    x 1.887180 0.000000 0.000000 
#    y 0.000000 2.061740 0.000000 
#    z 0.000000 0.000000 2.098220 
# 
# From -- ./inp_files/1379.got.cif
#   From: 2010.05.17/outbox.cif.g08.bks.cpg/sg36_1_cif.got.tgz:1379.got - 2010.06.03 17:41:39.
