data_PCOD9352742
_publ_section_title
;
Structure prediction by ZEFSAII (Michael W. Deem and Ramdas Pophale) SiO2 
 PCOD9352742
Probable space group: C M C 21
;
_chemical_formula_sum "Si O2"
_cell_formula_units_Z 48
_cell_length_a 22.698471
_cell_length_b 10.847042
_cell_length_c 8.737689
_cell_angle_alpha 90.000000
_cell_angle_beta 90.000000
_cell_angle_gamma 90.000000
_cell_volume 2151.317490
_symmetry_space_group_name_H-M "C M C 21"
_symmetry_group_IT_number 36
_symmetry_cell_setting 'orthorhombic'
loop_
_space_group_symop_operation_xyz
x,y,z
-x,-y,1/2+z
x,-y,1/2+z
-x,y,z
1/2+x,1/2+y,z
1/2-x,1/2-y,1/2+z
1/2+x,1/2-y,1/2+z
1/2-x,1/2+y,z
loop_
_atom_site_type_symbol
_atom_site_label
_atom_site_fract_x
_atom_site_fract_y
_atom_site_fract_z
Si Si1 0.225756 0.602579 0.956140
Si Si2 0.933552 0.771316 0.486175
Si Si3 0.565616 0.873461 0.664822
Si Si4 0.343405 0.094784 0.643302
Si Si5 0.849474 0.815407 0.035823
Si Si6 0.147030 0.959742 0.350010
O O1 0.192761 0.620510 0.795550
O O2 0.294677 0.595928 0.929084
O O3 0.201269 0.474396 0.026482
O O4 0.205014 0.720679 0.053894
O O5 0.935565 0.690374 0.330560
O O6 0.881970 0.708223 0.583774
O O7 0.910701 0.904368 0.431302
O O8 0.000000 0.773678 0.551225
O O9 0.500000 0.908735 0.617645
O O10 0.594373 0.774168 0.550613
O O11 0.607813 0.989719 0.674562
O O12 0.851435 0.911578 0.176493
O O13 0.848873 0.895450 0.882402
#
# Coordination Sequence:
#
# PCOD9352742 Si02
#       6
#     8   8   8   8   8   8
#     4  11  25  39  67  97 134 169 222 276 342 399
#     4  10  22  40  64  92 127 174 218 271 332 394
#     4   9  19  40  65  92 129 165 216 274 327 392
#     4  11  21  41  64 101 127 169 219 276 341 391
#     4  10  25  42  62  97 126 177 219 273 331 399
#     4  11  25  42  66  91 136 174 226 272 335 401
#
# _framework density 22.311909
#
# number of rings (size 3 to 8) (size 9 to 14) (size 15 to 20)
#    0.000    1.667    1.667    1.500    7.000    0.667 
#    0.000    0.833    0.000    0.000    0.000    0.000 
#    0.000    0.000    0.000    0.000    0.000    0.000 
#
# Total GULP energy -134190.291141 kJ/mol
# GULP energy per Si atom -5591.262131 kJ/mol
# Density = 2.226113 g / cm^3
# Si number density = 22.311909 Si / 1000 Ang^3
#
#
#
# Elastic Constant Matrix: (Units=GPa)
#
#
# Indices 1 2 3 4 5 6 
#
# 1 97.5549 15.4100 15.4044 0.0000 0.0000 0.0000
# 2 15.4100 68.0401 19.6772 0.0000 0.0000 0.0000
# 3 15.4044 19.6772 49.7333 0.0000 0.0000 0.0000
# 4 0.0000 0.0000 0.0000 33.3333 0.0000 0.0000
# 5 0.0000 0.0000 0.0000 0.0000 3.6949 0.0000
# 6 0.0000 0.0000 0.0000 0.0000 0.0000 20.4750
#
#
#
# Elastic Compliance Matrix: (Units=1/GPa)
#
#
# Indices 1 2 3 4 5 6 
#
# 1 0.010948 -0.001692 -0.002721 0.000000 0.000000 0.000000
# 2 -0.001692 0.016858 -0.006146 0.000000 0.000000 0.000000
# 3 -0.002721 -0.006146 0.023382 0.000000 0.000000 0.000000
# 4 0.000000 0.000000 0.000000 0.030000 0.000000 0.000000
# 5 0.000000 0.000000 0.000000 0.000000 0.270641 0.000000
# 6 0.000000 0.000000 0.000000 0.000000 0.000000 0.048840
#
#
# Mechanical properties :
#
#
# Convention : Reuss Voigt Hill
#
# Bulk Modulus (GPa) = 33.25752 35.14571 34.20162
# Shear Modulus (GPa) = 11.57918 22.48976 17.03447
#
# Velocity S-wave (km/s) = 2.28056 3.17830 2.76609
# Velocity P-wave (km/s) = 4.67682 5.40879 5.05607
#
# Compressibility (1/GPa) = 0.03006839
#
# Stress axis : x y z
#
# Youngs Moduli (GPa) = 91.34350 59.31948 42.76845
#
# Poissons Ratio (x) = 0.10040 0.11639
# Poissons Ratio (y) = 0.15460 0.26284
# Poissons Ratio (z) = 0.24857 0.36456
#
# Static dielectric constant tensor:
#      x y z
#    x 1.799120 0.000000 0.000000 
#    y 0.000000 1.827200 0.000000 
#    z 0.000000 0.000000 1.848750 
# 
# From -- ./inp_files/5549.got.cif
#   From: 2010.05.17/outbox.cif.g08.bks.cpg/sg36_3_cif.got.tgz:5549.got - 2010.06.03 17:41:39.
