data_PCOD9352127
_publ_section_title
;
Structure prediction by ZEFSAII (Michael W. Deem and Ramdas Pophale) SiO2 
 PCOD9352127
Probable space group: C M C 21
;
_chemical_formula_sum "Si O2"
_cell_formula_units_Z 32
_cell_length_a 10.555610
_cell_length_b 9.788228
_cell_length_c 16.203353
_cell_angle_alpha 90.000000
_cell_angle_beta 90.000000
_cell_angle_gamma 90.000000
_cell_volume 1674.142056
_symmetry_space_group_name_H-M "C M C 21"
_symmetry_group_IT_number 36
_symmetry_cell_setting 'orthorhombic'
loop_
_space_group_symop_operation_xyz
x,y,z
-x,-y,1/2+z
x,-y,1/2+z
-x,y,z
1/2+x,1/2+y,z
1/2-x,1/2-y,1/2+z
1/2+x,1/2-y,1/2+z
1/2-x,1/2+y,z
loop_
_atom_site_type_symbol
_atom_site_label
_atom_site_fract_x
_atom_site_fract_y
_atom_site_fract_z
Si Si1 0.747016 0.712204 0.280290
Si Si2 0.768954 0.038527 0.659591
Si Si3 0.500000 0.775940 0.386498
Si Si4 0.500000 0.667707 0.570600
Si Si5 0.500000 0.072566 0.331087
Si Si6 0.500000 0.974309 0.639137
O O1 0.774111 0.854189 0.234753
O O2 0.719761 0.606782 0.205296
O O3 0.624977 0.729767 0.337256
O O4 0.870590 0.660025 0.330492
O O5 0.632906 0.039454 0.613785
O O6 0.878795 0.080716 0.597901
O O7 0.500000 0.708465 0.475743
O O8 0.500000 0.942072 0.390758
O O9 0.500000 0.813224 0.619073
O O10 0.500000 0.009351 0.238419
#
# Coordination Sequence:
#
# PCOD9352127 Si02
#       6
#     8   8   4   4   4   4
#     4  11  20  41  70  92 121 169 218 250 304 387
#     4  11  20  41  70  92 121 169 218 250 304 387
#     4  12  25  40  62 100 133 158 205 276 320 356
#     4  12  25  40  62 100 133 158 205 276 320 356
#     4  10  20  40  67  90 124 166 211 248 313 374
#     4  10  20  40  67  90 124 166 211 248 313 374
#
# _framework density 19.114267999999999
#
# number of rings (size 3 to 8) (size 9 to 14) (size 15 to 20)
#    0.000    1.000   10.000    0.750    0.000    2.000 
#    0.000    0.000    0.000    0.000    0.000    0.000 
#    0.000    0.000    0.000    0.000    0.000    0.000 
#
# Total GULP energy -89305.419215 kJ/mol
# GULP energy per Si atom -5581.588701 kJ/mol
# Density = 1.907076 g / cm^3
# Si number density = 19.114268 Si / 1000 Ang^3
#
#
#
# Elastic Constant Matrix: (Units=GPa)
#
#
# Indices 1 2 3 4 5 6 
#
# 1 172.2193 24.5241 2.3921 0.0000 0.0000 0.0000
# 2 24.5241 40.1132 -15.6922 0.0000 0.0000 0.0000
# 3 2.3921 -15.6922 24.6247 0.0000 0.0000 0.0000
# 4 0.0000 0.0000 0.0000 12.9908 0.0000 0.0000
# 5 0.0000 0.0000 0.0000 0.0000 2.5687 0.0000
# 6 0.0000 0.0000 0.0000 0.0000 0.0000 30.3113
#
#
#
# Elastic Compliance Matrix: (Units=1/GPa)
#
#
# Indices 1 2 3 4 5 6 
#
# 1 0.006691 -0.005788 -0.004338 0.000000 0.000000 0.000000
# 2 -0.005788 0.038215 0.024915 0.000000 0.000000 0.000000
# 3 -0.004338 0.024915 0.056908 0.000000 0.000000 0.000000
# 4 0.000000 0.000000 0.000000 0.076977 0.000000 0.000000
# 5 0.000000 0.000000 0.000000 0.000000 0.389305 0.000000
# 6 0.000000 0.000000 0.000000 0.000000 0.000000 0.032991
#
#
# Mechanical properties :
#
#
# Convention : Reuss Voigt Hill
#
# Bulk Modulus (GPa) = 7.61091 28.82281 18.21686
# Shear Modulus (GPa) = 8.12603 24.22304 16.17453
#
# Velocity S-wave (km/s) = 2.06410 3.56374 2.91211
# Velocity P-wave (km/s) = 3.10984 5.66089 4.56710
#
# Compressibility (1/GPa) = 0.13139041
#
# Stress axis : x y z
#
# Youngs Moduli (GPa) = 149.45456 26.16807 17.57223
#
# Poissons Ratio (x) = 0.15146 0.07623
# Poissons Ratio (y) = 0.86502 -0.43781
# Poissons Ratio (z) = 0.64838 -0.65197
#
# Static dielectric constant tensor:
#      x y z
#    x 1.709500 0.000000 0.000000 
#    y 0.000000 1.657710 0.000000 
#    z 0.000000 0.000000 1.635610 
# 
# From -- ./inp_files/11274.got.cif
#   From: 2010.05.17/outbox.cif.g08.bks.cpg/sg36_6_cif.got.tgz:11274.got - 2010.06.03 17:41:39.
