data_PCOD9352542
_publ_section_title
;
Structure prediction by ZEFSAII (Michael W. Deem and Ramdas Pophale) SiO2 
 PCOD9352542
Probable space group: C M C 21
;
_chemical_formula_sum "Si O2"
_cell_formula_units_Z 52
_cell_length_a 16.270780
_cell_length_b 9.120593
_cell_length_c 13.726885
_cell_angle_alpha 90.000000
_cell_angle_beta 90.000000
_cell_angle_gamma 90.000000
_cell_volume 2037.058233
_symmetry_space_group_name_H-M "C M C 21"
_symmetry_group_IT_number 36
_symmetry_cell_setting 'orthorhombic'
loop_
_space_group_symop_operation_xyz
x,y,z
-x,-y,1/2+z
x,-y,1/2+z
-x,y,z
1/2+x,1/2+y,z
1/2-x,1/2-y,1/2+z
1/2+x,1/2-y,1/2+z
1/2-x,1/2+y,z
loop_
_atom_site_type_symbol
_atom_site_label
_atom_site_fract_x
_atom_site_fract_y
_atom_site_fract_z
Si Si1 0.406064 0.438834 0.530920
Si Si2 0.156575 0.197364 0.394670
Si Si3 0.829776 0.756877 0.373960
Si Si4 0.500000 0.890969 0.815745
Si Si5 0.000000 0.480330 0.113133
Si Si6 0.187021 0.103378 0.671906
Si Si7 0.000000 0.718033 0.783307
Si Si8 0.827398 0.415278 0.562779
O O1 0.500000 0.399004 0.515883
O O2 0.384939 0.583180 0.467639
O O3 0.346052 0.320296 0.482322
O O4 0.385939 0.494819 0.638470
O O5 0.249595 0.155329 0.367671
O O6 0.175906 0.347803 0.453961
O O7 0.087427 0.215525 0.313012
O O8 0.813328 0.875341 0.287815
O O9 0.916316 0.683085 0.348498
O O10 0.500000 0.896261 0.698280
O O11 0.500000 0.062432 0.841099
O O12 0.085077 0.504046 0.061225
O O13 0.000000 0.327916 0.171031
O O14 0.176280 0.268232 0.629751
O O15 0.263753 0.027551 0.614663
#
# Coordination Sequence:
#
# PCOD9352542 Si02
#       8
#     8   8   8   4   4   8   4   8
#     4  11  25  43  67  95 130 171 227 270 328 394
#     4  11  24  40  65  96 128 172 220 274 323 394
#     4  12  24  42  66  95 133 171 221 271 337 386
#     4  10  24  39  64  95 128 172 214 268 327 393
#     4  10  21  41  65  94 127 174 217 263 328 414
#     4  11  25  42  68  94 134 176 217 273 333 399
#     4  10  21  40  63  93 123 168 221 257 327 389
#     4  11  23  43  65  95 132 172 222 268 336 390
#
# _framework density 25.527007000000001
#
# number of rings (size 3 to 8) (size 9 to 14) (size 15 to 20)
#    0.462    0.615    4.615    1.385    8.615    0.000 
#    0.000    0.000    1.692    0.000    0.000    0.000 
#    0.000    0.000    0.000    0.000    0.000    0.000 
#
# Total GULP energy -145354.389080 kJ/mol
# GULP energy per Si atom -5590.553426 kJ/mol
# Density = 2.546891 g / cm^3
# Si number density = 25.527007 Si / 1000 Ang^3
#
#
#
# Elastic Constant Matrix: (Units=GPa)
#
#
# Indices 1 2 3 4 5 6 
#
# 1 198.9306 49.5234 20.8514 0.0000 0.0000 0.0000
# 2 49.5234 99.4808 45.2017 0.0000 0.0000 0.0000
# 3 20.8514 45.2017 90.5760 0.0000 0.0000 0.0000
# 4 0.0000 0.0000 0.0000 42.5521 0.0000 0.0000
# 5 0.0000 0.0000 0.0000 0.0000 18.2699 0.0000
# 6 0.0000 0.0000 0.0000 0.0000 0.0000 12.2963
#
#
#
# Elastic Compliance Matrix: (Units=1/GPa)
#
#
# Indices 1 2 3 4 5 6 
#
# 1 0.005739 -0.002919 0.000135 0.000000 0.000000 0.000000
# 2 -0.002919 0.014484 -0.006556 0.000000 0.000000 0.000000
# 3 0.000135 -0.006556 0.014281 0.000000 0.000000 0.000000
# 4 0.000000 0.000000 0.000000 0.023501 0.000000 0.000000
# 5 0.000000 0.000000 0.000000 0.000000 0.054735 0.000000
# 6 0.000000 0.000000 0.000000 0.000000 0.000000 0.081325
#
#
# Mechanical properties :
#
#
# Convention : Reuss Voigt Hill
#
# Bulk Modulus (GPa) = 63.18995 68.90450 66.04722
# Shear Modulus (GPa) = 22.93367 32.85105 27.89236
#
# Velocity S-wave (km/s) = 3.00060 3.59125 3.30913
# Velocity P-wave (km/s) = 6.06734 6.65188 6.36632
#
# Compressibility (1/GPa) = 0.01582530
#
# Stress axis : x y z
#
# Youngs Moduli (GPa) = 174.23800 69.04070 70.02172
#
# Poissons Ratio (x) = 0.20150 -0.00947
# Poissons Ratio (y) = 0.50853 0.45909
# Poissons Ratio (z) = -0.02357 0.45266
#
# Static dielectric constant tensor:
#      x y z
#    x 2.049790 0.000000 0.000000 
#    y 0.000000 2.022580 0.000000 
#    z 0.000000 0.000000 2.040740 
# 
# From -- ./inp_files/12182.got.cif
#   From: 2010.05.17/outbox.cif.g08.bks.cpg/sg36_7_cif.got.tgz:12182.got - 2010.06.03 17:41:39.
