data_PCOD9352974
_publ_section_title
;
Structure prediction by ZEFSAII (Michael W. Deem and Ramdas Pophale) SiO2 
 PCOD9352974
Probable space group: C M C 21
;
_chemical_formula_sum "Si O2"
_cell_formula_units_Z 64
_cell_length_a 30.163746
_cell_length_b 9.096471
_cell_length_c 10.605057
_cell_angle_alpha 90.000000
_cell_angle_beta 90.000000
_cell_angle_gamma 90.000000
_cell_volume 2909.854150
_symmetry_space_group_name_H-M "C M C 21"
_symmetry_group_IT_number 36
_symmetry_cell_setting 'orthorhombic'
loop_
_space_group_symop_operation_xyz
x,y,z
-x,-y,1/2+z
x,-y,1/2+z
-x,y,z
1/2+x,1/2+y,z
1/2-x,1/2-y,1/2+z
1/2+x,1/2-y,1/2+z
1/2-x,1/2+y,z
loop_
_atom_site_type_symbol
_atom_site_label
_atom_site_fract_x
_atom_site_fract_y
_atom_site_fract_z
Si Si1 0.319744 0.010609 0.743830
Si Si2 0.947505 0.452923 0.934595
Si Si3 0.889017 0.032514 0.567342
Si Si4 0.449106 0.293693 0.626226
Si Si5 0.109377 0.271300 0.358136
Si Si6 0.119251 0.248525 0.780617
Si Si7 0.732080 0.903295 0.991901
Si Si8 0.188348 0.099603 0.977411
O O1 0.350949 0.146397 0.784779
O O2 0.287490 0.041678 0.626261
O O3 0.350945 0.871730 0.710400
O O4 0.295374 0.965558 0.873183
O O5 0.920350 0.603923 0.928068
O O6 0.919619 0.341169 0.846727
O O7 0.000000 0.468983 0.902391
O O8 0.944968 0.369602 0.068458
O O9 0.878026 0.144193 0.454920
O O10 0.900587 0.131458 0.685705
O O11 0.927424 0.917056 0.537324
O O12 0.844702 0.937321 0.591813
O O13 0.500000 0.325749 0.644745
O O14 0.422302 0.298453 0.753993
O O15 0.153819 0.162533 0.872970
O O16 0.723689 0.729250 0.996047
O O17 0.781673 0.955496 0.963664
#
# Coordination Sequence:
#
# PCOD9352974 Si02
#       8
#     8   8   8   8   8   8   8   8
#     4  10  24  43  71  99 138 179 235 293 364 427
#     4  10  23  45  71 102 141 185 236 292 352 426
#     4  12  25  45  70 102 140 187 230 295 362 431
#     4  11  25  44  66 100 145 183 234 296 353 433
#     4  11  25  43  76 101 139 187 243 291 364 433
#     4  10  23  44  69 100 136 181 231 289 358 424
#     4  11  26  44  66 101 135 186 234 299 352 429
#     4  11  26  44  67  99 142 178 235 291 358 423
#
# _framework density 21.994230999999999
#
# number of rings (size 3 to 8) (size 9 to 14) (size 15 to 20)
#    0.000    1.250    1.250    2.625   12.250    2.500 
#    0.000    0.000    0.000    0.000    0.000    0.000 
#    0.000    0.000    0.000    0.000    0.000    0.000 
#
# Total GULP energy -178743.711746 kJ/mol
# GULP energy per Si atom -5585.740992 kJ/mol
# Density = 2.194417 g / cm^3
# Si number density = 21.994231 Si / 1000 Ang^3
#
#
#
# Elastic Constant Matrix: (Units=GPa)
#
#
# Indices 1 2 3 4 5 6 
#
# 1 113.5586 38.9184 22.2891 0.0000 0.0000 0.0000
# 2 38.9184 101.2302 27.1221 0.0000 0.0000 0.0000
# 3 22.2891 27.1221 57.8806 0.0000 0.0000 0.0000
# 4 0.0000 0.0000 0.0000 30.5449 0.0000 0.0000
# 5 0.0000 0.0000 0.0000 0.0000 20.6045 0.0000
# 6 0.0000 0.0000 0.0000 0.0000 0.0000 29.2845
#
#
#
# Elastic Compliance Matrix: (Units=1/GPa)
#
#
# Indices 1 2 3 4 5 6 
#
# 1 0.010437 -0.003357 -0.002446 0.000000 0.000000 0.000000
# 2 -0.003357 0.012377 -0.004507 0.000000 0.000000 0.000000
# 3 -0.002446 -0.004507 0.020331 0.000000 0.000000 0.000000
# 4 0.000000 0.000000 0.000000 0.032739 0.000000 0.000000
# 5 0.000000 0.000000 0.000000 0.000000 0.048533 0.000000
# 6 0.000000 0.000000 0.000000 0.000000 0.000000 0.034148
#
#
# Mechanical properties :
#
#
# Convention : Reuss Voigt Hill
#
# Bulk Modulus (GPa) = 44.39638 49.92539 47.16088
# Shear Modulus (GPa) = 26.78223 28.37610 27.57916
#
# Velocity S-wave (km/s) = 3.49333 3.59578 3.54493
# Velocity P-wave (km/s) = 6.04156 6.32361 6.18419
#
# Compressibility (1/GPa) = 0.02252436
#
# Stress axis : x y z
#
# Youngs Moduli (GPa) = 95.81634 80.79772 49.18686
#
# Poissons Ratio (x) = 0.27124 0.12031
# Poissons Ratio (y) = 0.32166 0.22167
# Poissons Ratio (z) = 0.23436 0.36413
#
# Static dielectric constant tensor:
#      x y z
#    x 1.812820 0.000000 0.000000 
#    y 0.000000 1.825280 0.000000 
#    z 0.000000 0.000000 1.817570 
# 
# From -- ./inp_files/9741.got.cif
#   From: 2010.05.17/outbox.cif.g08.bks.cpg/sg36_5_cif.got.tgz:9741.got - 2010.06.03 17:41:39.
