data_PCOD9352730
_publ_section_title
;
Structure prediction by ZEFSAII (Michael W. Deem and Ramdas Pophale) SiO2 
 PCOD9352730
Probable space group: C M C 21
;
_chemical_formula_sum "Si O2"
_cell_formula_units_Z 64
_cell_length_a 8.775812
_cell_length_b 15.697636
_cell_length_c 24.072075
_cell_angle_alpha 90.000000
_cell_angle_beta 90.000000
_cell_angle_gamma 90.000000
_cell_volume 3316.157073
_symmetry_space_group_name_H-M "C M C 21"
_symmetry_group_IT_number 36
_symmetry_cell_setting 'orthorhombic'
loop_
_space_group_symop_operation_xyz
x,y,z
-x,-y,1/2+z
x,-y,1/2+z
-x,y,z
1/2+x,1/2+y,z
1/2-x,1/2-y,1/2+z
1/2+x,1/2-y,1/2+z
1/2-x,1/2+y,z
loop_
_atom_site_type_symbol
_atom_site_label
_atom_site_fract_x
_atom_site_fract_y
_atom_site_fract_z
Si Si1 0.818764 0.662602 0.402550
Si Si2 0.818276 0.346867 0.648352
Si Si3 0.683071 0.345116 0.137133
Si Si4 0.682574 0.502973 0.845930
Si Si5 0.818307 0.342097 0.416751
Si Si6 0.318658 0.402001 0.530541
Si Si7 0.319534 0.089637 0.524931
Si Si8 0.683111 0.501113 0.216845
O O1 0.743845 0.587776 0.366799
O O2 0.746286 0.754476 0.392067
O O3 0.792878 0.638117 0.467216
O O4 0.000000 0.665004 0.393029
O O5 0.783324 0.248259 0.661108
O O6 0.742446 0.369804 0.589490
O O7 0.757786 0.413379 0.693343
O O8 0.000000 0.355786 0.643067
O O9 0.500000 0.350758 0.128710
O O10 0.764150 0.357786 0.078131
O O11 0.728908 0.421551 0.178093
O O12 0.500000 0.506623 0.852756
O O13 0.757661 0.577142 0.882404
O O14 0.720364 0.514199 0.781057
O O15 0.756446 0.352271 0.479407
O O16 0.000000 0.341786 0.417180
O O17 0.500000 0.393507 0.527947
O O18 0.270361 0.500651 0.524699
O O19 0.500000 0.071733 0.529238
O O20 0.500000 0.509537 0.212454
#
# Coordination Sequence:
#
# PCOD9352730 Si02
#       8
#     8   8   8   8   8   8   8   8
#     4  11  24  42  65  94 129 166 209 261 318 379
#     4  11  23  39  63  95 127 164 209 256 311 373
#     4  10  22  40  62  90 126 165 202 250 310 372
#     4  11  24  43  66  92 126 168 214 265 318 375
#     4  12  25  42  65  95 129 165 212 263 315 380
#     4  12  23  38  63  92 128 168 204 253 318 379
#     4  11  22  37  62  95 126 160 204 255 311 378
#     4  10  23  43  64  89 123 166 212 259 313 372
#
# _framework density 19.299448000000002
#
# number of rings (size 3 to 8) (size 9 to 14) (size 15 to 20)
#    0.000    1.000    2.500    4.500    0.000    6.500 
#    0.000    1.250    0.000    0.000    0.000    0.000 
#    0.000    0.000    0.000    0.000    0.000    0.000 
#
# Total GULP energy -179043.015015 kJ/mol
# GULP energy per Si atom -5595.094219 kJ/mol
# Density = 1.925552 g / cm^3
# Si number density = 19.299448 Si / 1000 Ang^3
#
#
#
# Elastic Constant Matrix: (Units=GPa)
#
#
# Indices 1 2 3 4 5 6 
#
# 1 63.1618 20.2945 24.5482 0.0000 0.0000 0.0000
# 2 20.2945 78.9752 -10.6654 0.0000 0.0000 0.0000
# 3 24.5482 -10.6654 52.8456 0.0000 0.0000 0.0000
# 4 0.0000 0.0000 0.0000 4.2655 0.0000 0.0000
# 5 0.0000 0.0000 0.0000 0.0000 16.1287 0.0000
# 6 0.0000 0.0000 0.0000 0.0000 0.0000 31.7757
#
#
#
# Elastic Compliance Matrix: (Units=1/GPa)
#
#
# Indices 1 2 3 4 5 6 
#
# 1 0.023010 -0.007562 -0.012215 0.000000 0.000000 0.000000
# 2 -0.007562 0.015502 0.006642 0.000000 0.000000 0.000000
# 3 -0.012215 0.006642 0.025938 0.000000 0.000000 0.000000
# 4 0.000000 0.000000 0.000000 0.234439 0.000000 0.000000
# 5 0.000000 0.000000 0.000000 0.000000 0.062001 0.000000
# 6 0.000000 0.000000 0.000000 0.000000 0.000000 0.031471
#
#
# Mechanical properties :
#
#
# Convention : Reuss Voigt Hill
#
# Bulk Modulus (GPa) = 26.19274 29.25971 27.72622
# Shear Modulus (GPa) = 11.59130 21.15435 16.37282
#
# Velocity S-wave (km/s) = 2.45338 3.31435 2.91582
# Velocity P-wave (km/s) = 4.65045 5.46263 5.07282
#
# Compressibility (1/GPa) = 0.03817852
#
# Stress axis : x y z
#
# Youngs Moduli (GPa) = 43.46008 64.50576 38.55405
#
# Poissons Ratio (x) = 0.48782 0.47093
# Poissons Ratio (y) = 0.32866 -0.25606
# Poissons Ratio (z) = 0.53086 -0.42843
#
# Static dielectric constant tensor:
#      x y z
#    x 1.646030 0.000000 0.000000 
#    y 0.000000 1.664660 0.000000 
#    z 0.000000 0.000000 1.647880 
# 
# From -- ./inp_files/16536.got.cif
#   From: 2010.05.17/outbox.cif.g08.bks.cpg/sg36_9_cif.got.tgz:16536.got - 2010.06.03 17:41:39.
