data_PCOD9352946
_publ_section_title
;
Structure prediction by ZEFSAII (Michael W. Deem and Ramdas Pophale) SiO2 
 PCOD9352946
Probable space group: C M C 21
;
_chemical_formula_sum "Si O2"
_cell_formula_units_Z 56
_cell_length_a 30.931655
_cell_length_b 5.262459
_cell_length_c 13.974197
_cell_angle_alpha 90.000000
_cell_angle_beta 90.000000
_cell_angle_gamma 90.000000
_cell_volume 2274.671804
_symmetry_space_group_name_H-M "C M C 21"
_symmetry_group_IT_number 36
_symmetry_cell_setting 'orthorhombic'
loop_
_space_group_symop_operation_xyz
x,y,z
-x,-y,1/2+z
x,-y,1/2+z
-x,y,z
1/2+x,1/2+y,z
1/2-x,1/2-y,1/2+z
1/2+x,1/2-y,1/2+z
1/2-x,1/2+y,z
loop_
_atom_site_type_symbol
_atom_site_label
_atom_site_fract_x
_atom_site_fract_y
_atom_site_fract_z
Si Si1 0.125623 0.491818 0.631040
Si Si2 0.574289 0.330416 0.489529
Si Si3 0.859253 0.172915 0.449398
Si Si4 0.231050 0.641941 0.883436
Si Si5 0.500000 0.827934 0.197602
Si Si6 0.500000 0.660961 0.570814
Si Si7 0.224415 0.350500 0.152887
Si Si8 0.421539 0.992046 0.819379
O O1 0.088560 0.670115 0.582565
O O2 0.133026 0.265354 0.557040
O O3 0.172695 0.627906 0.636928
O O4 0.107973 0.386555 0.731922
O O5 0.621586 0.394586 0.446229
O O6 0.543166 0.568549 0.513751
O O7 0.555314 0.178804 0.400038
O O8 0.811228 0.220673 0.420529
O O9 0.889501 0.329670 0.378225
O O10 0.232598 0.347681 0.913086
O O11 0.229563 0.645196 0.768247
O O12 0.500000 0.054891 0.115107
O O13 0.541139 0.862020 0.264477
O O14 0.500000 0.546519 0.155290
O O15 0.251334 0.596654 0.117440
#
# Coordination Sequence:
#
# PCOD9352946 Si02
#       8
#     8   8   8   8   4   4   8   8
#     4  11  24  45  69 106 143 191 249 307 364 447
#     4  11  27  45  74 109 148 198 244 317 368 449
#     4  11  26  43  72 107 147 193 249 307 370 441
#     4  10  23  43  69 102 144 190 241 300 366 437
#     4  12  27  49  80 109 146 198 238 302 371 438
#     4  12  27  51  76 113 152 186 248 304 369 440
#     4  10  23  42  68 102 141 192 243 301 366 439
#     4  11  25  47  74 106 146 196 245 301 379 442
#
# _framework density 24.618939000000001
#
# number of rings (size 3 to 8) (size 9 to 14) (size 15 to 20)
#    0.000    1.143    2.857    1.286   10.000    4.000 
#    0.000    0.000    0.000    0.000    0.000    0.000 
#    0.000    0.000    0.000    0.000    0.000    0.000 
#
# Total GULP energy -156513.965482 kJ/mol
# GULP energy per Si atom -5589.784481 kJ/mol
# Density = 2.456291 g / cm^3
# Si number density = 24.618939 Si / 1000 Ang^3
#
#
#
# Elastic Constant Matrix: (Units=GPa)
#
#
# Indices 1 2 3 4 5 6 
#
# 1 108.4774 20.1765 3.2974 0.0000 0.0000 0.0000
# 2 20.1765 64.3643 26.6163 0.0000 0.0000 0.0000
# 3 3.2974 26.6163 93.6011 0.0000 0.0000 0.0000
# 4 0.0000 0.0000 0.0000 9.9890 0.0000 0.0000
# 5 0.0000 0.0000 0.0000 0.0000 30.7478 0.0000
# 6 0.0000 0.0000 0.0000 0.0000 0.0000 32.6290
#
#
#
# Elastic Compliance Matrix: (Units=1/GPa)
#
#
# Indices 1 2 3 4 5 6 
#
# 1 0.009819 -0.003326 0.000600 0.000000 0.000000 0.000000
# 2 -0.003326 0.018734 -0.005210 0.000000 0.000000 0.000000
# 3 0.000600 -0.005210 0.012144 0.000000 0.000000 0.000000
# 4 0.000000 0.000000 0.000000 0.100110 0.000000 0.000000
# 5 0.000000 0.000000 0.000000 0.000000 0.032523 0.000000
# 6 0.000000 0.000000 0.000000 0.000000 0.000000 0.030648
#
#
# Mechanical properties :
#
#
# Convention : Reuss Voigt Hill
#
# Bulk Modulus (GPa) = 40.28293 40.73591 40.50942
# Shear Modulus (GPa) = 21.91791 29.09667 25.50729
#
# Velocity S-wave (km/s) = 2.98700 3.44158 3.22232
# Velocity P-wave (km/s) = 5.31924 5.68991 5.50770
#
# Compressibility (1/GPa) = 0.02482441
#
# Stress axis : x y z
#
# Youngs Moduli (GPa) = 101.84433 53.37998 82.34530
#
# Poissons Ratio (x) = 0.17754 -0.04940
# Poissons Ratio (y) = 0.33874 0.42901
# Poissons Ratio (z) = -0.06110 0.27810
#
# Static dielectric constant tensor:
#      x y z
#    x 1.970140 0.000000 0.000000 
#    y 0.000000 1.986280 0.000000 
#    z 0.000000 0.000000 2.004360 
# 
# From -- ./inp_files/13188.got.cif
#   From: 2010.05.17/outbox.cif.g08.bks.cpg/sg36_7_cif.got.tgz:13188.got - 2010.06.03 17:41:39.
