data_PCOD9352847
_publ_section_title
;
Structure prediction by ZEFSAII (Michael W. Deem and Ramdas Pophale) SiO2 
 PCOD9352847
Probable space group: C M C 21
;
_chemical_formula_sum "Si O2"
_cell_formula_units_Z 40
_cell_length_a 24.717534
_cell_length_b 9.563581
_cell_length_c 7.211215
_cell_angle_alpha 90.000000
_cell_angle_beta 90.000000
_cell_angle_gamma 90.000000
_cell_volume 1704.645690
_symmetry_space_group_name_H-M "C M C 21"
_symmetry_group_IT_number 36
_symmetry_cell_setting 'orthorhombic'
loop_
_space_group_symop_operation_xyz
x,y,z
-x,-y,1/2+z
x,-y,1/2+z
-x,y,z
1/2+x,1/2+y,z
1/2-x,1/2-y,1/2+z
1/2+x,1/2-y,1/2+z
1/2-x,1/2+y,z
loop_
_atom_site_type_symbol
_atom_site_label
_atom_site_fract_x
_atom_site_fract_y
_atom_site_fract_z
Si Si1 0.563382 0.436780 0.381110
Si Si2 0.783298 0.654788 0.541500
Si Si3 0.939698 0.237203 0.261909
Si Si4 0.157778 0.381534 0.405322
Si Si5 0.824742 0.165670 0.719691
O O1 0.500000 0.412202 0.313321
O O2 0.569320 0.339877 0.563631
O O3 0.564755 0.605334 0.402916
O O4 0.619160 0.408707 0.269346
O O5 0.807759 0.690075 0.741839
O O6 0.817533 0.530934 0.449299
O O7 0.794645 0.784650 0.407108
O O8 0.722438 0.602007 0.587399
O O9 0.901250 0.362758 0.319739
O O10 0.000000 0.290507 0.261647
O O11 0.159811 0.299896 0.597228
#
# Coordination Sequence:
#
# PCOD9352847 Si02
#       5
#     8   8   8   8   8
#     4  10  22  42  74 111 146 190 247 307 372 441
#     4  12  26  44  68 104 141 195 245 296 365 439
#     4  10  22  43  70 107 147 189 241 305 374 437
#     4  12  25  45  70 101 142 187 242 300 359 443
#     4  12  25  44  72 101 148 193 241 304 366 432
#
# _framework density 23.465285999999999
#
# number of rings (size 3 to 8) (size 9 to 14) (size 15 to 20)
#    0.000    0.800    6.000    1.200    0.000    7.200 
#    0.000    2.000    0.000    0.000    0.000    0.000 
#    0.000    0.000    0.000    0.000    0.000    0.000 
#
# Total GULP energy -111554.538502 kJ/mol
# GULP energy per Si atom -5577.726925 kJ/mol
# Density = 2.341188 g / cm^3
# Si number density = 23.465286 Si / 1000 Ang^3
#
#
#
# Elastic Constant Matrix: (Units=GPa)
#
#
# Indices 1 2 3 4 5 6 
#
# 1 223.4690 53.9601 57.0810 0.0000 0.0000 0.0000
# 2 53.9601 50.2870 0.1736 0.0000 0.0000 0.0000
# 3 57.0810 0.1736 72.5913 0.0000 0.0000 0.0000
# 4 0.0000 0.0000 0.0000 27.8662 0.0000 0.0000
# 5 0.0000 0.0000 0.0000 0.0000 46.3058 0.0000
# 6 0.0000 0.0000 0.0000 0.0000 0.0000 38.3015
#
#
#
# Elastic Compliance Matrix: (Units=1/GPa)
#
#
# Indices 1 2 3 4 5 6 
#
# 1 0.008266 -0.008848 -0.006479 0.000000 0.000000 0.000000
# 2 -0.008848 0.029356 0.006887 0.000000 0.000000 0.000000
# 3 -0.006479 0.006887 0.018854 0.000000 0.000000 0.000000
# 4 0.000000 0.000000 0.000000 0.035886 0.000000 0.000000
# 5 0.000000 0.000000 0.000000 0.000000 0.021596 0.000000
# 6 0.000000 0.000000 0.000000 0.000000 0.000000 0.026109
#
#
# Mechanical properties :
#
#
# Convention : Reuss Voigt Hill
#
# Bulk Modulus (GPa) = 25.25445 63.19740 44.22593
# Shear Modulus (GPa) = 29.38691 38.17021 33.77856
#
# Velocity S-wave (km/s) = 3.54270 4.03757 3.79821
# Velocity P-wave (km/s) = 5.24597 6.98045 6.17442
#
# Compressibility (1/GPa) = 0.03959698
#
# Stress axis : x y z
#
# Youngs Moduli (GPa) = 120.97498 34.06466 53.03975
#
# Poissons Ratio (x) = 0.30139 0.34363
# Poissons Ratio (y) = 1.07034 -0.36528
# Poissons Ratio (z) = 0.78377 -0.23460
#
# Static dielectric constant tensor:
#      x y z
#    x 1.944200 0.000000 0.000000 
#    y 0.000000 1.857380 0.000000 
#    z 0.000000 0.000000 1.951050 
# 
# From -- ./inp_files/5088.got.cif
#   From: 2010.05.17/outbox.cif.g08.bks.cpg/sg36_3_cif.got.tgz:5088.got - 2010.06.03 17:41:39.
