data_PCOD9352301
_publ_section_title
;
Structure prediction by ZEFSAII (Michael W. Deem and Ramdas Pophale) SiO2 
 PCOD9352301
Probable space group: C M C 21
;
_chemical_formula_sum "Si O2"
_cell_formula_units_Z 64
_cell_length_a 14.071010
_cell_length_b 12.211918
_cell_length_c 17.554486
_cell_angle_alpha 90.000000
_cell_angle_beta 90.000000
_cell_angle_gamma 90.000000
_cell_volume 3016.457904
_symmetry_space_group_name_H-M "C M C 21"
_symmetry_group_IT_number 36
_symmetry_cell_setting 'orthorhombic'
loop_
_space_group_symop_operation_xyz
x,y,z
-x,-y,1/2+z
x,-y,1/2+z
-x,y,z
1/2+x,1/2+y,z
1/2-x,1/2-y,1/2+z
1/2+x,1/2-y,1/2+z
1/2-x,1/2+y,z
loop_
_atom_site_type_symbol
_atom_site_label
_atom_site_fract_x
_atom_site_fract_y
_atom_site_fract_z
Si Si1 0.107978 0.221894 0.699500
Si Si2 0.387630 0.703730 0.278120
Si Si3 0.110055 0.361215 0.974764
Si Si4 0.749083 0.300885 0.402318
Si Si5 0.894772 0.389895 0.508690
Si Si6 0.107598 0.956012 0.333911
Si Si7 0.391612 0.957362 0.685919
Si Si8 0.804384 0.324812 0.142383
O O1 0.110128 0.132723 0.765836
O O2 0.128429 0.345091 0.730296
O O3 0.191638 0.192386 0.641674
O O4 0.000000 0.223965 0.668694
O O5 0.500000 0.730006 0.284885
O O6 0.321163 0.774932 0.333873
O O7 0.375326 0.577063 0.301660
O O8 0.352343 0.729753 0.192803
O O9 0.113922 0.492296 0.967288
O O10 0.147367 0.334846 0.060254
O O11 0.000000 0.328028 0.968058
O O12 0.175082 0.296549 0.916104
O O13 0.813335 0.314098 0.476897
O O14 0.687923 0.410921 0.389882
O O15 0.887813 0.416969 0.597947
O O16 0.000000 0.345217 0.493140
O O17 0.000000 0.954263 0.366403
O O18 0.500000 0.992650 0.702218
O O19 0.325441 0.062293 0.688535
#
# Coordination Sequence:
#
# PCOD9352301 Si02
#       8
#     8   8   8   8   8   8   8   8
#     4  10  21  37  57  85 117 154 194 237 294 354
#     4  11  24  40  61  89 125 161 198 251 306 355
#     4  10  22  40  63  89 119 156 199 250 301 355
#     4  12  21  38  61  88 113 163 208 241 293 367
#     4   9  19  37  59  86 118 149 191 248 299 346
#     4  10  23  41  56  81 123 159 194 245 299 348
#     4   9  19  37  61  87 118 151 189 245 299 351
#     4  11  21  38  66  91 121 153 201 249 307 356
#
# _framework density 21.216937999999999
#
# number of rings (size 3 to 8) (size 9 to 14) (size 15 to 20)
#    0.000    1.750    1.250    4.125    1.750    0.000 
#    2.250    0.625    0.000    3.000    0.000    0.000 
#    0.000    0.000    0.000    0.000    0.000    0.000 
#
# Total GULP energy -178780.325279 kJ/mol
# GULP energy per Si atom -5586.885165 kJ/mol
# Density = 2.116865 g / cm^3
# Si number density = 21.216938 Si / 1000 Ang^3
#
#
#
# Elastic Constant Matrix: (Units=GPa)
#
#
# Indices 1 2 3 4 5 6 
#
# 1 145.9519 37.8139 23.0643 0.0000 0.0000 0.0000
# 2 37.8139 65.6368 -4.0808 0.0000 0.0000 0.0000
# 3 23.0643 -4.0808 37.7121 0.0000 0.0000 0.0000
# 4 0.0000 0.0000 0.0000 26.1935 0.0000 0.0000
# 5 0.0000 0.0000 0.0000 0.0000 16.0958 0.0000
# 6 0.0000 0.0000 0.0000 0.0000 0.0000 33.2043
#
#
#
# Elastic Compliance Matrix: (Units=1/GPa)
#
#
# Indices 1 2 3 4 5 6 
#
# 1 0.009353 -0.005783 -0.006346 0.000000 0.000000 0.000000
# 2 -0.005783 0.018914 0.005583 0.000000 0.000000 0.000000
# 3 -0.006346 0.005583 0.031002 0.000000 0.000000 0.000000
# 4 0.000000 0.000000 0.000000 0.038177 0.000000 0.000000
# 5 0.000000 0.000000 0.000000 0.000000 0.062128 0.000000
# 6 0.000000 0.000000 0.000000 0.000000 0.000000 0.030117
#
#
# Mechanical properties :
#
#
# Convention : Reuss Voigt Hill
#
# Bulk Modulus (GPa) = 21.65527 40.32175 30.98851
# Shear Modulus (GPa) = 22.91760 27.93228 25.42494
#
# Velocity S-wave (km/s) = 3.29014 3.63231 3.46545
# Velocity P-wave (km/s) = 4.96609 6.05288 5.53622
#
# Compressibility (1/GPa) = 0.04617814
#
# Stress axis : x y z
#
# Youngs Moduli (GPa) = 106.92292 52.87126 32.25623
#
# Poissons Ratio (x) = 0.30573 0.20469
# Poissons Ratio (y) = 0.61829 -0.18009
# Poissons Ratio (z) = 0.67849 -0.29519
#
# Static dielectric constant tensor:
#      x y z
#    x 1.768130 0.000000 0.000000 
#    y 0.000000 1.771050 0.000000 
#    z 0.000000 0.000000 1.761200 
# 
# From -- ./inp_files/14717.got.cif
#   From: 2010.05.17/outbox.cif.g08.bks.cpg/sg36_8_cif.got.tgz:14717.got - 2010.06.03 17:41:39.
