data_PCOD9352432
_publ_section_title
;
Structure prediction by ZEFSAII (Michael W. Deem and Ramdas Pophale) SiO2 
 PCOD9352432
Probable space group: C M C 21
;
_chemical_formula_sum "Si O2"
_cell_formula_units_Z 64
_cell_length_a 25.498015
_cell_length_b 9.579889
_cell_length_c 11.403662
_cell_angle_alpha 90.000000
_cell_angle_beta 90.000000
_cell_angle_gamma 90.000000
_cell_volume 2785.551459
_symmetry_space_group_name_H-M "C M C 21"
_symmetry_group_IT_number 36
_symmetry_cell_setting 'orthorhombic'
loop_
_space_group_symop_operation_xyz
x,y,z
-x,-y,1/2+z
x,-y,1/2+z
-x,y,z
1/2+x,1/2+y,z
1/2-x,1/2-y,1/2+z
1/2+x,1/2-y,1/2+z
1/2-x,1/2+y,z
loop_
_atom_site_type_symbol
_atom_site_label
_atom_site_fract_x
_atom_site_fract_y
_atom_site_fract_z
Si Si1 0.665297 0.544361 0.797180
Si Si2 0.941654 0.693501 0.498975
Si Si3 0.768272 0.399728 0.549704
Si Si4 0.238691 0.662859 0.695867
Si Si5 0.608984 0.828900 0.764361
Si Si6 0.938292 0.632479 0.018945
Si Si7 0.352811 0.420373 0.541196
Si Si8 0.351974 0.872094 0.344940
O O1 0.728147 0.561601 0.782866
O O2 0.644001 0.701046 0.805287
O O3 0.646302 0.489872 0.669957
O O4 0.644957 0.482589 0.921879
O O5 0.938309 0.676778 0.358191
O O6 0.931493 0.535049 0.539965
O O7 0.897654 0.802845 0.538494
O O8 0.000000 0.736603 0.535360
O O9 0.771142 0.559981 0.587865
O O10 0.775001 0.289735 0.655352
O O11 0.707127 0.367320 0.523761
O O12 0.812862 0.378188 0.455313
O O13 0.184042 0.711151 0.752558
O O14 0.588372 0.804669 0.633960
O O15 0.637489 0.977006 0.785692
O O16 0.000000 0.661881 0.010934
O O17 0.907290 0.671733 0.900312
#
# Coordination Sequence:
#
# PCOD9352432 Si02
#       8
#     8   8   8   8   8   8   8   8
#     4  10  21  42  61  96 129 177 219 283 333 416
#     4   9  20  39  65  90 126 174 225 285 351 419
#     4  11  25  39  63  92 132 175 228 278 339 416
#     4  11  23  39  58  91 129 175 219 277 339 410
#     4  10  21  38  65  92 131 174 224 280 356 420
#     4  10  21  39  63  98 130 166 225 291 351 417
#     4  10  22  42  64  92 131 172 228 277 345 412
#     4  11  22  38  63  93 128 175 223 277 346 424
#
# _framework density 22.975701999999998
#
# number of rings (size 3 to 8) (size 9 to 14) (size 15 to 20)
#    0.000    1.750    1.250    2.625    7.000    1.500 
#    6.750    3.125    0.000    0.000    0.000    0.000 
#    0.000    0.000    0.000    0.000    0.000    0.000 
#
# Total GULP energy -178532.035517 kJ/mol
# GULP energy per Si atom -5579.126110 kJ/mol
# Density = 2.292341 g / cm^3
# Si number density = 22.975702 Si / 1000 Ang^3
#
#
#
# Elastic Constant Matrix: (Units=GPa)
#
#
# Indices 1 2 3 4 5 6 
#
# 1 116.4952 10.1016 30.6420 0.0000 0.0000 0.0000
# 2 10.1016 40.7064 25.1744 0.0000 0.0000 0.0000
# 3 30.6420 25.1744 87.4151 0.0000 0.0000 0.0000
# 4 0.0000 0.0000 0.0000 30.7225 0.0000 0.0000
# 5 0.0000 0.0000 0.0000 0.0000 33.1801 0.0000
# 6 0.0000 0.0000 0.0000 0.0000 0.0000 24.0284
#
#
#
# Elastic Compliance Matrix: (Units=1/GPa)
#
#
# Indices 1 2 3 4 5 6 
#
# 1 0.009460 -0.000361 -0.003212 0.000000 0.000000 0.000000
# 2 -0.000361 0.029903 -0.008485 0.000000 0.000000 0.000000
# 3 -0.003212 -0.008485 0.015009 0.000000 0.000000 0.000000
# 4 0.000000 0.000000 0.000000 0.032549 0.000000 0.000000
# 5 0.000000 0.000000 0.000000 0.000000 0.030139 0.000000
# 6 0.000000 0.000000 0.000000 0.000000 0.000000 0.041617
#
#
# Mechanical properties :
#
#
# Convention : Reuss Voigt Hill
#
# Bulk Modulus (GPa) = 33.05136 41.82807 37.43972
# Shear Modulus (GPa) = 25.92279 29.49946 27.71112
#
# Velocity S-wave (km/s) = 3.36262 3.58710 3.47667
# Velocity P-wave (km/s) = 5.43073 5.94990 5.69623
#
# Compressibility (1/GPa) = 0.03025594
#
# Stress axis : x y z
#
# Youngs Moduli (GPa) = 105.70540 33.44110 66.62545
#
# Poissons Ratio (x) = 0.01208 0.21401
# Poissons Ratio (y) = 0.03817 0.56533
# Poissons Ratio (z) = 0.33954 0.28375
#
# Static dielectric constant tensor:
#      x y z
#    x 1.839220 0.000000 0.000000 
#    y 0.000000 1.880800 0.000000 
#    z 0.000000 0.000000 2.045060 
# 
# From -- ./inp_files/9524.got.cif
#   From: 2010.05.17/outbox.cif.g08.bks.cpg/sg36_5_cif.got.tgz:9524.got - 2010.06.03 17:41:39.
