data_PCOD9352586
_publ_section_title
;
Structure prediction by ZEFSAII (Michael W. Deem and Ramdas Pophale) SiO2 
 PCOD9352586
Probable space group: C M C 21
;
_chemical_formula_sum "Si O2"
_cell_formula_units_Z 40
_cell_length_a 10.235701
_cell_length_b 18.694255
_cell_length_c 10.269846
_cell_angle_alpha 90.000000
_cell_angle_beta 90.000000
_cell_angle_gamma 90.000000
_cell_volume 1965.122756
_symmetry_space_group_name_H-M "C M C 21"
_symmetry_group_IT_number 36
_symmetry_cell_setting 'orthorhombic'
loop_
_space_group_symop_operation_xyz
x,y,z
-x,-y,1/2+z
x,-y,1/2+z
-x,y,z
1/2+x,1/2+y,z
1/2-x,1/2-y,1/2+z
1/2+x,1/2-y,1/2+z
1/2-x,1/2+y,z
loop_
_atom_site_type_symbol
_atom_site_label
_atom_site_fract_x
_atom_site_fract_y
_atom_site_fract_z
Si Si1 0.351895 0.690064 0.598090
Si Si2 0.146865 0.955566 0.243763
Si Si3 0.277421 0.739062 0.333842
Si Si4 0.853029 0.387892 0.425505
Si Si5 0.356644 0.382599 0.644766
O O1 0.500000 0.702221 0.550167
O O2 0.338055 0.606584 0.635267
O O3 0.254307 0.713751 0.482743
O O4 0.333054 0.734682 0.731851
O O5 0.263515 0.942530 0.344404
O O6 0.000000 0.944624 0.300076
O O7 0.150125 0.035339 0.189969
O O8 0.356681 0.812948 0.348039
O O9 0.344994 0.672471 0.263560
O O10 0.766431 0.371601 0.551754
O O11 0.000000 0.412351 0.451730
O O12 0.500000 0.370744 0.582697
#
# Coordination Sequence:
#
# PCOD9352586 Si02
#       5
#     8   8   8   8   8
#     4  10  21  41  63  91 129 163 207 265 318 375
#     4   9  22  41  65  92 122 161 211 264 312 372
#     4  11  22  40  64  92 125 168 211 262 319 373
#     4  11  23  41  62  89 130 167 205 260 319 379
#     4  11  23  39  66  94 121 163 215 263 313 371
#
# _framework density 20.354963000000001
#
# number of rings (size 3 to 8) (size 9 to 14) (size 15 to 20)
#    0.000    1.600    2.000    2.400    2.800    1.600 
#    0.000    1.000    0.000    0.000    0.000    0.000 
#    0.000    0.000    0.000    0.000    0.000    0.000 
#
# Total GULP energy -111469.006657 kJ/mol
# GULP energy per Si atom -5573.450333 kJ/mol
# Density = 2.030863 g / cm^3
# Si number density = 20.354963 Si / 1000 Ang^3
#
#
#
# Elastic Constant Matrix: (Units=GPa)
#
#
# Indices 1 2 3 4 5 6 
#
# 1 136.0317 33.1761 51.9571 0.0000 0.0000 0.0000
# 2 33.1761 115.1804 24.8948 0.0000 0.0000 0.0000
# 3 51.9571 24.8948 89.7681 0.0000 0.0000 0.0000
# 4 0.0000 0.0000 0.0000 18.1260 0.0000 0.0000
# 5 0.0000 0.0000 0.0000 0.0000 26.3258 0.0000
# 6 0.0000 0.0000 0.0000 0.0000 0.0000 5.9914
#
#
#
# Elastic Compliance Matrix: (Units=1/GPa)
#
#
# Indices 1 2 3 4 5 6 
#
# 1 0.009736 -0.001688 -0.005167 0.000000 0.000000 0.000000
# 2 -0.001688 0.009528 -0.001666 0.000000 0.000000 0.000000
# 3 -0.005167 -0.001666 0.014593 0.000000 0.000000 0.000000
# 4 0.000000 0.000000 0.000000 0.055169 0.000000 0.000000
# 5 0.000000 0.000000 0.000000 0.000000 0.037986 0.000000
# 6 0.000000 0.000000 0.000000 0.000000 0.000000 0.166907
#
#
# Mechanical properties :
#
#
# Convention : Reuss Voigt Hill
#
# Bulk Modulus (GPa) = 59.46718 62.33733 60.90226
# Shear Modulus (GPa) = 15.79451 25.48544 20.63998
#
# Velocity S-wave (km/s) = 2.78862 3.54227 3.18779
# Velocity P-wave (km/s) = 6.29659 6.88635 6.59806
#
# Compressibility (1/GPa) = 0.01681600
#
# Stress axis : x y z
#
# Youngs Moduli (GPa) = 102.70646 104.95251 68.52803
#
# Poissons Ratio (x) = 0.17712 0.35411
# Poissons Ratio (y) = 0.17333 0.11414
# Poissons Ratio (z) = 0.53072 0.17481
#
# Static dielectric constant tensor:
#      x y z
#    x 1.734780 0.000000 0.000000 
#    y 0.000000 1.719790 0.000000 
#    z 0.000000 0.000000 1.769480 
# 
# From -- ./inp_files/3063.got.cif
#   From: 2010.05.17/outbox.cif.g08.bks.cpg/sg36_2_cif.got.tgz:3063.got - 2010.06.03 17:41:39.
