data_PCOD9352043
_publ_section_title
;
Structure prediction by ZEFSAII (Michael W. Deem and Ramdas Pophale) SiO2 
 PCOD9352043
Probable space group: C M C 21
;
_chemical_formula_sum "Si O2"
_cell_formula_units_Z 48
_cell_length_a 8.993931
_cell_length_b 19.957771
_cell_length_c 14.257229
_cell_angle_alpha 90.000000
_cell_angle_beta 90.000000
_cell_angle_gamma 90.000000
_cell_volume 2559.155715
_symmetry_space_group_name_H-M "C M C 21"
_symmetry_group_IT_number 36
_symmetry_cell_setting 'orthorhombic'
loop_
_space_group_symop_operation_xyz
x,y,z
-x,-y,1/2+z
x,-y,1/2+z
-x,y,z
1/2+x,1/2+y,z
1/2-x,1/2-y,1/2+z
1/2+x,1/2-y,1/2+z
1/2-x,1/2+y,z
loop_
_atom_site_type_symbol
_atom_site_label
_atom_site_fract_x
_atom_site_fract_y
_atom_site_fract_z
Si Si1 0.672286 0.329545 0.981370
Si Si2 0.823599 0.928062 0.495458
Si Si3 0.678948 0.607251 0.785141
Si Si4 0.823144 0.446437 0.095272
Si Si5 0.171138 0.307474 0.594018
Si Si6 0.822500 0.735350 0.302240
O O1 0.500000 0.350447 0.973012
O O2 0.734442 0.301116 0.884256
O O3 0.768445 0.389313 0.023349
O O4 0.679350 0.267253 0.052994
O O5 0.783867 0.926597 0.384970
O O6 0.778892 0.856422 0.538479
O O7 0.000000 0.938351 0.502437
O O8 0.739641 0.984222 0.554797
O O9 0.500000 0.604541 0.772171
O O10 0.755730 0.572582 0.696681
O O11 0.719694 0.686196 0.792309
O O12 0.000000 0.448249 0.101008
O O13 0.204047 0.301686 0.703878
O O14 0.000000 0.330609 0.581541
O O15 0.000000 0.733852 0.321643
#
# Coordination Sequence:
#
# PCOD9352043 Si02
#       6
#     8   8   8   8   8   8
#     4  11  22  39  63  93 126 162 207 257 307 365
#     4  11  24  42  66  92 126 165 207 258 313 375
#     4  10  21  41  66  92 123 163 207 257 317 375
#     4  12  26  42  64  92 127 168 211 258 312 373
#     4  10  21  38  62  91 126 161 201 255 308 365
#     4  10  20  38  63  94 128 163 207 259 309 365
#
# _framework density 18.756186
#
# number of rings (size 3 to 8) (size 9 to 14) (size 15 to 20)
#    0.000    1.333    3.333    2.500    0.000    4.667 
#    0.000    0.000    0.000    0.000    0.000    0.000 
#    0.000    0.000    0.000    0.000    0.000    0.000 
#
# Total GULP energy -134152.306329 kJ/mol
# GULP energy per Si atom -5589.679430 kJ/mol
# Density = 1.871350 g / cm^3
# Si number density = 18.756186 Si / 1000 Ang^3
#
#
#
# Elastic Constant Matrix: (Units=GPa)
#
#
# Indices 1 2 3 4 5 6 
#
# 1 59.6610 13.1577 28.5979 0.0000 0.0000 0.0000
# 2 13.1577 38.2076 -13.8878 0.0000 0.0000 0.0000
# 3 28.5979 -13.8878 60.2011 0.0000 0.0000 0.0000
# 4 0.0000 0.0000 0.0000 26.0218 0.0000 0.0000
# 5 0.0000 0.0000 0.0000 0.0000 30.7547 0.0000
# 6 0.0000 0.0000 0.0000 0.0000 0.0000 31.4724
#
#
#
# Elastic Compliance Matrix: (Units=1/GPa)
#
#
# Indices 1 2 3 4 5 6 
#
# 1 0.028631 -0.016159 -0.017329 0.000000 0.000000 0.000000
# 2 -0.016159 0.037688 0.016370 0.000000 0.000000 0.000000
# 3 -0.017329 0.016370 0.028619 0.000000 0.000000 0.000000
# 4 0.000000 0.000000 0.000000 0.038429 0.000000 0.000000
# 5 0.000000 0.000000 0.000000 0.000000 0.032515 0.000000
# 6 0.000000 0.000000 0.000000 0.000000 0.000000 0.031774
#
#
# Mechanical properties :
#
#
# Convention : Reuss Voigt Hill
#
# Bulk Modulus (GPa) = 16.47340 23.75616 20.11478
# Shear Modulus (GPa) = 19.83139 26.32988 23.08064
#
# Velocity S-wave (km/s) = 3.25518 3.75079 3.51174
# Velocity P-wave (km/s) = 4.78856 5.60814 5.21447
#
# Compressibility (1/GPa) = 0.06070394
#
# Stress axis : x y z
#
# Youngs Moduli (GPa) = 34.92680 26.53394 34.94161
#
# Poissons Ratio (x) = 0.42875 0.60549
# Poissons Ratio (y) = 0.56437 -0.57200
# Poissons Ratio (z) = 0.60523 -0.43436
#
# Static dielectric constant tensor:
#      x y z
#    x 1.630870 0.000000 0.000000 
#    y 0.000000 1.627760 0.000000 
#    z 0.000000 0.000000 1.632800 
# 
# From -- ./inp_files/10361.got.cif
#   From: 2010.05.17/outbox.cif.g08.bks.cpg/sg36_6_cif.got.tgz:10361.got - 2010.06.03 17:41:39.
