data_PCOD9352503
_publ_section_title
;
Structure prediction by ZEFSAII (Michael W. Deem and Ramdas Pophale) SiO2 
 PCOD9352503
Probable space group: C M C 21
;
_chemical_formula_sum "Si O2"
_cell_formula_units_Z 64
_cell_length_a 17.563857
_cell_length_b 10.965775
_cell_length_c 15.267767
_cell_angle_alpha 90.000000
_cell_angle_beta 90.000000
_cell_angle_gamma 90.000000
_cell_volume 2940.591833
_symmetry_space_group_name_H-M "C M C 21"
_symmetry_group_IT_number 36
_symmetry_cell_setting 'orthorhombic'
loop_
_space_group_symop_operation_xyz
x,y,z
-x,-y,1/2+z
x,-y,1/2+z
-x,y,z
1/2+x,1/2+y,z
1/2-x,1/2-y,1/2+z
1/2+x,1/2-y,1/2+z
1/2-x,1/2+y,z
loop_
_atom_site_type_symbol
_atom_site_label
_atom_site_fract_x
_atom_site_fract_y
_atom_site_fract_z
Si Si1 0.909740 0.866452 0.236970
Si Si2 0.419968 0.000869 0.861044
Si Si3 0.192990 0.441698 0.132484
Si Si4 0.080489 0.295640 0.218536
Si Si5 0.350932 0.619273 0.552288
Si Si6 0.868372 0.099449 0.349621
Si Si7 0.586277 0.877958 0.541378
Si Si8 0.296245 0.143128 0.283557
O O1 0.898705 0.920238 0.138338
O O2 0.847868 0.755707 0.248239
O O3 0.000000 0.835089 0.248252
O O4 0.883250 0.968075 0.306380
O O5 0.500000 0.932777 0.869517
O O6 0.420755 0.076974 0.771717
O O7 0.349343 0.913803 0.858682
O O8 0.415945 0.096539 0.938715
O O9 0.159446 0.311935 0.166222
O O10 0.265271 0.423727 0.070574
O O11 0.121526 0.503521 0.084906
O O12 0.214841 0.538424 0.208987
O O13 0.081765 0.191610 0.291788
O O14 0.000000 0.284697 0.168621
O O15 0.379181 0.589328 0.454245
O O16 0.359159 0.765200 0.557023
O O17 0.785021 0.157037 0.329175
O O18 0.500000 0.852700 0.572376
#
# Coordination Sequence:
#
# PCOD9352503 Si02
#       8
#     8   8   8   8   8   8   8   8
#     4  12  27  47  71 103 141 188 240 290 350 425
#     4   9  19  37  64  95 127 169 222 279 342 410
#     4  11  23  40  67 101 134 173 228 294 349 404
#     4  10  21  39  64  96 134 177 225 281 347 414
#     4  12  25  43  69 103 139 182 236 291 350 421
#     4  12  26  44  71 100 142 187 235 289 357 425
#     4  11  22  40  66  99 135 178 233 282 345 429
#     4  11  23  42  66  97 136 174 227 288 348 410
#
# _framework density 21.764327000000002
#
# number of rings (size 3 to 8) (size 9 to 14) (size 15 to 20)
#    0.000    1.000    3.750    3.000    1.750    3.500 
#    0.000    1.250    0.000    4.500    0.000    0.000 
#    0.000    0.000    0.000    0.000    0.000    0.000 
#
# Total GULP energy -178439.863637 kJ/mol
# GULP energy per Si atom -5576.245739 kJ/mol
# Density = 2.171479 g / cm^3
# Si number density = 21.764327 Si / 1000 Ang^3
#
#
#
# Elastic Constant Matrix: (Units=GPa)
#
#
# Indices 1 2 3 4 5 6 
#
# 1 97.6029 28.2904 -1.8227 0.0000 0.0000 0.0000
# 2 28.2904 68.8208 29.7790 0.0000 0.0000 0.0000
# 3 -1.8227 29.7790 68.3150 0.0000 0.0000 0.0000
# 4 0.0000 0.0000 0.0000 30.6861 0.0000 0.0000
# 5 0.0000 0.0000 0.0000 0.0000 6.3397 0.0000
# 6 0.0000 0.0000 0.0000 0.0000 0.0000 41.4790
#
#
#
# Elastic Compliance Matrix: (Units=1/GPa)
#
#
# Indices 1 2 3 4 5 6 
#
# 1 0.012135 -0.006321 0.003079 0.000000 0.000000 0.000000
# 2 -0.006321 0.021201 -0.009410 0.000000 0.000000 0.000000
# 3 0.003079 -0.009410 0.018822 0.000000 0.000000 0.000000
# 4 0.000000 0.000000 0.000000 0.032588 0.000000 0.000000
# 5 0.000000 0.000000 0.000000 0.000000 0.157736 0.000000
# 6 0.000000 0.000000 0.000000 0.000000 0.000000 0.024109
#
#
# Mechanical properties :
#
#
# Convention : Reuss Voigt Hill
#
# Bulk Modulus (GPa) = 37.23809 38.58136 37.90973
# Shear Modulus (GPa) = 16.61980 27.60043 22.11012
#
# Velocity S-wave (km/s) = 2.76638 3.56497 3.19076
# Velocity P-wave (km/s) = 5.22978 5.89158 5.57052
#
# Compressibility (1/GPa) = 0.02685422
#
# Stress axis : x y z
#
# Youngs Moduli (GPa) = 82.40503 47.16847 53.12877
#
# Poissons Ratio (x) = 0.29814 -0.16359
# Poissons Ratio (y) = 0.52086 0.49995
# Poissons Ratio (z) = -0.25373 0.44386
#
# Static dielectric constant tensor:
#      x y z
#    x 1.883310 0.000000 0.000000 
#    y 0.000000 1.821580 0.000000 
#    z 0.000000 0.000000 1.831590 
# 
# From -- ./inp_files/12658.got.cif
#   From: 2010.05.17/outbox.cif.g08.bks.cpg/sg36_7_cif.got.tgz:12658.got - 2010.06.03 17:41:39.
