data_PCOD9352493
_publ_section_title
;
Structure prediction by ZEFSAII (Michael W. Deem and Ramdas Pophale) SiO2 
 PCOD9352493
Probable space group: C M C 21
;
_chemical_formula_sum "Si O2"
_cell_formula_units_Z 64
_cell_length_a 13.213321
_cell_length_b 23.830577
_cell_length_c 8.537745
_cell_angle_alpha 90.000000
_cell_angle_beta 90.000000
_cell_angle_gamma 90.000000
_cell_volume 2688.374226
_symmetry_space_group_name_H-M "C M C 21"
_symmetry_group_IT_number 36
_symmetry_cell_setting 'orthorhombic'
loop_
_space_group_symop_operation_xyz
x,y,z
-x,-y,1/2+z
x,-y,1/2+z
-x,y,z
1/2+x,1/2+y,z
1/2-x,1/2-y,1/2+z
1/2+x,1/2-y,1/2+z
1/2-x,1/2+y,z
loop_
_atom_site_type_symbol
_atom_site_label
_atom_site_fract_x
_atom_site_fract_y
_atom_site_fract_z
Si Si1 0.230507 0.641729 0.487470
Si Si2 0.118359 0.029117 0.981673
Si Si3 0.618441 0.634756 0.779143
Si Si4 0.310193 0.250980 0.343710
Si Si5 0.616708 0.418935 0.822537
Si Si6 0.619995 0.924969 0.479501
Si Si7 0.119282 0.462079 0.120998
Si Si8 0.377885 0.204961 0.004955
O O1 0.308640 0.644339 0.631927
O O2 0.170532 0.698716 0.458519
O O3 0.303220 0.630430 0.339004
O O4 0.159239 0.588867 0.516669
O O5 0.154681 0.079276 0.870440
O O6 0.000000 0.024850 0.938912
O O7 0.151311 0.965837 0.949306
O O8 0.122262 0.049714 0.158138
O O9 0.500000 0.628329 0.735527
O O10 0.630779 0.691389 0.879903
O O11 0.344730 0.231420 0.171173
O O12 0.191631 0.266043 0.372172
O O13 0.500000 0.401440 0.848419
O O14 0.500000 0.922138 0.512691
O O15 0.632368 0.945118 0.301069
O O16 0.651886 0.860988 0.503900
O O17 0.663434 0.976106 0.583148
O O18 0.000000 0.465978 0.090492
O O19 0.500000 0.210654 0.983876
#
# Coordination Sequence:
#
# PCOD9352493 Si02
#       8
#     8   8   8   8   8   8   8   8
#     4  12  26  40  66 101 132 183 235 290 352 437
#     4   9  20  39  66  96 133 178 223 277 350 422
#     4  11  24  47  71  97 139 185 233 298 356 417
#     4  12  27  45  72 104 135 191 251 292 366 447
#     4  10  21  39  63  98 137 175 222 283 351 421
#     4   9  21  43  73 101 140 190 234 297 375 439
#     4  10  23  44  67 102 141 181 235 295 362 439
#     4  11  26  51  76 105 153 199 247 318 374 436
#
# _framework density 23.806211000000001
#
# number of rings (size 3 to 8) (size 9 to 14) (size 15 to 20)
#    0.000    1.500    1.250    2.250    3.500    6.500 
#    0.000    1.250    0.000    0.000    0.000    0.000 
#    0.000    0.000    0.000    0.000    0.000    0.000 
#
# Total GULP energy -179010.547713 kJ/mol
# GULP energy per Si atom -5594.079616 kJ/mol
# Density = 2.375203 g / cm^3
# Si number density = 23.806211 Si / 1000 Ang^3
#
#
#
# Elastic Constant Matrix: (Units=GPa)
#
#
# Indices 1 2 3 4 5 6 
#
# 1 97.6526 20.5263 2.8649 0.0000 0.0000 0.0000
# 2 20.5263 136.9887 5.1219 0.0000 0.0000 0.0000
# 3 2.8649 5.1219 16.5301 0.0000 0.0000 0.0000
# 4 0.0000 0.0000 0.0000 40.6626 0.0000 0.0000
# 5 0.0000 0.0000 0.0000 0.0000 12.9945 0.0000
# 6 0.0000 0.0000 0.0000 0.0000 0.0000 35.3165
#
#
#
# Elastic Compliance Matrix: (Units=1/GPa)
#
#
# Indices 1 2 3 4 5 6 
#
# 1 0.010604 -0.001538 -0.001361 0.000000 0.000000 0.000000
# 2 -0.001538 0.007608 -0.002091 0.000000 0.000000 0.000000
# 3 -0.001361 -0.002091 0.061379 0.000000 0.000000 0.000000
# 4 0.000000 0.000000 0.000000 0.024593 0.000000 0.000000
# 5 0.000000 0.000000 0.000000 0.000000 0.076956 0.000000
# 6 0.000000 0.000000 0.000000 0.000000 0.000000 0.028315
#
#
# Mechanical properties :
#
#
# Convention : Reuss Voigt Hill
#
# Bulk Modulus (GPa) = 14.36551 34.24417 24.30484
# Shear Modulus (GPa) = 20.60672 32.63858 26.62265
#
# Velocity S-wave (km/s) = 2.94530 3.70673 3.34774
# Velocity P-wave (km/s) = 4.19689 5.72150 5.01744
#
# Compressibility (1/GPa) = 0.06961119
#
# Stress axis : x y z
#
# Youngs Moduli (GPa) = 94.30766 131.43202 16.29213
#
# Poissons Ratio (x) = 0.20213 0.02218
# Poissons Ratio (y) = 0.14504 0.03407
# Poissons Ratio (z) = 0.12837 0.27482
#
# Static dielectric constant tensor:
#      x y z
#    x 1.923470 0.000000 0.000000 
#    y 0.000000 1.911500 0.000000 
#    z 0.000000 0.000000 1.908870 
# 
# From -- ./inp_files/4351.got.cif
#   From: 2010.05.17/outbox.cif.g08.bks.cpg/sg36_3_cif.got.tgz:4351.got - 2010.06.03 17:41:39.
