data_PCOD9352178
_publ_section_title
;
Structure prediction by ZEFSAII (Michael W. Deem and Ramdas Pophale) SiO2 
 PCOD9352178
Probable space group: C M C 21
;
_chemical_formula_sum "Si O2"
_cell_formula_units_Z 60
_cell_length_a 21.700297
_cell_length_b 4.998053
_cell_length_c 25.366098
_cell_angle_alpha 90.000000
_cell_angle_beta 90.000000
_cell_angle_gamma 90.000000
_cell_volume 2751.187572
_symmetry_space_group_name_H-M "C M C 21"
_symmetry_group_IT_number 36
_symmetry_cell_setting 'orthorhombic'
loop_
_space_group_symop_operation_xyz
x,y,z
-x,-y,1/2+z
x,-y,1/2+z
-x,y,z
1/2+x,1/2+y,z
1/2-x,1/2-y,1/2+z
1/2+x,1/2-y,1/2+z
1/2-x,1/2+y,z
loop_
_atom_site_type_symbol
_atom_site_label
_atom_site_fract_x
_atom_site_fract_y
_atom_site_fract_z
Si Si1 0.292065 0.068179 0.712170
Si Si2 0.789130 0.996677 0.365384
Si Si3 0.100160 0.561286 0.137778
Si Si4 0.572440 0.439430 0.567526
Si Si5 0.883436 0.343658 0.799924
Si Si6 0.429356 0.110380 0.904301
Si Si7 0.500000 0.831970 0.729031
Si Si8 0.374653 0.609909 0.954391
O O1 0.233963 0.867272 0.714497
O O2 0.332736 0.012720 0.660166
O O3 0.337615 0.991979 0.759731
O O4 0.732191 0.796781 0.356091
O O5 0.843477 0.886740 0.328364
O O6 0.810505 0.957074 0.425878
O O7 0.078567 0.347985 0.094663
O O8 0.053180 0.565673 0.186701
O O9 0.095708 0.848677 0.110441
O O10 0.500000 0.491355 0.555359
O O11 0.613107 0.450960 0.514971
O O12 0.907356 0.542085 0.845607
O O13 0.944315 0.241483 0.769816
O O14 0.500000 0.035250 0.909833
O O15 0.419959 0.414822 0.921400
O O16 0.390291 0.917466 0.942432
#
# Coordination Sequence:
#
# PCOD9352178 Si02
#       8
#     8   8   8   8   8   8   4   8
#     4  11  24  44  66  94 130 176 228 274 320 396
#     4  11  23  44  66  93 134 175 221 271 319 387
#     4  11  24  42  68  97 135 170 222 280 346 387
#     4  12  22  43  68 100 130 175 217 276 347 405
#     4  10  22  38  71  95 137 174 223 260 344 396
#     4  11  21  40  60 100 136 170 205 269 328 398
#     4  10  20  44  62 102 134 174 210 286 332 406
#     4  11  25  40  66  96 131 175 225 267 326 398
#
# _framework density 21.808762000000002
#
# number of rings (size 3 to 8) (size 9 to 14) (size 15 to 20)
#    0.000    1.067    2.000    5.200    0.000    2.133 
#    0.000   12.000    0.000    0.000    0.000    0.000 
#    0.000    0.000    0.000    0.000    0.000    0.000 
#
# Total GULP energy -167334.983070 kJ/mol
# GULP energy per Si atom -5577.832769 kJ/mol
# Density = 2.175912 g / cm^3
# Si number density = 21.808762 Si / 1000 Ang^3
#
#
#
# Elastic Constant Matrix: (Units=GPa)
#
#
# Indices 1 2 3 4 5 6 
#
# 1 82.7127 -14.0292 17.2564 0.0000 0.0000 0.0000
# 2 -14.0292 -32.4239 -161.4179 0.0000 0.0000 0.0000
# 3 17.2564 -161.4179 -253.8855 0.0000 0.0000 0.0000
# 4 0.0000 0.0000 0.0000 -65.2021 0.0000 0.0000
# 5 0.0000 0.0000 0.0000 0.0000 37.9983 0.0000
# 6 0.0000 0.0000 0.0000 0.0000 0.0000 21.8311
#
#
#
# Elastic Compliance Matrix: (Units=1/GPa)
#
#
# Indices 1 2 3 4 5 6 
#
# 1 0.013336 0.004749 -0.002113 0.000000 0.000000 0.000000
# 2 0.004749 0.015935 -0.009809 0.000000 0.000000 0.000000
# 3 -0.002113 -0.009809 0.002154 0.000000 0.000000 0.000000
# 4 0.000000 0.000000 0.000000 -0.015337 0.000000 0.000000
# 5 0.000000 0.000000 0.000000 0.000000 0.026317 0.000000
# 6 0.000000 0.000000 0.000000 0.000000 0.000000 0.045806
#
#
# Mechanical properties :
#
#
# Convention : Reuss Voigt Hill
#
# Bulk Modulus (GPa) = 58.54578 -57.77534 0.38522
# Shear Modulus (GPa) = 46.18897 -4.10161 21.04368
#
# Velocity S-wave (km/s) = 4.60707 -1.37288 3.10968
# Velocity P-wave (km/s) = 7.42990 5.39095 3.61532
#
# Compressibility (1/GPa) = 0.01708065
#
# Stress axis : x y z
#
# Youngs Moduli (GPa) = 74.98249 62.75306 464.26511
#
# Poissons Ratio (x) = -0.29803 0.98103
# Poissons Ratio (y) = -0.35611 4.55389
# Poissons Ratio (z) = 0.15844 0.61553
#
# Static dielectric constant tensor:
#      x y z
#    x 1.796550 0.000000 0.000000 
#    y 0.000000 1.783700 0.000000 
#    z 0.000000 0.000000 1.789950 
# 
# From -- ./inp_files/17050.got.cif
#   From: 2010.05.17/outbox.cif.g08.bks.cpg/sg36_9_cif.got.tgz:17050.got - 2010.06.03 17:41:39.
