data_PCOD9352645
_publ_section_title
;
Structure prediction by ZEFSAII (Michael W. Deem and Ramdas Pophale) SiO2 
 PCOD9352645
Probable space group: C M C 21
;
_chemical_formula_sum "Si O2"
_cell_formula_units_Z 48
_cell_length_a 7.363688
_cell_length_b 24.756540
_cell_length_c 10.614365
_cell_angle_alpha 90.000000
_cell_angle_beta 90.000000
_cell_angle_gamma 90.000000
_cell_volume 1934.992759
_symmetry_space_group_name_H-M "C M C 21"
_symmetry_group_IT_number 36
_symmetry_cell_setting 'orthorhombic'
loop_
_space_group_symop_operation_xyz
x,y,z
-x,-y,1/2+z
x,-y,1/2+z
-x,y,z
1/2+x,1/2+y,z
1/2-x,1/2-y,1/2+z
1/2+x,1/2-y,1/2+z
1/2-x,1/2+y,z
loop_
_atom_site_type_symbol
_atom_site_label
_atom_site_fract_x
_atom_site_fract_y
_atom_site_fract_z
Si Si1 0.707355 0.125070 0.235140
Si Si2 0.718396 0.657091 0.681845
Si Si3 0.203284 0.009042 0.319540
Si Si4 0.217065 0.162041 0.960742
Si Si5 0.275991 0.550483 0.575381
Si Si6 0.221065 0.740381 0.309541
O O1 0.500000 0.118023 0.277240
O O2 0.807119 0.070696 0.270695
O O3 0.706154 0.136212 0.085435
O O4 0.786017 0.179851 0.295793
O O5 0.500000 0.659195 0.671194
O O6 0.781011 0.613404 0.580921
O O7 0.780339 0.719139 0.695862
O O8 0.759370 0.635520 0.824635
O O9 0.287476 0.015863 0.456828
O O10 0.000000 0.986383 0.337349
O O11 0.285829 0.976232 0.205087
O O12 0.000000 0.160782 0.974615
O O13 0.272738 0.224318 0.931752
O O14 0.500000 0.549354 0.571019
O O15 0.000000 0.738012 0.306120
#
# Coordination Sequence:
#
# PCOD9352645 Si02
#       6
#     8   8   8   8   8   8
#     4  11  21  34  52  81 118 148 176 218 277 335
#     4   7  13  29  54  79 103 136 177 227 277 315
#     4  10  22  36  56  83 107 140 187 235 276 323
#     4   8  16  32  55  77 102 142 186 226 267 314
#     4   9  18  33  56  84 107 134 183 240 279 313
#     4   7  15  30  49  74 107 146 175 208 266 326
#
# _framework density 24.806294000000001
#
# number of rings (size 3 to 8) (size 9 to 14) (size 15 to 20)
#    1.000    2.333    0.000    0.500    2.333    1.333 
#    0.000    4.167    0.000    1.000    0.000    0.000 
#    0.000    0.000    0.000    0.000    0.000    0.000 
#
# Total GULP energy -133777.643026 kJ/mol
# GULP energy per Si atom -5574.068459 kJ/mol
# Density = 2.474983 g / cm^3
# Si number density = 24.806294 Si / 1000 Ang^3
#
#
#
# Elastic Constant Matrix: (Units=GPa)
#
#
# Indices 1 2 3 4 5 6 
#
# 1 94.3081 -5.2818 -1.4412 0.0000 0.0000 0.0000
# 2 -5.2818 84.6704 20.3448 0.0000 0.0000 0.0000
# 3 -1.4412 20.3448 68.0574 0.0000 0.0000 0.0000
# 4 0.0000 0.0000 0.0000 40.8446 0.0000 0.0000
# 5 0.0000 0.0000 0.0000 0.0000 -4.9903 0.0000
# 6 0.0000 0.0000 0.0000 0.0000 0.0000 427.5968
#
#
#
# Elastic Compliance Matrix: (Units=1/GPa)
#
#
# Indices 1 2 3 4 5 6 
#
# 1 0.010641 0.000657 0.000029 0.000000 0.000000 0.000000
# 2 0.000657 0.012765 -0.003802 0.000000 0.000000 0.000000
# 3 0.000029 -0.003802 0.015831 0.000000 0.000000 0.000000
# 4 0.000000 0.000000 0.000000 0.024483 0.000000 0.000000
# 5 0.000000 0.000000 0.000000 0.000000 -0.200388 0.000000
# 6 0.000000 0.000000 0.000000 0.000000 0.000000 0.002339
#
#
# Mechanical properties :
#
#
# Convention : Reuss Voigt Hill
#
# Bulk Modulus (GPa) = 30.29935 30.47552 30.38743
# Shear Modulus (GPa) = -42.70010 108.25114 32.77552
#
# Velocity S-wave (km/s) = -4.15341 6.61312 3.63886
# Velocity P-wave (km/s) = 3.28027 8.40376 5.47097
#
# Compressibility (1/GPa) = 0.03300401
#
# Stress axis : x y z
#
# Youngs Moduli (GPa) = 93.97818 78.33905 63.16860
#
# Poissons Ratio (x) = -0.05145 -0.00183
# Poissons Ratio (y) = -0.06173 0.24017
# Poissons Ratio (z) = -0.00272 0.29785
#
# Static dielectric constant tensor:
#      x y z
#    x 1.956730 0.000000 0.000000 
#    y 0.000000 1.992170 0.000000 
#    z 0.000000 0.000000 1.974720 
# 
# From -- ./inp_files/6711.got.cif
#   From: 2010.05.17/outbox.cif.g08.bks.cpg/sg36_4_cif.got.tgz:6711.got - 2010.06.03 17:41:39.
