data_PCOD9352333
_publ_section_title
;
Structure prediction by ZEFSAII (Michael W. Deem and Ramdas Pophale) SiO2 
 PCOD9352333
Probable space group: C M C 21
;
_chemical_formula_sum "Si O2"
_cell_formula_units_Z 64
_cell_length_a 13.253070
_cell_length_b 14.233126
_cell_length_c 17.187062
_cell_angle_alpha 90.000000
_cell_angle_beta 90.000000
_cell_angle_gamma 90.000000
_cell_volume 3242.040453
_symmetry_space_group_name_H-M "C M C 21"
_symmetry_group_IT_number 36
_symmetry_cell_setting 'orthorhombic'
loop_
_space_group_symop_operation_xyz
x,y,z
-x,-y,1/2+z
x,-y,1/2+z
-x,y,z
1/2+x,1/2+y,z
1/2-x,1/2-y,1/2+z
1/2+x,1/2-y,1/2+z
1/2-x,1/2+y,z
loop_
_atom_site_type_symbol
_atom_site_label
_atom_site_fract_x
_atom_site_fract_y
_atom_site_fract_z
Si Si1 0.766612 0.849918 0.608230
Si Si2 0.274839 0.600040 0.941692
Si Si3 0.114177 0.274248 0.910385
Si Si4 0.380325 0.455242 0.149122
Si Si5 0.384058 0.156926 0.629324
Si Si6 0.381765 0.130771 0.248452
Si Si7 0.790004 0.572973 0.773692
Si Si8 0.258635 0.403353 0.011809
O O1 0.724439 0.864228 0.521388
O O2 0.832065 0.755663 0.610654
O O3 0.680713 0.841541 0.672675
O O4 0.837771 0.940476 0.626739
O O5 0.372791 0.665108 0.931136
O O6 0.217437 0.610433 0.860695
O O7 0.290522 0.490273 0.958333
O O8 0.127882 0.295815 0.819163
O O9 0.000000 0.306422 0.930343
O O10 0.203809 0.328227 0.956080
O O11 0.500000 0.454976 0.160836
O O12 0.316523 0.427350 0.226180
O O13 0.348529 0.389497 0.074964
O O14 0.500000 0.161464 0.612620
O O15 0.362835 0.131945 0.718230
O O16 0.331069 0.078382 0.575113
O O17 0.500000 0.118147 0.231686
O O18 0.333531 0.032427 0.276219
#
# Coordination Sequence:
#
# PCOD9352333 Si02
#       8
#     8   8   8   8   8   8   8   8
#     4  10  21  37  63  91 126 165 212 274 316 381
#     4  11  22  38  61  93 130 163 206 271 322 369
#     4  11  22  39  68  96 122 167 220 262 319 393
#     4   9  20  38  60  85 121 170 210 254 325 386
#     4  11  21  38  63  90 123 170 218 258 318 390
#     4  10  21  41  65  91 127 171 218 267 325 389
#     4  10  21  37  59  91 127 165 208 270 325 380
#     4  10  21  38  62  91 128 159 205 274 313 374
#
# _framework density 19.740655
#
# number of rings (size 3 to 8) (size 9 to 14) (size 15 to 20)
#    0.000    1.750    2.500    2.625    0.000    2.500 
#    0.000    7.500    0.000    3.000    0.000    0.000 
#    0.000    0.000    0.000    0.000    0.000    0.000 
#
# Total GULP energy -178368.318397 kJ/mol
# GULP energy per Si atom -5574.009950 kJ/mol
# Density = 1.969572 g / cm^3
# Si number density = 19.740655 Si / 1000 Ang^3
#
#
#
# Elastic Constant Matrix: (Units=GPa)
#
#
# Indices 1 2 3 4 5 6 
#
# 1 125.2002 30.3096 45.5232 0.0000 0.0000 0.0000
# 2 30.3096 68.3143 19.2408 0.0000 0.0000 0.0000
# 3 45.5232 19.2408 138.8627 0.0000 0.0000 0.0000
# 4 0.0000 0.0000 0.0000 31.6535 0.0000 0.0000
# 5 0.0000 0.0000 0.0000 0.0000 8.9820 0.0000
# 6 0.0000 0.0000 0.0000 0.0000 0.0000 17.7783
#
#
#
# Elastic Compliance Matrix: (Units=1/GPa)
#
#
# Indices 1 2 3 4 5 6 
#
# 1 0.009852 -0.003602 -0.002731 0.000000 0.000000 0.000000
# 2 -0.003602 0.016550 -0.001112 0.000000 0.000000 0.000000
# 3 -0.002731 -0.001112 0.008251 0.000000 0.000000 0.000000
# 4 0.000000 0.000000 0.000000 0.031592 0.000000 0.000000
# 5 0.000000 0.000000 0.000000 0.000000 0.111334 0.000000
# 6 0.000000 0.000000 0.000000 0.000000 0.000000 0.056248
#
#
# Mechanical properties :
#
#
# Convention : Reuss Voigt Hill
#
# Bulk Modulus (GPa) = 50.60119 58.05827 54.32973
# Shear Modulus (GPa) = 19.58450 27.50301 23.54375
#
# Velocity S-wave (km/s) = 3.15316 3.73663 3.45723
# Velocity P-wave (km/s) = 6.24061 6.93476 6.59682
#
# Compressibility (1/GPa) = 0.01976238
#
# Stress axis : x y z
#
# Youngs Moduli (GPa) = 101.50090 60.42425 121.20223
#
# Poissons Ratio (x) = 0.21765 0.33097
# Poissons Ratio (y) = 0.36561 0.13481
# Poissons Ratio (z) = 0.27717 0.06721
#
# Static dielectric constant tensor:
#      x y z
#    x 1.662800 0.000000 0.000000 
#    y 0.000000 1.757660 0.000000 
#    z 0.000000 0.000000 1.727130 
# 
# From -- ./inp_files/14397.got.cif
#   From: 2010.05.17/outbox.cif.g08.bks.cpg/sg36_8_cif.got.tgz:14397.got - 2010.06.03 17:41:39.
