data_PCOD9352582
_publ_section_title
;
Structure prediction by ZEFSAII (Michael W. Deem and Ramdas Pophale) SiO2 
 PCOD9352582
Probable space group: C M C 21
;
_chemical_formula_sum "Si O2"
_cell_formula_units_Z 52
_cell_length_a 7.564544
_cell_length_b 15.007599
_cell_length_c 17.669829
_cell_angle_alpha 90.000000
_cell_angle_beta 90.000000
_cell_angle_gamma 90.000000
_cell_volume 2005.978698
_symmetry_space_group_name_H-M "C M C 21"
_symmetry_group_IT_number 36
_symmetry_cell_setting 'orthorhombic'
loop_
_space_group_symop_operation_xyz
x,y,z
-x,-y,1/2+z
x,-y,1/2+z
-x,y,z
1/2+x,1/2+y,z
1/2-x,1/2-y,1/2+z
1/2+x,1/2-y,1/2+z
1/2-x,1/2+y,z
loop_
_atom_site_type_symbol
_atom_site_label
_atom_site_fract_x
_atom_site_fract_y
_atom_site_fract_z
Si Si1 0.500000 0.058276 0.411891
Si Si2 0.713689 0.410460 0.728060
Si Si3 0.796646 0.079681 0.908712
Si Si4 0.308559 0.357208 0.013288
Si Si5 0.286017 0.237786 0.801720
Si Si6 0.788405 0.161514 0.064191
Si Si7 0.294557 0.100830 0.674173
O O1 0.345204 0.989646 0.379650
O O2 0.345748 0.114144 0.458275
O O3 0.500000 0.410841 0.732102
O O4 0.779647 0.339066 0.790448
O O5 0.768926 0.370244 0.646446
O O6 0.772980 0.511640 0.722290
O O7 0.778400 0.177351 0.870578
O O8 0.751268 0.091654 0.997548
O O9 0.000000 0.052723 0.898516
O O10 0.500000 0.370565 0.977295
O O11 0.290307 0.255092 0.039186
O O12 0.298711 0.408438 0.093695
O O13 0.500000 0.238726 0.805119
O O14 0.233768 0.182658 0.726278
O O15 0.000000 0.172451 0.067080
O O16 0.500000 0.116766 0.656765
#
# Coordination Sequence:
#
# PCOD9352582 Si02
#       7
#     4   8   8   8   8   8   8
#     4  12  24  46  66  98 140 174 228 292 342 416
#     4  10  21  40  70  99 134 180 233 289 349 421
#     4  11  25  44  72  98 138 192 234 287 359 427
#     4  12  24  40  70 104 137 180 229 290 360 421
#     4  10  22  45  68  93 141 190 231 291 357 416
#     4  10  21  43  67 101 138 179 231 289 347 418
#     4  11  22  41  67 100 139 181 228 294 355 410
#
# _framework density 25.922508000000001
#
# number of rings (size 3 to 8) (size 9 to 14) (size 15 to 20)
#    0.000    1.231    3.846    1.846    1.077    3.692 
#    2.769    0.000    0.000    0.000    0.000    0.000 
#    0.000    0.000    0.000    0.000    0.000    0.000 
#
# Total GULP energy -145298.159403 kJ/mol
# GULP energy per Si atom -5588.390746 kJ/mol
# Density = 2.586351 g / cm^3
# Si number density = 25.922508 Si / 1000 Ang^3
#
#
#
# Elastic Constant Matrix: (Units=GPa)
#
#
# Indices 1 2 3 4 5 6 
#
# 1 76.6787 11.0716 22.2319 0.0000 0.0000 0.0000
# 2 11.0716 132.6270 22.9089 0.0000 0.0000 0.0000
# 3 22.2319 22.9089 103.2041 0.0000 0.0000 0.0000
# 4 0.0000 0.0000 0.0000 42.6317 0.0000 0.0000
# 5 0.0000 0.0000 0.0000 0.0000 9.8511 0.0000
# 6 0.0000 0.0000 0.0000 0.0000 0.0000 274.6406
#
#
#
# Elastic Compliance Matrix: (Units=1/GPa)
#
#
# Indices 1 2 3 4 5 6 
#
# 1 0.013968 -0.000672 -0.002860 0.000000 0.000000 0.000000
# 2 -0.000672 0.007873 -0.001603 0.000000 0.000000 0.000000
# 3 -0.002860 -0.001603 0.010661 0.000000 0.000000 0.000000
# 4 0.000000 0.000000 0.000000 0.023457 0.000000 0.000000
# 5 0.000000 0.000000 0.000000 0.000000 0.101512 0.000000
# 6 0.000000 0.000000 0.000000 0.000000 0.000000 0.003641
#
#
# Mechanical properties :
#
#
# Convention : Reuss Voigt Hill
#
# Bulk Modulus (GPa) = 44.97871 47.21496 46.09683
# Shear Modulus (GPa) = 27.96557 82.51116 55.23837
#
# Velocity S-wave (km/s) = 3.28809 5.64792 4.62118
# Velocity P-wave (km/s) = 5.63953 7.79650 6.80403
#
# Compressibility (1/GPa) = 0.02223274
#
# Stress axis : x y z
#
# Youngs Moduli (GPa) = 71.59429 127.01790 93.79677
#
# Poissons Ratio (x) = 0.08536 0.26823
# Poissons Ratio (y) = 0.04811 0.15034
# Poissons Ratio (z) = 0.20474 0.20359
#
# Static dielectric constant tensor:
#      x y z
#    x 1.965760 0.000000 0.000000 
#    y 0.000000 2.022960 0.000000 
#    z 0.000000 0.000000 2.084400 
# 
# From -- ./inp_files/15363.got.cif
#   From: 2010.05.17/outbox.cif.g08.bks.cpg/sg36_8_cif.got.tgz:15363.got - 2010.06.03 17:41:39.
