data_PCOD9352351
_publ_section_title
;
Structure prediction by ZEFSAII (Michael W. Deem and Ramdas Pophale) SiO2 
 PCOD9352351
Probable space group: C M C 21
;
_chemical_formula_sum "Si O2"
_cell_formula_units_Z 60
_cell_length_a 23.635950
_cell_length_b 17.311213
_cell_length_c 5.541178
_cell_angle_alpha 90.000000
_cell_angle_beta 90.000000
_cell_angle_gamma 90.000000
_cell_volume 2267.266984
_symmetry_space_group_name_H-M "C M C 21"
_symmetry_group_IT_number 36
_symmetry_cell_setting 'orthorhombic'
loop_
_space_group_symop_operation_xyz
x,y,z
-x,-y,1/2+z
x,-y,1/2+z
-x,y,z
1/2+x,1/2+y,z
1/2-x,1/2-y,1/2+z
1/2+x,1/2-y,1/2+z
1/2-x,1/2+y,z
loop_
_atom_site_type_symbol
_atom_site_label
_atom_site_fract_x
_atom_site_fract_y
_atom_site_fract_z
Si Si1 0.068407 0.963525 0.334910
Si Si2 0.939070 0.665892 0.379465
Si Si3 0.235689 0.528337 0.266709
Si Si4 0.123844 0.736390 0.004993
Si Si5 0.500000 0.959125 0.352813
Si Si6 0.773615 0.714994 0.299108
Si Si7 0.872029 0.585720 0.723517
Si Si8 0.064103 0.176655 0.158322
O O1 0.079078 0.878174 0.436978
O O2 0.000000 0.971157 0.320622
O O3 0.088181 0.015049 0.565892
O O4 0.934003 0.705329 0.121369
O O5 0.000000 0.630258 0.418438
O O6 0.889960 0.606978 0.449275
O O7 0.938028 0.735859 0.567862
O O8 0.263335 0.507129 0.008723
O O9 0.231815 0.621305 0.296882
O O10 0.175989 0.478908 0.243567
O O11 0.163164 0.742366 0.237321
O O12 0.149110 0.664962 0.850214
O O13 0.111436 0.814469 0.862969
O O14 0.500000 0.013897 0.124344
O O15 0.565731 0.928501 0.333857
O O16 0.742811 0.750197 0.059594
O O17 0.000000 0.154786 0.241769
#
# Coordination Sequence:
#
# PCOD9352351 Si02
#       8
#     8   8   8   8   4   8   8   8
#     4   9  18  32  54  84 122 170 233 290 336 404
#     4  10  21  37  64 103 157 204 248 290 355 436
#     4  12  24  46  80 112 145 192 254 313 378 451
#     4  11  24  41  72  98 145 192 244 304 369 444
#     4  12  28  40  58 100 158 208 244 278 334 400
#     4  12  29  52  78 110 140 188 255 326 389 447
#     4  11  24  40  64 107 149 209 247 298 344 431
#     4   9  20  36  59 101 141 192 239 283 361 447
#
# _framework density 26.463576
#
# number of rings (size 3 to 8) (size 9 to 14) (size 15 to 20)
#    0.000    1.333    2.000    2.800    9.333    0.000 
#    0.000    0.000    0.000    4.800    0.000    0.000 
#    0.000    0.000    0.000    0.000    0.000    0.000 
#
# Total GULP energy -167528.490721 kJ/mol
# GULP energy per Si atom -5584.283024 kJ/mol
# Density = 2.640334 g / cm^3
# Si number density = 26.463576 Si / 1000 Ang^3
#
#
#
# Elastic Constant Matrix: (Units=GPa)
#
#
# Indices 1 2 3 4 5 6 
#
# 1 48.8320 22.4817 19.0738 0.0000 0.0000 0.0000
# 2 22.4817 139.3201 42.6445 0.0000 0.0000 0.0000
# 3 19.0738 42.6445 116.5358 0.0000 0.0000 0.0000
# 4 0.0000 0.0000 0.0000 63.9902 0.0000 0.0000
# 5 0.0000 0.0000 0.0000 0.0000 41.4741 0.0000
# 6 0.0000 0.0000 0.0000 0.0000 0.0000 26.2219
#
#
#
# Elastic Compliance Matrix: (Units=1/GPa)
#
#
# Indices 1 2 3 4 5 6 
#
# 1 0.022848 -0.002863 -0.002692 0.000000 0.000000 0.000000
# 2 -0.002863 0.008442 -0.002621 0.000000 0.000000 0.000000
# 3 -0.002692 -0.002621 0.009981 0.000000 0.000000 0.000000
# 4 0.000000 0.000000 0.000000 0.015627 0.000000 0.000000
# 5 0.000000 0.000000 0.000000 0.000000 0.024111 0.000000
# 6 0.000000 0.000000 0.000000 0.000000 0.000000 0.038136
#
#
# Mechanical properties :
#
#
# Convention : Reuss Voigt Hill
#
# Bulk Modulus (GPa) = 40.12928 52.56533 46.34731
# Shear Modulus (GPa) = 34.76985 41.03642 37.90314
#
# Velocity S-wave (km/s) = 3.62867 3.94213 3.78865
# Velocity P-wave (km/s) = 5.72305 6.37393 6.05724
#
# Compressibility (1/GPa) = 0.02491946
#
# Stress axis : x y z
#
# Youngs Moduli (GPa) = 43.76762 118.45769 100.19420
#
# Poissons Ratio (x) = 0.33914 0.26972
# Poissons Ratio (y) = 0.12530 0.26257
# Poissons Ratio (z) = 0.11782 0.31043
#
# Static dielectric constant tensor:
#      x y z
#    x 2.338800 0.000000 0.000000 
#    y 0.000000 2.090900 0.000000 
#    z 0.000000 0.000000 2.169240 
# 
# From -- ./inp_files/1779.got.cif
#   From: 2010.05.17/outbox.cif.g08.bks.cpg/sg36_1_cif.got.tgz:1779.got - 2010.06.03 17:41:39.
