data_PCOD9352161
_publ_section_title
;
Structure prediction by ZEFSAII (Michael W. Deem and Ramdas Pophale) SiO2 
 PCOD9352161
Probable space group: C M C 21
;
_chemical_formula_sum "Si O2"
_cell_formula_units_Z 48
_cell_length_a 15.258825
_cell_length_b 9.992251
_cell_length_c 14.941680
_cell_angle_alpha 90.000000
_cell_angle_beta 90.000000
_cell_angle_gamma 90.000000
_cell_volume 2278.158090
_symmetry_space_group_name_H-M "C M C 21"
_symmetry_group_IT_number 36
_symmetry_cell_setting 'orthorhombic'
loop_
_space_group_symop_operation_xyz
x,y,z
-x,-y,1/2+z
x,-y,1/2+z
-x,y,z
1/2+x,1/2+y,z
1/2-x,1/2-y,1/2+z
1/2+x,1/2-y,1/2+z
1/2-x,1/2+y,z
loop_
_atom_site_type_symbol
_atom_site_label
_atom_site_fract_x
_atom_site_fract_y
_atom_site_fract_z
Si Si1 0.837559 0.829659 0.372530
Si Si2 0.814366 0.537130 0.629465
Si Si3 0.000000 0.214780 0.545405
Si Si4 0.500000 0.969207 0.424538
Si Si5 0.000000 0.096364 0.997756
Si Si6 0.689814 0.967086 0.916159
Si Si7 0.000000 0.648339 0.605099
Si Si8 0.337345 0.745262 0.677086
O O1 0.914496 0.867422 0.440202
O O2 0.764401 0.943629 0.372807
O O3 0.795214 0.690255 0.404524
O O4 0.871897 0.802322 0.273093
O O5 0.810663 0.504905 0.522966
O O6 0.910209 0.599135 0.649268
O O7 0.740060 0.644874 0.650041
O O8 0.802918 0.397357 0.680455
O O9 0.914448 0.242983 0.604754
O O10 0.000000 0.319508 0.463838
O O11 0.000000 0.060001 0.518733
O O12 0.407101 0.997809 0.378654
O O13 0.500000 0.074055 0.508016
O O14 0.000000 0.193979 0.083935
#
# Coordination Sequence:
#
# PCOD9352161 Si02
#       8
#     8   8   4   4   4   8   4   8
#     4  12  25  42  64  98 135 168 209 271 333 375
#     4  11  22  42  69  94 126 172 220 262 312 397
#     4  12  25  42  68  97 124 172 219 268 312 384
#     4  10  20  42  67  95 116 162 230 252 307 377
#     4  12  25  42  68  97 124 172 219 268 312 384
#     4  11  22  42  69  94 126 172 220 262 312 397
#     4  10  20  42  67  95 116 162 230 252 307 377
#     4  12  25  42  64  98 135 168 209 271 333 375
#
# _framework density 21.069652999999999
#
# number of rings (size 3 to 8) (size 9 to 14) (size 15 to 20)
#    0.000    0.667    6.667    3.500    4.667    0.000 
#    0.000    2.500    0.000    0.000    0.000    0.000 
#    0.000    0.000    0.000    0.000    0.000    0.000 
#
# Total GULP energy -134302.494305 kJ/mol
# GULP energy per Si atom -5595.937263 kJ/mol
# Density = 2.102170 g / cm^3
# Si number density = 21.069653 Si / 1000 Ang^3
#
#
#
# Elastic Constant Matrix: (Units=GPa)
#
#
# Indices 1 2 3 4 5 6 
#
# 1 117.6329 55.5982 -6.0117 0.0000 0.0000 0.0000
# 2 55.5982 165.9649 4.7717 0.0000 0.0000 0.0000
# 3 -6.0117 4.7717 34.9993 0.0000 0.0000 0.0000
# 4 0.0000 0.0000 0.0000 24.5954 0.0000 0.0000
# 5 0.0000 0.0000 0.0000 0.0000 1.9923 0.0000
# 6 0.0000 0.0000 0.0000 0.0000 0.0000 24.0371
#
#
#
# Elastic Compliance Matrix: (Units=1/GPa)
#
#
# Indices 1 2 3 4 5 6 
#
# 1 0.010273 -0.003506 0.002242 0.000000 0.000000 0.000000
# 2 -0.003506 0.007246 -0.001590 0.000000 0.000000 0.000000
# 3 0.002242 -0.001590 0.029174 0.000000 0.000000 0.000000
# 4 0.000000 0.000000 0.000000 0.040658 0.000000 0.000000
# 5 0.000000 0.000000 0.000000 0.000000 0.501945 0.000000
# 6 0.000000 0.000000 0.000000 0.000000 0.000000 0.041602
#
#
# Mechanical properties :
#
#
# Convention : Reuss Voigt Hill
#
# Bulk Modulus (GPa) = 24.39897 47.47930 35.93914
# Shear Modulus (GPa) = 7.68916 27.74086 17.71501
#
# Velocity S-wave (km/s) = 1.91241 3.63247 2.90277
# Velocity P-wave (km/s) = 4.05977 6.33849 5.32251
#
# Compressibility (1/GPa) = 0.04098533
#
# Stress axis : x y z
#
# Youngs Moduli (GPa) = 97.34623 138.01619 34.27719
#
# Poissons Ratio (x) = 0.48386 -0.07686
# Poissons Ratio (y) = 0.34128 0.05450
# Poissons Ratio (z) = -0.21829 0.21945
#
# Static dielectric constant tensor:
#      x y z
#    x 1.739410 0.000000 0.000000 
#    y 0.000000 1.720860 0.000000 
#    z 0.000000 0.000000 1.786770 
# 
# From -- ./inp_files/12544.got.cif
#   From: 2010.05.17/outbox.cif.g08.bks.cpg/sg36_7_cif.got.tgz:12544.got - 2010.06.03 17:41:39.
