data_PCOD9352220
_publ_section_title
;
Structure prediction by ZEFSAII (Michael W. Deem and Ramdas Pophale) SiO2 
 PCOD9352220
Probable space group: C M C 21
;
_chemical_formula_sum "Si O2"
_cell_formula_units_Z 64
_cell_length_a 15.788715
_cell_length_b 22.973701
_cell_length_c 8.957029
_cell_angle_alpha 90.000000
_cell_angle_beta 90.000000
_cell_angle_gamma 90.000000
_cell_volume 3248.940293
_symmetry_space_group_name_H-M "C M C 21"
_symmetry_group_IT_number 36
_symmetry_cell_setting 'orthorhombic'
loop_
_space_group_symop_operation_xyz
x,y,z
-x,-y,1/2+z
x,-y,1/2+z
-x,y,z
1/2+x,1/2+y,z
1/2-x,1/2-y,1/2+z
1/2+x,1/2-y,1/2+z
1/2-x,1/2+y,z
loop_
_atom_site_type_symbol
_atom_site_label
_atom_site_fract_x
_atom_site_fract_y
_atom_site_fract_z
Si Si1 0.733287 0.441558 0.991620
Si Si2 0.769895 0.686375 0.003899
Si Si3 0.146902 0.862126 0.742605
Si Si4 0.837109 0.131568 0.748734
Si Si5 0.095305 0.415824 0.523893
Si Si6 0.091441 0.785844 0.002974
Si Si7 0.095725 0.523552 0.341156
Si Si8 0.095482 0.045853 0.995629
O O1 0.699374 0.400980 0.858773
O O2 0.829036 0.453783 0.944682
O O3 0.724589 0.406675 0.145151
O O4 0.670533 0.497774 0.002139
O O5 0.705879 0.679285 0.141833
O O6 0.833990 0.632460 0.019308
O O7 0.827933 0.743234 0.002807
O O8 0.714874 0.674826 0.855835
O O9 0.103363 0.908933 0.633198
O O10 0.091787 0.821410 0.848521
O O11 0.895060 0.168537 0.637285
O O12 0.888027 0.085918 0.850829
O O13 0.098883 0.454953 0.375240
O O14 0.108772 0.456157 0.671093
O O15 0.000000 0.392192 0.537219
O O16 0.000000 0.756196 0.020938
O O17 0.000000 0.542290 0.384585
O O18 0.000000 0.020488 0.992701
#
# Coordination Sequence:
#
# PCOD9352220 Si02
#       8
#     8   8   8   8   8   8   8   8
#     4  11  22  37  59  89 121 165 198 246 299 368
#     4  11  21  41  62  87 113 158 203 249 297 365
#     4  10  22  39  60  87 121 155 202 251 307 356
#     4  10  24  39  60  87 123 156 202 251 307 359
#     4  10  21  35  57  86 119 155 197 245 299 362
#     4  11  23  41  64  86 115 155 204 258 308 358
#     4  10  21  36  56  85 122 158 194 244 305 364
#     4  11  23  38  61  91 126 164 204 248 300 368
#
# _framework density 19.698732
#
# number of rings (size 3 to 8) (size 9 to 14) (size 15 to 20)
#    0.000    1.500    1.250    4.125    3.500    4.000 
#    0.000    0.625    0.000    0.000    0.000    0.000 
#    0.000    0.000    0.000    0.000    0.000    0.000 
#
# Total GULP energy -178637.500294 kJ/mol
# GULP energy per Si atom -5582.421884 kJ/mol
# Density = 1.965390 g / cm^3
# Si number density = 19.698732 Si / 1000 Ang^3
#
#
#
# Elastic Constant Matrix: (Units=GPa)
#
#
# Indices 1 2 3 4 5 6 
#
# 1 97.8038 23.6801 31.6184 0.0000 0.0000 0.0000
# 2 23.6801 62.1556 28.6784 0.0000 0.0000 0.0000
# 3 31.6184 28.6784 105.2858 0.0000 0.0000 0.0000
# 4 0.0000 0.0000 0.0000 14.7637 0.0000 0.0000
# 5 0.0000 0.0000 0.0000 0.0000 -6.2440 0.0000
# 6 0.0000 0.0000 0.0000 0.0000 0.0000 210.9479
#
#
#
# Elastic Compliance Matrix: (Units=1/GPa)
#
#
# Indices 1 2 3 4 5 6 
#
# 1 0.011886 -0.003296 -0.002672 0.000000 0.000000 0.000000
# 2 -0.003296 0.019315 -0.004271 0.000000 0.000000 0.000000
# 3 -0.002672 -0.004271 0.011464 0.000000 0.000000 0.000000
# 4 0.000000 0.000000 0.000000 0.067734 0.000000 0.000000
# 5 0.000000 0.000000 0.000000 0.000000 -0.160154 0.000000
# 6 0.000000 0.000000 0.000000 0.000000 0.000000 0.004741
#
#
# Mechanical properties :
#
#
# Convention : Reuss Voigt Hill
#
# Bulk Modulus (GPa) = 45.07097 48.13321 46.60209
# Shear Modulus (GPa) = -291.69846 55.97808 -117.86019
#
# Velocity S-wave (km/s) = -12.18201 5.33655 -7.74346
# Velocity P-wave (km/s) = 13.22643 7.90313 7.49930
#
# Compressibility (1/GPa) = 0.02218723
#
# Stress axis : x y z
#
# Youngs Moduli (GPa) = 84.13073 51.77312 87.23094
#
# Poissons Ratio (x) = 0.17063 0.23307
# Poissons Ratio (y) = 0.27727 0.37260
# Poissons Ratio (z) = 0.22479 0.22115
#
# Static dielectric constant tensor:
#      x y z
#    x 1.729540 0.000000 0.000000 
#    y 0.000000 1.679300 0.000000 
#    z 0.000000 0.000000 1.689960 
# 
# From -- ./inp_files/4324.got.cif
#   From: 2010.05.17/outbox.cif.g08.bks.cpg/sg36_3_cif.got.tgz:4324.got - 2010.06.03 17:41:39.
