data_PCOD9352976
_publ_section_title
;
Structure prediction by ZEFSAII (Michael W. Deem and Ramdas Pophale) SiO2 
 PCOD9352976
Probable space group: C M C 21
;
_chemical_formula_sum "Si O2"
_cell_formula_units_Z 32
_cell_length_a 8.011703
_cell_length_b 10.149037
_cell_length_c 15.684433
_cell_angle_alpha 90.000000
_cell_angle_beta 90.000000
_cell_angle_gamma 90.000000
_cell_volume 1275.318032
_symmetry_space_group_name_H-M "C M C 21"
_symmetry_group_IT_number 36
_symmetry_cell_setting 'orthorhombic'
loop_
_space_group_symop_operation_xyz
x,y,z
-x,-y,1/2+z
x,-y,1/2+z
-x,y,z
1/2+x,1/2+y,z
1/2-x,1/2-y,1/2+z
1/2+x,1/2-y,1/2+z
1/2-x,1/2+y,z
loop_
_atom_site_type_symbol
_atom_site_label
_atom_site_fract_x
_atom_site_fract_y
_atom_site_fract_z
Si Si1 0.500000 0.542703 0.310300
Si Si2 0.687237 0.908753 0.107996
Si Si3 0.312763 0.591246 0.955153
Si Si4 0.500000 0.688745 0.684891
Si Si5 0.000000 0.542703 0.252848
Si Si6 0.000000 0.688744 0.878258
O O1 0.653550 0.497541 0.370715
O O2 0.500000 0.454860 0.227193
O O3 0.500000 0.699777 0.305718
O O4 0.500000 0.857800 0.090574
O O5 0.653549 0.997540 0.192434
O O6 0.831185 0.804639 0.130105
O O7 0.749999 0.999999 0.031574
O O8 0.500000 0.642196 0.972575
O O9 0.168815 0.695360 0.933043
O O10 0.500000 0.800223 0.757431
O O11 0.000000 0.454860 0.335955
#
# Coordination Sequence:
#
# PCOD9352976 Si02
#       6
#     4   8   8   4   4   4
#     4  10  27  43  73 103 141 188 231 290 346 428
#     4  10  23  44  71 102 140 184 229 291 356 415
#     4  10  23  44  71 102 140 184 229 291 356 415
#     4  12  23  51  67 105 147 178 241 286 350 420
#     4  10  27  43  73 103 141 188 231 290 346 428
#     4  12  23  51  67 105 147 178 241 286 350 420
#
# _framework density 25.091781000000001
#
# number of rings (size 3 to 8) (size 9 to 14) (size 15 to 20)
#    1.500    0.000    2.500    1.500    0.000   12.000 
#    4.500    2.500    0.000    0.000    0.000    0.000 
#    0.000    0.000    0.000    0.000    0.000    0.000 
#
# Total GULP energy -89392.096458 kJ/mol
# GULP energy per Si atom -5587.006029 kJ/mol
# Density = 2.503467 g / cm^3
# Si number density = 25.091781 Si / 1000 Ang^3
#
#
#
# Elastic Constant Matrix: (Units=GPa)
#
#
# Indices 1 2 3 4 5 6 
#
# 1 227.9694 46.6092 35.2820 0.0000 0.0000 0.0000
# 2 46.6092 91.3985 -0.4138 0.0000 0.0000 0.0000
# 3 35.2820 -0.4138 67.0212 0.0000 0.0000 0.0000
# 4 0.0000 0.0000 0.0000 47.3234 0.0000 0.0000
# 5 0.0000 0.0000 0.0000 0.0000 40.5312 0.0000
# 6 0.0000 0.0000 0.0000 0.0000 0.0000 -6.0849
#
#
#
# Elastic Compliance Matrix: (Units=1/GPa)
#
#
# Indices 1 2 3 4 5 6 
#
# 1 0.005394 -0.002763 -0.002856 0.000000 0.000000 0.000000
# 2 -0.002763 0.012357 0.001531 0.000000 0.000000 0.000000
# 3 -0.002856 0.001531 0.016434 0.000000 0.000000 0.000000
# 4 0.000000 0.000000 0.000000 0.021131 0.000000 0.000000
# 5 0.000000 0.000000 0.000000 0.000000 0.024672 0.000000
# 6 0.000000 0.000000 0.000000 0.000000 0.000000 -0.164342
#
#
# Mechanical properties :
#
#
# Convention : Reuss Voigt Hill
#
# Bulk Modulus (GPa) = 38.45108 61.03821 49.74464
# Shear Modulus (GPa) = -74.06645 36.68140 -18.69252
#
# Velocity S-wave (km/s) = -5.43896 3.82761 -2.73237
# Velocity P-wave (km/s) = 4.90771 6.62669 3.14860
#
# Compressibility (1/GPa) = 0.02600707
#
# Stress axis : x y z
#
# Youngs Moduli (GPa) = 185.40384 80.92407 60.85013
#
# Poissons Ratio (x) = 0.22363 0.17381
# Poissons Ratio (y) = 0.51235 -0.09317
# Poissons Ratio (z) = 0.52959 -0.12390
#
# Static dielectric constant tensor:
#      x y z
#    x 2.048190 0.000000 0.000000 
#    y 0.000000 1.957920 0.000000 
#    z 0.000000 0.000000 1.944960 
# 
# From -- ./inp_files/13302.got.cif
#   From: 2010.05.17/outbox.cif.g08.bks.cpg/sg36_7_cif.got.tgz:13302.got - 2010.06.03 17:41:39.
