data_PCOD9352464
_publ_section_title
;
Structure prediction by ZEFSAII (Michael W. Deem and Ramdas Pophale) SiO2 
 PCOD9352464
Probable space group: C M C 21
;
_chemical_formula_sum "Si O2"
_cell_formula_units_Z 48
_cell_length_a 14.715363
_cell_length_b 12.297344
_cell_length_c 12.827164
_cell_angle_alpha 90.000000
_cell_angle_beta 90.000000
_cell_angle_gamma 90.000000
_cell_volume 2321.202070
_symmetry_space_group_name_H-M "C M C 21"
_symmetry_group_IT_number 36
_symmetry_cell_setting 'orthorhombic'
loop_
_space_group_symop_operation_xyz
x,y,z
-x,-y,1/2+z
x,-y,1/2+z
-x,y,z
1/2+x,1/2+y,z
1/2-x,1/2-y,1/2+z
1/2+x,1/2-y,1/2+z
1/2-x,1/2+y,z
loop_
_atom_site_type_symbol
_atom_site_label
_atom_site_fract_x
_atom_site_fract_y
_atom_site_fract_z
Si Si1 0.500000 0.682413 0.316420
Si Si2 0.000000 0.509044 0.478773
Si Si3 0.500000 0.175243 0.640834
Si Si4 0.000000 0.740031 0.038403
Si Si5 0.831593 0.361222 0.878626
Si Si6 0.809128 0.767171 0.579635
Si Si7 0.325935 0.556102 0.229548
Si Si8 0.147095 0.806410 0.205112
O O1 0.500000 0.802223 0.263251
O O2 0.500000 0.682127 0.439411
O O3 0.409775 0.625377 0.273832
O O4 0.000000 0.554303 0.598045
O O5 0.000000 0.380752 0.491901
O O6 0.909886 0.559766 0.424095
O O7 0.413277 0.234163 0.591986
O O8 0.086480 0.763850 0.110258
O O9 0.758924 0.426618 0.807858
O O10 0.874028 0.269250 0.803401
O O11 0.783445 0.289135 0.970178
O O12 0.801009 0.893747 0.614538
O O13 0.751134 0.710810 0.670514
O O14 0.360873 0.433575 0.224344
#
# Coordination Sequence:
#
# PCOD9352464 Si02
#       8
#     4   4   4   4   8   8   8   8
#     4  10  21  39  61  87 119 163 209 248 309 376
#     4  10  23  41  65  91 125 165 203 260 313 362
#     4   8  18  38  61  87 119 161 208 249 300 367
#     4  12  26  40  61  91 121 155 208 261 310 379
#     4  10  22  40  64  92 123 167 211 250 311 377
#     4   9  20  38  61  92 125 163 209 250 302 371
#     4  10  22  40  63  90 129 166 201 261 312 358
#     4  11  24  40  60  93 127 158 207 259 307 372
#
# _framework density 20.678940999999998
#
# number of rings (size 3 to 8) (size 9 to 14) (size 15 to 20)
#    0.000    2.000    0.000    2.000    0.000   14.667 
#    0.000    3.333    0.000    0.000    0.000    0.000 
#    0.000    0.000    0.000    0.000    0.000    0.000 
#
# Total GULP energy -133823.260344 kJ/mol
# GULP energy per Si atom -5575.969181 kJ/mol
# Density = 2.063187 g / cm^3
# Si number density = 20.678941 Si / 1000 Ang^3
#
#
#
# Elastic Constant Matrix: (Units=GPa)
#
#
# Indices 1 2 3 4 5 6 
#
# 1 87.7938 27.1578 10.7283 0.0000 0.0000 0.0000
# 2 27.1578 122.1888 50.6623 0.0000 0.0000 0.0000
# 3 10.7283 50.6623 86.7824 0.0000 0.0000 0.0000
# 4 0.0000 0.0000 0.0000 23.9734 0.0000 0.0000
# 5 0.0000 0.0000 0.0000 0.0000 33.5086 0.0000
# 6 0.0000 0.0000 0.0000 0.0000 0.0000 20.2868
#
#
#
# Elastic Compliance Matrix: (Units=1/GPa)
#
#
# Indices 1 2 3 4 5 6 
#
# 1 0.012232 -0.002760 0.000099 0.000000 0.000000 0.000000
# 2 -0.002760 0.011420 -0.006326 0.000000 0.000000 0.000000
# 3 0.000099 -0.006326 0.015204 0.000000 0.000000 0.000000
# 4 0.000000 0.000000 0.000000 0.041713 0.000000 0.000000
# 5 0.000000 0.000000 0.000000 0.000000 0.029843 0.000000
# 6 0.000000 0.000000 0.000000 0.000000 0.000000 0.049293
#
#
# Mechanical properties :
#
#
# Convention : Reuss Voigt Hill
#
# Bulk Modulus (GPa) = 47.88638 52.65130 50.26884
# Shear Modulus (GPa) = 27.07983 29.43485 28.25734
#
# Velocity S-wave (km/s) = 3.62268 3.77692 3.70060
# Velocity P-wave (km/s) = 6.38011 6.67359 6.52849
#
# Compressibility (1/GPa) = 0.02088276
#
# Stress axis : x y z
#
# Youngs Moduli (GPa) = 81.75336 87.56365 65.77317
#
# Poissons Ratio (x) = 0.24165 -0.00651
# Poissons Ratio (y) = 0.22561 0.41607
# Poissons Ratio (z) = -0.00809 0.55391
#
# Static dielectric constant tensor:
#      x y z
#    x 1.654180 0.000000 0.000000 
#    y 0.000000 1.753240 0.000000 
#    z 0.000000 0.000000 1.769150 
# 
# From -- ./inp_files/8905.got.cif
#   From: 2010.05.17/outbox.cif.g08.bks.cpg/sg36_5_cif.got.tgz:8905.got - 2010.06.03 17:41:39.
