data_PCOD9352202
_publ_section_title
;
Structure prediction by ZEFSAII (Michael W. Deem and Ramdas Pophale) SiO2 
 PCOD9352202
Probable space group: C M C 21
;
_chemical_formula_sum "Si O2"
_cell_formula_units_Z 40
_cell_length_a 14.364556
_cell_length_b 12.363838
_cell_length_c 12.543789
_cell_angle_alpha 90.000000
_cell_angle_beta 90.000000
_cell_angle_gamma 90.000000
_cell_volume 2227.790014
_symmetry_space_group_name_H-M "C M C 21"
_symmetry_group_IT_number 36
_symmetry_cell_setting 'orthorhombic'
loop_
_space_group_symop_operation_xyz
x,y,z
-x,-y,1/2+z
x,-y,1/2+z
-x,y,z
1/2+x,1/2+y,z
1/2-x,1/2-y,1/2+z
1/2+x,1/2-y,1/2+z
1/2-x,1/2+y,z
loop_
_atom_site_type_symbol
_atom_site_label
_atom_site_fract_x
_atom_site_fract_y
_atom_site_fract_z
Si Si1 0.394604 0.686085 0.892050
Si Si2 0.887452 0.669804 0.591380
Si Si3 0.608285 0.927358 0.506766
Si Si4 0.213557 0.399045 0.299474
Si Si5 0.895081 0.392645 0.740300
O O1 0.500000 0.642632 0.897133
O O2 0.161862 0.625871 0.910086
O O3 0.320811 0.611314 0.831813
O O4 0.395605 0.792936 0.818583
O O5 0.867082 0.553318 0.533886
O O6 0.826414 0.669635 0.699553
O O7 0.868395 0.767773 0.509307
O O8 0.000000 0.670442 0.612498
O O9 0.500000 0.929522 0.478746
O O10 0.620679 0.863973 0.617343
O O11 0.180598 0.520067 0.273040
O O12 0.000000 0.442616 0.744200
#
# Coordination Sequence:
#
# PCOD9352202 Si02
#       5
#     8   8   8   8   8
#     4  10  21  35  50  73 109 141 168 209 261 306
#     4   9  18  33  52  79 108 130 166 219 263 299
#     4   9  16  29  53  79 101 126 167 222 261 291
#     4  11  19  29  56  78 101 134 179 206 251 310
#     4   9  18  34  53  77 103 129 168 220 262 296
#
# _framework density 17.955013999999998
#
# number of rings (size 3 to 8) (size 9 to 14) (size 15 to 20)
#    0.000    2.400    2.000    3.000    2.800    0.000 
#    0.000    0.000    0.000    8.400    0.000    0.000 
#    0.000    0.000    0.000    0.000    0.000    0.000 
#
# Total GULP energy -111364.669613 kJ/mol
# GULP energy per Si atom -5568.233481 kJ/mol
# Density = 1.791415 g / cm^3
# Si number density = 17.955014 Si / 1000 Ang^3
#
#
#
# Elastic Constant Matrix: (Units=GPa)
#
#
# Indices 1 2 3 4 5 6 
#
# 1 101.3698 23.0228 50.6023 0.0000 0.0000 0.0000
# 2 23.0228 15.3451 5.4799 0.0000 0.0000 0.0000
# 3 50.6023 5.4799 120.0370 0.0000 0.0000 0.0000
# 4 0.0000 0.0000 0.0000 16.9889 0.0000 0.0000
# 5 0.0000 0.0000 0.0000 0.0000 37.2080 0.0000
# 6 0.0000 0.0000 0.0000 0.0000 0.0000 15.0297
#
#
#
# Elastic Compliance Matrix: (Units=1/GPa)
#
#
# Indices 1 2 3 4 5 6 
#
# 1 0.019374 -0.026584 -0.006953 0.000000 0.000000 0.000000
# 2 -0.026584 0.102725 0.006517 0.000000 0.000000 0.000000
# 3 -0.006953 0.006517 0.010965 0.000000 0.000000 0.000000
# 4 0.000000 0.000000 0.000000 0.058862 0.000000 0.000000
# 5 0.000000 0.000000 0.000000 0.000000 0.026876 0.000000
# 6 0.000000 0.000000 0.000000 0.000000 0.000000 0.066535
#
#
# Mechanical properties :
#
#
# Convention : Reuss Voigt Hill
#
# Bulk Modulus (GPa) = 12.65463 43.88464 28.26964
# Shear Modulus (GPa) = 13.67178 24.35510 19.01344
#
# Velocity S-wave (km/s) = 2.76243 3.68700 3.25768
# Velocity P-wave (km/s) = 4.15186 6.52838 5.47073
#
# Compressibility (1/GPa) = 0.07902244
#
# Stress axis : x y z
#
# Youngs Moduli (GPa) = 51.61687 9.73476 91.20327
#
# Poissons Ratio (x) = 0.25879 0.63418
# Poissons Ratio (y) = 1.37216 -0.59437
# Poissons Ratio (z) = 0.35891 -0.06344
#
# Static dielectric constant tensor:
#      x y z
#    x 1.642750 0.000000 0.000000 
#    y 0.000000 1.609430 0.000000 
#    z 0.000000 0.000000 1.665620 
# 
# From -- ./inp_files/7528.got.cif
#   From: 2010.05.17/outbox.cif.g08.bks.cpg/sg36_4_cif.got.tgz:7528.got - 2010.06.03 17:41:39.
