data_PCOD9352100
_publ_section_title
;
Structure prediction by ZEFSAII (Michael W. Deem and Ramdas Pophale) SiO2 
 PCOD9352100
Probable space group: C M C 21
;
_chemical_formula_sum "Si O2"
_cell_formula_units_Z 64
_cell_length_a 8.620111
_cell_length_b 31.600392
_cell_length_c 11.071574
_cell_angle_alpha 90.000000
_cell_angle_beta 90.000000
_cell_angle_gamma 90.000000
_cell_volume 3015.884431
_symmetry_space_group_name_H-M "C M C 21"
_symmetry_group_IT_number 36
_symmetry_cell_setting 'orthorhombic'
loop_
_space_group_symop_operation_xyz
x,y,z
-x,-y,1/2+z
x,-y,1/2+z
-x,y,z
1/2+x,1/2+y,z
1/2-x,1/2-y,1/2+z
1/2+x,1/2-y,1/2+z
1/2-x,1/2+y,z
loop_
_atom_site_type_symbol
_atom_site_label
_atom_site_fract_x
_atom_site_fract_y
_atom_site_fract_z
Si Si1 0.180864 0.826618 0.469920
Si Si2 0.685214 0.971748 0.955613
Si Si3 0.175189 0.324360 0.835972
Si Si4 0.816584 0.984237 0.697322
Si Si5 0.183031 0.255726 0.641235
Si Si6 0.822669 0.395684 0.627763
Si Si7 0.678852 0.828082 0.214027
Si Si8 0.820096 0.117768 0.518731
O O1 0.269970 0.788947 0.538228
O O2 0.249752 0.871236 0.515023
O O3 0.210889 0.823624 0.328830
O O4 0.000000 0.824015 0.500646
O O5 0.500000 0.972504 0.950833
O O6 0.749243 0.993043 0.831903
O O7 0.745723 0.923445 0.958347
O O8 0.743388 0.991488 0.082359
O O9 0.208830 0.280575 0.768279
O O10 0.172430 0.359747 0.730702
O O11 0.000000 0.322913 0.888583
O O12 0.297389 0.342293 0.929900
O O13 0.777275 0.935196 0.670253
O O14 0.000000 0.991679 0.699045
O O15 0.286949 0.214205 0.637508
O O16 0.000000 0.245836 0.632681
O O17 0.000000 0.409546 0.604716
O O18 0.500000 0.829945 0.250513
O O19 0.727225 0.868963 0.137816
O O20 0.000000 0.110339 0.543809
#
# Coordination Sequence:
#
# PCOD9352100 Si02
#       8
#     8   8   8   8   8   8   8   8
#     4  11  23  41  63  92 129 167 214 271 328 391
#     4  12  26  47  72 102 141 184 230 282 349 420
#     4   9  19  37  64  92 125 163 209 258 312 380
#     4  12  25  44  71 106 140 178 229 287 343 408
#     4  10  22  41  64  92 126 167 216 267 324 388
#     4  10  20  39  67  96 127 167 212 259 319 389
#     4  12  26  43  63  90 129 173 219 272 333 396
#     4  12  25  42  66  96 131 171 219 272 330 394
#
# _framework density 21.220973000000001
#
# number of rings (size 3 to 8) (size 9 to 14) (size 15 to 20)
#    0.000    1.000    1.250    7.125    1.750    3.500 
#    0.000    5.000    0.000    0.000    0.000    0.000 
#    0.000    0.000    0.000    0.000    0.000    0.000 
#
# Total GULP energy -178966.904852 kJ/mol
# GULP energy per Si atom -5592.715777 kJ/mol
# Density = 2.117267 g / cm^3
# Si number density = 21.220973 Si / 1000 Ang^3
#
#
#
# Elastic Constant Matrix: (Units=GPa)
#
#
# Indices 1 2 3 4 5 6 
#
# 1 106.6853 14.0947 6.5047 0.0000 0.0000 0.0000
# 2 14.0947 48.6385 25.9303 0.0000 0.0000 0.0000
# 3 6.5047 25.9303 80.2215 0.0000 0.0000 0.0000
# 4 0.0000 0.0000 0.0000 29.1584 0.0000 0.0000
# 5 0.0000 0.0000 0.0000 0.0000 32.9770 0.0000
# 6 0.0000 0.0000 0.0000 0.0000 0.0000 32.0405
#
#
#
# Elastic Compliance Matrix: (Units=1/GPa)
#
#
# Indices 1 2 3 4 5 6 
#
# 1 0.009748 -0.002904 0.000148 0.000000 0.000000 0.000000
# 2 -0.002904 0.025705 -0.008073 0.000000 0.000000 0.000000
# 3 0.000148 -0.008073 0.015063 0.000000 0.000000 0.000000
# 4 0.000000 0.000000 0.000000 0.034295 0.000000 0.000000
# 5 0.000000 0.000000 0.000000 0.000000 0.030324 0.000000
# 6 0.000000 0.000000 0.000000 0.000000 0.000000 0.031210
#
#
# Mechanical properties :
#
#
# Convention : Reuss Voigt Hill
#
# Bulk Modulus (GPa) = 34.65195 36.51164 35.58179
# Shear Modulus (GPa) = 28.14934 31.43622 29.79278
#
# Velocity S-wave (km/s) = 3.64605 3.85304 3.75097
# Velocity P-wave (km/s) = 5.83862 6.08583 5.96351
#
# Compressibility (1/GPa) = 0.02885841
#
# Stress axis : x y z
#
# Youngs Moduli (GPa) = 102.58547 38.90228 66.38757
#
# Poissons Ratio (x) = 0.11297 -0.00984
# Poissons Ratio (y) = 0.29789 0.53597
# Poissons Ratio (z) = -0.01520 0.31407
#
# Static dielectric constant tensor:
#      x y z
#    x 1.709110 0.000000 0.000000 
#    y 0.000000 1.756980 0.000000 
#    z 0.000000 0.000000 1.794450 
# 
# From -- ./inp_files/7207.got.cif
#   From: 2010.05.17/outbox.cif.g08.bks.cpg/sg36_4_cif.got.tgz:7207.got - 2010.06.03 17:41:39.
