data_PCOD9352372
_publ_section_title
;
Structure prediction by ZEFSAII (Michael W. Deem and Ramdas Pophale) SiO2 
 PCOD9352372
Probable space group: C M C 21
;
_chemical_formula_sum "Si O2"
_cell_formula_units_Z 48
_cell_length_a 8.794339
_cell_length_b 19.639320
_cell_length_c 11.753889
_cell_angle_alpha 90.000000
_cell_angle_beta 90.000000
_cell_angle_gamma 90.000000
_cell_volume 2030.071032
_symmetry_space_group_name_H-M "C M C 21"
_symmetry_group_IT_number 36
_symmetry_cell_setting 'orthorhombic'
loop_
_space_group_symop_operation_xyz
x,y,z
-x,-y,1/2+z
x,-y,1/2+z
-x,y,z
1/2+x,1/2+y,z
1/2-x,1/2-y,1/2+z
1/2+x,1/2-y,1/2+z
1/2-x,1/2+y,z
loop_
_atom_site_type_symbol
_atom_site_label
_atom_site_fract_x
_atom_site_fract_y
_atom_site_fract_z
Si Si1 0.329349 0.405006 0.447460
Si Si2 0.829578 0.062331 0.522286
Si Si3 0.322816 0.769703 0.467815
Si Si4 0.676746 0.257566 0.706129
Si Si5 0.169304 0.450672 0.234007
Si Si6 0.672249 0.587616 0.266120
O O1 0.500000 0.378330 0.466383
O O2 0.321269 0.480659 0.499499
O O3 0.205973 0.350377 0.484499
O O4 0.293930 0.418665 0.315926
O O5 0.698882 0.078458 0.610191
O O6 0.811977 0.097706 0.401314
O O7 0.000000 0.076709 0.565234
O O8 0.500000 0.751547 0.464515
O O9 0.263563 0.759244 0.335790
O O10 0.253469 0.737513 0.584811
O O11 0.500000 0.235144 0.703708
O O12 0.680842 0.339921 0.708257
O O13 0.206406 0.531086 0.232123
O O14 0.000000 0.438560 0.276158
O O15 0.500000 0.560128 0.247596
#
# Coordination Sequence:
#
# PCOD9352372 Si02
#       6
#     8   8   8   8   8   8
#     4  10  21  38  59  81 112 157 200 239 293 360
#     4   9  18  33  54  80 110 149 195 237 285 354
#     4  11  24  41  63  93 124 157 205 259 305 355
#     4  10  23  43  64  88 121 161 204 250 304 366
#     4  11  21  32  52  85 120 149 185 241 299 351
#     4   9  19  37  58  79 109 153 199 238 286 358
#
# _framework density 23.644492
#
# number of rings (size 3 to 8) (size 9 to 14) (size 15 to 20)
#    0.000    2.000    0.000    4.500    0.000   10.667 
#    0.000    1.667    0.000    0.000    0.000    0.000 
#    0.000    0.000    0.000    0.000    0.000    0.000 
#
# Total GULP energy -133952.003859 kJ/mol
# GULP energy per Si atom -5581.333494 kJ/mol
# Density = 2.359068 g / cm^3
# Si number density = 23.644492 Si / 1000 Ang^3
#
#
#
# Elastic Constant Matrix: (Units=GPa)
#
#
# Indices 1 2 3 4 5 6 
#
# 1 48.4022 1.6618 41.3788 0.0000 0.0000 0.0000
# 2 1.6618 50.4089 -12.2493 0.0000 0.0000 0.0000
# 3 41.3788 -12.2493 163.8542 0.0000 0.0000 0.0000
# 4 0.0000 0.0000 0.0000 0.0338 0.0000 0.0000
# 5 0.0000 0.0000 0.0000 0.0000 32.2575 0.0000
# 6 0.0000 0.0000 0.0000 0.0000 0.0000 5.4804
#
#
#
# Elastic Compliance Matrix: (Units=1/GPa)
#
#
# Indices 1 2 3 4 5 6 
#
# 1 0.026670 -0.002562 -0.006927 0.000000 0.000000 0.000000
# 2 -0.002562 0.020451 0.002176 0.000000 0.000000 0.000000
# 3 -0.006927 0.002176 0.008015 0.000000 0.000000 0.000000
# 4 0.000000 0.000000 0.000000 29.564304 0.000000 0.000000
# 5 0.000000 0.000000 0.000000 0.000000 0.031001 0.000000
# 6 0.000000 0.000000 0.000000 0.000000 0.000000 0.182468
#
#
# Mechanical properties :
#
#
# Convention : Reuss Voigt Hill
#
# Bulk Modulus (GPa) = 24.68551 36.02754 30.35652
# Shear Modulus (GPa) = 0.16744 23.01262 11.59003
#
# Velocity S-wave (km/s) = 0.26640 3.12312 2.21640
# Velocity P-wave (km/s) = 3.24924 5.31747 4.40642
#
# Compressibility (1/GPa) = 0.04050960
#
# Stress axis : x y z
#
# Youngs Moduli (GPa) = 37.49575 48.89745 124.76851
#
# Poissons Ratio (x) = 0.12529 0.86422
# Poissons Ratio (y) = 0.09608 -0.27149
# Poissons Ratio (z) = 0.25972 -0.10640
#
# Static dielectric constant tensor:
#      x y z
#    x 1.826370 0.000000 0.000000 
#    y 0.000000 1.930850 0.000000 
#    z 0.000000 0.000000 1.993150 
# 
# From -- ./inp_files/6723.got.cif
#   From: 2010.05.17/outbox.cif.g08.bks.cpg/sg36_4_cif.got.tgz:6723.got - 2010.06.03 17:41:39.
