data_PCOD9352210
_publ_section_title
;
Structure prediction by ZEFSAII (Michael W. Deem and Ramdas Pophale) SiO2 
 PCOD9352210
Probable space group: C M C 21
;
_chemical_formula_sum "Si O2"
_cell_formula_units_Z 56
_cell_length_a 35.718344
_cell_length_b 4.976446
_cell_length_c 15.227553
_cell_angle_alpha 90.000000
_cell_angle_beta 90.000000
_cell_angle_gamma 90.000000
_cell_volume 2706.703791
_symmetry_space_group_name_H-M "C M C 21"
_symmetry_group_IT_number 36
_symmetry_cell_setting 'orthorhombic'
loop_
_space_group_symop_operation_xyz
x,y,z
-x,-y,1/2+z
x,-y,1/2+z
-x,y,z
1/2+x,1/2+y,z
1/2-x,1/2-y,1/2+z
1/2+x,1/2-y,1/2+z
1/2-x,1/2+y,z
loop_
_atom_site_type_symbol
_atom_site_label
_atom_site_fract_x
_atom_site_fract_y
_atom_site_fract_z
Si Si1 0.225235 0.414508 0.422440
Si Si2 0.882775 0.927712 0.580339
Si Si3 0.613962 0.587882 0.277895
Si Si4 0.959042 0.313271 0.369478
Si Si5 0.334804 0.888765 0.781329
Si Si6 0.668189 0.906165 0.578802
Si Si7 0.541356 0.683057 0.986108
O O1 0.261176 0.608275 0.416291
O O2 0.198186 0.519992 0.345385
O O3 0.203320 0.433871 0.514677
O O4 0.892842 0.013452 0.679283
O O5 0.852674 0.690240 0.580918
O O6 0.920752 0.809339 0.540589
O O7 0.861473 0.186477 0.540828
O O8 0.574972 0.683059 0.317669
O O9 0.639994 0.355670 0.319460
O O10 0.638407 0.855439 0.274776
O O11 0.953710 0.616772 0.402949
O O12 0.000000 0.294597 0.325349
O O13 0.960731 0.124454 0.454998
O O14 0.322264 0.826177 0.680301
O O15 0.500000 0.752055 0.024303
#
# Coordination Sequence:
#
# PCOD9352210 Si02
#       7
#     8   8   8   8   8   8   8
#     4  12  26  42  64  94 119 156 201 236 312 384
#     4  10  21  38  60  87 117 159 206 246 300 354
#     4  10  21  38  60  87 117 159 206 246 300 354
#     4  10  21  35  54  86 122 159 202 250 302 350
#     4  10  23  41  62  91 122 155 201 253 299 359
#     4  10  23  41  62  91 122 155 201 253 299 359
#     4  10  21  35  54  86 122 159 202 250 302 350
#
# _framework density 20.689371999999999
#
# number of rings (size 3 to 8) (size 9 to 14) (size 15 to 20)
#    0.000    1.714    0.000    3.429    6.000    1.714 
#    0.000    0.000    0.000   10.286    0.000    0.000 
#    0.000    0.000    0.000    0.000    0.000    0.000 
#
# Total GULP energy -156159.810527 kJ/mol
# GULP energy per Si atom -5577.136090 kJ/mol
# Density = 2.064228 g / cm^3
# Si number density = 20.689372 Si / 1000 Ang^3
#
#
#
# Elastic Constant Matrix: (Units=GPa)
#
#
# Indices 1 2 3 4 5 6 
#
# 1 109.2300 16.5099 44.7327 0.0000 0.0000 0.0000
# 2 16.5099 94.4004 -4.0269 0.0000 0.0000 0.0000
# 3 44.7327 -4.0269 53.5350 0.0000 0.0000 0.0000
# 4 0.0000 0.0000 0.0000 19.6845 0.0000 0.0000
# 5 0.0000 0.0000 0.0000 0.0000 14.1703 0.0000
# 6 0.0000 0.0000 0.0000 0.0000 0.0000 35.9234
#
#
#
# Elastic Compliance Matrix: (Units=1/GPa)
#
#
# Indices 1 2 3 4 5 6 
#
# 1 0.014781 -0.003122 -0.012586 0.000000 0.000000 0.000000
# 2 -0.003122 0.011287 0.003458 0.000000 0.000000 0.000000
# 3 -0.012586 0.003458 0.029456 0.000000 0.000000 0.000000
# 4 0.000000 0.000000 0.000000 0.050801 0.000000 0.000000
# 5 0.000000 0.000000 0.000000 0.000000 0.070570 0.000000
# 6 0.000000 0.000000 0.000000 0.000000 0.000000 0.027837
#
#
# Mechanical properties :
#
#
# Convention : Reuss Voigt Hill
#
# Bulk Modulus (GPa) = 32.23351 41.28853 36.76102
# Shear Modulus (GPa) = 20.87050 27.28562 24.07806
#
# Velocity S-wave (km/s) = 3.17954 3.63550 3.41514
# Velocity P-wave (km/s) = 5.39378 6.13369 5.77560
#
# Compressibility (1/GPa) = 0.03102361
#
# Stress axis : x y z
#
# Youngs Moduli (GPa) = 67.65443 88.60002 33.94935
#
# Poissons Ratio (x) = 0.27660 0.42727
# Poissons Ratio (y) = 0.21121 -0.11738
# Poissons Ratio (z) = 0.85147 -0.30634
#
# Static dielectric constant tensor:
#      x y z
#    x 1.758390 0.000000 0.000000 
#    y 0.000000 1.718700 0.000000 
#    z 0.000000 0.000000 1.789590 
# 
# From -- ./inp_files/13158.got.cif
#   From: 2010.05.17/outbox.cif.g08.bks.cpg/sg36_7_cif.got.tgz:13158.got - 2010.06.03 17:41:39.
