data_PCOD9352196
_publ_section_title
;
Structure prediction by ZEFSAII (Michael W. Deem and Ramdas Pophale) SiO2 
 PCOD9352196
Probable space group: C M C 21
;
_chemical_formula_sum "Si O2"
_cell_formula_units_Z 60
_cell_length_a 14.774316
_cell_length_b 34.203463
_cell_length_c 5.314706
_cell_angle_alpha 90.000000
_cell_angle_beta 90.000000
_cell_angle_gamma 90.000000
_cell_volume 2685.695108
_symmetry_space_group_name_H-M "C M C 21"
_symmetry_group_IT_number 36
_symmetry_cell_setting 'orthorhombic'
loop_
_space_group_symop_operation_xyz
x,y,z
-x,-y,1/2+z
x,-y,1/2+z
-x,y,z
1/2+x,1/2+y,z
1/2-x,1/2-y,1/2+z
1/2+x,1/2-y,1/2+z
1/2-x,1/2+y,z
loop_
_atom_site_type_symbol
_atom_site_label
_atom_site_fract_x
_atom_site_fract_y
_atom_site_fract_z
Si Si1 0.145377 0.354712 0.940630
Si Si2 0.000000 0.026465 0.986532
Si Si3 0.895705 0.231696 0.574536
Si Si4 0.135774 0.903174 0.442631
Si Si5 0.895761 0.514970 0.110560
Si Si6 0.854887 0.600742 0.941114
Si Si7 0.893726 0.734072 0.575157
Si Si8 0.636754 0.642832 0.442823
O O1 0.117915 0.369971 0.666143
O O2 0.115552 0.310824 0.997964
O O3 0.116233 0.382786 0.170298
O O4 0.254272 0.355434 0.943282
O O5 0.913150 0.055402 0.976643
O O6 0.000000 0.001424 0.242440
O O7 0.855406 0.239584 0.849061
O O8 0.894111 0.186812 0.493045
O O9 0.000000 0.244521 0.602957
O O10 0.853408 0.256525 0.347920
O O11 0.245416 0.904730 0.443468
O O12 0.108572 0.884216 0.176579
O O13 0.108827 0.875367 0.676424
O O14 0.852790 0.489264 0.886856
O O15 0.893657 0.558722 0.010250
O O16 0.000000 0.502125 0.150446
O O17 0.000000 0.743787 0.603249
#
# Coordination Sequence:
#
# PCOD9352196 Si02
#       8
#     8   4   8   8   8   8   8   8
#     4  10  21  36  56  79 112 146 187 227 272 335
#     4  12  26  42  62  90 118 150 188 228 288 354
#     4  10  21  34  54  80 109 144 190 230 280 338
#     4  10  23  39  59  84 114 143 183 234 273 331
#     4  10  21  36  56  83 111 139 179 228 270 318
#     4  10  21  38  57  83 110 147 188 222 277 338
#     4  10  21  36  51  80 115 147 185 234 277 325
#     4  10  21  38  58  84 108 145 188 231 279 324
#
# _framework density 22.340585000000001
#
# number of rings (size 3 to 8) (size 9 to 14) (size 15 to 20)
#    0.000    1.867    0.000    3.200    1.867    3.200 
#    0.000    0.000    0.000    0.000    0.000    0.000 
#    0.000    0.000    0.000    0.000    0.000    0.000 
#
# Total GULP energy -167672.103215 kJ/mol
# GULP energy per Si atom -5589.070107 kJ/mol
# Density = 2.228974 g / cm^3
# Si number density = 22.340585 Si / 1000 Ang^3
#
#
#
# Elastic Constant Matrix: (Units=GPa)
#
#
# Indices 1 2 3 4 5 6 
#
# 1 61.1551 -9.0237 15.2403 0.0000 0.0000 0.0000
# 2 -9.0237 49.5764 -21.0847 0.0000 0.0000 0.0000
# 3 15.2403 -21.0847 76.1811 0.0000 0.0000 0.0000
# 4 0.0000 0.0000 0.0000 52.3505 0.0000 0.0000
# 5 0.0000 0.0000 0.0000 0.0000 2.0810 0.0000
# 6 0.0000 0.0000 0.0000 0.0000 0.0000 39.6080
#
#
#
# Elastic Compliance Matrix: (Units=1/GPa)
#
#
# Indices 1 2 3 4 5 6 
#
# 1 0.017368 0.001908 -0.002946 0.000000 0.000000 0.000000
# 2 0.001908 0.023072 0.006004 0.000000 0.000000 0.000000
# 3 -0.002946 0.006004 0.015378 0.000000 0.000000 0.000000
# 4 0.000000 0.000000 0.000000 0.019102 0.000000 0.000000
# 5 0.000000 0.000000 0.000000 0.000000 0.480549 0.000000
# 6 0.000000 0.000000 0.000000 0.000000 0.000000 0.025247
#
#
# Mechanical properties :
#
#
# Convention : Reuss Voigt Hill
#
# Bulk Modulus (GPa) = 15.20954 17.46404 16.33679
# Shear Modulus (GPa) = 8.43597 32.25993 20.34795
#
# Velocity S-wave (km/s) = 1.94532 3.80413 3.02123
# Velocity P-wave (km/s) = 3.44507 5.20859 4.41576
#
# Compressibility (1/GPa) = 0.06574819
#
# Stress axis : x y z
#
# Youngs Moduli (GPa) = 57.57823 43.34331 65.02917
#
# Poissons Ratio (x) = -0.08271 0.19160
# Poissons Ratio (y) = -0.10987 -0.39042
# Poissons Ratio (z) = 0.16965 -0.26022
#
# Static dielectric constant tensor:
#      x y z
#    x 1.791990 0.000000 0.000000 
#    y 0.000000 1.756400 0.000000 
#    z 0.000000 0.000000 1.868270 
# 
# From -- ./inp_files/1190.got.cif
#   From: 2010.05.17/outbox.cif.g08.bks.cpg/sg36_1_cif.got.tgz:1190.got - 2010.06.03 17:41:39.
