data_PCOD9352023
_publ_section_title
;
Structure prediction by ZEFSAII (Michael W. Deem and Ramdas Pophale) SiO2 
 PCOD9352023
Probable space group: C M C 21
;
_chemical_formula_sum "Si O2"
_cell_formula_units_Z 64
_cell_length_a 8.473605
_cell_length_b 31.405787
_cell_length_c 12.369016
_cell_angle_alpha 90.000000
_cell_angle_beta 90.000000
_cell_angle_gamma 90.000000
_cell_volume 3291.645429
_symmetry_space_group_name_H-M "C M C 21"
_symmetry_group_IT_number 36
_symmetry_cell_setting 'orthorhombic'
loop_
_space_group_symop_operation_xyz
x,y,z
-x,-y,1/2+z
x,-y,1/2+z
-x,y,z
1/2+x,1/2+y,z
1/2-x,1/2-y,1/2+z
1/2+x,1/2-y,1/2+z
1/2-x,1/2+y,z
loop_
_atom_site_type_symbol
_atom_site_label
_atom_site_fract_x
_atom_site_fract_y
_atom_site_fract_z
Si Si1 0.315748 0.325969 0.654960
Si Si2 0.314043 0.959716 0.436632
Si Si3 0.691273 0.302110 0.896031
Si Si4 0.687098 0.447344 0.895975
Si Si5 0.314951 0.573640 0.153856
Si Si6 0.311659 0.124692 0.553303
Si Si7 0.306921 0.124100 0.803145
Si Si8 0.687590 0.793369 0.436686
O O1 0.500000 0.313088 0.648496
O O2 0.260702 0.317699 0.776829
O O3 0.306191 0.376115 0.633334
O O4 0.221780 0.302442 0.561744
O O5 0.500000 0.965574 0.416517
O O6 0.283457 0.949475 0.562004
O O7 0.258688 0.918810 0.366702
O O8 0.225558 0.003233 0.410398
O O9 0.500000 0.302890 0.899923
O O10 0.748481 0.253655 0.909400
O O11 0.749907 0.334437 0.987427
O O12 0.500000 0.439737 0.900318
O O13 0.741123 0.434510 0.775641
O O14 0.762543 0.417374 0.987007
O O15 0.500000 0.560730 0.146264
O O16 0.500000 0.126857 0.555955
O O17 0.256029 0.123726 0.678000
O O18 0.500000 0.124387 0.805635
O O19 0.251462 0.166820 0.865334
O O20 0.500000 0.792293 0.418524
#
# Coordination Sequence:
#
# PCOD9352023 Si02
#       8
#     8   8   8   8   8   8   8   8
#     4  10  20  38  62  86 116 153 199 249 298 349
#     4  11  23  40  63  90 121 154 200 251 301 355
#     4  10  22  40  61  87 122 161 197 243 302 356
#     4  11  24  43  63  88 123 158 200 245 302 362
#     4  10  21  40  63  86 116 157 201 247 299 357
#     4  11  23  40  63  89 120 158 203 246 297 356
#     4   9  21  40  59  85 120 157 194 243 297 351
#     4  10  21  39  62  87 118 158 200 242 298 354
#
# _framework density 19.443165
#
# number of rings (size 3 to 8) (size 9 to 14) (size 15 to 20)
#    0.000    1.750    2.500    1.125    3.500    2.000 
#    0.000    3.125    0.000    0.000    0.000    0.000 
#    0.000    0.000    0.000    0.000    0.000    0.000 
#
# Total GULP energy -178701.527436 kJ/mol
# GULP energy per Si atom -5584.422732 kJ/mol
# Density = 1.939891 g / cm^3
# Si number density = 19.443165 Si / 1000 Ang^3
#
#
#
# Elastic Constant Matrix: (Units=GPa)
#
#
# Indices 1 2 3 4 5 6 
#
# 1 6.1061 6.7807 6.8055 0.0000 0.0000 0.0000
# 2 6.7807 106.9100 36.8872 0.0000 0.0000 0.0000
# 3 6.8055 36.8872 102.7746 0.0000 0.0000 0.0000
# 4 0.0000 0.0000 0.0000 29.5072 0.0000 0.0000
# 5 0.0000 0.0000 0.0000 0.0000 22.5896 0.0000
# 6 0.0000 0.0000 0.0000 0.0000 0.0000 25.8794
#
#
#
# Elastic Compliance Matrix: (Units=1/GPa)
#
#
# Indices 1 2 3 4 5 6 
#
# 1 0.183332 -0.008490 -0.009092 0.000000 0.000000 0.000000
# 2 -0.008490 0.011069 -0.003411 0.000000 0.000000 0.000000
# 3 -0.009092 -0.003411 0.011556 0.000000 0.000000 0.000000
# 4 0.000000 0.000000 0.000000 0.033890 0.000000 0.000000
# 5 0.000000 0.000000 0.000000 0.000000 0.044268 0.000000
# 6 0.000000 0.000000 0.000000 0.000000 0.000000 0.038641
#
#
# Mechanical properties :
#
#
# Convention : Reuss Voigt Hill
#
# Bulk Modulus (GPa) = 6.09868 35.19304 20.64586
# Shear Modulus (GPa) = 11.92181 26.61641 19.26911
#
# Velocity S-wave (km/s) = 2.47890 3.70393 3.15151
# Velocity P-wave (km/s) = 3.36701 6.03588 4.88716
#
# Compressibility (1/GPa) = 0.16396991
#
# Stress axis : x y z
#
# Youngs Moduli (GPa) = 5.45459 90.34316 86.53360
#
# Poissons Ratio (x) = 0.76706 0.78680
# Poissons Ratio (y) = 0.04631 0.29513
# Poissons Ratio (z) = 0.04960 0.30812
#
# Static dielectric constant tensor:
#      x y z
#    x 1.683510 0.000000 0.000000 
#    y 0.000000 1.671290 0.000000 
#    z 0.000000 0.000000 1.662800 
# 
# From -- ./inp_files/7060.got.cif
#   From: 2010.05.17/outbox.cif.g08.bks.cpg/sg36_4_cif.got.tgz:7060.got - 2010.06.03 17:41:39.
