data_PCOD9352631
_publ_section_title
;
Structure prediction by ZEFSAII (Michael W. Deem and Ramdas Pophale) SiO2 
 PCOD9352631
Probable space group: C M C 21
;
_chemical_formula_sum "Si O2"
_cell_formula_units_Z 64
_cell_length_a 27.188701
_cell_length_b 11.522410
_cell_length_c 9.475282
_cell_angle_alpha 90.000000
_cell_angle_beta 90.000000
_cell_angle_gamma 90.000000
_cell_volume 2968.410284
_symmetry_space_group_name_H-M "C M C 21"
_symmetry_group_IT_number 36
_symmetry_cell_setting 'orthorhombic'
loop_
_space_group_symop_operation_xyz
x,y,z
-x,-y,1/2+z
x,-y,1/2+z
-x,y,z
1/2+x,1/2+y,z
1/2-x,1/2-y,1/2+z
1/2+x,1/2-y,1/2+z
1/2-x,1/2+y,z
loop_
_atom_site_type_symbol
_atom_site_label
_atom_site_fract_x
_atom_site_fract_y
_atom_site_fract_z
Si Si1 0.834308 0.383014 0.027740
Si Si2 0.054984 0.668460 0.479586
Si Si3 0.554016 0.606310 0.149493
Si Si4 0.179304 0.974226 0.310340
Si Si5 0.783263 0.856701 0.572033
Si Si6 0.904141 0.921809 0.955068
Si Si7 0.813195 0.602824 0.208320
Si Si8 0.898910 0.222685 0.712514
O O1 0.820320 0.252459 0.075415
O O2 0.816066 0.476482 0.139454
O O3 0.893171 0.397950 0.000015
O O4 0.807484 0.400326 0.877053
O O5 0.054931 0.759652 0.608435
O O6 0.063263 0.742442 0.335097
O O7 0.000000 0.613666 0.474810
O O8 0.500000 0.559442 0.115877
O O9 0.565363 0.583768 0.311711
O O10 0.589793 0.539253 0.044664
O O11 0.200888 0.039228 0.176371
O O12 0.151859 0.074312 0.401393
O O13 0.215947 0.906301 0.413375
O O14 0.137683 0.879811 0.266874
O O15 0.729555 0.825428 0.630102
O O16 0.919172 0.823096 0.064860
O O17 0.864578 0.667497 0.184569
#
# Coordination Sequence:
#
# PCOD9352631 Si02
#       8
#     8   8   8   8   8   8   8   8
#     4  11  25  48  66 101 140 177 234 283 337 408
#     4  10  21  43  68  89 127 180 224 280 341 394
#     4  11  21  33  55  91 125 164 215 268 336 405
#     4  12  21  40  64  96 131 174 216 263 343 409
#     4  12  25  42  70  98 140 177 221 276 348 414
#     4  12  20  35  57  87 128 173 206 266 336 396
#     4  11  27  44  68  95 135 179 228 281 339 404
#     4  11  23  41  63  93 134 170 227 275 334 402
#
# _framework density 21.560362000000001
#
# number of rings (size 3 to 8) (size 9 to 14) (size 15 to 20)
#    0.000    0.750    6.250    1.875    1.750    6.000 
#    0.000    2.500    0.000    0.000    0.000    0.000 
#    0.000    0.000    0.000    0.000    0.000    0.000 
#
# Total GULP energy -178708.324391 kJ/mol
# GULP energy per Si atom -5584.635137 kJ/mol
# Density = 2.151129 g / cm^3
# Si number density = 21.560362 Si / 1000 Ang^3
#
#
#
# Elastic Constant Matrix: (Units=GPa)
#
#
# Indices 1 2 3 4 5 6 
#
# 1 85.9922 5.1026 19.9863 0.0000 0.0000 0.0000
# 2 5.1026 56.3879 23.8978 0.0000 0.0000 0.0000
# 3 19.9863 23.8978 120.5974 0.0000 0.0000 0.0000
# 4 0.0000 0.0000 0.0000 29.4217 0.0000 0.0000
# 5 0.0000 0.0000 0.0000 0.0000 28.6791 0.0000
# 6 0.0000 0.0000 0.0000 0.0000 0.0000 17.7001
#
#
#
# Elastic Compliance Matrix: (Units=1/GPa)
#
#
# Indices 1 2 3 4 5 6 
#
# 1 0.012099 -0.000268 -0.001952 0.000000 0.000000 0.000000
# 2 -0.000268 0.019366 -0.003793 0.000000 0.000000 0.000000
# 3 -0.001952 -0.003793 0.009367 0.000000 0.000000 0.000000
# 4 0.000000 0.000000 0.000000 0.033988 0.000000 0.000000
# 5 0.000000 0.000000 0.000000 0.000000 0.034869 0.000000
# 6 0.000000 0.000000 0.000000 0.000000 0.000000 0.056497
#
#
# Mechanical properties :
#
#
# Convention : Reuss Voigt Hill
#
# Bulk Modulus (GPa) = 34.71472 40.10565 37.41019
# Shear Modulus (GPa) = 26.62214 29.42624 28.02419
#
# Velocity S-wave (km/s) = 3.51774 3.69837 3.60919
# Velocity P-wave (km/s) = 5.71275 6.07282 5.89554
#
# Compressibility (1/GPa) = 0.02880622
#
# Stress axis : x y z
#
# Youngs Moduli (GPa) = 82.65473 51.63644 106.75496
#
# Poissons Ratio (x) = 0.01381 0.20839
# Poissons Ratio (y) = 0.02211 0.40495
# Poissons Ratio (z) = 0.16135 0.19587
#
# Static dielectric constant tensor:
#      x y z
#    x 1.859720 0.000000 0.000000 
#    y 0.000000 1.781790 0.000000 
#    z 0.000000 0.000000 1.774090 
# 
# From -- ./inp_files/6103.got.cif
#   From: 2010.05.17/outbox.cif.g08.bks.cpg/sg36_4_cif.got.tgz:6103.got - 2010.06.03 17:41:39.
