data_PCOD9352646
_publ_section_title
;
Structure prediction by ZEFSAII (Michael W. Deem and Ramdas Pophale) SiO2 
 PCOD9352646
Probable space group: C M C 21
;
_chemical_formula_sum "Si O2"
_cell_formula_units_Z 40
_cell_length_a 13.787117
_cell_length_b 24.582196
_cell_length_c 5.305280
_cell_angle_alpha 90.000000
_cell_angle_beta 90.000000
_cell_angle_gamma 90.000000
_cell_volume 1798.052831
_symmetry_space_group_name_H-M "C M C 21"
_symmetry_group_IT_number 36
_symmetry_cell_setting 'orthorhombic'
loop_
_space_group_symop_operation_xyz
x,y,z
-x,-y,1/2+z
x,-y,1/2+z
-x,y,z
1/2+x,1/2+y,z
1/2-x,1/2-y,1/2+z
1/2+x,1/2-y,1/2+z
1/2-x,1/2+y,z
loop_
_atom_site_type_symbol
_atom_site_label
_atom_site_fract_x
_atom_site_fract_y
_atom_site_fract_z
Si Si1 0.337120 0.219913 0.939280
Si Si2 0.000000 0.760926 0.622906
Si Si3 0.107820 0.367222 0.805136
Si Si4 0.210503 0.840452 0.122066
Si Si5 0.614880 0.974028 0.486482
Si Si6 0.000000 0.836043 0.123466
O O1 0.406335 0.224568 0.694817
O O2 0.247584 0.179521 0.893266
O O3 0.393123 0.190872 0.164304
O O4 0.303236 0.280695 0.994313
O O5 0.000000 0.793769 0.361658
O O6 0.000000 0.804153 0.856561
O O7 0.121176 0.412982 0.589003
O O8 0.000000 0.377328 0.918920
O O9 0.201057 0.370102 0.985425
O O10 0.103778 0.865969 0.132739
O O11 0.500000 0.985985 0.460206
O O12 0.655797 0.988526 0.212769
#
# Coordination Sequence:
#
# PCOD9352646 Si02
#       6
#     8   4   8   8   8   4
#     4  11  21  34  54  84 126 163 210 249 302 364
#     4  10  22  36  58  76 114 164 208 254 292 342
#     4  11  24  38  59  95 123 168 208 254 311 386
#     4  11  23  36  56  80 125 169 206 254 299 357
#     4   9  20  40  61  85 121 156 197 256 317 373
#     4  10  24  40  56  78 114 166 214 246 292 348
#
# _framework density 22.246286999999999
#
# number of rings (size 3 to 8) (size 9 to 14) (size 15 to 20)
#    0.000    1.600    3.000    1.200    9.800    0.000 
#    0.000    0.000    0.000    0.000    0.000    1.400 
#    0.000    0.000    0.000    0.000    0.000    0.000 
#
# Total GULP energy -111636.099774 kJ/mol
# GULP energy per Si atom -5581.804989 kJ/mol
# Density = 2.219565 g / cm^3
# Si number density = 22.246287 Si / 1000 Ang^3
#
#
#
# Elastic Constant Matrix: (Units=GPa)
#
#
# Indices 1 2 3 4 5 6 
#
# 1 153.3805 14.3205 13.7608 0.0000 0.0000 0.0000
# 2 14.3205 56.8131 24.8056 0.0000 0.0000 0.0000
# 3 13.7608 24.8056 81.9666 0.0000 0.0000 0.0000
# 4 0.0000 0.0000 0.0000 35.1372 0.0000 0.0000
# 5 0.0000 0.0000 0.0000 0.0000 30.0832 0.0000
# 6 0.0000 0.0000 0.0000 0.0000 0.0000 13.0502
#
#
#
# Elastic Compliance Matrix: (Units=1/GPa)
#
#
# Indices 1 2 3 4 5 6 
#
# 1 0.006712 -0.001383 -0.000708 0.000000 0.000000 0.000000
# 2 -0.001383 0.020566 -0.005992 0.000000 0.000000 0.000000
# 3 -0.000708 -0.005992 0.014132 0.000000 0.000000 0.000000
# 4 0.000000 0.000000 0.000000 0.028460 0.000000 0.000000
# 5 0.000000 0.000000 0.000000 0.000000 0.033241 0.000000
# 6 0.000000 0.000000 0.000000 0.000000 0.000000 0.076627
#
#
# Mechanical properties :
#
#
# Convention : Reuss Voigt Hill
#
# Bulk Modulus (GPa) = 39.61170 44.21491 41.91331
# Shear Modulus (GPa) = 24.47141 31.60567 28.03854
#
# Velocity S-wave (km/s) = 3.32026 3.77333 3.55402
# Velocity P-wave (km/s) = 5.70469 6.23717 5.97686
#
# Compressibility (1/GPa) = 0.02524506
#
# Stress axis : x y z
#
# Youngs Moduli (GPa) = 148.97833 48.62341 70.75965
#
# Poissons Ratio (x) = 0.06723 0.05013
# Poissons Ratio (y) = 0.20598 0.42398
# Poissons Ratio (z) = 0.10555 0.29134
#
# Static dielectric constant tensor:
#      x y z
#    x 1.932780 0.000000 0.000000 
#    y 0.000000 1.829730 0.000000 
#    z 0.000000 0.000000 1.915370 
# 
# From -- ./inp_files/791.got.cif
#   From: 2010.05.17/outbox.cif.g08.bks.cpg/sg36_1_cif.got.tgz:791.got - 2010.06.03 17:41:39.
