data_PCOD9352083
_publ_section_title
;
Structure prediction by ZEFSAII (Michael W. Deem and Ramdas Pophale) SiO2 
 PCOD9352083
Probable space group: C M C 21
;
_chemical_formula_sum "Si O2"
_cell_formula_units_Z 64
_cell_length_a 8.042230
_cell_length_b 20.191792
_cell_length_c 18.658188
_cell_angle_alpha 90.000000
_cell_angle_beta 90.000000
_cell_angle_gamma 90.000000
_cell_volume 3029.847835
_symmetry_space_group_name_H-M "C M C 21"
_symmetry_group_IT_number 36
_symmetry_cell_setting 'orthorhombic'
loop_
_space_group_symop_operation_xyz
x,y,z
-x,-y,1/2+z
x,-y,1/2+z
-x,y,z
1/2+x,1/2+y,z
1/2-x,1/2-y,1/2+z
1/2+x,1/2-y,1/2+z
1/2-x,1/2+y,z
loop_
_atom_site_type_symbol
_atom_site_label
_atom_site_fract_x
_atom_site_fract_y
_atom_site_fract_z
Si Si1 0.799796 0.636435 0.836880
Si Si2 0.701653 0.719344 0.379502
Si Si3 0.300478 0.470060 0.224198
Si Si4 0.296366 0.386771 0.765649
Si Si5 0.304274 0.545045 0.562271
Si Si6 0.195214 0.417336 0.489461
Si Si7 0.696498 0.193492 0.539096
Si Si8 0.198180 0.821885 0.617346
O O1 0.750762 0.713297 0.838630
O O2 0.742542 0.594469 0.769299
O O3 0.000000 0.634271 0.836917
O O4 0.739255 0.603405 0.911358
O O5 0.500000 0.718420 0.385698
O O6 0.755578 0.655587 0.334170
O O7 0.774406 0.719580 0.458828
O O8 0.500000 0.473916 0.219701
O O9 0.241157 0.537113 0.262908
O O10 0.237991 0.468014 0.142612
O O11 0.500000 0.386451 0.765479
O O12 0.239450 0.350950 0.692420
O O13 0.500000 0.529742 0.560883
O O14 0.221784 0.494291 0.507171
O O15 0.278961 0.621975 0.545838
O O16 0.272718 0.374057 0.553420
O O17 0.000000 0.402009 0.490173
O O18 0.500000 0.185018 0.551645
O O19 0.763176 0.250082 0.592826
O O20 0.000000 0.814523 0.625487
#
# Coordination Sequence:
#
# PCOD9352083 Si02
#       8
#     8   8   8   8   8   8   8   8
#     4  10  23  39  59  88 125 159 196 247 303 360
#     4  10  21  40  63  86 119 164 203 243 298 360
#     4  10  22  40  61  87 118 155 204 250 292 357
#     4   9  19  38  62  86 113 154 206 246 290 358
#     4  11  24  42  63  87 121 161 204 253 303 359
#     4  11  22  39  62  90 120 154 200 250 298 357
#     4  11  24  39  62  93 124 157 201 255 303 358
#     4  10  20  39  64  87 116 156 200 246 299 359
#
# _framework density 21.123175
#
# number of rings (size 3 to 8) (size 9 to 14) (size 15 to 20)
#    0.000    1.750    2.500    1.125    3.500    3.000 
#    0.000    0.625    0.000    0.000    0.000    0.000 
#    0.000    0.000    0.000    0.000    0.000    0.000 
#
# Total GULP energy -178832.141113 kJ/mol
# GULP energy per Si atom -5588.504410 kJ/mol
# Density = 2.107510 g / cm^3
# Si number density = 21.123175 Si / 1000 Ang^3
#
#
#
# Elastic Constant Matrix: (Units=GPa)
#
#
# Indices 1 2 3 4 5 6 
#
# 1 11.9977 -4.5585 -0.2904 0.0000 0.0000 0.0000
# 2 -4.5585 92.9843 -13.8130 0.0000 0.0000 0.0000
# 3 -0.2904 -13.8130 15.4180 0.0000 0.0000 0.0000
# 4 0.0000 0.0000 0.0000 42.7488 0.0000 0.0000
# 5 0.0000 0.0000 0.0000 0.0000 21.9268 0.0000
# 6 0.0000 0.0000 0.0000 0.0000 0.0000 19.4937
#
#
#
# Elastic Compliance Matrix: (Units=1/GPa)
#
#
# Indices 1 2 3 4 5 6 
#
# 1 0.085439 0.005107 0.006185 0.000000 0.000000 0.000000
# 2 0.005107 0.012711 0.011484 0.000000 0.000000 0.000000
# 3 0.006185 0.011484 0.075264 0.000000 0.000000 0.000000
# 4 0.000000 0.000000 0.000000 0.023392 0.000000 0.000000
# 5 0.000000 0.000000 0.000000 0.000000 0.045606 0.000000
# 6 0.000000 0.000000 0.000000 0.000000 0.000000 0.051299
#
#
# Mechanical properties :
#
#
# Convention : Reuss Voigt Hill
#
# Bulk Modulus (GPa) = 4.56692 9.23071 6.89882
# Shear Modulus (GPa) = 15.56913 26.10465 20.83689
#
# Velocity S-wave (km/s) = 2.71784 3.51925 3.14418
# Velocity P-wave (km/s) = 3.46635 4.57088 4.05639
#
# Compressibility (1/GPa) = 0.21896577
#
# Stress axis : x y z
#
# Youngs Moduli (GPa) = 11.70421 78.67308 13.28658
#
# Poissons Ratio (x) = -0.40181 -0.08217
# Poissons Ratio (y) = -0.05978 -0.15258
# Poissons Ratio (z) = -0.07239 -0.90347
#
# Static dielectric constant tensor:
#      x y z
#    x 1.763600 0.000000 0.000000 
#    y 0.000000 1.747630 0.000000 
#    z 0.000000 0.000000 1.737410 
# 
# From -- ./inp_files/13836.got.cif
#   From: 2010.05.17/outbox.cif.g08.bks.cpg/sg36_7_cif.got.tgz:13836.got - 2010.06.03 17:41:39.
