data_PCOD9352860
_publ_section_title
;
Structure prediction by ZEFSAII (Michael W. Deem and Ramdas Pophale) SiO2 
 PCOD9352860
Probable space group: C M C 21
;
_chemical_formula_sum "Si O2"
_cell_formula_units_Z 40
_cell_length_a 22.100555
_cell_length_b 9.234995
_cell_length_c 7.644183
_cell_angle_alpha 90.000000
_cell_angle_beta 90.000000
_cell_angle_gamma 90.000000
_cell_volume 1560.166398
_symmetry_space_group_name_H-M "C M C 21"
_symmetry_group_IT_number 36
_symmetry_cell_setting 'orthorhombic'
loop_
_space_group_symop_operation_xyz
x,y,z
-x,-y,1/2+z
x,-y,1/2+z
-x,y,z
1/2+x,1/2+y,z
1/2-x,1/2-y,1/2+z
1/2+x,1/2-y,1/2+z
1/2-x,1/2+y,z
loop_
_atom_site_type_symbol
_atom_site_label
_atom_site_fract_x
_atom_site_fract_y
_atom_site_fract_z
Si Si1 0.293725 0.670705 0.908530
Si Si2 0.632883 0.768214 0.601854
Si Si3 0.872004 0.831846 0.718241
Si Si4 0.000000 0.051911 0.268712
Si Si5 0.000000 0.761316 0.123912
Si Si6 0.804213 0.429432 0.133116
O O1 0.350066 0.680621 0.775900
O O2 0.240925 0.605032 0.791980
O O3 0.318771 0.607139 0.092013
O O4 0.278372 0.834843 0.971232
O O5 0.638582 0.672734 0.426411
O O6 0.563501 0.819737 0.617287
O O7 0.677571 0.906126 0.601973
O O8 0.866075 0.660515 0.672121
O O9 0.936972 0.898912 0.680824
O O10 0.000000 0.865085 0.952946
O O11 0.000000 0.878782 0.278926
#
# Coordination Sequence:
#
# PCOD9352860 Si02
#       6
#     8   8   8   4   4   8
#     4  10  23  41  70 104 145 202 248 304 391 446
#     4  11  22  47  69 113 147 195 254 320 383 463
#     4   9  23  41  70 105 146 198 247 313 391 449
#     4  10  22  47  70 108 149 188 268 314 379 483
#     4  10  26  43  80 104 147 198 254 322 399 443
#     4  10  22  43  70 106 153 192 257 309 379 465
#
# _framework density 25.638290999999999
#
# number of rings (size 3 to 8) (size 9 to 14) (size 15 to 20)
#    1.200    0.800    0.000    2.400    2.800    0.800 
#    3.600    2.000    0.000    0.000    0.000    0.000 
#    0.000    0.000    0.000    0.000    0.000    0.000 
#
# Total GULP energy -111732.065300 kJ/mol
# GULP energy per Si atom -5586.603265 kJ/mol
# Density = 2.557994 g / cm^3
# Si number density = 25.638291 Si / 1000 Ang^3
#
#
#
# Elastic Constant Matrix: (Units=GPa)
#
#
# Indices 1 2 3 4 5 6 
#
# 1 197.7516 51.4577 79.0217 0.0000 0.0000 0.0000
# 2 51.4577 99.1262 52.3374 0.0000 0.0000 0.0000
# 3 79.0217 52.3374 157.8048 0.0000 0.0000 0.0000
# 4 0.0000 0.0000 0.0000 34.6975 0.0000 0.0000
# 5 0.0000 0.0000 0.0000 0.0000 41.1819 0.0000
# 6 0.0000 0.0000 0.0000 0.0000 0.0000 44.8884
#
#
#
# Elastic Compliance Matrix: (Units=1/GPa)
#
#
# Indices 1 2 3 4 5 6 
#
# 1 0.006650 -0.002053 -0.002649 0.000000 0.000000 0.000000
# 2 -0.002053 0.012864 -0.003238 0.000000 0.000000 0.000000
# 3 -0.002649 -0.003238 0.008737 0.000000 0.000000 0.000000
# 4 0.000000 0.000000 0.000000 0.028821 0.000000 0.000000
# 5 0.000000 0.000000 0.000000 0.000000 0.024283 0.000000
# 6 0.000000 0.000000 0.000000 0.000000 0.000000 0.022277
#
#
# Mechanical properties :
#
#
# Convention : Reuss Voigt Hill
#
# Bulk Modulus (GPa) = 80.84048 91.14628 85.99338
# Shear Modulus (GPa) = 40.44152 42.27794 41.35973
#
# Velocity S-wave (km/s) = 3.97594 4.06521 4.02083
# Velocity P-wave (km/s) = 7.25790 7.59359 7.42764
#
# Compressibility (1/GPa) = 0.01237004
#
# Stress axis : x y z
#
# Youngs Moduli (GPa) = 150.38419 77.73762 114.45154
#
# Poissons Ratio (x) = 0.15962 0.30316
# Poissons Ratio (y) = 0.30879 0.37061
# Poissons Ratio (z) = 0.39834 0.25173
#
# Static dielectric constant tensor:
#      x y z
#    x 1.986930 0.000000 0.000000 
#    y 0.000000 2.023760 0.000000 
#    z 0.000000 0.000000 2.087010 
# 
# From -- ./inp_files/5116.got.cif
#   From: 2010.05.17/outbox.cif.g08.bks.cpg/sg36_3_cif.got.tgz:5116.got - 2010.06.03 17:41:39.
