data_PCOD9352217
_publ_section_title
;
Structure prediction by ZEFSAII (Michael W. Deem and Ramdas Pophale) SiO2 
 PCOD9352217
Probable space group: C M C 21
;
_chemical_formula_sum "Si O2"
_cell_formula_units_Z 64
_cell_length_a 32.184143
_cell_length_b 9.438123
_cell_length_c 10.711474
_cell_angle_alpha 90.000000
_cell_angle_beta 90.000000
_cell_angle_gamma 90.000000
_cell_volume 3253.694851
_symmetry_space_group_name_H-M "C M C 21"
_symmetry_group_IT_number 36
_symmetry_cell_setting 'orthorhombic'
loop_
_space_group_symop_operation_xyz
x,y,z
-x,-y,1/2+z
x,-y,1/2+z
-x,y,z
1/2+x,1/2+y,z
1/2-x,1/2-y,1/2+z
1/2+x,1/2-y,1/2+z
1/2-x,1/2+y,z
loop_
_atom_site_type_symbol
_atom_site_label
_atom_site_fract_x
_atom_site_fract_y
_atom_site_fract_z
Si Si1 0.241611 0.321694 0.809420
Si Si2 0.194244 0.558845 0.527861
Si Si3 0.181684 0.248146 0.477309
Si Si4 0.778795 0.930554 0.161243
Si Si5 0.949517 0.879239 0.555767
Si Si6 0.396858 0.097360 0.580755
Si Si7 0.549562 0.582407 0.333614
Si Si8 0.098612 0.361812 0.367716
O O1 0.276816 0.256398 0.896971
O O2 0.214949 0.188301 0.765111
O O3 0.269073 0.415483 0.713763
O O4 0.210445 0.423614 0.886138
O O5 0.185754 0.393203 0.557357
O O6 0.233497 0.610394 0.605621
O O7 0.151289 0.636600 0.553976
O O8 0.185999 0.105104 0.559421
O O9 0.141174 0.274703 0.394982
O O10 0.927553 0.727144 0.553733
O O11 0.937891 0.947411 0.690218
O O12 0.000000 0.864577 0.552539
O O13 0.935398 0.974202 0.439213
O O14 0.399791 0.066556 0.730060
O O15 0.406224 0.971330 0.482274
O O16 0.500000 0.575721 0.337130
O O17 0.563649 0.741679 0.364152
#
# Coordination Sequence:
#
# PCOD9352217 Si02
#       8
#     8   8   8   8   8   8   8   8
#     4  11  21  36  55  78 107 149 194 245 290 348
#     4  10  21  35  57  77 110 153 193 238 302 343
#     4  10  21  37  54  80 112 149 195 241 294 352
#     4  11  21  36  56  77 108 148 197 243 290 349
#     4   9  19  39  63  90 121 160 199 243 300 363
#     4  10  22  38  62  85 121 158 201 249 296 361
#     4   9  19  39  63  88 125 159 195 247 305 360
#     4  10  22  40  58  89 122 158 198 250 303 358
#
# _framework density 19.669944999999998
#
# number of rings (size 3 to 8) (size 9 to 14) (size 15 to 20)
#    0.000    2.000    2.500    0.750    1.750    1.500 
#    9.000    0.000    0.000    0.000    0.000    0.000 
#    0.000    0.000    0.000    0.000    0.000    0.000 
#
# Total GULP energy -178186.743871 kJ/mol
# GULP energy per Si atom -5568.335746 kJ/mol
# Density = 1.962518 g / cm^3
# Si number density = 19.669945 Si / 1000 Ang^3
#
#
#
# Elastic Constant Matrix: (Units=GPa)
#
#
# Indices 1 2 3 4 5 6 
#
# 1 12.1962 16.7672 25.7606 0.0000 0.0000 0.0000
# 2 16.7672 53.9149 35.4913 0.0000 0.0000 0.0000
# 3 25.7606 35.4913 89.7392 0.0000 0.0000 0.0000
# 4 0.0000 0.0000 0.0000 26.1943 0.0000 0.0000
# 5 0.0000 0.0000 0.0000 0.0000 12.5665 0.0000
# 6 0.0000 0.0000 0.0000 0.0000 0.0000 27.0103
#
#
#
# Elastic Compliance Matrix: (Units=1/GPa)
#
#
# Indices 1 2 3 4 5 6 
#
# 1 0.269114 -0.044398 -0.059693 0.000000 0.000000 0.000000
# 2 -0.044398 0.032401 -0.000070 0.000000 0.000000 0.000000
# 3 -0.059693 -0.000070 0.028307 0.000000 0.000000 0.000000
# 4 0.000000 0.000000 0.000000 0.038176 0.000000 0.000000
# 5 0.000000 0.000000 0.000000 0.000000 0.079577 0.000000
# 6 0.000000 0.000000 0.000000 0.000000 0.000000 0.037023
#
#
# Mechanical properties :
#
#
# Convention : Reuss Voigt Hill
#
# Bulk Modulus (GPa) = 8.23040 34.65429 21.44234
# Shear Modulus (GPa) = 6.81739 18.34295 12.58017
#
# Velocity S-wave (km/s) = 1.86371 3.05706 2.53170
# Velocity P-wave (km/s) = 2.97061 5.48789 4.41257
#
# Compressibility (1/GPa) = 0.12150081
#
# Stress axis : x y z
#
# Youngs Moduli (GPa) = 3.71589 30.86335 35.32756
#
# Poissons Ratio (x) = 1.37026 2.10882
# Poissons Ratio (y) = 0.16498 0.00246
# Poissons Ratio (z) = 0.22181 0.00215
#
# Static dielectric constant tensor:
#      x y z
#    x 1.671340 0.000000 0.000000 
#    y 0.000000 1.667100 0.000000 
#    z 0.000000 0.000000 1.801200 
# 
# From -- ./inp_files/9717.got.cif
#   From: 2010.05.17/outbox.cif.g08.bks.cpg/sg36_5_cif.got.tgz:9717.got - 2010.06.03 17:41:39.
