data_PCOD9352809
_publ_section_title
;
Structure prediction by ZEFSAII (Michael W. Deem and Ramdas Pophale) SiO2 
 PCOD9352809
Probable space group: C M C 21
;
_chemical_formula_sum "Si O2"
_cell_formula_units_Z 48
_cell_length_a 21.903015
_cell_length_b 14.303353
_cell_length_c 7.171388
_cell_angle_alpha 90.000000
_cell_angle_beta 90.000000
_cell_angle_gamma 90.000000
_cell_volume 2246.699443
_symmetry_space_group_name_H-M "C M C 21"
_symmetry_group_IT_number 36
_symmetry_cell_setting 'orthorhombic'
loop_
_space_group_symop_operation_xyz
x,y,z
-x,-y,1/2+z
x,-y,1/2+z
-x,y,z
1/2+x,1/2+y,z
1/2-x,1/2-y,1/2+z
1/2+x,1/2-y,1/2+z
1/2-x,1/2+y,z
loop_
_atom_site_type_symbol
_atom_site_label
_atom_site_fract_x
_atom_site_fract_y
_atom_site_fract_z
Si Si1 0.500000 0.337768 0.599710
Si Si2 0.201398 0.189855 0.940079
Si Si3 0.127165 0.116662 0.584084
Si Si4 0.306198 0.920969 0.330392
Si Si5 0.885941 0.742647 0.763314
Si Si6 0.000000 0.961653 0.221593
Si Si7 0.746108 0.892851 0.926878
O O1 0.444006 0.269884 0.641849
O O2 0.500000 0.392365 0.401474
O O3 0.500000 0.425850 0.743382
O O4 0.156265 0.147296 0.782779
O O5 0.258735 0.121941 0.979928
O O6 0.165543 0.211782 0.129235
O O7 0.230700 0.287255 0.868823
O O8 0.109444 0.206520 0.461847
O O9 0.182420 0.076082 0.450843
O O10 0.065582 0.058415 0.621189
O O11 0.368847 0.864348 0.313132
O O12 0.272889 0.892936 0.141897
O O13 0.300271 0.031409 0.342704
#
# Coordination Sequence:
#
# PCOD9352809 Si02
#       7
#     4   8   8   8   8   4   8
#     4  12  26  46  66  92 141 175 236 278 332 417
#     4  10  22  42  59  97 134 176 214 284 334 402
#     4  11  23  40  66  94 137 178 220 269 346 400
#     4  10  23  37  63  95 131 172 219 273 345 394
#     4  11  23  41  66  89 133 178 218 274 334 405
#     4  12  26  44  66 104 133 187 230 276 340 419
#     4  10  23  36  62  97 130 175 219 275 339 405
#
# _framework density 21.364675999999999
#
# number of rings (size 3 to 8) (size 9 to 14) (size 15 to 20)
#    0.000    1.333    3.333    1.500    7.000    1.333 
#    0.000    0.000    0.000    5.000    0.000    0.000 
#    0.000    0.000    0.000    0.000    0.000    0.000 
#
# Total GULP energy -133681.280555 kJ/mol
# GULP energy per Si atom -5570.053356 kJ/mol
# Density = 2.131605 g / cm^3
# Si number density = 21.364676 Si / 1000 Ang^3
#
#
#
# Elastic Constant Matrix: (Units=GPa)
#
#
# Indices 1 2 3 4 5 6 
#
# 1 119.7158 43.2125 11.1559 0.0000 0.0000 0.0000
# 2 43.2125 103.9526 -0.5170 0.0000 0.0000 0.0000
# 3 11.1559 -0.5170 43.4355 0.0000 0.0000 0.0000
# 4 0.0000 0.0000 0.0000 25.0969 0.0000 0.0000
# 5 0.0000 0.0000 0.0000 0.0000 30.5728 0.0000
# 6 0.0000 0.0000 0.0000 0.0000 0.0000 29.9445
#
#
#
# Elastic Compliance Matrix: (Units=1/GPa)
#
#
# Indices 1 2 3 4 5 6 
#
# 1 0.010124 -0.004222 -0.002650 0.000000 0.000000 0.000000
# 2 -0.004222 0.011381 0.001220 0.000000 0.000000 0.000000
# 3 -0.002650 0.001220 0.023718 0.000000 0.000000 0.000000
# 4 0.000000 0.000000 0.000000 0.039846 0.000000 0.000000
# 5 0.000000 0.000000 0.000000 0.000000 0.032709 0.000000
# 6 0.000000 0.000000 0.000000 0.000000 0.000000 0.033395
#
#
# Mechanical properties :
#
#
# Convention : Reuss Voigt Hill
#
# Bulk Modulus (GPa) = 29.48299 41.64519 35.56409
# Shear Modulus (GPa) = 28.77154 31.33967 30.05561
#
# Velocity S-wave (km/s) = 3.67371 3.83416 3.75479
# Velocity P-wave (km/s) = 5.64133 6.25587 5.95653
#
# Compressibility (1/GPa) = 0.03391786
#
# Stress axis : x y z
#
# Youngs Moduli (GPa) = 98.77567 87.86766 42.16226
#
# Poissons Ratio (x) = 0.37095 0.11175
# Poissons Ratio (y) = 0.41700 -0.05143
# Poissons Ratio (z) = 0.26180 -0.10718
#
# Static dielectric constant tensor:
#      x y z
#    x 1.858890 0.000000 0.000000 
#    y 0.000000 1.989720 0.000000 
#    z 0.000000 0.000000 1.860530 
# 
# From -- ./inp_files/5150.got.cif
#   From: 2010.05.17/outbox.cif.g08.bks.cpg/sg36_3_cif.got.tgz:5150.got - 2010.06.03 17:41:39.
