data_PCOD9352401
_publ_section_title
;
Structure prediction by ZEFSAII (Michael W. Deem and Ramdas Pophale) SiO2 
 PCOD9352401
Probable space group: C M C 21
;
_chemical_formula_sum "Si O2"
_cell_formula_units_Z 40
_cell_length_a 13.026148
_cell_length_b 17.184485
_cell_length_c 7.995890
_cell_angle_alpha 90.000000
_cell_angle_beta 90.000000
_cell_angle_gamma 90.000000
_cell_volume 1789.861145
_symmetry_space_group_name_H-M "C M C 21"
_symmetry_group_IT_number 36
_symmetry_cell_setting 'orthorhombic'
loop_
_space_group_symop_operation_xyz
x,y,z
-x,-y,1/2+z
x,-y,1/2+z
-x,y,z
1/2+x,1/2+y,z
1/2-x,1/2-y,1/2+z
1/2+x,1/2-y,1/2+z
1/2-x,1/2+y,z
loop_
_atom_site_type_symbol
_atom_site_label
_atom_site_fract_x
_atom_site_fract_y
_atom_site_fract_z
Si Si1 0.700115 0.298377 0.861030
Si Si2 0.610381 0.120521 0.213921
Si Si3 0.387773 0.038420 0.856930
Si Si4 0.000000 0.104193 0.337188
Si Si5 0.779436 0.142572 0.740393
Si Si6 0.500000 0.578151 0.737129
O O1 0.795893 0.325446 0.751169
O O2 0.599047 0.342744 0.795495
O O3 0.712225 0.205643 0.844391
O O4 0.712581 0.326016 0.051817
O O5 0.500000 0.162193 0.213616
O O6 0.611653 0.054433 0.355869
O O7 0.618846 0.073526 0.041611
O O8 0.500000 0.062667 0.787071
O O9 0.290681 0.066337 0.752228
O O10 0.000000 0.091663 0.537594
O O11 0.000000 0.015724 0.266277
O O12 0.894300 0.118871 0.800890
#
# Coordination Sequence:
#
# PCOD9352401 Si02
#       6
#     8   8   8   4   8   4
#     4  11  24  41  62  91 126 164 207 259 315 374
#     4  10  21  38  61  89 122 159 201 252 306 367
#     4  10  21  38  61  89 122 159 201 252 306 367
#     4  10  24  44  66  92 127 166 211 262 314 376
#     4  11  24  41  62  91 126 164 207 259 315 374
#     4  10  24  44  66  92 127 166 211 262 314 376
#
# _framework density 22.348101
#
# number of rings (size 3 to 8) (size 9 to 14) (size 15 to 20)
#    0.000    1.600    0.000    3.600    2.800    8.800 
#    0.000    0.000    0.000    0.000    0.000    0.000 
#    0.000    0.000    0.000    0.000    0.000    0.000 
#
# Total GULP energy -111679.912931 kJ/mol
# GULP energy per Si atom -5583.995647 kJ/mol
# Density = 2.229724 g / cm^3
# Si number density = 22.348101 Si / 1000 Ang^3
#
#
#
# Elastic Constant Matrix: (Units=GPa)
#
#
# Indices 1 2 3 4 5 6 
#
# 1 107.6992 32.5972 27.0382 0.0000 0.0000 0.0000
# 2 32.5972 71.5403 0.6902 0.0000 0.0000 0.0000
# 3 27.0382 0.6902 39.8448 0.0000 0.0000 0.0000
# 4 0.0000 0.0000 0.0000 41.7280 0.0000 0.0000
# 5 0.0000 0.0000 0.0000 0.0000 20.3982 0.0000
# 6 0.0000 0.0000 0.0000 0.0000 0.0000 20.2046
#
#
#
# Elastic Compliance Matrix: (Units=1/GPa)
#
#
# Indices 1 2 3 4 5 6 
#
# 1 0.013348 -0.005995 -0.008954 0.000000 0.000000 0.000000
# 2 -0.005995 0.016673 0.003780 0.000000 0.000000 0.000000
# 3 -0.008954 0.003780 0.031108 0.000000 0.000000 0.000000
# 4 0.000000 0.000000 0.000000 0.023965 0.000000 0.000000
# 5 0.000000 0.000000 0.000000 0.000000 0.049024 0.000000
# 6 0.000000 0.000000 0.000000 0.000000 0.000000 0.049494
#
#
# Mechanical properties :
#
#
# Convention : Reuss Voigt Hill
#
# Bulk Modulus (GPa) = 25.77993 37.74837 31.76415
# Shear Modulus (GPa) = 22.84356 27.05008 24.94682
#
# Velocity S-wave (km/s) = 3.20061 3.48285 3.34471
# Velocity P-wave (km/s) = 5.02187 5.75338 5.40003
#
# Compressibility (1/GPa) = 0.03878987
#
# Stress axis : x y z
#
# Youngs Moduli (GPa) = 74.91988 59.97552 32.14631
#
# Poissons Ratio (x) = 0.35958 0.28783
# Poissons Ratio (y) = 0.44918 -0.12150
# Poissons Ratio (z) = 0.67081 -0.22668
#
# Static dielectric constant tensor:
#      x y z
#    x 1.848520 0.000000 0.000000 
#    y 0.000000 1.843390 0.000000 
#    z 0.000000 0.000000 1.830670 
# 
# From -- ./inp_files/3074.got.cif
#   From: 2010.05.17/outbox.cif.g08.bks.cpg/sg36_2_cif.got.tgz:3074.got - 2010.06.03 17:41:39.
