data_PCOD9352308
_publ_section_title
;
Structure prediction by ZEFSAII (Michael W. Deem and Ramdas Pophale) SiO2 
 PCOD9352308
Probable space group: C M C 21
;
_chemical_formula_sum "Si O2"
_cell_formula_units_Z 64
_cell_length_a 8.054674
_cell_length_b 25.772847
_cell_length_c 14.910620
_cell_angle_alpha 90.000000
_cell_angle_beta 90.000000
_cell_angle_gamma 90.000000
_cell_volume 3095.323647
_symmetry_space_group_name_H-M "C M C 21"
_symmetry_group_IT_number 36
_symmetry_cell_setting 'orthorhombic'
loop_
_space_group_symop_operation_xyz
x,y,z
-x,-y,1/2+z
x,-y,1/2+z
-x,y,z
1/2+x,1/2+y,z
1/2-x,1/2-y,1/2+z
1/2+x,1/2-y,1/2+z
1/2-x,1/2+y,z
loop_
_atom_site_type_symbol
_atom_site_label
_atom_site_fract_x
_atom_site_fract_y
_atom_site_fract_z
Si Si1 0.801497 0.140685 0.011410
Si Si2 0.299519 0.941042 0.161497
Si Si3 0.297734 0.863856 0.007180
Si Si4 0.195464 0.864940 0.800989
Si Si5 0.801929 0.858022 0.306692
Si Si6 0.193483 0.557986 0.153575
Si Si7 0.696370 0.251512 0.824685
Si Si8 0.308875 0.248657 0.527038
O O1 0.768180 0.092126 0.073879
O O2 0.000000 0.147526 0.006287
O O3 0.741095 0.133776 0.909307
O O4 0.733850 0.195357 0.051383
O O5 0.500000 0.942143 0.162428
O O6 0.247857 0.910485 0.071796
O O7 0.245998 0.905719 0.244568
O O8 0.236467 0.999999 0.163750
O O9 0.500000 0.861668 0.002707
O O10 0.231315 0.870093 0.906676
O O11 0.237257 0.808223 0.046526
O O12 0.285248 0.908240 0.743188
O O13 0.242069 0.805371 0.777046
O O14 0.000000 0.870708 0.783395
O O15 0.728658 0.802581 0.275469
O O16 0.000000 0.853181 0.307368
O O17 0.000000 0.552550 0.133259
O O18 0.500000 0.255068 0.846606
O O19 0.798628 0.249492 0.917741
O O20 0.500000 0.247778 0.558569
#
# Coordination Sequence:
#
# PCOD9352308 Si02
#       8
#     8   8   8   8   8   8   8   8
#     4   9  19  36  56  81 112 142 176 223 278 331
#     4  10  23  40  56  79 111 148 191 233 274 324
#     4   9  18  36  60  83 110 143 179 225 280 333
#     4  10  21  37  58  84 113 146 184 227 277 330
#     4  10  21  37  59  86 114 145 181 224 276 331
#     4  11  24  39  55  78 109 148 194 236 273 322
#     4   9  17  31  54  83 113 143 177 220 272 331
#     4   8  15  30  54  82 110 139 174 220 276 334
#
# _framework density 20.676352000000001
#
# number of rings (size 3 to 8) (size 9 to 14) (size 15 to 20)
#    0.000    2.500    0.000    2.250    0.000    7.500 
#    0.000    6.250    0.000    0.000    0.000    0.000 
#    0.000    0.000    0.000    0.000    0.000    0.000 
#
# Total GULP energy -178535.804223 kJ/mol
# GULP energy per Si atom -5579.243882 kJ/mol
# Density = 2.062929 g / cm^3
# Si number density = 20.676352 Si / 1000 Ang^3
#
#
#
# Elastic Constant Matrix: (Units=GPa)
#
#
# Indices 1 2 3 4 5 6 
#
# 1 23.0235 14.3753 -0.4737 0.0000 0.0000 0.0000
# 2 14.3753 206.6005 63.7091 0.0000 0.0000 0.0000
# 3 -0.4737 63.7091 80.2904 0.0000 0.0000 0.0000
# 4 0.0000 0.0000 0.0000 32.4743 0.0000 0.0000
# 5 0.0000 0.0000 0.0000 0.0000 17.4997 0.0000
# 6 0.0000 0.0000 0.0000 0.0000 0.0000 16.3044
#
#
#
# Elastic Compliance Matrix: (Units=1/GPa)
#
#
# Indices 1 2 3 4 5 6 
#
# 1 0.046240 -0.004371 0.003741 0.000000 0.000000 0.000000
# 2 -0.004371 0.006821 -0.005439 0.000000 0.000000 0.000000
# 3 0.003741 -0.005439 0.016792 0.000000 0.000000 0.000000
# 4 0.000000 0.000000 0.000000 0.030794 0.000000 0.000000
# 5 0.000000 0.000000 0.000000 0.000000 0.057144 0.000000
# 6 0.000000 0.000000 0.000000 0.000000 0.000000 0.061333
#
#
# Mechanical properties :
#
#
# Convention : Reuss Voigt Hill
#
# Bulk Modulus (GPa) = 17.32594 51.68178 34.50386
# Shear Modulus (GPa) = 19.96006 28.74257 24.35131
#
# Velocity S-wave (km/s) = 3.11039 3.73247 3.43554
# Velocity P-wave (km/s) = 4.61488 6.60492 5.69746
#
# Compressibility (1/GPa) = 0.05771693
#
# Stress axis : x y z
#
# Youngs Moduli (GPa) = 21.62627 146.59609 59.55140
#
# Poissons Ratio (x) = 0.64078 -0.22279
# Poissons Ratio (y) = 0.09453 0.32387
# Poissons Ratio (z) = -0.08091 0.79726
#
# Static dielectric constant tensor:
#      x y z
#    x 1.744590 0.000000 0.000000 
#    y 0.000000 1.771880 0.000000 
#    z 0.000000 0.000000 1.729910 
# 
# From -- ./inp_files/10902.got.cif
#   From: 2010.05.17/outbox.cif.g08.bks.cpg/sg36_6_cif.got.tgz:10902.got - 2010.06.03 17:41:39.
