data_PCOD9352891
_publ_section_title
;
Structure prediction by ZEFSAII (Michael W. Deem and Ramdas Pophale) SiO2 
 PCOD9352891
Probable space group: C M C 21
;
_chemical_formula_sum "Si O2"
_cell_formula_units_Z 44
_cell_length_a 14.919523
_cell_length_b 15.348004
_cell_length_c 7.009496
_cell_angle_alpha 90.000000
_cell_angle_beta 90.000000
_cell_angle_gamma 90.000000
_cell_volume 1605.068731
_symmetry_space_group_name_H-M "C M C 21"
_symmetry_group_IT_number 36
_symmetry_cell_setting 'orthorhombic'
loop_
_space_group_symop_operation_xyz
x,y,z
-x,-y,1/2+z
x,-y,1/2+z
-x,y,z
1/2+x,1/2+y,z
1/2-x,1/2-y,1/2+z
1/2+x,1/2-y,1/2+z
1/2-x,1/2+y,z
loop_
_atom_site_type_symbol
_atom_site_label
_atom_site_fract_x
_atom_site_fract_y
_atom_site_fract_z
Si Si1 0.868857 0.573199 0.081520
Si Si2 0.190902 0.189924 0.445363
Si Si3 0.000000 0.665691 0.785386
Si Si4 0.500000 0.422751 0.535081
Si Si5 0.638198 0.882847 0.020165
Si Si6 0.808171 0.861827 0.506339
Si Si7 0.500000 0.372235 0.979118
O O1 0.768743 0.564904 0.996137
O O2 0.923596 0.630844 0.935408
O O3 0.872673 0.614585 0.291655
O O4 0.901793 0.474188 0.093936
O O5 0.257343 0.127748 0.564312
O O6 0.184550 0.152870 0.233617
O O7 0.089646 0.183634 0.522718
O O8 0.921518 0.688083 0.625946
O O9 0.406618 0.390737 0.439500
O O10 0.500000 0.528412 0.551884
O O11 0.500000 0.384960 0.749501
O O12 0.746145 0.724037 0.937098
#
# Coordination Sequence:
#
# PCOD9352891 Si02
#       7
#     8   8   4   4   8   8   4
#     4  11  23  39  63  97 133 174 230 283 338 411
#     4  10  24  43  66  99 139 174 229 288 347 413
#     4  12  24  38  64  88 134 170 220 264 348 398
#     4  10  22  45  73 102 134 184 235 285 344 420
#     4  11  23  39  63  97 133 174 230 283 338 411
#     4  10  24  43  66  99 139 174 229 288 347 413
#     4  10  22  45  73 102 134 184 235 285 344 420
#
# _framework density 27.413155
#
# number of rings (size 3 to 8) (size 9 to 14) (size 15 to 20)
#    0.000    1.455    1.818    2.182    2.545    2.909 
#    3.273    1.818    0.000    0.000    0.000    0.000 
#    0.000    0.000    0.000    0.000    0.000    0.000 
#
# Total GULP energy -122639.775998 kJ/mol
# GULP energy per Si atom -5574.535273 kJ/mol
# Density = 2.735076 g / cm^3
# Si number density = 27.413155 Si / 1000 Ang^3
#
#
#
# Elastic Constant Matrix: (Units=GPa)
#
#
# Indices 1 2 3 4 5 6 
#
# 1 306.5069 71.7757 28.2626 0.0000 0.0000 0.0000
# 2 71.7757 131.4134 -1.3265 0.0000 0.0000 0.0000
# 3 28.2626 -1.3265 123.4946 0.0000 0.0000 0.0000
# 4 0.0000 0.0000 0.0000 16.7425 0.0000 0.0000
# 5 0.0000 0.0000 0.0000 0.0000 40.1426 0.0000
# 6 0.0000 0.0000 0.0000 0.0000 0.0000 -2.4703
#
#
#
# Elastic Compliance Matrix: (Units=1/GPa)
#
#
# Indices 1 2 3 4 5 6 
#
# 1 0.003839 -0.002106 -0.000901 0.000000 0.000000 0.000000
# 2 -0.002106 0.008766 0.000576 0.000000 0.000000 0.000000
# 3 -0.000901 0.000576 0.008310 0.000000 0.000000 0.000000
# 4 0.000000 0.000000 0.000000 0.059728 0.000000 0.000000
# 5 0.000000 0.000000 0.000000 0.000000 0.024911 0.000000
# 6 0.000000 0.000000 0.000000 0.000000 0.000000 -0.404813
#
#
# Mechanical properties :
#
#
# Convention : Reuss Voigt Hill
#
# Bulk Modulus (GPa) = 62.29541 84.31540 73.30541
# Shear Modulus (GPa) = -17.29823 41.72984 12.21580
#
# Velocity S-wave (km/s) = -2.51474 3.90584 2.11326
# Velocity P-wave (km/s) = 3.78710 7.15296 5.72307
#
# Compressibility (1/GPa) = 0.01605255
#
# Stress axis : x y z
#
# Youngs Moduli (GPa) = 260.49952 114.08334 120.33778
#
# Poissons Ratio (x) = 0.24023 0.10844
# Poissons Ratio (y) = 0.54855 -0.06932
# Poissons Ratio (z) = 0.23475 -0.06572
#
# Static dielectric constant tensor:
#      x y z
#    x 2.176820 0.000000 0.000000 
#    y 0.000000 2.305750 0.000000 
#    z 0.000000 0.000000 2.132760 
# 
# From -- ./inp_files/4622.got.cif
#   From: 2010.05.17/outbox.cif.g08.bks.cpg/sg36_3_cif.got.tgz:4622.got - 2010.06.03 17:41:39.
