data_PCOD9352565
_publ_section_title
;
Structure prediction by ZEFSAII (Michael W. Deem and Ramdas Pophale) SiO2 
 PCOD9352565
Probable space group: C M C 21
;
_chemical_formula_sum "Si O2"
_cell_formula_units_Z 64
_cell_length_a 17.375083
_cell_length_b 11.752643
_cell_length_c 14.537926
_cell_angle_alpha 90.000000
_cell_angle_beta 90.000000
_cell_angle_gamma 90.000000
_cell_volume 2968.690249
_symmetry_space_group_name_H-M "C M C 21"
_symmetry_group_IT_number 36
_symmetry_cell_setting 'orthorhombic'
loop_
_space_group_symop_operation_xyz
x,y,z
-x,-y,1/2+z
x,-y,1/2+z
-x,y,z
1/2+x,1/2+y,z
1/2-x,1/2-y,1/2+z
1/2+x,1/2-y,1/2+z
1/2-x,1/2+y,z
loop_
_atom_site_type_symbol
_atom_site_label
_atom_site_fract_x
_atom_site_fract_y
_atom_site_fract_z
Si Si1 0.916161 0.005803 0.878550
Si Si2 0.588659 0.431955 0.591673
Si Si3 0.083143 0.237779 0.458733
Si Si4 0.188425 0.840756 0.113237
Si Si5 0.802694 0.825036 0.313885
Si Si6 0.628101 0.910770 0.313937
Si Si7 0.631083 0.830323 0.110947
Si Si8 0.910772 0.353110 0.906196
O O1 0.847626 0.056328 0.821581
O O2 0.000000 0.030427 0.838040
O O3 0.907275 0.872536 0.894520
O O4 0.914165 0.059808 0.980553
O O5 0.500000 0.445438 0.623804
O O6 0.642899 0.538795 0.616550
O O7 0.618309 0.306634 0.618829
O O8 0.149779 0.233266 0.533511
O O9 0.082232 0.342635 0.391291
O O10 0.000000 0.224180 0.506423
O O11 0.183456 0.779768 0.211431
O O12 0.278701 0.858270 0.097330
O O13 0.713907 0.856973 0.325462
O O14 0.846728 0.742635 0.383622
O O15 0.605926 0.886500 0.207844
O O16 0.616926 0.039973 0.345547
O O17 0.591401 0.871265 0.016593
O O18 0.000000 0.322921 0.882516
#
# Coordination Sequence:
#
# PCOD9352565 Si02
#       8
#     8   8   8   8   8   8   8   8
#     4   9  19  36  63  97 127 162 211 270 327 385
#     4  10  21  40  66  96 129 170 220 271 332 398
#     4  10  22  41  64  96 134 171 217 276 336 390
#     4  10  24  40  66 103 137 171 218 282 343 392
#     4  11  24  41  68 100 134 173 223 274 334 400
#     4  11  28  44  67  99 135 179 230 277 339 405
#     4  11  25  44  67  97 134 178 227 277 335 406
#     4  12  27  46  69  98 138 184 226 277 340 404
#
# _framework density 21.558329000000001
#
# number of rings (size 3 to 8) (size 9 to 14) (size 15 to 20)
#    0.000    1.500    1.250    3.000    7.000    8.000 
#    0.000    0.000    0.000    0.000    0.000    0.000 
#    0.000    0.000    0.000    0.000    0.000    0.000 
#
# Total GULP energy -178649.861255 kJ/mol
# GULP energy per Si atom -5582.808164 kJ/mol
# Density = 2.150926 g / cm^3
# Si number density = 21.558329 Si / 1000 Ang^3
#
#
#
# Elastic Constant Matrix: (Units=GPa)
#
#
# Indices 1 2 3 4 5 6 
#
# 1 111.2547 19.8244 24.4314 0.0000 0.0000 0.0000
# 2 19.8244 44.2084 5.2945 0.0000 0.0000 0.0000
# 3 24.4314 5.2945 91.0719 0.0000 0.0000 0.0000
# 4 0.0000 0.0000 0.0000 16.0205 0.0000 0.0000
# 5 0.0000 0.0000 0.0000 0.0000 77.5937 0.0000
# 6 0.0000 0.0000 0.0000 0.0000 0.0000 11.4285
#
#
#
# Elastic Compliance Matrix: (Units=1/GPa)
#
#
# Indices 1 2 3 4 5 6 
#
# 1 0.010311 -0.004323 -0.002515 0.000000 0.000000 0.000000
# 2 -0.004323 0.024591 -0.000270 0.000000 0.000000 0.000000
# 3 -0.002515 -0.000270 0.011671 0.000000 0.000000 0.000000
# 4 0.000000 0.000000 0.000000 0.062420 0.000000 0.000000
# 5 0.000000 0.000000 0.000000 0.000000 0.012888 0.000000
# 6 0.000000 0.000000 0.000000 0.000000 0.000000 0.087500
#
#
# Mechanical properties :
#
#
# Convention : Reuss Voigt Hill
#
# Bulk Modulus (GPa) = 30.90452 38.40396 34.65424
# Shear Modulus (GPa) = 21.33281 34.14087 27.73684
#
# Velocity S-wave (km/s) = 3.14911 3.98383 3.59081
# Velocity P-wave (km/s) = 5.25252 6.24611 5.77074
#
# Compressibility (1/GPa) = 0.03235772
#
# Stress axis : x y z
#
# Youngs Moduli (GPa) = 96.98523 40.66559 85.68504
#
# Poissons Ratio (x) = 0.17578 0.21548
# Poissons Ratio (y) = 0.41922 0.02314
# Poissons Ratio (z) = 0.24389 0.01098
#
# Static dielectric constant tensor:
#      x y z
#    x 1.738720 0.000000 0.000000 
#    y 0.000000 1.797490 0.000000 
#    z 0.000000 0.000000 1.812880 
# 
# From -- ./inp_files/12653.got.cif
#   From: 2010.05.17/outbox.cif.g08.bks.cpg/sg36_7_cif.got.tgz:12653.got - 2010.06.03 17:41:39.
