data_PCOD9352107
_publ_section_title
;
Structure prediction by ZEFSAII (Michael W. Deem and Ramdas Pophale) SiO2 
 PCOD9352107
Probable space group: C M C 21
;
_chemical_formula_sum "Si O2"
_cell_formula_units_Z 32
_cell_length_a 10.719373
_cell_length_b 9.393751
_cell_length_c 14.995516
_cell_angle_alpha 90.000000
_cell_angle_beta 90.000000
_cell_angle_gamma 90.000000
_cell_volume 1509.975296
_symmetry_space_group_name_H-M "C M C 21"
_symmetry_group_IT_number 36
_symmetry_cell_setting 'orthorhombic'
loop_
_space_group_symop_operation_xyz
x,y,z
-x,-y,1/2+z
x,-y,1/2+z
-x,y,z
1/2+x,1/2+y,z
1/2-x,1/2-y,1/2+z
1/2+x,1/2-y,1/2+z
1/2-x,1/2+y,z
loop_
_atom_site_type_symbol
_atom_site_label
_atom_site_fract_x
_atom_site_fract_y
_atom_site_fract_z
Si Si1 0.000000 0.258687 0.356310
Si Si2 0.228873 0.732638 0.348365
Si Si3 0.500000 0.591224 0.164223
Si Si4 0.500000 0.107473 0.618427
Si Si5 0.500000 0.071360 0.424610
Si Si6 0.249809 0.483844 0.220750
O O1 0.135221 0.217155 0.393581
O O2 0.000000 0.179086 0.259675
O O3 0.000000 0.431738 0.361106
O O4 0.222783 0.640732 0.257470
O O5 0.219437 0.891492 0.309457
O O6 0.119601 0.669245 0.406730
O O7 0.500000 0.723432 0.097090
O O8 0.375036 0.498056 0.162650
O O9 0.500000 0.021681 0.526386
O O10 0.372542 0.073600 0.671473
#
# Coordination Sequence:
#
# PCOD9352107 Si02
#       6
#     4   8   4   4   4   8
#     4  10  20  40  60  90 122 157 215 265 287 379
#     4  11  20  41  69  89 118 170 216 257 308 381
#     4  10  21  39  64  90 118 162 222 262 296 380
#     4  12  24  41  59  98 139 157 203 280 320 369
#     4  12  25  38  63  96 135 166 202 265 339 366
#     4  11  20  41  70  87 122 167 219 259 303 377
#
# _framework density 21.192399999999999
#
# number of rings (size 3 to 8) (size 9 to 14) (size 15 to 20)
#    0.000    1.000    7.500    1.500    0.000    2.000 
#    0.000    1.250    0.000    0.000    0.000    0.000 
#    0.000    0.000    0.000    0.000    0.000    0.000 
#
# Total GULP energy -89191.795650 kJ/mol
# GULP energy per Si atom -5574.487228 kJ/mol
# Density = 2.114417 g / cm^3
# Si number density = 21.192400 Si / 1000 Ang^3
#
#
#
# Elastic Constant Matrix: (Units=GPa)
#
#
# Indices 1 2 3 4 5 6 
#
# 1 217.1733 48.9058 29.9365 0.0000 0.0000 0.0000
# 2 48.9058 60.0622 0.0890 0.0000 0.0000 0.0000
# 3 29.9365 0.0890 37.9143 0.0000 0.0000 0.0000
# 4 0.0000 0.0000 0.0000 9.7977 0.0000 0.0000
# 5 0.0000 0.0000 0.0000 0.0000 13.9427 0.0000
# 6 0.0000 0.0000 0.0000 0.0000 0.0000 38.1613
#
#
#
# Elastic Compliance Matrix: (Units=1/GPa)
#
#
# Indices 1 2 3 4 5 6 
#
# 1 0.006501 -0.005286 -0.005120 0.000000 0.000000 0.000000
# 2 -0.005286 0.020947 0.004124 0.000000 0.000000 0.000000
# 3 -0.005120 0.004124 0.030409 0.000000 0.000000 0.000000
# 4 0.000000 0.000000 0.000000 0.102065 0.000000 0.000000
# 5 0.000000 0.000000 0.000000 0.000000 0.071722 0.000000
# 6 0.000000 0.000000 0.000000 0.000000 0.000000 0.026205
#
#
# Mechanical properties :
#
#
# Convention : Reuss Voigt Hill
#
# Bulk Modulus (GPa) = 22.07853 52.55693 37.31773
# Shear Modulus (GPa) = 17.51255 28.12824 22.82039
#
# Velocity S-wave (km/s) = 2.87777 3.64714 3.28505
# Velocity P-wave (km/s) = 4.63495 6.52604 5.66004
#
# Compressibility (1/GPa) = 0.04529287
#
# Stress axis : x y z
#
# Youngs Moduli (GPa) = 153.82851 47.73918 32.88541
#
# Poissons Ratio (x) = 0.25233 0.16839
# Poissons Ratio (y) = 0.81309 -0.13563
# Poissons Ratio (z) = 0.78767 -0.19689
#
# Static dielectric constant tensor:
#      x y z
#    x 1.794010 0.000000 0.000000 
#    y 0.000000 1.745170 0.000000 
#    z 0.000000 0.000000 1.843560 
# 
# From -- ./inp_files/11275.got.cif
#   From: 2010.05.17/outbox.cif.g08.bks.cpg/sg36_6_cif.got.tgz:11275.got - 2010.06.03 17:41:39.
