data_PCOD9352260
_publ_section_title
;
Structure prediction by ZEFSAII (Michael W. Deem and Ramdas Pophale) SiO2 
 PCOD9352260
Probable space group: C M C 21
;
_chemical_formula_sum "Si O2"
_cell_formula_units_Z 56
_cell_length_a 12.622745
_cell_length_b 33.613836
_cell_length_c 6.208033
_cell_angle_alpha 90.000000
_cell_angle_beta 90.000000
_cell_angle_gamma 90.000000
_cell_volume 2634.061451
_symmetry_space_group_name_H-M "C M C 21"
_symmetry_group_IT_number 36
_symmetry_cell_setting 'orthorhombic'
loop_
_space_group_symop_operation_xyz
x,y,z
-x,-y,1/2+z
x,-y,1/2+z
-x,y,z
1/2+x,1/2+y,z
1/2-x,1/2-y,1/2+z
1/2+x,1/2-y,1/2+z
1/2-x,1/2+y,z
loop_
_atom_site_type_symbol
_atom_site_label
_atom_site_fract_x
_atom_site_fract_y
_atom_site_fract_z
Si Si1 0.377643 0.048611 0.341830
Si Si2 0.798044 0.700007 0.426188
Si Si3 0.382581 0.336190 0.634276
Si Si4 0.738552 0.407250 0.494326
Si Si5 0.321357 0.490776 0.368451
Si Si6 0.382712 0.876164 0.153587
Si Si7 0.113695 0.222212 0.740218
O O1 0.500000 0.035615 0.309662
O O2 0.376683 0.081365 0.532036
O O3 0.293230 0.013293 0.379587
O O4 0.328958 0.072762 0.140986
O O5 0.712587 0.686232 0.250791
O O6 0.860001 0.660589 0.497631
O O7 0.873993 0.735419 0.356510
O O8 0.720902 0.716864 0.609381
O O9 0.500000 0.333350 0.733117
O O10 0.347906 0.382230 0.623257
O O11 0.389973 0.314480 0.404941
O O12 0.687804 0.443400 0.364311
O O13 0.795192 0.376670 0.336406
O O14 0.364169 0.498194 0.621761
O O15 0.500000 0.872265 0.246478
O O16 0.000000 0.222837 0.621760
#
# Coordination Sequence:
#
# PCOD9352260 Si02
#       7
#     8   8   8   8   8   8   8
#     4  10  21  36  57  90 129 171 210 252 317 398
#     4  12  22  43  63  92 126 161 207 270 325 389
#     4  11  24  42  65  90 120 166 219 265 320 387
#     4  11  21  40  60  88 127 166 214 266 323 383
#     4  10  21  36  60  89 126 172 215 267 322 392
#     4  11  22  36  58  91 128 165 205 253 321 394
#     4  11  24  41  64  90 120 163 209 257 321 391
#
# _framework density 21.259944999999998
#
# number of rings (size 3 to 8) (size 9 to 14) (size 15 to 20)
#    0.000    1.143    5.714    1.286    0.000    2.857 
#    0.000    1.429    0.000    3.429    0.000    0.000 
#    0.000    0.000    0.000    0.000    0.000    0.000 
#
# Total GULP energy -156044.069851 kJ/mol
# GULP energy per Si atom -5573.002495 kJ/mol
# Density = 2.121156 g / cm^3
# Si number density = 21.259945 Si / 1000 Ang^3
#
#
#
# Elastic Constant Matrix: (Units=GPa)
#
#
# Indices 1 2 3 4 5 6 
#
# 1 62.5012 28.5781 10.7867 0.0000 0.0000 0.0000
# 2 28.5781 78.6144 3.2358 0.0000 0.0000 0.0000
# 3 10.7867 3.2358 62.3905 0.0000 0.0000 0.0000
# 4 0.0000 0.0000 0.0000 37.2180 0.0000 0.0000
# 5 0.0000 0.0000 0.0000 0.0000 74.7276 0.0000
# 6 0.0000 0.0000 0.0000 0.0000 0.0000 34.7930
#
#
#
# Elastic Compliance Matrix: (Units=1/GPa)
#
#
# Indices 1 2 3 4 5 6 
#
# 1 0.019752 -0.007055 -0.003049 0.000000 0.000000 0.000000
# 2 -0.007055 0.015267 0.000428 0.000000 0.000000 0.000000
# 3 -0.003049 0.000428 0.016533 0.000000 0.000000 0.000000
# 4 0.000000 0.000000 0.000000 0.026869 0.000000 0.000000
# 5 0.000000 0.000000 0.000000 0.000000 0.013382 0.000000
# 6 0.000000 0.000000 0.000000 0.000000 0.000000 0.028741
#
#
# Mechanical properties :
#
#
# Convention : Reuss Voigt Hill
#
# Bulk Modulus (GPa) = 31.05561 32.07861 31.56711
# Shear Modulus (GPa) = 33.19418 40.07476 36.63447
#
# Velocity S-wave (km/s) = 3.95568 4.34636 4.15561
# Velocity P-wave (km/s) = 5.95839 6.34896 6.15677
#
# Compressibility (1/GPa) = 0.03220030
#
# Stress axis : x y z
#
# Youngs Moduli (GPa) = 50.62891 65.49975 60.48498
#
# Poissons Ratio (x) = 0.46208 0.18442
# Poissons Ratio (y) = 0.35717 -0.02588
# Poissons Ratio (z) = 0.15437 -0.02802
#
# Static dielectric constant tensor:
#      x y z
#    x 1.757230 0.000000 0.000000 
#    y 0.000000 1.738090 0.000000 
#    z 0.000000 0.000000 1.851130 
# 
# From -- ./inp_files/924.got.cif
#   From: 2010.05.17/outbox.cif.g08.bks.cpg/sg36_1_cif.got.tgz:924.got - 2010.06.03 17:41:39.
