data_PCOD9352454
_publ_section_title
;
Structure prediction by ZEFSAII (Michael W. Deem and Ramdas Pophale) SiO2 
 PCOD9352454
Probable space group: C M C 21
;
_chemical_formula_sum "Si O2"
_cell_formula_units_Z 56
_cell_length_a 11.992276
_cell_length_b 16.677769
_cell_length_c 14.545019
_cell_angle_alpha 90.000000
_cell_angle_beta 90.000000
_cell_angle_gamma 90.000000
_cell_volume 2909.067928
_symmetry_space_group_name_H-M "C M C 21"
_symmetry_group_IT_number 36
_symmetry_cell_setting 'orthorhombic'
loop_
_space_group_symop_operation_xyz
x,y,z
-x,-y,1/2+z
x,-y,1/2+z
-x,y,z
1/2+x,1/2+y,z
1/2-x,1/2-y,1/2+z
1/2+x,1/2-y,1/2+z
1/2-x,1/2+y,z
loop_
_atom_site_type_symbol
_atom_site_label
_atom_site_fract_x
_atom_site_fract_y
_atom_site_fract_z
Si Si1 0.721747 0.529337 0.728560
Si Si2 0.872271 0.962231 0.900336
Si Si3 0.373143 0.176952 0.684756
Si Si4 0.126046 0.229228 0.992009
Si Si5 0.280778 0.293182 0.829670
Si Si6 0.204179 0.938740 0.555336
Si Si7 0.870093 0.610172 0.196632
O O1 0.646891 0.525682 0.818075
O O2 0.775610 0.611616 0.696276
O O3 0.658516 0.481742 0.647185
O O4 0.828763 0.471363 0.746637
O O5 0.841944 0.874032 0.863667
O O6 0.000000 0.964195 0.932179
O O7 0.790378 0.991843 0.980391
O O8 0.500000 0.143471 0.682206
O O9 0.357028 0.224667 0.589033
O O10 0.361586 0.234631 0.773325
O O11 0.136007 0.135162 0.015609
O O12 0.319178 0.098417 0.094497
O O13 0.215892 0.253899 0.915258
O O14 0.191438 0.320267 0.752246
O O15 0.000000 0.752449 0.459917
O O16 0.000000 0.620037 0.195947
#
# Coordination Sequence:
#
# PCOD9352454 Si02
#       7
#     8   8   8   8   8   8   8
#     4   9  21  38  61  86 119 156 207 253 296 367
#     4  11  22  39  61  87 122 161 207 254 308 366
#     4  11  21  38  62  88 124 163 202 254 314 367
#     4  11  22  38  63  90 120 165 206 250 312 369
#     4  11  22  39  62  93 131 158 205 258 306 374
#     4  10  21  39  60  86 123 158 211 254 293 375
#     4   9  19  39  61  84 119 159 198 253 307 352
#
# _framework density 19.250153000000001
#
# number of rings (size 3 to 8) (size 9 to 14) (size 15 to 20)
#    0.857    0.857    1.429    3.429    0.000    2.286 
#    0.000    7.143    0.000    0.000    0.000    0.000 
#    0.000    0.000    0.000    0.000    0.000    0.000 
#
# Total GULP energy -155954.057403 kJ/mol
# GULP energy per Si atom -5569.787764 kJ/mol
# Density = 1.920634 g / cm^3
# Si number density = 19.250153 Si / 1000 Ang^3
#
#
#
# Elastic Constant Matrix: (Units=GPa)
#
#
# Indices 1 2 3 4 5 6 
#
# 1 66.6595 12.2804 16.9807 0.0000 0.0000 0.0000
# 2 12.2804 61.3820 13.6440 0.0000 0.0000 0.0000
# 3 16.9807 13.6440 86.9168 0.0000 0.0000 0.0000
# 4 0.0000 0.0000 0.0000 38.3072 0.0000 0.0000
# 5 0.0000 0.0000 0.0000 0.0000 15.9755 0.0000
# 6 0.0000 0.0000 0.0000 0.0000 0.0000 16.2781
#
#
#
# Elastic Compliance Matrix: (Units=1/GPa)
#
#
# Indices 1 2 3 4 5 6 
#
# 1 0.016186 -0.002627 -0.002750 0.000000 0.000000 0.000000
# 2 -0.002627 0.017307 -0.002204 0.000000 0.000000 0.000000
# 3 -0.002750 -0.002204 0.012388 0.000000 0.000000 0.000000
# 4 0.000000 0.000000 0.000000 0.026105 0.000000 0.000000
# 5 0.000000 0.000000 0.000000 0.000000 0.062596 0.000000
# 6 0.000000 0.000000 0.000000 0.000000 0.000000 0.061432
#
#
# Mechanical properties :
#
#
# Convention : Reuss Voigt Hill
#
# Bulk Modulus (GPa) = 32.55163 33.41871 32.98517
# Shear Modulus (GPa) = 22.58201 25.58237 24.08219
#
# Velocity S-wave (km/s) = 3.42874 3.64942 3.54080
# Velocity P-wave (km/s) = 5.71153 5.92922 5.82139
#
# Compressibility (1/GPa) = 0.03072043
#
# Stress axis : x y z
#
# Youngs Moduli (GPa) = 61.78157 57.78078 80.72071
#
# Poissons Ratio (x) = 0.15179 0.22197
# Poissons Ratio (y) = 0.16230 0.17787
# Poissons Ratio (z) = 0.16989 0.12732
#
# Static dielectric constant tensor:
#      x y z
#    x 1.681110 0.000000 0.000000 
#    y 0.000000 1.681020 0.000000 
#    z 0.000000 0.000000 1.695710 
# 
# From -- ./inp_files/11589.got.cif
#   From: 2010.05.17/outbox.cif.g08.bks.cpg/sg36_6_cif.got.tgz:11589.got - 2010.06.03 17:41:39.
