data_PCOD9352009
_publ_section_title
;
Structure prediction by ZEFSAII (Michael W. Deem and Ramdas Pophale) SiO2 
 PCOD9352009
Probable space group: C M C 21
;
_chemical_formula_sum "Si O2"
_cell_formula_units_Z 64
_cell_length_a 7.619691
_cell_length_b 31.960724
_cell_length_c 11.995320
_cell_angle_alpha 90.000000
_cell_angle_beta 90.000000
_cell_angle_gamma 90.000000
_cell_volume 2921.230368
_symmetry_space_group_name_H-M "C M C 21"
_symmetry_group_IT_number 36
_symmetry_cell_setting 'orthorhombic'
loop_
_space_group_symop_operation_xyz
x,y,z
-x,-y,1/2+z
x,-y,1/2+z
-x,y,z
1/2+x,1/2+y,z
1/2-x,1/2-y,1/2+z
1/2+x,1/2-y,1/2+z
1/2-x,1/2+y,z
loop_
_atom_site_type_symbol
_atom_site_label
_atom_site_fract_x
_atom_site_fract_y
_atom_site_fract_z
Si Si1 0.211918 0.328835 0.397000
Si Si2 0.202603 0.791741 0.621574
Si Si3 0.797162 0.962205 0.615443
Si Si4 0.715313 0.801656 0.150846
Si Si5 0.293400 0.445073 0.141000
Si Si6 0.203711 0.629327 0.477212
Si Si7 0.289359 0.922842 0.393147
Si Si8 0.703966 0.377486 0.723551
O O1 0.288954 0.298440 0.489129
O O2 0.265644 0.320017 0.270688
O O3 0.263078 0.375998 0.427428
O O4 0.000000 0.325777 0.401725
O O5 0.278495 0.746094 0.645579
O O6 0.281503 0.833746 0.676956
O O7 0.000000 0.789827 0.659812
O O8 0.788751 0.953963 0.483549
O O9 0.718623 0.920904 0.675043
O O10 0.000000 0.964717 0.653604
O O11 0.718393 0.007867 0.636254
O O12 0.500000 0.801953 0.146176
O O13 0.774867 0.831914 0.050880
O O14 0.500000 0.446873 0.114202
O O15 0.268607 0.429908 0.267132
O O16 0.215171 0.411744 0.054919
O O17 0.289516 0.622880 0.357194
O O18 0.000000 0.637926 0.453793
O O19 0.500000 0.925763 0.397113
O O20 0.500000 0.377443 0.686729
#
# Coordination Sequence:
#
# PCOD9352009 Si02
#       8
#     8   8   8   8   8   8   8   8
#     4  10  20  38  61  84 118 154 191 244 299 344
#     4  10  21  38  62  87 115 155 200 242 289 352
#     4  10  23  42  62  86 119 157 196 245 297 347
#     4   9  20  39  59  84 120 156 190 243 302 347
#     4  11  24  41  63  88 119 159 201 243 296 353
#     4  11  23  41  61  85 122 160 196 244 300 351
#     4  11  22  39  64  90 118 154 199 248 297 349
#     4  10  22  40  60  86 119 155 197 243 294 353
#
# _framework density 21.908577000000001
#
# number of rings (size 3 to 8) (size 9 to 14) (size 15 to 20)
#    0.000    1.750    2.500    1.125    3.500    2.500 
#    0.000    1.250    0.000    0.000    0.000    0.000 
#    0.000    0.000    0.000    0.000    0.000    0.000 
#
# Total GULP energy -178759.955705 kJ/mol
# GULP energy per Si atom -5586.248616 kJ/mol
# Density = 2.185871 g / cm^3
# Si number density = 21.908577 Si / 1000 Ang^3
#
#
#
# Elastic Constant Matrix: (Units=GPa)
#
#
# Indices 1 2 3 4 5 6 
#
# 1 48.4759 3.1490 -13.5585 0.0000 0.0000 0.0000
# 2 3.1490 146.9699 31.7961 0.0000 0.0000 0.0000
# 3 -13.5585 31.7961 98.7869 0.0000 0.0000 0.0000
# 4 0.0000 0.0000 0.0000 28.8885 0.0000 0.0000
# 5 0.0000 0.0000 0.0000 0.0000 61.0543 0.0000
# 6 0.0000 0.0000 0.0000 0.0000 0.0000 23.5062
#
#
#
# Elastic Compliance Matrix: (Units=1/GPa)
#
#
# Indices 1 2 3 4 5 6 
#
# 1 0.021644 -0.001189 0.003353 0.000000 0.000000 0.000000
# 2 -0.001189 0.007379 -0.002538 0.000000 0.000000 0.000000
# 3 0.003353 -0.002538 0.011400 0.000000 0.000000 0.000000
# 4 0.000000 0.000000 0.000000 0.034616 0.000000 0.000000
# 5 0.000000 0.000000 0.000000 0.000000 0.016379 0.000000
# 6 0.000000 0.000000 0.000000 0.000000 0.000000 0.042542
#
#
# Mechanical properties :
#
#
# Convention : Reuss Voigt Hill
#
# Bulk Modulus (GPa) = 25.20497 37.44510 31.32504
# Shear Modulus (GPa) = 33.79924 40.87955 37.33939
#
# Velocity S-wave (km/s) = 3.93203 4.32431 4.13283
# Velocity P-wave (km/s) = 5.66958 6.48548 6.09121
#
# Compressibility (1/GPa) = 0.03967472
#
# Stress axis : x y z
#
# Youngs Moduli (GPa) = 46.20216 135.52502 87.71931
#
# Poissons Ratio (x) = 0.16117 -0.29416
# Poissons Ratio (y) = 0.05495 0.22265
# Poissons Ratio (z) = -0.15493 0.34399
#
# Static dielectric constant tensor:
#      x y z
#    x 1.846280 0.000000 0.000000 
#    y 0.000000 1.812220 0.000000 
#    z 0.000000 0.000000 1.728870 
# 
# From -- ./inp_files/7170.got.cif
#   From: 2010.05.17/outbox.cif.g08.bks.cpg/sg36_4_cif.got.tgz:7170.got - 2010.06.03 17:41:39.
