data_PCOD9352828
_publ_section_title
;
Structure prediction by ZEFSAII (Michael W. Deem and Ramdas Pophale) SiO2 
 PCOD9352828
Probable space group: C M C 21
;
_chemical_formula_sum "Si O2"
_cell_formula_units_Z 64
_cell_length_a 19.115462
_cell_length_b 8.966254
_cell_length_c 18.543580
_cell_angle_alpha 90.000000
_cell_angle_beta 90.000000
_cell_angle_gamma 90.000000
_cell_volume 3178.259975
_symmetry_space_group_name_H-M "C M C 21"
_symmetry_group_IT_number 36
_symmetry_cell_setting 'orthorhombic'
loop_
_space_group_symop_operation_xyz
x,y,z
-x,-y,1/2+z
x,-y,1/2+z
-x,y,z
1/2+x,1/2+y,z
1/2-x,1/2-y,1/2+z
1/2+x,1/2-y,1/2+z
1/2-x,1/2+y,z
loop_
_atom_site_type_symbol
_atom_site_label
_atom_site_fract_x
_atom_site_fract_y
_atom_site_fract_z
Si Si1 0.168091 0.921056 0.177350
Si Si2 0.837248 0.915333 0.905683
Si Si3 0.805043 0.729437 0.393590
Si Si4 0.582191 0.901184 0.167553
Si Si5 0.301302 0.892026 0.730047
Si Si6 0.420669 0.161889 0.505854
Si Si7 0.919361 0.886504 0.764177
Si Si8 0.921509 0.013886 0.540250
O O1 0.192738 0.752993 0.180702
O O2 0.231414 0.021078 0.207379
O O3 0.104299 0.955228 0.232016
O O4 0.137299 0.959393 0.099876
O O5 0.769513 0.819464 0.925891
O O6 0.870226 0.854742 0.831798
O O7 0.816212 0.091018 0.895083
O O8 0.895857 0.909519 0.967120
O O9 0.802517 0.665804 0.312237
O O10 0.865992 0.652103 0.440849
O O11 0.500000 0.939131 0.173947
O O12 0.589844 0.734760 0.200561
O O13 0.632569 0.004495 0.213622
O O14 0.600862 0.909033 0.082688
O O15 0.500000 0.112809 0.487542
O O16 0.424302 0.338005 0.523983
O O17 0.000000 0.887095 0.785846
O O18 0.000000 0.060617 0.562705
#
# Coordination Sequence:
#
# PCOD9352828 Si02
#       8
#     8   8   8   8   8   8   8   8
#     4  12  24  40  65  93 127 167 208 267 316 378
#     4  11  24  41  64  95 127 169 210 263 314 382
#     4  11  23  41  63  90 127 165 208 263 316 379
#     4  10  23  42  66  93 128 167 213 264 320 383
#     4  12  25  41  63  96 130 164 213 266 319 381
#     4   9  20  41  66  90 121 168 211 255 315 384
#     4  11  21  40  67  92 123 168 212 258 317 375
#     4  10  22  42  66  95 127 164 215 262 315 382
#
# _framework density 20.136804999999999
#
# number of rings (size 3 to 8) (size 9 to 14) (size 15 to 20)
#    0.000    1.250    3.750    1.500    3.500    3.000 
#    0.000    0.000    0.000    0.000    0.000    0.000 
#    0.000    0.000    0.000    0.000    0.000    0.000 
#
# Total GULP energy -178721.778507 kJ/mol
# GULP energy per Si atom -5585.055578 kJ/mol
# Density = 2.009097 g / cm^3
# Si number density = 20.136805 Si / 1000 Ang^3
#
#
#
# Elastic Constant Matrix: (Units=GPa)
#
#
# Indices 1 2 3 4 5 6 
#
# 1 93.1846 34.7679 33.1630 0.0000 0.0000 0.0000
# 2 34.7679 42.8628 -4.1822 0.0000 0.0000 0.0000
# 3 33.1630 -4.1822 74.3287 0.0000 0.0000 0.0000
# 4 0.0000 0.0000 0.0000 8.9487 0.0000 0.0000
# 5 0.0000 0.0000 0.0000 0.0000 36.3240 0.0000
# 6 0.0000 0.0000 0.0000 0.0000 0.0000 25.0740
#
#
#
# Elastic Compliance Matrix: (Units=1/GPa)
#
#
# Indices 1 2 3 4 5 6 
#
# 1 0.021319 -0.018322 -0.010543 0.000000 0.000000 0.000000
# 2 -0.018322 0.039205 0.010380 0.000000 0.000000 0.000000
# 3 -0.010543 0.010380 0.018742 0.000000 0.000000 0.000000
# 4 0.000000 0.000000 0.000000 0.111748 0.000000 0.000000
# 5 0.000000 0.000000 0.000000 0.000000 0.027530 0.000000
# 6 0.000000 0.000000 0.000000 0.000000 0.000000 0.039882
#
#
# Mechanical properties :
#
#
# Convention : Reuss Voigt Hill
#
# Bulk Modulus (GPa) = 23.64213 37.54150 30.59182
# Shear Modulus (GPa) = 16.15541 23.84449 19.99995
#
# Velocity S-wave (km/s) = 2.83553 3.44484 3.15493
# Velocity P-wave (km/s) = 4.74200 5.87421 5.33821
#
# Compressibility (1/GPa) = 0.04229737
#
# Stress axis : x y z
#
# Youngs Moduli (GPa) = 46.90546 25.50709 53.35687
#
# Poissons Ratio (x) = 0.46734 0.56254
# Poissons Ratio (y) = 0.85940 -0.55387
# Poissons Ratio (z) = 0.49452 -0.26478
#
# Static dielectric constant tensor:
#      x y z
#    x 1.711460 0.000000 0.000000 
#    y 0.000000 1.703520 0.000000 
#    z 0.000000 0.000000 1.718510 
# 
# From -- ./inp_files/15053.got.cif
#   From: 2010.05.17/outbox.cif.g08.bks.cpg/sg36_8_cif.got.tgz:15053.got - 2010.06.03 17:41:39.
