data_PCOD9352153
_publ_section_title
;
Structure prediction by ZEFSAII (Michael W. Deem and Ramdas Pophale) SiO2 
 PCOD9352153
Probable space group: C M C 21
;
_chemical_formula_sum "Si O2"
_cell_formula_units_Z 32
_cell_length_a 10.804925
_cell_length_b 23.427687
_cell_length_c 5.012793
_cell_angle_alpha 90.000000
_cell_angle_beta 90.000000
_cell_angle_gamma 90.000000
_cell_volume 1268.910353
_symmetry_space_group_name_H-M "C M C 21"
_symmetry_group_IT_number 36
_symmetry_cell_setting 'orthorhombic'
loop_
_space_group_symop_operation_xyz
x,y,z
-x,-y,1/2+z
x,-y,1/2+z
-x,y,z
1/2+x,1/2+y,z
1/2-x,1/2-y,1/2+z
1/2+x,1/2-y,1/2+z
1/2-x,1/2+y,z
loop_
_atom_site_type_symbol
_atom_site_label
_atom_site_fract_x
_atom_site_fract_y
_atom_site_fract_z
Si Si1 0.000000 0.100769 0.699750
Si Si2 0.860692 0.690480 0.483900
Si Si3 0.793995 0.176726 0.983473
Si Si4 0.267811 0.461233 0.935329
Si Si5 0.000000 0.461583 0.064907
O O1 0.892595 0.131811 0.883469
O O2 0.890604 0.071580 0.515731
O O3 0.851073 0.759775 0.461428
O O4 0.822779 0.676471 0.784914
O O5 0.000000 0.674457 0.415885
O O6 0.756730 0.668669 0.279664
O O7 0.269867 0.516708 0.132640
O O8 0.132859 0.434117 0.999012
O O9 0.000000 0.482795 0.369044
#
# Coordination Sequence:
#
# PCOD9352153 Si02
#       5
#     4   8   8   8   4
#     4  12  24  42  62 100 133 158 221 258 326 366
#     4  10  20  42  61  85 123 167 217 249 323 370
#     4  10  23  36  63  91 120 167 203 268 310 375
#     4  10  22  40  65  91 126 167 204 257 318 378
#     4   8  16  36  60  82 111 156 201 238 300 372
#
# _framework density 25.218487
#
# number of rings (size 3 to 8) (size 9 to 14) (size 15 to 20)
#    0.000    2.000    1.250    1.500    0.000    5.000 
#    4.500    0.000    5.500    0.000    0.000    0.000 
#    0.000    0.000    0.000    0.000    0.000    0.000 
#
# Total GULP energy -89115.533451 kJ/mol
# GULP energy per Si atom -5569.720841 kJ/mol
# Density = 2.516109 g / cm^3
# Si number density = 25.218487 Si / 1000 Ang^3
#
#
#
# Elastic Constant Matrix: (Units=GPa)
#
#
# Indices 1 2 3 4 5 6 
#
# 1 239.6596 57.6256 13.7272 0.0000 0.0000 0.0000
# 2 57.6256 59.1333 18.4296 0.0000 0.0000 0.0000
# 3 13.7272 18.4296 78.3377 0.0000 0.0000 0.0000
# 4 0.0000 0.0000 0.0000 41.7541 0.0000 0.0000
# 5 0.0000 0.0000 0.0000 0.0000 7.7616 0.0000
# 6 0.0000 0.0000 0.0000 0.0000 0.0000 41.0706
#
#
#
# Elastic Compliance Matrix: (Units=1/GPa)
#
#
# Indices 1 2 3 4 5 6 
#
# 1 0.005457 -0.005417 0.000318 0.000000 0.000000 0.000000
# 2 -0.005417 0.023626 -0.004609 0.000000 0.000000 0.000000
# 3 0.000318 -0.004609 0.013794 0.000000 0.000000 0.000000
# 4 0.000000 0.000000 0.000000 0.023950 0.000000 0.000000
# 5 0.000000 0.000000 0.000000 0.000000 0.128840 0.000000
# 6 0.000000 0.000000 0.000000 0.000000 0.000000 0.024348
#
#
# Mechanical properties :
#
#
# Convention : Reuss Voigt Hill
#
# Bulk Modulus (GPa) = 42.62339 61.85507 52.23923
# Shear Modulus (GPa) = 20.22237 37.27381 28.74809
#
# Velocity S-wave (km/s) = 2.83483 3.84869 3.37999
# Velocity P-wave (km/s) = 5.25865 6.65814 5.99934
#
# Compressibility (1/GPa) = 0.02346130
#
# Stress axis : x y z
#
# Youngs Moduli (GPa) = 183.25644 42.32595 72.49633
#
# Poissons Ratio (x) = 0.22927 -0.02306
# Poissons Ratio (y) = 0.99268 0.33414
# Poissons Ratio (z) = -0.05830 0.19508
#
# Static dielectric constant tensor:
#      x y z
#    x 1.902140 0.000000 0.000000 
#    y 0.000000 2.087610 0.000000 
#    z 0.000000 0.000000 1.882070 
# 
# From -- ./inp_files/454.got.cif
#   From: 2010.05.17/outbox.cif.g08.bks.cpg/sg36_1_cif.got.tgz:454.got - 2010.06.03 17:41:39.
