data_PCOD9352566
_publ_section_title
;
Structure prediction by ZEFSAII (Michael W. Deem and Ramdas Pophale) SiO2 
 PCOD9352566
Probable space group: C M C 21
;
_chemical_formula_sum "Si O2"
_cell_formula_units_Z 60
_cell_length_a 11.325219
_cell_length_b 8.980285
_cell_length_c 29.334501
_cell_angle_alpha 90.000000
_cell_angle_beta 90.000000
_cell_angle_gamma 90.000000
_cell_volume 2983.427122
_symmetry_space_group_name_H-M "C M C 21"
_symmetry_group_IT_number 36
_symmetry_cell_setting 'orthorhombic'
loop_
_space_group_symop_operation_xyz
x,y,z
-x,-y,1/2+z
x,-y,1/2+z
-x,y,z
1/2+x,1/2+y,z
1/2-x,1/2-y,1/2+z
1/2+x,1/2-y,1/2+z
1/2-x,1/2+y,z
loop_
_atom_site_type_symbol
_atom_site_label
_atom_site_fract_x
_atom_site_fract_y
_atom_site_fract_z
Si Si1 0.300243 0.414948 0.759050
Si Si2 0.634256 0.753251 0.919577
Si Si3 0.278151 0.516894 0.477343
Si Si4 0.638055 0.027473 0.180093
Si Si5 0.135068 0.194875 0.814314
Si Si6 0.363216 0.786999 0.537311
Si Si7 0.500000 0.344508 0.683090
Si Si8 0.727132 0.751393 0.130572
O O1 0.203143 0.498456 0.727465
O O2 0.228005 0.291294 0.786126
O O3 0.355777 0.529016 0.794753
O O4 0.396855 0.357107 0.723208
O O5 0.500000 0.806877 0.920441
O O6 0.647368 0.611293 0.952677
O O7 0.716365 0.882923 0.938790
O O8 0.661900 0.706316 0.867870
O O9 0.348358 0.634978 0.508299
O O10 0.182118 0.426795 0.507495
O O11 0.500000 0.991867 0.183082
O O12 0.668373 0.194033 0.164248
O O13 0.695714 0.921299 0.142261
O O14 0.000000 0.248411 0.806772
O O15 0.500000 0.806515 0.550950
O O16 0.276573 0.772017 0.580443
O O17 0.393672 0.332142 0.644317
#
# Coordination Sequence:
#
# PCOD9352566 Si02
#       8
#     8   8   8   8   8   8   4   8
#     4  11  22  41  64  89 128 172 210 261 317 370
#     4  10  21  40  66  96 130 163 206 257 321 376
#     4  10  22  42  66  94 128 169 201 259 323 386
#     4  11  23  41  61  86 124 163 211 264 313 366
#     4  11  23  40  65  99 128 165 215 262 308 385
#     4  11  23  42  64  94 127 164 216 261 316 381
#     4  10  22  42  62  86 128 168 212 256 320 364
#     4  11  23  42  61  91 122 166 211 267 312 369
#
# _framework density 20.111098999999999
#
# number of rings (size 3 to 8) (size 9 to 14) (size 15 to 20)
#    0.000    1.333    1.333    4.800    0.000    0.000 
#   22.800    0.000    2.933    0.000    0.000    0.000 
#    0.000    0.000    0.000    0.000    0.000    0.000 
#
# Total GULP energy -167043.102526 kJ/mol
# GULP energy per Si atom -5568.103418 kJ/mol
# Density = 2.006532 g / cm^3
# Si number density = 20.111099 Si / 1000 Ang^3
#
#
#
# Elastic Constant Matrix: (Units=GPa)
#
#
# Indices 1 2 3 4 5 6 
#
# 1 107.6271 29.1331 61.2522 0.0000 0.0000 0.0000
# 2 29.1331 50.2899 8.4882 0.0000 0.0000 0.0000
# 3 61.2522 8.4882 96.0936 0.0000 0.0000 0.0000
# 4 0.0000 0.0000 0.0000 25.1026 0.0000 0.0000
# 5 0.0000 0.0000 0.0000 0.0000 16.4485 0.0000
# 6 0.0000 0.0000 0.0000 0.0000 0.0000 13.8799
#
#
#
# Elastic Compliance Matrix: (Units=1/GPa)
#
#
# Indices 1 2 3 4 5 6 
#
# 1 0.017475 -0.008368 -0.010400 0.000000 0.000000 0.000000
# 2 -0.008368 0.024193 0.003197 0.000000 0.000000 0.000000
# 3 -0.010400 0.003197 0.016753 0.000000 0.000000 0.000000
# 4 0.000000 0.000000 0.000000 0.039836 0.000000 0.000000
# 5 0.000000 0.000000 0.000000 0.000000 0.060796 0.000000
# 6 0.000000 0.000000 0.000000 0.000000 0.000000 0.072047
#
#
# Mechanical properties :
#
#
# Convention : Reuss Voigt Hill
#
# Bulk Modulus (GPa) = 36.65795 50.19530 43.42662
# Shear Modulus (GPa) = 18.42736 21.42866 19.92801
#
# Velocity S-wave (km/s) = 3.03029 3.26776 3.15127
# Velocity P-wave (km/s) = 5.52366 6.26505 5.90600
#
# Compressibility (1/GPa) = 0.02727922
#
# Stress axis : x y z
#
# Youngs Moduli (GPa) = 57.22391 41.33465 59.68989
#
# Poissons Ratio (x) = 0.34589 0.62077
# Poissons Ratio (y) = 0.47885 -0.19083
# Poissons Ratio (z) = 0.59512 -0.13215
#
# Static dielectric constant tensor:
#      x y z
#    x 1.683070 0.000000 0.000000 
#    y 0.000000 1.759790 0.000000 
#    z 0.000000 0.000000 1.688360 
# 
# From -- ./inp_files/17184.got.cif
#   From: 2010.05.17/outbox.cif.g08.bks.cpg/sg36_9_cif.got.tgz:17184.got - 2010.06.03 17:41:39.
