data_PCOD9352508
_publ_section_title
;
Structure prediction by ZEFSAII (Michael W. Deem and Ramdas Pophale) SiO2 
 PCOD9352508
Probable space group: C M C 21
;
_chemical_formula_sum "Si O2"
_cell_formula_units_Z 64
_cell_length_a 25.376876
_cell_length_b 10.546743
_cell_length_c 11.076481
_cell_angle_alpha 90.000000
_cell_angle_beta 90.000000
_cell_angle_gamma 90.000000
_cell_volume 2964.546917
_symmetry_space_group_name_H-M "C M C 21"
_symmetry_group_IT_number 36
_symmetry_cell_setting 'orthorhombic'
loop_
_space_group_symop_operation_xyz
x,y,z
-x,-y,1/2+z
x,-y,1/2+z
-x,y,z
1/2+x,1/2+y,z
1/2-x,1/2-y,1/2+z
1/2+x,1/2-y,1/2+z
1/2-x,1/2+y,z
loop_
_atom_site_type_symbol
_atom_site_label
_atom_site_fract_x
_atom_site_fract_y
_atom_site_fract_z
Si Si1 0.756485 0.627955 0.037640
Si Si2 0.240520 0.205350 0.299234
Si Si3 0.856599 0.910811 0.514730
Si Si4 0.940050 0.794042 0.676239
Si Si5 0.867809 0.663033 0.100683
Si Si6 0.060076 0.541676 0.511661
Si Si7 0.848692 0.654623 0.368941
Si Si8 0.627026 0.352193 0.884132
O O1 0.749370 0.724347 0.154767
O O2 0.815343 0.578555 0.067805
O O3 0.757667 0.683877 0.901148
O O4 0.703121 0.544818 0.045663
O O5 0.287903 0.113622 0.346532
O O6 0.181829 0.154892 0.312563
O O7 0.899222 0.893862 0.618927
O O8 0.848127 0.769846 0.462672
O O9 0.881794 0.002192 0.415709
O O10 0.937473 0.662918 0.601568
O O11 0.918558 0.781727 0.811198
O O12 0.000000 0.838217 0.672382
O O13 0.919860 0.581084 0.081880
O O14 0.863975 0.706069 0.237605
O O15 0.865613 0.779233 0.009712
O O16 0.104918 0.561920 0.409930
O O17 0.000000 0.531630 0.467436
#
# Coordination Sequence:
#
# PCOD9352508 Si02
#       8
#     8   8   8   8   8   8   8   8
#     4   9  18  37  59  93 128 171 203 257 314 375
#     4   9  18  36  59  91 130 166 209 253 313 376
#     4  10  21  39  66  90 126 169 207 254 322 384
#     4  10  23  44  64  87 122 168 213 256 313 381
#     4  10  23  38  60  98 127 158 211 265 313 370
#     4  10  23  43  66  87 121 170 214 258 315 374
#     4   9  21  40  61  90 128 165 210 256 311 376
#     4  11  23  37  65  96 126 161 209 261 319 384
#
# _framework density 21.588457999999999
#
# number of rings (size 3 to 8) (size 9 to 14) (size 15 to 20)
#    0.000    2.250    1.250    0.000    5.250    1.500 
#    0.000    0.000    0.000    0.000    0.000    0.000 
#    0.000    0.000    0.000    0.000    0.000    0.000 
#
# Total GULP energy -178217.008324 kJ/mol
# GULP energy per Si atom -5569.281510 kJ/mol
# Density = 2.153932 g / cm^3
# Si number density = 21.588458 Si / 1000 Ang^3
#
#
#
# Elastic Constant Matrix: (Units=GPa)
#
#
# Indices 1 2 3 4 5 6 
#
# 1 139.5040 20.8404 29.5214 0.0000 0.0000 0.0000
# 2 20.8404 15.6605 -8.9289 0.0000 0.0000 0.0000
# 3 29.5214 -8.9289 82.0835 0.0000 0.0000 0.0000
# 4 0.0000 0.0000 0.0000 -5.9568 0.0000 0.0000
# 5 0.0000 0.0000 0.0000 0.0000 28.9477 0.0000
# 6 0.0000 0.0000 0.0000 0.0000 0.0000 20.9028
#
#
#
# Elastic Compliance Matrix: (Units=1/GPa)
#
#
# Indices 1 2 3 4 5 6 
#
# 1 0.011173 -0.018294 -0.006008 0.000000 0.000000 0.000000
# 2 -0.018294 0.098030 0.017243 0.000000 0.000000 0.000000
# 3 -0.006008 0.017243 0.016219 0.000000 0.000000 0.000000
# 4 0.000000 0.000000 0.000000 -0.167877 0.000000 0.000000
# 5 0.000000 0.000000 0.000000 0.000000 0.034545 0.000000
# 6 0.000000 0.000000 0.000000 0.000000 0.000000 0.047840
#
#
# Mechanical properties :
#
#
# Convention : Reuss Voigt Hill
#
# Bulk Modulus (GPa) = 8.98440 35.56822 22.27631
# Shear Modulus (GPa) = 54.85487 21.83309 38.34398
#
# Velocity S-wave (km/s) = 5.04624 3.18359 4.21899
# Velocity P-wave (km/s) = 6.17441 5.47951 5.83731
#
# Compressibility (1/GPa) = 0.11130409
#
# Stress axis : x y z
#
# Youngs Moduli (GPa) = 89.50522 10.20095 61.65537
#
# Poissons Ratio (x) = 0.18661 0.37043
# Poissons Ratio (y) = 1.63736 -1.06311
# Poissons Ratio (z) = 0.53776 -0.17589
#
# Static dielectric constant tensor:
#      x y z
#    x 1.804630 0.000000 0.000000 
#    y 0.000000 1.786800 0.000000 
#    z 0.000000 0.000000 1.822090 
# 
# From -- ./inp_files/9516.got.cif
#   From: 2010.05.17/outbox.cif.g08.bks.cpg/sg36_5_cif.got.tgz:9516.got - 2010.06.03 17:41:39.
