data_PCOD9352554
_publ_section_title
;
Structure prediction by ZEFSAII (Michael W. Deem and Ramdas Pophale) SiO2 
 PCOD9352554
Probable space group: C M C 21
;
_chemical_formula_sum "Si O2"
_cell_formula_units_Z 32
_cell_length_a 16.358609
_cell_length_b 15.396763
_cell_length_c 5.317251
_cell_angle_alpha 90.000000
_cell_angle_beta 90.000000
_cell_angle_gamma 90.000000
_cell_volume 1339.254020
_symmetry_space_group_name_H-M "C M C 21"
_symmetry_group_IT_number 36
_symmetry_cell_setting 'orthorhombic'
loop_
_space_group_symop_operation_xyz
x,y,z
-x,-y,1/2+z
x,-y,1/2+z
-x,y,z
1/2+x,1/2+y,z
1/2-x,1/2-y,1/2+z
1/2+x,1/2-y,1/2+z
1/2-x,1/2+y,z
loop_
_atom_site_type_symbol
_atom_site_label
_atom_site_fract_x
_atom_site_fract_y
_atom_site_fract_z
Si Si1 0.188729 0.026768 0.617970
Si Si2 0.593742 0.057603 0.778524
Si Si3 0.907335 0.131186 0.949531
Si Si4 0.301112 0.771118 0.189649
O O1 0.111213 0.961241 0.582432
O O2 0.232876 0.018425 0.353799
O O3 0.152946 0.117306 0.711009
O O4 0.500000 0.093242 0.762799
O O5 0.660112 0.134037 0.739040
O O6 0.600143 0.011382 0.050010
O O7 0.876047 0.205953 0.130130
O O8 0.000000 0.142334 0.876352
O O9 0.250980 0.739172 0.432387
#
# Coordination Sequence:
#
# PCOD9352554 Si02
#       4
#     8   8   8   8
#     4   8  19  34  58  92 122 154 205 246 303 386
#     4  10  22  48  78 100 130 185 250 298 338 405
#     4  10  21  40  65  91 128 171 217 261 314 390
#     4  12  28  46  62 103 142 172 225 283 359 415
#
# _framework density 23.893898
#
# number of rings (size 3 to 8) (size 9 to 14) (size 15 to 20)
#    1.500    0.500    0.000    3.000    3.500    0.000 
#   13.500    2.500    0.000    0.000    0.000    0.000 
#    0.000    0.000    0.000    0.000    0.000    0.000 
#
# Total GULP energy -89312.667766 kJ/mol
# GULP energy per Si atom -5582.041735 kJ/mol
# Density = 2.383951 g / cm^3
# Si number density = 23.893898 Si / 1000 Ang^3
#
#
#
# Elastic Constant Matrix: (Units=GPa)
#
#
# Indices 1 2 3 4 5 6 
#
# 1 124.4874 29.3800 36.8321 0.0000 0.0000 0.0000
# 2 29.3800 122.1779 40.6818 0.0000 0.0000 0.0000
# 3 36.8321 40.6818 190.4385 0.0000 0.0000 0.0000
# 4 0.0000 0.0000 0.0000 37.4291 0.0000 0.0000
# 5 0.0000 0.0000 0.0000 0.0000 28.8439 0.0000
# 6 0.0000 0.0000 0.0000 0.0000 0.0000 36.9276
#
#
#
# Elastic Compliance Matrix: (Units=1/GPa)
#
#
# Indices 1 2 3 4 5 6 
#
# 1 0.008827 -0.001673 -0.001350 0.000000 0.000000 0.000000
# 2 -0.001673 0.009129 -0.001626 0.000000 0.000000 0.000000
# 3 -0.001350 -0.001626 0.005860 0.000000 0.000000 0.000000
# 4 0.000000 0.000000 0.000000 0.026717 0.000000 0.000000
# 5 0.000000 0.000000 0.000000 0.000000 0.034669 0.000000
# 6 0.000000 0.000000 0.000000 0.000000 0.000000 0.027080
#
#
# Mechanical properties :
#
#
# Convention : Reuss Voigt Hill
#
# Bulk Modulus (GPa) = 68.88732 72.32128 70.60430
# Shear Modulus (GPa) = 39.55076 42.65413 41.10244
#
# Velocity S-wave (km/s) = 4.07291 4.22968 4.15204
# Velocity P-wave (km/s) = 7.14221 7.36118 7.25253
#
# Compressibility (1/GPa) = 0.01451646
#
# Stress axis : x y z
#
# Youngs Moduli (GPa) = 113.28619 109.54447 170.66156
#
# Poissons Ratio (x) = 0.18329 0.23036
# Poissons Ratio (y) = 0.18955 0.27758
# Poissons Ratio (z) = 0.15291 0.17817
#
# Static dielectric constant tensor:
#      x y z
#    x 1.912460 0.000000 0.000000 
#    y 0.000000 1.914350 0.000000 
#    z 0.000000 0.000000 1.963270 
# 
# From -- ./inp_files/1009.got.cif
#   From: 2010.05.17/outbox.cif.g08.bks.cpg/sg36_1_cif.got.tgz:1009.got - 2010.06.03 17:41:39.
