data_PCOD9352817
_publ_section_title
;
Structure prediction by ZEFSAII (Michael W. Deem and Ramdas Pophale) SiO2 
 PCOD9352817
Probable space group: C M C 21
;
_chemical_formula_sum "Si O2"
_cell_formula_units_Z 52
_cell_length_a 17.888384
_cell_length_b 4.971936
_cell_length_c 26.203776
_cell_angle_alpha 90.000000
_cell_angle_beta 90.000000
_cell_angle_gamma 90.000000
_cell_volume 2330.561227
_symmetry_space_group_name_H-M "C M C 21"
_symmetry_group_IT_number 36
_symmetry_cell_setting 'orthorhombic'
loop_
_space_group_symop_operation_xyz
x,y,z
-x,-y,1/2+z
x,-y,1/2+z
-x,y,z
1/2+x,1/2+y,z
1/2-x,1/2-y,1/2+z
1/2+x,1/2-y,1/2+z
1/2-x,1/2+y,z
loop_
_atom_site_type_symbol
_atom_site_label
_atom_site_fract_x
_atom_site_fract_y
_atom_site_fract_z
Si Si1 0.801325 0.626406 0.251170
Si Si2 0.198054 0.377621 0.631559
Si Si3 0.417105 0.117107 0.553401
Si Si4 0.911122 0.553113 0.837700
Si Si5 0.203978 0.977234 0.501918
Si Si6 0.000000 0.746978 0.973457
Si Si7 0.376042 0.462340 0.403115
O O1 0.733703 0.417899 0.260629
O O2 0.821933 0.602713 0.191534
O O3 0.869931 0.555030 0.287645
O O4 0.267064 0.583813 0.622743
O O5 0.127632 0.467998 0.598056
O O6 0.500000 0.219559 0.569767
O O7 0.366797 0.357557 0.531685
O O8 0.436348 0.919899 0.506429
O O9 0.900938 0.324237 0.881051
O O10 0.000000 0.600775 0.831129
O O11 0.871540 0.824646 0.857254
O O12 0.272141 0.777167 0.515039
O O13 0.193135 0.939726 0.441152
O O14 0.063156 0.906026 0.940265
#
# Coordination Sequence:
#
# PCOD9352817 Si02
#       7
#     8   8   8   8   8   4   8
#     4  10  23  43  71  98 136 176 223 286 351 414
#     4  10  22  46  70  99 136 178 224 285 353 415
#     4  10  24  42  71 101 133 185 223 291 335 420
#     4  12  24  41  68  99 130 180 227 286 339 414
#     4  12  26  44  63  95 132 180 233 282 333 404
#     4  10  22  42  64  96 138 176 228 268 348 392
#     4  12  25  42  66  93 137 182 229 273 347 400
#
# _framework density 22.312222999999999
#
# number of rings (size 3 to 8) (size 9 to 14) (size 15 to 20)
#    0.462    0.615    1.538    4.615    1.077    5.538 
#    0.000    0.000    0.000    5.538    0.000    0.000 
#    0.000    0.000    0.000    0.000    0.000    0.000 
#
# Total GULP energy -145038.492555 kJ/mol
# GULP energy per Si atom -5578.403560 kJ/mol
# Density = 2.226144 g / cm^3
# Si number density = 22.312223 Si / 1000 Ang^3
#
#
#
# Elastic Constant Matrix: (Units=GPa)
#
#
# Indices 1 2 3 4 5 6 
#
# 1 106.7144 21.4291 49.3397 0.0000 0.0000 0.0000
# 2 21.4291 86.9785 14.7854 0.0000 0.0000 0.0000
# 3 49.3397 14.7854 98.9920 0.0000 0.0000 0.0000
# 4 0.0000 0.0000 0.0000 36.8450 0.0000 0.0000
# 5 0.0000 0.0000 0.0000 0.0000 8.7563 0.0000
# 6 0.0000 0.0000 0.0000 0.0000 0.0000 7.1142
#
#
#
# Elastic Compliance Matrix: (Units=1/GPa)
#
#
# Indices 1 2 3 4 5 6 
#
# 1 0.012533 -0.002079 -0.005936 0.000000 0.000000 0.000000
# 2 -0.002079 0.012141 -0.000777 0.000000 0.000000 0.000000
# 3 -0.005936 -0.000777 0.013177 0.000000 0.000000 0.000000
# 4 0.000000 0.000000 0.000000 0.027141 0.000000 0.000000
# 5 0.000000 0.000000 0.000000 0.000000 0.114204 0.000000
# 6 0.000000 0.000000 0.000000 0.000000 0.000000 0.140565
#
#
# Mechanical properties :
#
#
# Convention : Reuss Voigt Hill
#
# Bulk Modulus (GPa) = 49.34268 51.53260 50.43764
# Shear Modulus (GPa) = 14.53065 24.35179 19.44122
#
# Velocity S-wave (km/s) = 2.55471 3.30723 2.95503
# Velocity P-wave (km/s) = 5.55560 6.14247 5.85639
#
# Compressibility (1/GPa) = 0.02026643
#
# Stress axis : x y z
#
# Youngs Moduli (GPa) = 79.79050 82.36301 75.89186
#
# Poissons Ratio (x) = 0.17120 0.45051
# Poissons Ratio (y) = 0.16586 0.05900
# Poissons Ratio (z) = 0.47365 0.06403
#
# Static dielectric constant tensor:
#      x y z
#    x 1.846200 0.000000 0.000000 
#    y 0.000000 1.824960 0.000000 
#    z 0.000000 0.000000 1.860830 
# 
# From -- ./inp_files/17241.got.cif
#   From: 2010.05.17/outbox.cif.g08.bks.cpg/sg36_9_cif.got.tgz:17241.got - 2010.06.03 17:41:39.
