data_PCOD9352526
_publ_section_title
;
Structure prediction by ZEFSAII (Michael W. Deem and Ramdas Pophale) SiO2 
 PCOD9352526
Probable space group: C M C 21
;
_chemical_formula_sum "Si O2"
_cell_formula_units_Z 64
_cell_length_a 7.827081
_cell_length_b 31.547238
_cell_length_c 12.348435
_cell_angle_alpha 90.000000
_cell_angle_beta 90.000000
_cell_angle_gamma 90.000000
_cell_volume 3049.109987
_symmetry_space_group_name_H-M "C M C 21"
_symmetry_group_IT_number 36
_symmetry_cell_setting 'orthorhombic'
loop_
_space_group_symop_operation_xyz
x,y,z
-x,-y,1/2+z
x,-y,1/2+z
-x,y,z
1/2+x,1/2+y,z
1/2-x,1/2-y,1/2+z
1/2+x,1/2-y,1/2+z
1/2-x,1/2+y,z
loop_
_atom_site_type_symbol
_atom_site_label
_atom_site_fract_x
_atom_site_fract_y
_atom_site_fract_z
Si Si1 0.697022 0.047153 0.481030
Si Si2 0.705513 0.876594 0.833928
Si Si3 0.208609 0.301353 0.989587
Si Si4 0.206638 0.206334 0.942963
Si Si5 0.201354 0.953958 0.439093
Si Si6 0.206354 0.125123 0.081296
Si Si7 0.695522 0.571473 0.713609
Si Si8 0.202497 0.664204 0.723751
O O1 0.500000 0.040160 0.452311
O O2 0.770823 0.081278 0.395984
O O3 0.708892 0.066675 0.600694
O O4 0.779963 0.001029 0.483653
O O5 0.500000 0.877183 0.846023
O O6 0.766441 0.834606 0.897849
O O7 0.745726 0.876008 0.707276
O O8 0.267244 0.253200 0.974086
O O9 0.000000 0.300721 0.986827
O O10 0.258287 0.318253 0.107617
O O11 0.261933 0.195910 0.821270
O O12 0.000000 0.206352 0.947299
O O13 0.266051 0.168047 0.021079
O O14 0.269684 0.916649 0.516449
O O15 0.272242 0.952727 0.316728
O O16 0.000000 0.944810 0.426070
O O17 0.000000 0.124939 0.076886
O O18 0.500000 0.557920 0.693760
O O19 0.702070 0.620509 0.747250
O O20 0.000000 0.655391 0.718647
#
# Coordination Sequence:
#
# PCOD9352526 Si02
#       8
#     8   8   8   8   8   8   8   8
#     4  11  24  41  62  90 122 155 197 247 302 355
#     4  10  22  41  59  84 121 158 194 241 298 354
#     4   9  20  39  61  84 120 159 191 241 302 353
#     4  10  21  40  62  86 119 160 199 243 301 356
#     4  10  23  42  61  86 119 156 199 244 295 350
#     4  10  22  40  60  85 119 157 198 243 290 351
#     4  11  22  41  66  89 118 158 202 248 298 358
#     4  11  21  38  63  90 120 155 200 253 302 351
#
# _framework density 20.989730999999999
#
# number of rings (size 3 to 8) (size 9 to 14) (size 15 to 20)
#    0.000    1.750    2.500    1.125    3.500    3.000 
#    0.000    1.250    0.000    0.000    0.000    0.000 
#    0.000    0.000    0.000    0.000    0.000    0.000 
#
# Total GULP energy -178752.258041 kJ/mol
# GULP energy per Si atom -5586.008064 kJ/mol
# Density = 2.094196 g / cm^3
# Si number density = 20.989731 Si / 1000 Ang^3
#
#
#
# Elastic Constant Matrix: (Units=GPa)
#
#
# Indices 1 2 3 4 5 6 
#
# 1 28.4312 11.0873 6.0770 0.0000 0.0000 0.0000
# 2 11.0873 122.4596 38.4546 0.0000 0.0000 0.0000
# 3 6.0770 38.4546 116.5974 0.0000 0.0000 0.0000
# 4 0.0000 0.0000 0.0000 31.9142 0.0000 0.0000
# 5 0.0000 0.0000 0.0000 0.0000 32.9014 0.0000
# 6 0.0000 0.0000 0.0000 0.0000 0.0000 22.7162
#
#
#
# Elastic Compliance Matrix: (Units=1/GPa)
#
#
# Indices 1 2 3 4 5 6 
#
# 1 0.036546 -0.003024 -0.000907 0.000000 0.000000 0.000000
# 2 -0.003024 0.009360 -0.002929 0.000000 0.000000 0.000000
# 3 -0.000907 -0.002929 0.009590 0.000000 0.000000 0.000000
# 4 0.000000 0.000000 0.000000 0.031334 0.000000 0.000000
# 5 0.000000 0.000000 0.000000 0.000000 0.030394 0.000000
# 6 0.000000 0.000000 0.000000 0.000000 0.000000 0.044021
#
#
# Mechanical properties :
#
#
# Convention : Reuss Voigt Hill
#
# Bulk Modulus (GPa) = 23.93823 42.08064 33.00943
# Shear Modulus (GPa) = 26.47038 31.63097 29.05068
#
# Velocity S-wave (km/s) = 3.55506 3.88619 3.72431
# Velocity P-wave (km/s) = 5.31797 6.34258 5.85274
#
# Compressibility (1/GPa) = 0.04177419
#
# Stress axis : x y z
#
# Youngs Moduli (GPa) = 27.36293 106.84252 104.27635
#
# Poissons Ratio (x) = 0.32307 0.09463
# Poissons Ratio (y) = 0.08274 0.30545
# Poissons Ratio (z) = 0.02483 0.31297
#
# Static dielectric constant tensor:
#      x y z
#    x 1.757210 0.000000 0.000000 
#    y 0.000000 1.732640 0.000000 
#    z 0.000000 0.000000 1.713100 
# 
# From -- ./inp_files/7099.got.cif
#   From: 2010.05.17/outbox.cif.g08.bks.cpg/sg36_4_cif.got.tgz:7099.got - 2010.06.03 17:41:39.
