data_PCOD9352653
_publ_section_title
;
Structure prediction by ZEFSAII (Michael W. Deem and Ramdas Pophale) SiO2 
 PCOD9352653
Probable space group: C M C 21
;
_chemical_formula_sum "Si O2"
_cell_formula_units_Z 48
_cell_length_a 8.322263
_cell_length_b 24.706226
_cell_length_c 12.305598
_cell_angle_alpha 90.000000
_cell_angle_beta 90.000000
_cell_angle_gamma 90.000000
_cell_volume 2530.175054
_symmetry_space_group_name_H-M "C M C 21"
_symmetry_group_IT_number 36
_symmetry_cell_setting 'orthorhombic'
loop_
_space_group_symop_operation_xyz
x,y,z
-x,-y,1/2+z
x,-y,1/2+z
-x,y,z
1/2+x,1/2+y,z
1/2-x,1/2-y,1/2+z
1/2+x,1/2-y,1/2+z
1/2-x,1/2+y,z
loop_
_atom_site_type_symbol
_atom_site_label
_atom_site_fract_x
_atom_site_fract_y
_atom_site_fract_z
Si Si1 0.308302 0.080731 0.921480
Si Si2 0.193870 0.039175 0.475700
Si Si3 0.304099 0.710335 0.541463
Si Si4 0.306094 0.831046 0.595001
Si Si5 0.194178 0.858790 0.835430
Si Si6 0.694051 0.608371 0.681035
O O1 0.500000 0.081905 0.925086
O O2 0.254668 0.096262 0.800577
O O3 0.252938 0.020604 0.951903
O O4 0.246388 0.124568 0.008765
O O5 0.244559 0.083121 0.384867
O O6 0.245486 0.063417 0.592301
O O7 0.000000 0.038656 0.475499
O O8 0.500000 0.710773 0.541853
O O9 0.247323 0.770744 0.565412
O O10 0.255595 0.686136 0.424555
O O11 0.254444 0.666481 0.632319
O O12 0.500000 0.829906 0.588862
O O13 0.258777 0.846959 0.716655
O O14 0.000000 0.858520 0.831588
O O15 0.500000 0.608020 0.682849
#
# Coordination Sequence:
#
# PCOD9352653 Si02
#       6
#     8   8   8   8   8   8
#     4  11  24  36  53  84 119 148 175 220 281 335
#     4   9  20  39  60  81 106 143 190 234 271 314
#     4   8  17  37  60  80 109 145 181 225 275 321
#     4  10  22  37  54  82 118 148 174 218 278 332
#     4   9  19  37  61  83 104 141 189 231 269 316
#     4   9  19  38  62  82 104 143 191 232 268 316
#
# _framework density 18.971018999999998
#
# number of rings (size 3 to 8) (size 9 to 14) (size 15 to 20)
#    0.000    2.667    0.000    2.500    4.667    2.667 
#    0.000    3.333    0.000    0.000    0.000    0.000 
#    0.000    0.000    0.000    0.000    0.000    0.000 
#
# Total GULP energy -133929.412063 kJ/mol
# GULP energy per Si atom -5580.392169 kJ/mol
# Density = 1.892784 g / cm^3
# Si number density = 18.971019 Si / 1000 Ang^3
#
#
#
# Elastic Constant Matrix: (Units=GPa)
#
#
# Indices 1 2 3 4 5 6 
#
# 1 7.9300 25.0573 18.2440 0.0000 0.0000 0.0000
# 2 25.0573 212.1421 142.3092 0.0000 0.0000 0.0000
# 3 18.2440 142.3092 196.7090 0.0000 0.0000 0.0000
# 4 0.0000 0.0000 0.0000 15.9787 0.0000 0.0000
# 5 0.0000 0.0000 0.0000 0.0000 23.2998 0.0000
# 6 0.0000 0.0000 0.0000 0.0000 0.0000 20.0498
#
#
#
# Elastic Compliance Matrix: (Units=1/GPa)
#
#
# Indices 1 2 3 4 5 6 
#
# 1 0.202022 -0.021941 -0.002863 0.000000 0.000000 0.000000
# 2 -0.021941 0.011541 -0.006315 0.000000 0.000000 0.000000
# 3 -0.002863 -0.006315 0.009918 0.000000 0.000000 0.000000
# 4 0.000000 0.000000 0.000000 0.062583 0.000000 0.000000
# 5 0.000000 0.000000 0.000000 0.000000 0.042919 0.000000
# 6 0.000000 0.000000 0.000000 0.000000 0.000000 0.049876
#
#
# Mechanical properties :
#
#
# Convention : Reuss Voigt Hill
#
# Bulk Modulus (GPa) = 6.20184 87.55579 46.87882
# Shear Modulus (GPa) = 10.10417 27.27702 18.69059
#
# Velocity S-wave (km/s) = 2.31034 3.79598 3.14222
# Velocity P-wave (km/s) = 3.22383 8.09106 6.15867
#
# Compressibility (1/GPa) = 0.16124247
#
# Stress axis : x y z
#
# Youngs Moduli (GPa) = 4.94996 86.64428 100.83079
#
# Poissons Ratio (x) = 1.90107 0.28873
# Poissons Ratio (y) = 0.10861 0.63672
# Poissons Ratio (z) = 0.01417 0.54713
#
# Static dielectric constant tensor:
#      x y z
#    x 1.664050 0.000000 0.000000 
#    y 0.000000 1.655030 0.000000 
#    z 0.000000 0.000000 1.627710 
# 
# From -- ./inp_files/6703.got.cif
#   From: 2010.05.17/outbox.cif.g08.bks.cpg/sg36_4_cif.got.tgz:6703.got - 2010.06.03 17:41:39.
