data_PCOD9352500
_publ_section_title
;
Structure prediction by ZEFSAII (Michael W. Deem and Ramdas Pophale) SiO2 
 PCOD9352500
Probable space group: C M C 21
;
_chemical_formula_sum "Si O2"
_cell_formula_units_Z 32
_cell_length_a 15.792158
_cell_length_b 9.524834
_cell_length_c 9.411658
_cell_angle_alpha 90.000000
_cell_angle_beta 90.000000
_cell_angle_gamma 90.000000
_cell_volume 1415.679794
_symmetry_space_group_name_H-M "C M C 21"
_symmetry_group_IT_number 36
_symmetry_cell_setting 'orthorhombic'
loop_
_space_group_symop_operation_xyz
x,y,z
-x,-y,1/2+z
x,-y,1/2+z
-x,y,z
1/2+x,1/2+y,z
1/2-x,1/2-y,1/2+z
1/2+x,1/2-y,1/2+z
1/2-x,1/2+y,z
loop_
_atom_site_type_symbol
_atom_site_label
_atom_site_fract_x
_atom_site_fract_y
_atom_site_fract_z
Si Si1 0.777513 0.397139 0.723680
Si Si2 0.904295 0.053728 0.329262
Si Si3 0.596032 0.145037 0.732181
Si Si4 0.681538 0.311043 0.476776
O O1 0.683518 0.461684 0.743485
O O2 0.844963 0.514153 0.761942
O O3 0.768131 0.350412 0.560359
O O4 0.795322 0.269702 0.831739
O O5 0.904748 0.223474 0.342037
O O6 0.000000 0.019752 0.276966
O O7 0.880807 0.943698 0.452017
O O8 0.500000 0.098204 0.714563
O O9 0.632179 0.208950 0.584992
#
# Coordination Sequence:
#
# PCOD9352500 Si02
#       4
#     8   8   8   8
#     4  11  24  44  68  98 137 177 226 281 340 409
#     4  10  21  39  64  94 130 172 219 274 336 399
#     4  10  23  42  67 101 137 176 226 283 343 406
#     4  11  23  43  66  97 136 181 224 280 342 406
#
# _framework density 22.603981000000001
#
# number of rings (size 3 to 8) (size 9 to 14) (size 15 to 20)
#    0.000    1.500    0.000    5.250    0.000    5.000 
#    0.000    3.750    0.000    0.000    0.000    0.000 
#    0.000    0.000    0.000    0.000    0.000    0.000 
#
# Total GULP energy -89110.156436 kJ/mol
# GULP energy per Si atom -5569.384777 kJ/mol
# Density = 2.255253 g / cm^3
# Si number density = 22.603981 Si / 1000 Ang^3
#
#
#
# Elastic Constant Matrix: (Units=GPa)
#
#
# Indices 1 2 3 4 5 6 
#
# 1 140.1794 62.3583 39.5880 0.0000 0.0000 0.0000
# 2 62.3583 141.8295 67.3326 0.0000 0.0000 0.0000
# 3 39.5880 67.3326 60.0007 0.0000 0.0000 0.0000
# 4 0.0000 0.0000 0.0000 31.1710 0.0000 0.0000
# 5 0.0000 0.0000 0.0000 0.0000 26.1208 0.0000
# 6 0.0000 0.0000 0.0000 0.0000 0.0000 32.1943
#
#
#
# Elastic Compliance Matrix: (Units=1/GPa)
#
#
# Indices 1 2 3 4 5 6 
#
# 1 0.009157 -0.002478 -0.003261 0.000000 0.000000 0.000000
# 2 -0.002478 0.015761 -0.016052 0.000000 0.000000 0.000000
# 3 -0.003261 -0.016052 0.036831 0.000000 0.000000 0.000000
# 4 0.000000 0.000000 0.000000 0.032081 0.000000 0.000000
# 5 0.000000 0.000000 0.000000 0.000000 0.038284 0.000000
# 6 0.000000 0.000000 0.000000 0.000000 0.000000 0.031061
#
#
# Mechanical properties :
#
#
# Convention : Reuss Voigt Hill
#
# Bulk Modulus (GPa) = 55.04281 75.61860 65.33070
# Shear Modulus (GPa) = 23.49497 29.41260 26.45379
#
# Velocity S-wave (km/s) = 3.22750 3.61115 3.42470
# Velocity P-wave (km/s) = 6.18812 7.13537 6.67856
#
# Compressibility (1/GPa) = 0.01816768
#
# Stress axis : x y z
#
# Youngs Moduli (GPa) = 109.20688 63.44951 27.15102
#
# Poissons Ratio (x) = 0.15722 0.08854
# Poissons Ratio (y) = 0.27061 0.43582
# Poissons Ratio (z) = 0.35612 1.01846
#
# Static dielectric constant tensor:
#      x y z
#    x 1.829150 0.000000 0.000000 
#    y 0.000000 1.889470 0.000000 
#    z 0.000000 0.000000 2.013090 
# 
# From -- ./inp_files/8186.got.cif
#   From: 2010.05.17/outbox.cif.g08.bks.cpg/sg36_5_cif.got.tgz:8186.got - 2010.06.03 17:41:39.
