data_PCOD9352499
_publ_section_title
;
Structure prediction by ZEFSAII (Michael W. Deem and Ramdas Pophale) SiO2 
 PCOD9352499
Probable space group: C M C 21
;
_chemical_formula_sum "Si O2"
_cell_formula_units_Z 40
_cell_length_a 11.998358
_cell_length_b 17.821367
_cell_length_c 8.414723
_cell_angle_alpha 90.000000
_cell_angle_beta 90.000000
_cell_angle_gamma 90.000000
_cell_volume 1799.296164
_symmetry_space_group_name_H-M "C M C 21"
_symmetry_group_IT_number 36
_symmetry_cell_setting 'orthorhombic'
loop_
_space_group_symop_operation_xyz
x,y,z
-x,-y,1/2+z
x,-y,1/2+z
-x,y,z
1/2+x,1/2+y,z
1/2-x,1/2-y,1/2+z
1/2+x,1/2-y,1/2+z
1/2-x,1/2+y,z
loop_
_atom_site_type_symbol
_atom_site_label
_atom_site_fract_x
_atom_site_fract_y
_atom_site_fract_z
Si Si1 0.868016 0.539089 0.485790
Si Si2 0.369522 0.891637 0.318896
Si Si3 0.802752 0.199298 0.978063
Si Si4 0.500000 0.585650 0.476563
Si Si5 0.000000 0.910174 0.358017
Si Si6 0.229359 0.154812 0.340455
O O1 0.850540 0.451432 0.459355
O O2 0.829369 0.571845 0.654192
O O3 0.801370 0.579330 0.346805
O O4 0.000000 0.551887 0.469723
O O5 0.500000 0.878064 0.301721
O O6 0.306456 0.819168 0.374832
O O7 0.808579 0.287581 0.940399
O O8 0.895699 0.140819 0.916356
O O9 0.787003 0.184312 0.163146
O O10 0.500000 0.497019 0.421156
O O11 0.500000 0.585795 0.667469
O O12 0.609969 0.630296 0.414779
#
# Coordination Sequence:
#
# PCOD9352499 Si02
#       6
#     8   8   8   4   4   8
#     4  10  21  39  64  94 129 169 216 266 323 390
#     4  10  21  39  64  94 129 169 216 266 323 390
#     4  12  26  44  67  97 135 176 223 277 338 401
#     4  12  26  48  74 102 137 182 233 284 344 412
#     4  12  26  48  74 102 137 182 233 284 344 412
#     4  12  26  44  67  97 135 176 223 277 338 401
#
# _framework density 22.230915
#
# number of rings (size 3 to 8) (size 9 to 14) (size 15 to 20)
#    0.000    0.800    0.000    7.800    2.800    2.400 
#    0.000    0.000    0.000    0.000    0.000    0.000 
#    0.000    0.000    0.000    0.000    0.000    0.000 
#
# Total GULP energy -111743.356972 kJ/mol
# GULP energy per Si atom -5587.167849 kJ/mol
# Density = 2.218032 g / cm^3
# Si number density = 22.230915 Si / 1000 Ang^3
#
#
#
# Elastic Constant Matrix: (Units=GPa)
#
#
# Indices 1 2 3 4 5 6 
#
# 1 -29.1569 63.8667 34.6462 0.0000 0.0000 0.0000
# 2 63.8667 40.4186 28.1195 0.0000 0.0000 0.0000
# 3 34.6462 28.1195 151.0822 0.0000 0.0000 0.0000
# 4 0.0000 0.0000 0.0000 34.9700 0.0000 0.0000
# 5 0.0000 0.0000 0.0000 0.0000 28.6740 0.0000
# 6 0.0000 0.0000 0.0000 0.0000 0.0000 30.5190
#
#
#
# Elastic Compliance Matrix: (Units=1/GPa)
#
#
# Indices 1 2 3 4 5 6 
#
# 1 -0.007645 0.012476 -0.000569 0.000000 0.000000 0.000000
# 2 0.012476 0.008062 -0.004361 0.000000 0.000000 0.000000
# 3 -0.000569 -0.004361 0.007561 0.000000 0.000000 0.000000
# 4 0.000000 0.000000 0.000000 0.028596 0.000000 0.000000
# 5 0.000000 0.000000 0.000000 0.000000 0.034875 0.000000
# 6 0.000000 0.000000 0.000000 0.000000 0.000000 0.032766
#
#
# Mechanical properties :
#
#
# Convention : Reuss Voigt Hill
#
# Bulk Modulus (GPa) = 43.34806 46.17873 44.76340
# Shear Modulus (GPa) = 51.64589 21.21337 36.42963
#
# Velocity S-wave (km/s) = 4.82514 3.09241 4.05247
# Velocity P-wave (km/s) = 7.11224 5.79380 6.48660
#
# Compressibility (1/GPa) = 0.02306908
#
# Stress axis : x y z
#
# Youngs Moduli (GPa) = -130.80286 124.04438 132.25555
#
# Poissons Ratio (x) = -1.54758 0.07524
# Poissons Ratio (y) = 1.63190 0.57682
# Poissons Ratio (z) = -0.07441 0.54101
#
# Static dielectric constant tensor:
#      x y z
#    x 1.817720 0.000000 0.000000 
#    y 0.000000 1.801770 0.000000 
#    z 0.000000 0.000000 1.783160 
# 
# From -- ./inp_files/3088.got.cif
#   From: 2010.05.17/outbox.cif.g08.bks.cpg/sg36_2_cif.got.tgz:3088.got - 2010.06.03 17:41:39.
