data_PCOD9352436
_publ_section_title
;
Structure prediction by ZEFSAII (Michael W. Deem and Ramdas Pophale) SiO2 
 PCOD9352436
Probable space group: C M C 21
;
_chemical_formula_sum "Si O2"
_cell_formula_units_Z 40
_cell_length_a 22.400672
_cell_length_b 5.595208
_cell_length_c 13.304460
_cell_angle_alpha 90.000000
_cell_angle_beta 90.000000
_cell_angle_gamma 90.000000
_cell_volume 1667.533376
_symmetry_space_group_name_H-M "C M C 21"
_symmetry_group_IT_number 36
_symmetry_cell_setting 'orthorhombic'
loop_
_space_group_symop_operation_xyz
x,y,z
-x,-y,1/2+z
x,-y,1/2+z
-x,y,z
1/2+x,1/2+y,z
1/2-x,1/2-y,1/2+z
1/2+x,1/2-y,1/2+z
1/2-x,1/2+y,z
loop_
_atom_site_type_symbol
_atom_site_label
_atom_site_fract_x
_atom_site_fract_y
_atom_site_fract_z
Si Si1 0.340823 0.805352 0.331760
Si Si2 0.064683 0.062465 0.796280
Si Si3 0.627292 0.907871 0.659774
Si Si4 0.281998 0.651209 0.525735
Si Si5 0.069068 0.603250 0.473656
O O1 0.379925 0.604926 0.278842
O O2 0.293921 0.684446 0.406086
O O3 0.326176 0.985948 0.241596
O O4 0.387219 0.940903 0.405926
O O5 0.074646 0.288972 0.724545
O O6 0.068192 0.149383 0.912196
O O7 0.000000 0.952440 0.778191
O O8 0.660058 0.713160 0.591003
O O9 0.598525 0.097271 0.582904
O O10 0.260144 0.382969 0.546967
O O11 0.000000 0.519693 0.476978
#
# Coordination Sequence:
#
# PCOD9352436 Si02
#       5
#     8   8   8   8   8
#     4  10  23  40  65  92 135 170 224 281 340 405
#     4  10  21  38  65  98 136 178 219 272 345 413
#     4  10  23  40  65  96 131 170 228 284 339 406
#     4  11  28  47  71  97 132 178 230 284 345 395
#     4   9  19  37  59  91 133 174 213 267 335 411
#
# _framework density 23.987525000000002
#
# number of rings (size 3 to 8) (size 9 to 14) (size 15 to 20)
#    0.000    2.000    0.000    1.200   11.200    5.600 
#    0.000    4.000    0.000    0.000    0.000    0.000 
#    0.000    0.000    0.000    0.000    0.000    0.000 
#
# Total GULP energy -111650.819641 kJ/mol
# GULP energy per Si atom -5582.540982 kJ/mol
# Density = 2.393293 g / cm^3
# Si number density = 23.987525 Si / 1000 Ang^3
#
#
#
# Elastic Constant Matrix: (Units=GPa)
#
#
# Indices 1 2 3 4 5 6 
#
# 1 23.6817 1.3354 8.0655 0.0000 0.0000 0.0000
# 2 1.3354 40.3470 10.3180 0.0000 0.0000 0.0000
# 3 8.0655 10.3180 127.9605 0.0000 0.0000 0.0000
# 4 0.0000 0.0000 0.0000 17.3634 0.0000 0.0000
# 5 0.0000 0.0000 0.0000 0.0000 18.0463 0.0000
# 6 0.0000 0.0000 0.0000 0.0000 0.0000 1630.2571
#
#
#
# Elastic Compliance Matrix: (Units=1/GPa)
#
#
# Indices 1 2 3 4 5 6 
#
# 1 0.043175 -0.000748 -0.002661 0.000000 0.000000 0.000000
# 2 -0.000748 0.025320 -0.001994 0.000000 0.000000 0.000000
# 3 -0.002661 -0.001994 0.008143 0.000000 0.000000 0.000000
# 4 0.000000 0.000000 0.000000 0.057592 0.000000 0.000000
# 5 0.000000 0.000000 0.000000 0.000000 0.055413 0.000000
# 6 0.000000 0.000000 0.000000 0.000000 0.000000 0.000613
#
#
# Mechanical properties :
#
#
# Convention : Reuss Voigt Hill
#
# Bulk Modulus (GPa) = 15.19052 25.71410 20.45231
# Shear Modulus (GPa) = 22.42063 344.61804 183.51934
#
# Velocity S-wave (km/s) = 3.06057 11.99906 8.75627
# Velocity P-wave (km/s) = 4.34003 14.23773 10.52494
#
# Compressibility (1/GPa) = 0.06583051
#
# Stress axis : x y z
#
# Youngs Moduli (GPa) = 23.16142 39.49480 122.79788
#
# Poissons Ratio (x) = 0.02956 0.32677
# Poissons Ratio (y) = 0.01734 0.24492
# Poissons Ratio (z) = 0.06163 0.07877
#
# Static dielectric constant tensor:
#      x y z
#    x 1.933510 0.000000 0.000000 
#    y 0.000000 1.993740 0.000000 
#    z 0.000000 0.000000 1.899430 
# 
# From -- ./inp_files/9544.got.cif
#   From: 2010.05.17/outbox.cif.g08.bks.cpg/sg36_5_cif.got.tgz:9544.got - 2010.06.03 17:41:39.
