data_PCOD9352670
_publ_section_title
;
Structure prediction by ZEFSAII (Michael W. Deem and Ramdas Pophale) SiO2 
 PCOD9352670
Probable space group: C M C 21
;
_chemical_formula_sum "Si O2"
_cell_formula_units_Z 40
_cell_length_a 7.700776
_cell_length_b 28.349233
_cell_length_c 8.327144
_cell_angle_alpha 90.000000
_cell_angle_beta 90.000000
_cell_angle_gamma 90.000000
_cell_volume 1817.907909
_symmetry_space_group_name_H-M "C M C 21"
_symmetry_group_IT_number 36
_symmetry_cell_setting 'orthorhombic'
loop_
_space_group_symop_operation_xyz
x,y,z
-x,-y,1/2+z
x,-y,1/2+z
-x,y,z
1/2+x,1/2+y,z
1/2-x,1/2-y,1/2+z
1/2+x,1/2-y,1/2+z
1/2-x,1/2+y,z
loop_
_atom_site_type_symbol
_atom_site_label
_atom_site_fract_x
_atom_site_fract_y
_atom_site_fract_z
Si Si1 0.000000 0.028647 0.628260
Si Si2 0.194849 0.588538 0.486219
Si Si3 0.202827 0.181999 0.633959
Si Si4 0.794606 0.630459 0.134305
Si Si5 0.500000 0.570132 0.985250
Si Si6 0.291139 0.775501 0.474728
O O1 0.167784 0.049917 0.539595
O O2 0.000000 0.047357 0.809705
O O3 0.000000 0.972618 0.612250
O O4 0.203718 0.632673 0.608023
O O5 0.237414 0.611257 0.312997
O O6 0.000000 0.569265 0.480056
O O7 0.218811 0.203045 0.811476
O O8 0.272934 0.223610 0.519514
O O9 0.000000 0.173247 0.598415
O O10 0.000000 0.624241 0.098555
O O11 0.669461 0.601823 0.016035
O O12 0.753712 0.685859 0.112674
O O13 0.500000 0.772391 0.460597
#
# Coordination Sequence:
#
# PCOD9352670 Si02
#       6
#     4   8   8   8   4   8
#     4  12  26  46  68 102 128 170 222 266 337 390
#     4  11  23  43  68  94 133 172 214 271 326 390
#     4  11  22  37  59  91 129 172 222 268 320 384
#     4  10  23  43  66  95 130 172 216 266 330 389
#     4  12  26  44  72  96 132 168 216 280 321 396
#     4  10  22  38  57  88 129 172 221 267 321 388
#
# _framework density 22.003316000000002
#
# number of rings (size 3 to 8) (size 9 to 14) (size 15 to 20)
#    0.000    1.200    1.000    4.800    1.400    6.400 
#    0.000    0.000    0.000    0.000    0.000    0.000 
#    0.000    0.000    0.000    0.000    0.000    0.000 
#
# Total GULP energy -111961.650647 kJ/mol
# GULP energy per Si atom -5598.082532 kJ/mol
# Density = 2.195324 g / cm^3
# Si number density = 22.003316 Si / 1000 Ang^3
#
#
#
# Elastic Constant Matrix: (Units=GPa)
#
#
# Indices 1 2 3 4 5 6 
#
# 1 59.3334 17.4752 3.3948 0.0000 0.0000 0.0000
# 2 17.4752 72.6223 -20.1087 0.0000 0.0000 0.0000
# 3 3.3948 -20.1087 57.3578 0.0000 0.0000 0.0000
# 4 0.0000 0.0000 0.0000 40.6606 0.0000 0.0000
# 5 0.0000 0.0000 0.0000 0.0000 17.7239 0.0000
# 6 0.0000 0.0000 0.0000 0.0000 0.0000 2.2096
#
#
#
# Elastic Compliance Matrix: (Units=1/GPa)
#
#
# Indices 1 2 3 4 5 6 
#
# 1 0.018581 -0.005289 -0.002954 0.000000 0.000000 0.000000
# 2 -0.005289 0.016756 0.006187 0.000000 0.000000 0.000000
# 3 -0.002954 0.006187 0.019778 0.000000 0.000000 0.000000
# 4 0.000000 0.000000 0.000000 0.024594 0.000000 0.000000
# 5 0.000000 0.000000 0.000000 0.000000 0.056421 0.000000
# 6 0.000000 0.000000 0.000000 0.000000 0.000000 0.452569
#
#
# Mechanical properties :
#
#
# Convention : Reuss Voigt Hill
#
# Bulk Modulus (GPa) = 19.60642 21.20399 20.40521
# Shear Modulus (GPa) = 8.19926 24.68897 16.44412
#
# Velocity S-wave (km/s) = 1.93248 3.35335 2.73673
# Velocity P-wave (km/s) = 3.72952 4.96497 4.39091
#
# Compressibility (1/GPa) = 0.05100370
#
# Stress axis : x y z
#
# Youngs Moduli (GPa) = 53.81938 59.68078 50.56006
#
# Poissons Ratio (x) = 0.31565 0.14935
# Poissons Ratio (y) = 0.28465 -0.31283
# Poissons Ratio (z) = 0.15898 -0.36927
#
# Static dielectric constant tensor:
#      x y z
#    x 1.804110 0.000000 0.000000 
#    y 0.000000 1.759540 0.000000 
#    z 0.000000 0.000000 1.819220 
# 
# From -- ./inp_files/2537.got.cif
#   From: 2010.05.17/outbox.cif.g08.bks.cpg/sg36_2_cif.got.tgz:2537.got - 2010.06.03 17:41:39.
