data_PCOD9352990
_publ_section_title
;
Structure prediction by ZEFSAII (Michael W. Deem and Ramdas Pophale) SiO2 
 PCOD9352990
Probable space group: C M C 21
;
_chemical_formula_sum "Si O2"
_cell_formula_units_Z 40
_cell_length_a 14.006580
_cell_length_b 9.491832
_cell_length_c 11.582790
_cell_angle_alpha 90.000000
_cell_angle_beta 90.000000
_cell_angle_gamma 90.000000
_cell_volume 1539.909972
_symmetry_space_group_name_H-M "C M C 21"
_symmetry_group_IT_number 36
_symmetry_cell_setting 'orthorhombic'
loop_
_space_group_symop_operation_xyz
x,y,z
-x,-y,1/2+z
x,-y,1/2+z
-x,y,z
1/2+x,1/2+y,z
1/2-x,1/2-y,1/2+z
1/2+x,1/2-y,1/2+z
1/2-x,1/2+y,z
loop_
_atom_site_type_symbol
_atom_site_label
_atom_site_fract_x
_atom_site_fract_y
_atom_site_fract_z
Si Si1 0.823515 0.875964 0.156470
Si Si2 0.205657 0.455492 0.478558
Si Si3 0.787469 0.805170 0.832986
Si Si4 0.000000 0.831686 0.323537
Si Si5 0.000000 0.501640 0.387054
Si Si6 0.000000 0.775944 0.755061
Si Si7 0.000000 0.989825 0.050481
O O1 0.756715 0.758189 0.215103
O O2 0.904398 0.876835 0.257150
O O3 0.749409 0.985760 0.097088
O O4 0.906736 0.891186 0.058787
O O5 0.234425 0.298131 0.441938
O O6 0.243107 0.548334 0.370572
O O7 0.092279 0.471166 0.466068
O O8 0.899582 0.811980 0.812785
O O9 0.000000 0.663984 0.346062
O O10 0.000000 0.921125 0.436877
O O11 0.000000 0.395830 0.275558
O O12 0.000000 0.878515 0.642995
#
# Coordination Sequence:
#
# PCOD9352990 Si02
#       7
#     8   8   8   4   4   4   4
#     4  11  25  42  76 107 141 197 252 308 380 448
#     4  11  25  45  72 104 150 199 246 313 375 450
#     4  11  24  45  70 108 151 193 258 306 376 463
#     4  11  23  47  74 108 150 187 262 314 373 451
#     4  10  23  48  71 107 151 192 241 322 383 457
#     4  10  25  43  70 107 150 196 239 311 390 445
#     4  11  25  46  77 110 143 201 254 323 374 453
#
# _framework density 25.975542999999998
#
# number of rings (size 3 to 8) (size 9 to 14) (size 15 to 20)
#    0.000    1.200    2.000    2.400    2.800    4.800 
#    0.000    0.000    0.000    0.000    0.000    0.000 
#    0.000    0.000    0.000    0.000    0.000    0.000 
#
# Total GULP energy -111620.635845 kJ/mol
# GULP energy per Si atom -5581.031792 kJ/mol
# Density = 2.591642 g / cm^3
# Si number density = 25.975543 Si / 1000 Ang^3
#
#
#
# Elastic Constant Matrix: (Units=GPa)
#
#
# Indices 1 2 3 4 5 6 
#
# 1 192.5401 34.7924 51.8740 0.0000 0.0000 0.0000
# 2 34.7924 153.6200 49.8610 0.0000 0.0000 0.0000
# 3 51.8740 49.8610 134.1197 0.0000 0.0000 0.0000
# 4 0.0000 0.0000 0.0000 52.3815 0.0000 0.0000
# 5 0.0000 0.0000 0.0000 0.0000 29.2385 0.0000
# 6 0.0000 0.0000 0.0000 0.0000 0.0000 17.7225
#
#
#
# Elastic Compliance Matrix: (Units=1/GPa)
#
#
# Indices 1 2 3 4 5 6 
#
# 1 0.005858 -0.000673 -0.002016 0.000000 0.000000 0.000000
# 2 -0.000673 0.007480 -0.002521 0.000000 0.000000 0.000000
# 3 -0.002016 -0.002521 0.009173 0.000000 0.000000 0.000000
# 4 0.000000 0.000000 0.000000 0.019091 0.000000 0.000000
# 5 0.000000 0.000000 0.000000 0.000000 0.034202 0.000000
# 6 0.000000 0.000000 0.000000 0.000000 0.000000 0.056425
#
#
# Mechanical properties :
#
#
# Convention : Reuss Voigt Hill
#
# Bulk Modulus (GPa) = 82.69201 83.70385 83.19793
# Shear Modulus (GPa) = 34.08828 42.78531 38.43679
#
# Velocity S-wave (km/s) = 3.62653 4.06290 3.85090
# Velocity P-wave (km/s) = 7.03131 7.36910 7.20218
#
# Compressibility (1/GPa) = 0.01209307
#
# Stress axis : x y z
#
# Youngs Moduli (GPa) = 170.69634 133.68908 109.01787
#
# Poissons Ratio (x) = 0.08991 0.21976
# Poissons Ratio (y) = 0.11480 0.27480
# Poissons Ratio (z) = 0.34410 0.33699
#
# Static dielectric constant tensor:
#      x y z
#    x 1.979410 0.000000 0.000000 
#    y 0.000000 2.107360 0.000000 
#    z 0.000000 0.000000 2.151490 
# 
# From -- ./inp_files/8304.got.cif
#   From: 2010.05.17/outbox.cif.g08.bks.cpg/sg36_5_cif.got.tgz:8304.got - 2010.06.03 17:41:39.
