data_PCOD9352717
_publ_section_title
;
Structure prediction by ZEFSAII (Michael W. Deem and Ramdas Pophale) SiO2 
 PCOD9352717
Probable space group: C M C 21
;
_chemical_formula_sum "Si O2"
_cell_formula_units_Z 52
_cell_length_a 14.366738
_cell_length_b 22.218586
_cell_length_c 7.619356
_cell_angle_alpha 90.000000
_cell_angle_beta 90.000000
_cell_angle_gamma 90.000000
_cell_volume 2432.163991
_symmetry_space_group_name_H-M "C M C 21"
_symmetry_group_IT_number 36
_symmetry_cell_setting 'orthorhombic'
loop_
_space_group_symop_operation_xyz
x,y,z
-x,-y,1/2+z
x,-y,1/2+z
-x,y,z
1/2+x,1/2+y,z
1/2-x,1/2-y,1/2+z
1/2+x,1/2-y,1/2+z
1/2-x,1/2+y,z
loop_
_atom_site_type_symbol
_atom_site_label
_atom_site_fract_x
_atom_site_fract_y
_atom_site_fract_z
Si Si1 0.690988 0.694879 0.599270
Si Si2 0.000000 0.715777 0.792537
Si Si3 0.889201 0.085111 0.007292
Si Si4 0.000000 0.750578 0.197227
Si Si5 0.310782 0.083087 0.572052
Si Si6 0.716401 0.502214 0.284879
Si Si7 0.828116 0.203222 0.190740
Si Si8 0.000000 0.639230 0.480476
O O1 0.590926 0.705846 0.690334
O O2 0.762216 0.642530 0.654652
O O3 0.740381 0.759172 0.625421
O O4 0.682768 0.681470 0.391215
O O5 0.912347 0.750792 0.714052
O O6 0.000000 0.653792 0.690235
O O7 0.000000 0.718369 0.003469
O O8 0.852788 0.151043 0.055988
O O9 0.000000 0.084767 0.017897
O O10 0.840143 0.042543 0.149699
O O11 0.852400 0.052811 0.833377
O O12 0.000000 0.698751 0.350412
O O13 0.311108 0.031338 0.721373
O O14 0.403379 0.102888 0.467976
O O15 0.243340 0.048618 0.436696
#
# Coordination Sequence:
#
# PCOD9352717 Si02
#       8
#     8   4   8   4   8   8   8   4
#     4  11  23  41  64  97 133 174 211 284 345 415
#     4  10  22  40  60 102 134 168 216 269 351 409
#     4  11  22  41  67  95 132 178 228 281 341 419
#     4  10  26  40  64 106 138 174 222 268 357 426
#     4  11  24  46  68  95 133 180 233 290 341 411
#     4  10  25  43  62  95 134 181 232 285 341 400
#     4  11  22  38  65  93 132 167 214 272 346 407
#     4  12  24  46  74  98 136 182 236 285 340 423
#
# _framework density 21.380137999999999
#
# number of rings (size 3 to 8) (size 9 to 14) (size 15 to 20)
#    0.000    1.231    3.846    1.385    2.154    0.615 
#    9.692    0.000    0.000    0.000    0.000    0.000 
#    0.000    0.000    0.000    0.000    0.000    0.000 
#
# Total GULP energy -144920.546277 kJ/mol
# GULP energy per Si atom -5573.867164 kJ/mol
# Density = 2.133148 g / cm^3
# Si number density = 21.380138 Si / 1000 Ang^3
#
#
#
# Elastic Constant Matrix: (Units=GPa)
#
#
# Indices 1 2 3 4 5 6 
#
# 1 112.7955 47.1289 2.9683 0.0000 0.0000 0.0000
# 2 47.1289 96.5698 25.5494 0.0000 0.0000 0.0000
# 3 2.9683 25.5494 53.1010 0.0000 0.0000 0.0000
# 4 0.0000 0.0000 0.0000 -3.1876 0.0000 0.0000
# 5 0.0000 0.0000 0.0000 0.0000 20.7784 0.0000
# 6 0.0000 0.0000 0.0000 0.0000 0.0000 24.2882
#
#
#
# Elastic Compliance Matrix: (Units=1/GPa)
#
#
# Indices 1 2 3 4 5 6 
#
# 1 0.011383 -0.006173 0.002334 0.000000 0.000000 0.000000
# 2 -0.006173 0.015213 -0.006975 0.000000 0.000000 0.000000
# 3 0.002334 -0.006975 0.022057 0.000000 0.000000 0.000000
# 4 0.000000 0.000000 0.000000 -0.313712 0.000000 0.000000
# 5 0.000000 0.000000 0.000000 0.000000 0.048127 0.000000
# 6 0.000000 0.000000 0.000000 0.000000 0.000000 0.041172
#
#
# Mechanical properties :
#
#
# Convention : Reuss Voigt Hill
#
# Bulk Modulus (GPa) = 37.00103 45.97326 41.48714
# Shear Modulus (GPa) = -34.45368 20.83045 -6.81162
#
# Velocity S-wave (km/s) = -4.01868 3.12475 -1.78686
# Velocity P-wave (km/s) = 2.04676 5.87947 3.89737
#
# Compressibility (1/GPa) = 0.02702628
#
# Stress axis : x y z
#
# Youngs Moduli (GPa) = 87.84743 65.73321 45.33625
#
# Poissons Ratio (x) = 0.40576 -0.10580
# Poissons Ratio (y) = 0.54227 0.31620
# Poissons Ratio (z) = -0.20501 0.45847
#
# Static dielectric constant tensor:
#      x y z
#    x 1.794670 0.000000 0.000000 
#    y 0.000000 1.804240 0.000000 
#    z 0.000000 0.000000 1.903540 
# 
# From -- ./inp_files/4158.got.cif
#   From: 2010.05.17/outbox.cif.g08.bks.cpg/sg36_3_cif.got.tgz:4158.got - 2010.06.03 17:41:39.
