data_PCOD9352689
_publ_section_title
;
Structure prediction by ZEFSAII (Michael W. Deem and Ramdas Pophale) SiO2 
 PCOD9352689
Probable space group: C M C 21
;
_chemical_formula_sum "Si O2"
_cell_formula_units_Z 64
_cell_length_a 8.897806
_cell_length_b 29.744408
_cell_length_c 12.468538
_cell_angle_alpha 90.000000
_cell_angle_beta 90.000000
_cell_angle_gamma 90.000000
_cell_volume 3299.922918
_symmetry_space_group_name_H-M "C M C 21"
_symmetry_group_IT_number 36
_symmetry_cell_setting 'orthorhombic'
loop_
_space_group_symop_operation_xyz
x,y,z
-x,-y,1/2+z
x,-y,1/2+z
-x,y,z
1/2+x,1/2+y,z
1/2-x,1/2-y,1/2+z
1/2+x,1/2-y,1/2+z
1/2-x,1/2+y,z
loop_
_atom_site_type_symbol
_atom_site_label
_atom_site_fract_x
_atom_site_fract_y
_atom_site_fract_z
Si Si1 0.819905 0.567729 0.881620
Si Si2 0.321208 0.723209 0.157008
Si Si3 0.323690 0.177842 0.597066
Si Si4 0.182095 0.022691 0.446630
Si Si5 0.178981 0.635109 0.059756
Si Si6 0.320085 0.583307 0.652703
Si Si7 0.828090 0.084098 0.253722
Si Si8 0.330901 0.322503 0.880392
O O1 0.755282 0.526068 0.949254
O O2 0.750260 0.566156 0.763383
O O3 0.000000 0.565077 0.875740
O O4 0.779415 0.613500 0.945346
O O5 0.500000 0.721793 0.135129
O O6 0.268865 0.773949 0.139564
O O7 0.247057 0.683924 0.086237
O O8 0.300526 0.709769 0.280688
O O9 0.500000 0.172607 0.622262
O O10 0.235278 0.134316 0.637043
O O11 0.293369 0.180276 0.470409
O O12 0.224488 0.053647 0.548404
O O13 0.228275 0.045221 0.332791
O O14 0.000000 0.019865 0.445531
O O15 0.235315 0.600310 0.151375
O O16 0.000000 0.638380 0.065637
O O17 0.500000 0.581786 0.659220
O O18 0.834014 0.127725 0.330689
O O19 0.000000 0.073673 0.219989
O O20 0.500000 0.313554 0.923640
#
# Coordination Sequence:
#
# PCOD9352689 Si02
#       8
#     8   8   8   8   8   8   8   8
#     4  11  26  43  60  90 130 165 201 253 315 365
#     4   9  21  39  59  85 120 163 209 253 304 367
#     4  11  22  37  60  91 124 157 199 255 314 364
#     4  10  22  41  64  90 117 156 207 251 298 363
#     4  10  22  39  59  88 123 159 203 252 306 363
#     4  11  24  44  66  91 123 162 210 251 300 370
#     4   9  18  36  61  85 114 151 196 249 300 357
#     4   9  17  35  57  80 113 155 199 248 301 357
#
# _framework density 19.394393000000001
#
# number of rings (size 3 to 8) (size 9 to 14) (size 15 to 20)
#    0.000    2.000    1.250    2.250    1.750    7.500 
#    0.000    3.750    0.000    0.000    0.000    0.000 
#    0.000    0.000    0.000    0.000    0.000    0.000 
#
# Total GULP energy -178618.247327 kJ/mol
# GULP energy per Si atom -5581.820229 kJ/mol
# Density = 1.935025 g / cm^3
# Si number density = 19.394393 Si / 1000 Ang^3
#
#
#
# Elastic Constant Matrix: (Units=GPa)
#
#
# Indices 1 2 3 4 5 6 
#
# 1 30.4068 29.8616 23.5183 0.0000 0.0000 0.0000
# 2 29.8616 111.6560 44.6054 0.0000 0.0000 0.0000
# 3 23.5183 44.6054 54.8168 0.0000 0.0000 0.0000
# 4 0.0000 0.0000 0.0000 15.5334 0.0000 0.0000
# 5 0.0000 0.0000 0.0000 0.0000 25.6323 0.0000
# 6 0.0000 0.0000 0.0000 0.0000 0.0000 26.4774
#
#
#
# Elastic Compliance Matrix: (Units=1/GPa)
#
#
# Indices 1 2 3 4 5 6 
#
# 1 0.053219 -0.007573 -0.016670 0.000000 0.000000 0.000000
# 2 -0.007573 0.014347 -0.008425 0.000000 0.000000 0.000000
# 3 -0.016670 -0.008425 0.032251 0.000000 0.000000 0.000000
# 4 0.000000 0.000000 0.000000 0.064377 0.000000 0.000000
# 5 0.000000 0.000000 0.000000 0.000000 0.039013 0.000000
# 6 0.000000 0.000000 0.000000 0.000000 0.000000 0.037768
#
#
# Mechanical properties :
#
#
# Convention : Reuss Voigt Hill
#
# Bulk Modulus (GPa) = 29.00340 43.65002 36.32671
# Shear Modulus (GPa) = 15.73288 20.12158 17.92723
#
# Velocity S-wave (km/s) = 2.85126 3.22451 3.04361
# Velocity P-wave (km/s) = 5.08199 6.03479 5.57877
#
# Compressibility (1/GPa) = 0.03447872
#
# Stress axis : x y z
#
# Youngs Moduli (GPa) = 18.79045 69.69887 31.00722
#
# Poissons Ratio (x) = 0.52786 0.51689
# Poissons Ratio (y) = 0.14231 0.26125
# Poissons Ratio (z) = 0.31324 0.58725
#
# Static dielectric constant tensor:
#      x y z
#    x 1.657170 0.000000 0.000000 
#    y 0.000000 1.695620 0.000000 
#    z 0.000000 0.000000 1.683020 
# 
# From -- ./inp_files/7139.got.cif
#   From: 2010.05.17/outbox.cif.g08.bks.cpg/sg36_4_cif.got.tgz:7139.got - 2010.06.03 17:41:39.
