data_PCOD9352562
_publ_section_title
;
Structure prediction by ZEFSAII (Michael W. Deem and Ramdas Pophale) SiO2 
 PCOD9352562
Probable space group: C M C 21
;
_chemical_formula_sum "Si O2"
_cell_formula_units_Z 64
_cell_length_a 12.680566
_cell_length_b 15.604750
_cell_length_c 15.653593
_cell_angle_alpha 90.000000
_cell_angle_beta 90.000000
_cell_angle_gamma 90.000000
_cell_volume 3097.486997
_symmetry_space_group_name_H-M "C M C 21"
_symmetry_group_IT_number 36
_symmetry_cell_setting 'orthorhombic'
loop_
_space_group_symop_operation_xyz
x,y,z
-x,-y,1/2+z
x,-y,1/2+z
-x,y,z
1/2+x,1/2+y,z
1/2-x,1/2-y,1/2+z
1/2+x,1/2-y,1/2+z
1/2-x,1/2+y,z
loop_
_atom_site_type_symbol
_atom_site_label
_atom_site_fract_x
_atom_site_fract_y
_atom_site_fract_z
Si Si1 0.627384 0.690039 0.457770
Si Si2 0.317751 0.897968 0.206883
Si Si3 0.732525 0.028504 0.529463
Si Si4 0.252578 0.340003 0.785388
Si Si5 0.375907 0.329221 0.297245
Si Si6 0.113892 0.215435 0.141931
Si Si7 0.712588 0.659130 0.984717
Si Si8 0.617746 0.987798 0.853074
O O1 0.500000 0.687261 0.469956
O O2 0.690292 0.609952 0.504476
O O3 0.660170 0.681594 0.357641
O O4 0.680974 0.781949 0.483813
O O5 0.195209 0.879712 0.229188
O O6 0.371486 0.809768 0.179034
O O7 0.371315 0.927231 0.295624
O O8 0.318957 0.955621 0.121967
O O9 0.648097 0.015859 0.452430
O O10 0.785356 0.934975 0.526072
O O11 0.160640 0.269330 0.789626
O O12 0.299942 0.338405 0.692016
O O13 0.204018 0.429552 0.808308
O O14 0.500000 0.341033 0.288107
O O15 0.333529 0.354292 0.390691
O O16 0.000000 0.180122 0.161370
O O17 0.134228 0.215749 0.041693
O O18 0.500000 0.954712 0.842970
#
# Coordination Sequence:
#
# PCOD9352562 Si02
#       8
#     8   8   8   8   8   8   8   8
#     4  10  22  42  67  96 137 181 224 288 350 400
#     4  11  23  44  63  98 137 172 229 285 336 418
#     4  11  24  44  67  98 138 173 230 287 336 421
#     4   9  21  40  61  95 130 168 226 277 321 421
#     4  10  21  40  66  92 131 180 219 276 346 400
#     4  11  22  39  66  94 130 178 221 277 346 402
#     4  11  22  43  65  99 134 175 235 286 334 420
#     4  11  23  42  67  96 133 177 220 282 347 402
#
# _framework density 20.661911
#
# number of rings (size 3 to 8) (size 9 to 14) (size 15 to 20)
#    0.000    1.500    2.500    2.250    0.000    3.000 
#    0.000    3.750    0.000    0.000    0.000    0.000 
#    0.000    0.000    0.000    0.000    0.000    0.000 
#
# Total GULP energy -178409.312493 kJ/mol
# GULP energy per Si atom -5575.291015 kJ/mol
# Density = 2.061488 g / cm^3
# Si number density = 20.661911 Si / 1000 Ang^3
#
#
#
# Elastic Constant Matrix: (Units=GPa)
#
#
# Indices 1 2 3 4 5 6 
#
# 1 71.8473 5.4680 3.1117 0.0000 0.0000 0.0000
# 2 5.4680 56.6274 15.6898 0.0000 0.0000 0.0000
# 3 3.1117 15.6898 91.3412 0.0000 0.0000 0.0000
# 4 0.0000 0.0000 0.0000 26.0475 0.0000 0.0000
# 5 0.0000 0.0000 0.0000 0.0000 6.6510 0.0000
# 6 0.0000 0.0000 0.0000 0.0000 0.0000 44.7310
#
#
#
# Elastic Compliance Matrix: (Units=1/GPa)
#
#
# Indices 1 2 3 4 5 6 
#
# 1 0.014027 -0.001283 -0.000257 0.000000 0.000000 0.000000
# 2 -0.001283 0.018659 -0.003161 0.000000 0.000000 0.000000
# 3 -0.000257 -0.003161 0.011500 0.000000 0.000000 0.000000
# 4 0.000000 0.000000 0.000000 0.038391 0.000000 0.000000
# 5 0.000000 0.000000 0.000000 0.000000 0.150354 0.000000
# 6 0.000000 0.000000 0.000000 0.000000 0.000000 0.022356
#
#
# Mechanical properties :
#
#
# Convention : Reuss Voigt Hill
#
# Bulk Modulus (GPa) = 28.75040 29.81721 29.28381
# Shear Modulus (GPa) = 18.09726 28.52232 23.30979
#
# Velocity S-wave (km/s) = 2.96273 3.71944 3.36244
# Velocity P-wave (km/s) = 5.06444 5.73655 5.41094
#
# Compressibility (1/GPa) = 0.03478212
#
# Stress axis : x y z
#
# Youngs Moduli (GPa) = 71.28999 53.59307 86.95830
#
# Poissons Ratio (x) = 0.06877 0.02239
# Poissons Ratio (y) = 0.09148 0.27491
# Poissons Ratio (z) = 0.01835 0.16943
#
# Static dielectric constant tensor:
#      x y z
#    x 1.725510 0.000000 0.000000 
#    y 0.000000 1.776850 0.000000 
#    z 0.000000 0.000000 1.763220 
# 
# From -- ./inp_files/11786.got.cif
#   From: 2010.05.17/outbox.cif.g08.bks.cpg/sg36_6_cif.got.tgz:11786.got - 2010.06.03 17:41:39.
