data_PCOD9352567
_publ_section_title
;
Structure prediction by ZEFSAII (Michael W. Deem and Ramdas Pophale) SiO2 
 PCOD9352567
Probable space group: C M C 21
;
_chemical_formula_sum "Si O2"
_cell_formula_units_Z 48
_cell_length_a 24.685294
_cell_length_b 5.103073
_cell_length_c 17.024520
_cell_angle_alpha 90.000000
_cell_angle_beta 90.000000
_cell_angle_gamma 90.000000
_cell_volume 2144.593380
_symmetry_space_group_name_H-M "C M C 21"
_symmetry_group_IT_number 36
_symmetry_cell_setting 'orthorhombic'
loop_
_space_group_symop_operation_xyz
x,y,z
-x,-y,1/2+z
x,-y,1/2+z
-x,y,z
1/2+x,1/2+y,z
1/2-x,1/2-y,1/2+z
1/2+x,1/2-y,1/2+z
1/2-x,1/2+y,z
loop_
_atom_site_type_symbol
_atom_site_label
_atom_site_fract_x
_atom_site_fract_y
_atom_site_fract_z
Si Si1 0.377035 0.658475 0.074890
Si Si2 0.059018 0.677189 0.792655
Si Si3 0.060410 0.690099 0.426990
Si Si4 0.347983 0.441605 0.317539
Si Si5 0.717890 0.434126 0.964498
Si Si6 0.880409 0.343786 0.679437
O O1 0.394614 0.406783 0.125913
O O2 0.361806 0.910154 0.127422
O O3 0.422934 0.772077 0.016496
O O4 0.328371 0.543231 0.021906
O O5 0.058904 0.592910 0.884565
O O6 0.068543 0.434862 0.733059
O O7 0.000000 0.794198 0.774954
O O8 0.114325 0.833114 0.781740
O O9 0.108858 0.815215 0.377589
O O10 0.000000 0.797986 0.413962
O O11 0.300208 0.532345 0.373692
O O12 0.336528 0.250527 0.244811
O O13 0.731827 0.131002 0.977656
#
# Coordination Sequence:
#
# PCOD9352567 Si02
#       6
#     8   8   8   8   8   8
#     4  11  24  42  67  93 138 168 214 271 336 393
#     4  10  21  40  67 100 135 179 224 266 318 392
#     4   9  21  37  62  94 128 173 221 264 320 386
#     4  10  22  42  70  91 135 169 223 272 325 384
#     4  11  26  45  72  98 124 169 226 276 330 390
#     4  11  23  42  65  94 133 178 204 265 334 391
#
# _framework density 22.381865999999999
#
# number of rings (size 3 to 8) (size 9 to 14) (size 15 to 20)
#    0.000    1.667    1.667    1.500   11.667    2.000 
#    0.000    5.000    0.000    0.000    0.000    0.000 
#    0.000    0.000    0.000    0.000    0.000    0.000 
#
# Total GULP energy -133747.887398 kJ/mol
# GULP energy per Si atom -5572.828642 kJ/mol
# Density = 2.233092 g / cm^3
# Si number density = 22.381866 Si / 1000 Ang^3
#
#
#
# Elastic Constant Matrix: (Units=GPa)
#
#
# Indices 1 2 3 4 5 6 
#
# 1 33.4184 3.2703 8.3255 0.0000 0.0000 0.0000
# 2 3.2703 92.1423 39.1259 0.0000 0.0000 0.0000
# 3 8.3255 39.1259 111.2316 0.0000 0.0000 0.0000
# 4 0.0000 0.0000 0.0000 32.4864 0.0000 0.0000
# 5 0.0000 0.0000 0.0000 0.0000 37.6537 0.0000
# 6 0.0000 0.0000 0.0000 0.0000 0.0000 41.4452
#
#
#
# Elastic Compliance Matrix: (Units=1/GPa)
#
#
# Indices 1 2 3 4 5 6 
#
# 1 0.030494 -0.000133 -0.002236 0.000000 0.000000 0.000000
# 2 -0.000133 0.012759 -0.004478 0.000000 0.000000 0.000000
# 3 -0.002236 -0.004478 0.010733 0.000000 0.000000 0.000000
# 4 0.000000 0.000000 0.000000 0.030782 0.000000 0.000000
# 5 0.000000 0.000000 0.000000 0.000000 0.026558 0.000000
# 6 0.000000 0.000000 0.000000 0.000000 0.000000 0.024128
#
#
# Mechanical properties :
#
#
# Convention : Reuss Voigt Hill
#
# Bulk Modulus (GPa) = 24.81878 37.58174 31.20026
# Shear Modulus (GPa) = 30.75456 34.72176 32.73816
#
# Velocity S-wave (km/s) = 3.71089 3.94297 3.82869
# Velocity P-wave (km/s) = 5.42897 6.12837 5.78925
#
# Compressibility (1/GPa) = 0.04029207
#
# Stress axis : x y z
#
# Youngs Moduli (GPa) = 32.79375 78.37612 93.17284
#
# Poissons Ratio (x) = 0.01042 0.20830
# Poissons Ratio (y) = 0.00436 0.41723
# Poissons Ratio (z) = 0.07331 0.35097
#
# Static dielectric constant tensor:
#      x y z
#    x 1.426420 0.000000 0.000000 
#    y 0.000000 1.957250 0.000000 
#    z 0.000000 0.000000 1.876510 
# 
# From -- ./inp_files/15090.got.cif
#   From: 2010.05.17/outbox.cif.g08.bks.cpg/sg36_8_cif.got.tgz:15090.got - 2010.06.03 17:41:39.
