data_PCOD9352488
_publ_section_title
;
Structure prediction by ZEFSAII (Michael W. Deem and Ramdas Pophale) SiO2 
 PCOD9352488
Probable space group: C M C 21
;
_chemical_formula_sum "Si O2"
_cell_formula_units_Z 64
_cell_length_a 25.234459
_cell_length_b 10.591116
_cell_length_c 11.493058
_cell_angle_alpha 90.000000
_cell_angle_beta 90.000000
_cell_angle_gamma 90.000000
_cell_volume 3071.647122
_symmetry_space_group_name_H-M "C M C 21"
_symmetry_group_IT_number 36
_symmetry_cell_setting 'orthorhombic'
loop_
_space_group_symop_operation_xyz
x,y,z
-x,-y,1/2+z
x,-y,1/2+z
-x,y,z
1/2+x,1/2+y,z
1/2-x,1/2-y,1/2+z
1/2+x,1/2-y,1/2+z
1/2-x,1/2+y,z
loop_
_atom_site_type_symbol
_atom_site_label
_atom_site_fract_x
_atom_site_fract_y
_atom_site_fract_z
Si Si1 0.743899 0.612600 0.956080
Si Si2 0.257722 0.137040 0.315592
Si Si3 0.871366 0.948343 0.420938
Si Si4 0.941164 0.822214 0.591572
Si Si5 0.857628 0.623237 0.003033
Si Si6 0.059392 0.578950 0.426308
Si Si7 0.874423 0.716785 0.243625
Si Si8 0.647001 0.296221 0.783778
O O1 0.746829 0.760891 0.922019
O O2 0.750530 0.508674 0.851656
O O3 0.683186 0.585555 0.988854
O O4 0.796544 0.584475 0.030417
O O5 0.316197 0.161914 0.270853
O O6 0.207287 0.181540 0.239357
O O7 0.918856 0.934756 0.511618
O O8 0.877568 0.847851 0.314719
O O9 0.865421 0.083143 0.363791
O O10 0.943585 0.704387 0.504065
O O11 0.897796 0.789478 0.687690
O O12 0.000000 0.846770 0.638507
O O13 0.877277 0.717297 0.104275
O O14 0.898862 0.510332 0.990910
O O15 0.854907 0.681088 0.873765
O O16 0.083045 0.623060 0.302386
O O17 0.000000 0.525218 0.415355
#
# Coordination Sequence:
#
# PCOD9352488 Si02
#       8
#     8   8   8   8   8   8   8   8
#     4   9  18  36  56  90 126 160 200 251 310 369
#     4   9  18  36  57  87 126 163 199 248 312 368
#     4   9  21  41  64  88 127 161 204 252 311 373
#     4  10  23  42  65  87 118 168 209 250 309 368
#     4  11  23  36  62  96 124 158 208 258 308 367
#     4  10  23  43  63  88 124 165 211 256 308 368
#     4  10  21  39  63  90 124 166 206 253 308 373
#     4  10  23  39  62  94 125 157 205 256 310 374
#
# _framework density 20.835726999999999
#
# number of rings (size 3 to 8) (size 9 to 14) (size 15 to 20)
#    0.000    2.250    1.250    0.000    5.250    1.500 
#    0.000    1.250    0.000    0.000    0.000    0.000 
#    0.000    0.000    0.000    0.000    0.000    0.000 
#
# Total GULP energy -178350.220448 kJ/mol
# GULP energy per Si atom -5573.444389 kJ/mol
# Density = 2.078830 g / cm^3
# Si number density = 20.835727 Si / 1000 Ang^3
#
#
#
# Elastic Constant Matrix: (Units=GPa)
#
#
# Indices 1 2 3 4 5 6 
#
# 1 125.3816 8.6529 26.7009 0.0000 0.0000 0.0000
# 2 8.6529 44.4569 -14.7488 0.0000 0.0000 0.0000
# 3 26.7009 -14.7488 43.5927 0.0000 0.0000 0.0000
# 4 0.0000 0.0000 0.0000 1.4020 0.0000 0.0000
# 5 0.0000 0.0000 0.0000 0.0000 22.7375 0.0000
# 6 0.0000 0.0000 0.0000 0.0000 0.0000 16.6677
#
#
#
# Elastic Compliance Matrix: (Units=1/GPa)
#
#
# Indices 1 2 3 4 5 6 
#
# 1 0.009891 -0.004433 -0.007558 0.000000 0.000000 0.000000
# 2 -0.004433 0.027324 0.011960 0.000000 0.000000 0.000000
# 3 -0.007558 0.011960 0.031615 0.000000 0.000000 0.000000
# 4 0.000000 0.000000 0.000000 0.713287 0.000000 0.000000
# 5 0.000000 0.000000 0.000000 0.000000 0.043980 0.000000
# 6 0.000000 0.000000 0.000000 0.000000 0.000000 0.059996
#
#
# Mechanical properties :
#
#
# Convention : Reuss Voigt Hill
#
# Bulk Modulus (GPa) = 14.54156 28.29347 21.41752
# Shear Modulus (GPa) = 5.50007 21.01651 13.25829
#
# Velocity S-wave (km/s) = 1.62649 3.17941 2.52528
# Velocity P-wave (km/s) = 3.24370 5.20452 4.33639
#
# Compressibility (1/GPa) = 0.06876840
#
# Stress axis : x y z
#
# Youngs Moduli (GPa) = 101.10102 36.59778 31.63022
#
# Poissons Ratio (x) = 0.16222 0.23906
# Poissons Ratio (y) = 0.44814 -0.37828
# Poissons Ratio (z) = 0.76413 -0.43769
#
# Static dielectric constant tensor:
#      x y z
#    x 1.792040 0.000000 0.000000 
#    y 0.000000 1.747190 0.000000 
#    z 0.000000 0.000000 1.769490 
# 
# From -- ./inp_files/9515.got.cif
#   From: 2010.05.17/outbox.cif.g08.bks.cpg/sg36_5_cif.got.tgz:9515.got - 2010.06.03 17:41:39.
