data_PCOD9352571
_publ_section_title
;
Structure prediction by ZEFSAII (Michael W. Deem and Ramdas Pophale) SiO2 
 PCOD9352571
Probable space group: C M C 21
;
_chemical_formula_sum "Si O2"
_cell_formula_units_Z 52
_cell_length_a 12.237230
_cell_length_b 14.942656
_cell_length_c 13.458681
_cell_angle_alpha 90.000000
_cell_angle_beta 90.000000
_cell_angle_gamma 90.000000
_cell_volume 2461.010240
_symmetry_space_group_name_H-M "C M C 21"
_symmetry_group_IT_number 36
_symmetry_cell_setting 'orthorhombic'
loop_
_space_group_symop_operation_xyz
x,y,z
-x,-y,1/2+z
x,-y,1/2+z
-x,y,z
1/2+x,1/2+y,z
1/2-x,1/2-y,1/2+z
1/2+x,1/2-y,1/2+z
1/2-x,1/2+y,z
loop_
_atom_site_type_symbol
_atom_site_label
_atom_site_fract_x
_atom_site_fract_y
_atom_site_fract_z
Si Si1 0.626916 0.840162 0.970910
Si Si2 0.327294 0.739844 0.153859
Si Si3 0.621894 0.536904 0.715769
Si Si4 0.121013 0.246685 0.768293
Si Si5 0.500000 0.848935 0.287700
Si Si6 0.379217 0.570158 0.023961
Si Si7 0.302395 0.976262 0.369128
O O1 0.500000 0.840150 0.003063
O O2 0.639981 0.766807 0.884105
O O3 0.654621 0.934522 0.922307
O O4 0.623624 0.656652 0.094510
O O5 0.215580 0.709750 0.204405
O O6 0.405086 0.784445 0.235280
O O7 0.306625 0.814052 0.068370
O O8 0.500000 0.502651 0.744302
O O9 0.623668 0.642173 0.740939
O O10 0.632666 0.512954 0.599915
O O11 0.723073 0.498056 0.777298
O O12 0.000000 0.282351 0.745457
O O13 0.402183 0.914389 0.333957
O O14 0.500000 0.566178 0.975748
O O15 0.280389 0.570367 0.947015
#
# Coordination Sequence:
#
# PCOD9352571 Si02
#       7
#     8   8   8   8   4   8   8
#     4  11  23  42  67  97 135 180 229 271 353 408
#     4  12  23  45  67  97 134 181 220 285 340 420
#     4  10  21  40  67  96 132 175 225 279 335 410
#     4  10  22  42  67  96 130 176 224 276 336 407
#     4  12  26  42  70  94 134 182 228 284 352 402
#     4  11  24  43  70 101 137 182 230 275 354 411
#     4  12  24  43  65 101 131 179 227 291 339 412
#
# _framework density 21.129534
#
# number of rings (size 3 to 8) (size 9 to 14) (size 15 to 20)
#    0.000    0.923    3.846    3.231    0.000    1.231 
#    1.385    0.769    0.000    0.000    0.000    0.000 
#    0.000    0.000    0.000    0.000    0.000    0.000 
#
# Total GULP energy -144772.086802 kJ/mol
# GULP energy per Si atom -5568.157185 kJ/mol
# Density = 2.108144 g / cm^3
# Si number density = 21.129534 Si / 1000 Ang^3
#
#
#
# Elastic Constant Matrix: (Units=GPa)
#
#
# Indices 1 2 3 4 5 6 
#
# 1 162.1603 23.6925 70.9740 0.0000 0.0000 0.0000
# 2 23.6925 88.0434 12.6839 0.0000 0.0000 0.0000
# 3 70.9740 12.6839 51.2912 0.0000 0.0000 0.0000
# 4 0.0000 0.0000 0.0000 41.3333 0.0000 0.0000
# 5 0.0000 0.0000 0.0000 0.0000 29.4950 0.0000
# 6 0.0000 0.0000 0.0000 0.0000 0.0000 11.0109
#
#
#
# Elastic Compliance Matrix: (Units=1/GPa)
#
#
# Indices 1 2 3 4 5 6 
#
# 1 0.015747 -0.001139 -0.021508 0.000000 0.000000 0.000000
# 2 -0.001139 0.011860 -0.001357 0.000000 0.000000 0.000000
# 3 -0.021508 -0.001357 0.049593 0.000000 0.000000 0.000000
# 4 0.000000 0.000000 0.000000 0.024194 0.000000 0.000000
# 5 0.000000 0.000000 0.000000 0.000000 0.033904 0.000000
# 6 0.000000 0.000000 0.000000 0.000000 0.000000 0.090819
#
#
# Mechanical properties :
#
#
# Convention : Reuss Voigt Hill
#
# Bulk Modulus (GPa) = 34.25499 57.35507 45.80503
# Shear Modulus (GPa) = 17.61472 29.31080 23.46276
#
# Velocity S-wave (km/s) = 2.89044 3.72855 3.33592
# Velocity P-wave (km/s) = 5.23322 6.76310 6.04674
#
# Compressibility (1/GPa) = 0.02919283
#
# Stress axis : x y z
#
# Youngs Moduli (GPa) = 63.50616 84.31705 20.16415
#
# Poissons Ratio (x) = 0.09603 0.43368
# Poissons Ratio (y) = 0.07233 0.02736
# Poissons Ratio (z) = 1.36586 0.11441
#
# Static dielectric constant tensor:
#      x y z
#    x 1.767540 0.000000 0.000000 
#    y 0.000000 1.785790 0.000000 
#    z 0.000000 0.000000 1.768600 
# 
# From -- ./inp_files/11679.got.cif
#   From: 2010.05.17/outbox.cif.g08.bks.cpg/sg36_6_cif.got.tgz:11679.got - 2010.06.03 17:41:39.
