data_PCOD9352371
_publ_section_title
;
Structure prediction by ZEFSAII (Michael W. Deem and Ramdas Pophale) SiO2 
 PCOD9352371
Probable space group: C M C 21
;
_chemical_formula_sum "Si O2"
_cell_formula_units_Z 64
_cell_length_a 7.458983
_cell_length_b 20.217017
_cell_length_c 17.125108
_cell_angle_alpha 90.000000
_cell_angle_beta 90.000000
_cell_angle_gamma 90.000000
_cell_volume 2582.438648
_symmetry_space_group_name_H-M "C M C 21"
_symmetry_group_IT_number 36
_symmetry_cell_setting 'orthorhombic'
loop_
_space_group_symop_operation_xyz
x,y,z
-x,-y,1/2+z
x,-y,1/2+z
-x,y,z
1/2+x,1/2+y,z
1/2-x,1/2-y,1/2+z
1/2+x,1/2-y,1/2+z
1/2-x,1/2+y,z
loop_
_atom_site_type_symbol
_atom_site_label
_atom_site_fract_x
_atom_site_fract_y
_atom_site_fract_z
Si Si1 0.704434 0.647096 0.729520
Si Si2 0.219859 0.554137 0.465282
Si Si3 0.286534 0.078175 0.891175
Si Si4 0.794439 0.525970 0.634260
Si Si5 0.203287 0.403176 0.710928
Si Si6 0.714145 0.663428 0.048311
Si Si7 0.282290 0.793054 0.968478
Si Si8 0.219786 0.721578 0.295189
O O1 0.500000 0.652481 0.703163
O O2 0.707521 0.613818 0.815402
O O3 0.796420 0.598581 0.669334
O O4 0.782852 0.719923 0.739554
O O5 0.272902 0.498368 0.402841
O O6 0.283723 0.525944 0.548543
O O7 0.277488 0.630652 0.465687
O O8 0.000000 0.555718 0.463948
O O9 0.500000 0.077247 0.878964
O O10 0.250552 0.119146 0.970960
O O11 0.711576 0.474174 0.694617
O O12 0.000000 0.503872 0.624554
O O13 0.202838 0.367913 0.625980
O O14 0.285102 0.350063 0.769104
O O15 0.000000 0.413839 0.740804
O O16 0.500000 0.664028 0.059769
O O17 0.776914 0.738798 0.031476
O O18 0.500000 0.794835 0.973329
O O19 0.232348 0.764113 0.883939
O O20 0.000000 0.721614 0.291319
#
# Coordination Sequence:
#
# PCOD9352371 Si02
#       8
#     8   8   8   8   8   8   8   8
#     4  11  23  39  57  84 118 152 189 235 291 346
#     4   9  19  35  58  85 113 145 191 240 281 332
#     4  11  21  38  63  87 110 148 195 240 282 335
#     4  10  21  38  58  86 115 148 193 237 280 335
#     4  10  21  38  60  84 113 151 197 238 276 338
#     4  11  21  36  60  85 114 151 186 233 294 343
#     4   9  18  34  57  83 111 146 190 236 284 340
#     4   9  19  36  57  80 112 153 191 229 282 343
#
# _framework density 24.782776999999999
#
# number of rings (size 3 to 8) (size 9 to 14) (size 15 to 20)
#    0.000    2.000    2.500    1.125    3.500    0.500 
#    0.000    0.625    0.000    3.000    0.000    0.000 
#    0.000    0.000    0.000    0.000    0.000    0.000 
#
# Total GULP energy -178884.899741 kJ/mol
# GULP energy per Si atom -5590.153117 kJ/mol
# Density = 2.472637 g / cm^3
# Si number density = 24.782777 Si / 1000 Ang^3
#
#
#
# Elastic Constant Matrix: (Units=GPa)
#
#
# Indices 1 2 3 4 5 6 
#
# 1 87.8284 2.6316 -10.4748 0.0000 0.0000 0.0000
# 2 2.6316 116.5827 -26.4913 0.0000 0.0000 0.0000
# 3 -10.4748 -26.4913 25.3629 0.0000 0.0000 0.0000
# 4 0.0000 0.0000 0.0000 45.9997 0.0000 0.0000
# 5 0.0000 0.0000 0.0000 0.0000 9.9160 0.0000
# 6 0.0000 0.0000 0.0000 0.0000 0.0000 4.2580
#
#
#
# Elastic Compliance Matrix: (Units=1/GPa)
#
#
# Indices 1 2 3 4 5 6 
#
# 1 0.012088 0.001130 0.006172 0.000000 0.000000 0.000000
# 2 0.001130 0.011353 0.012324 0.000000 0.000000 0.000000
# 3 0.006172 0.012324 0.054849 0.000000 0.000000 0.000000
# 4 0.000000 0.000000 0.000000 0.021739 0.000000 0.000000
# 5 0.000000 0.000000 0.000000 0.000000 0.100847 0.000000
# 6 0.000000 0.000000 0.000000 0.000000 0.000000 0.234850
#
#
# Mechanical properties :
#
#
# Convention : Reuss Voigt Hill
#
# Bulk Modulus (GPa) = 8.50760 17.90057 13.20409
# Shear Modulus (GPa) = 11.47697 29.64198 20.55947
#
# Velocity S-wave (km/s) = 2.15432 3.46218 2.88338
# Velocity P-wave (km/s) = 3.10297 4.81881 4.05274
#
# Compressibility (1/GPa) = 0.11754190
#
# Stress axis : x y z
#
# Youngs Moduli (GPa) = 82.72580 88.08611 18.23184
#
# Poissons Ratio (x) = -0.09951 -0.11253
# Poissons Ratio (y) = -0.09345 -0.22469
# Poissons Ratio (z) = -0.51061 -1.08558
#
# Static dielectric constant tensor:
#      x y z
#    x 1.970820 0.000000 0.000000 
#    y 0.000000 1.993600 0.000000 
#    z 0.000000 0.000000 1.927950 
# 
# From -- ./inp_files/13967.got.cif
#   From: 2010.05.17/outbox.cif.g08.bks.cpg/sg36_7_cif.got.tgz:13967.got - 2010.06.03 17:41:39.
