data_PCOD9352811
_publ_section_title
;
Structure prediction by ZEFSAII (Michael W. Deem and Ramdas Pophale) SiO2 
 PCOD9352811
Probable space group: C M C 21
;
_chemical_formula_sum "Si O2"
_cell_formula_units_Z 64
_cell_length_a 14.478239
_cell_length_b 18.951982
_cell_length_c 11.989532
_cell_angle_alpha 90.000000
_cell_angle_beta 90.000000
_cell_angle_gamma 90.000000
_cell_volume 3289.823571
_symmetry_space_group_name_H-M "C M C 21"
_symmetry_group_IT_number 36
_symmetry_cell_setting 'orthorhombic'
loop_
_space_group_symop_operation_xyz
x,y,z
-x,-y,1/2+z
x,-y,1/2+z
-x,y,z
1/2+x,1/2+y,z
1/2-x,1/2-y,1/2+z
1/2+x,1/2-y,1/2+z
1/2-x,1/2+y,z
loop_
_atom_site_type_symbol
_atom_site_label
_atom_site_fract_x
_atom_site_fract_y
_atom_site_fract_z
Si Si1 0.669927 0.392912 0.860760
Si Si2 0.104785 0.457140 0.234544
Si Si3 0.169928 0.392911 0.680547
Si Si4 0.282314 0.394257 0.120930
Si Si5 0.604785 0.457140 0.306763
Si Si6 0.398034 0.239682 0.887498
Si Si7 0.782314 0.605744 0.920376
Si Si8 0.898034 0.239682 0.653809
O O1 0.749999 0.400547 0.770654
O O2 0.607519 0.461512 0.843648
O O3 0.623835 0.316843 0.840760
O O4 0.706428 0.394488 0.988167
O O5 0.107520 0.538489 0.197659
O O6 0.179559 0.415240 0.158859
O O7 0.147824 0.448570 0.358817
O O8 0.000000 0.431502 0.228342
O O9 0.206429 0.394488 0.553139
O O10 0.123836 0.316842 0.700549
O O11 0.352175 0.448570 0.182490
O O12 0.319279 0.319055 0.167442
O O13 0.500000 0.431501 0.312964
O O14 0.679559 0.415240 0.382447
O O15 0.500000 0.215725 0.849933
O O16 0.319279 0.180945 0.873864
O O17 0.403018 0.249999 0.020653
O O18 0.000000 0.215725 0.691373
#
# Coordination Sequence:
#
# PCOD9352811 Si02
#       8
#     8   8   8   8   8   8   8   8
#     4  11  22  39  62  90 127 157 202 258 308 360
#     4  11  23  38  62  89 119 164 207 247 306 369
#     4  11  22  39  62  90 127 157 202 258 308 360
#     4  10  22  42  60  90 125 162 200 254 310 359
#     4  11  23  38  62  89 119 164 207 247 306 369
#     4   9  19  37  63  88 115 158 205 247 295 361
#     4  10  22  42  60  90 125 162 200 254 310 359
#     4   9  19  37  63  88 115 158 205 247 295 361
#
# _framework density 19.453931000000001
#
# number of rings (size 3 to 8) (size 9 to 14) (size 15 to 20)
#    0.000    1.750    2.500    2.250    3.500    3.000 
#    0.000    1.250    0.000    6.750    0.000    0.000 
#    0.000    0.000    0.000    0.000    0.000    0.000 
#
# Total GULP energy -178457.124601 kJ/mol
# GULP energy per Si atom -5576.785144 kJ/mol
# Density = 1.940965 g / cm^3
# Si number density = 19.453931 Si / 1000 Ang^3
#
#
#
# Elastic Constant Matrix: (Units=GPa)
#
#
# Indices 1 2 3 4 5 6 
#
# 1 178.6555 64.2261 42.2066 0.0000 0.0000 0.0000
# 2 64.2261 142.4209 28.7182 0.0000 0.0000 0.0000
# 3 42.2066 28.7182 95.1683 0.0000 0.0000 0.0000
# 4 0.0000 0.0000 0.0000 33.7078 0.0000 0.0000
# 5 0.0000 0.0000 0.0000 0.0000 4.1637 0.0000
# 6 0.0000 0.0000 0.0000 0.0000 0.0000 13.2492
#
#
#
# Elastic Compliance Matrix: (Units=1/GPa)
#
#
# Indices 1 2 3 4 5 6 
#
# 1 0.007137 -0.002747 -0.002336 0.000000 0.000000 0.000000
# 2 -0.002747 0.008534 -0.001357 0.000000 0.000000 0.000000
# 3 -0.002336 -0.001357 0.011953 0.000000 0.000000 0.000000
# 4 0.000000 0.000000 0.000000 0.029667 0.000000 0.000000
# 5 0.000000 0.000000 0.000000 0.000000 0.240172 0.000000
# 6 0.000000 0.000000 0.000000 0.000000 0.000000 0.075476
#
#
# Mechanical properties :
#
#
# Convention : Reuss Voigt Hill
#
# Bulk Modulus (GPa) = 67.82651 76.28294 72.05473
# Shear Modulus (GPa) = 12.79642 28.96374 20.88008
#
# Velocity S-wave (km/s) = 2.56751 3.86273 3.27969
# Velocity P-wave (km/s) = 6.61289 7.69360 7.17363
#
# Compressibility (1/GPa) = 0.01474350
#
# Stress axis : x y z
#
# Youngs Moduli (GPa) = 140.11584 117.17834 83.65971
#
# Poissons Ratio (x) = 0.32194 0.19544
# Poissons Ratio (y) = 0.38496 0.11351
# Poissons Ratio (z) = 0.32733 0.15898
#
# Static dielectric constant tensor:
#      x y z
#    x 1.682690 0.000000 0.000000 
#    y 0.000000 1.765200 0.000000 
#    z 0.000000 0.000000 1.666690 
# 
# From -- ./inp_files/8631.got.cif
#   From: 2010.05.17/outbox.cif.g08.bks.cpg/sg36_5_cif.got.tgz:8631.got - 2010.06.03 17:41:39.
