data_PCOD9352721
_publ_section_title
;
Structure prediction by ZEFSAII (Michael W. Deem and Ramdas Pophale) SiO2 
 PCOD9352721
Probable space group: C M C 21
;
_chemical_formula_sum "Si O2"
_cell_formula_units_Z 48
_cell_length_a 9.032690
_cell_length_b 9.965428
_cell_length_c 26.005765
_cell_angle_alpha 90.000000
_cell_angle_beta 90.000000
_cell_angle_gamma 90.000000
_cell_volume 2340.899102
_symmetry_space_group_name_H-M "C M C 21"
_symmetry_group_IT_number 36
_symmetry_cell_setting 'orthorhombic'
loop_
_space_group_symop_operation_xyz
x,y,z
-x,-y,1/2+z
x,-y,1/2+z
-x,y,z
1/2+x,1/2+y,z
1/2-x,1/2-y,1/2+z
1/2+x,1/2-y,1/2+z
1/2-x,1/2+y,z
loop_
_atom_site_type_symbol
_atom_site_label
_atom_site_fract_x
_atom_site_fract_y
_atom_site_fract_z
Si Si1 0.176034 0.057566 0.582390
Si Si2 0.824776 0.922876 0.418629
Si Si3 0.824113 0.588896 0.243470
Si Si4 0.676332 0.157533 0.359082
Si Si5 0.823986 0.676107 0.023259
Si Si6 0.174830 0.677029 0.683788
O O1 0.203619 0.169340 0.538190
O O2 0.241481 0.120505 0.634155
O O3 0.000000 0.037553 0.586957
O O4 0.255553 0.920361 0.566812
O O5 0.798290 0.811316 0.374545
O O6 0.749814 0.867769 0.470124
O O7 0.000000 0.935851 0.427258
O O8 0.757587 0.061778 0.399357
O O9 0.775188 0.622759 0.301296
O O10 0.802693 0.434301 0.228368
O O11 0.739308 0.683184 0.203473
O O12 0.000000 0.617699 0.239620
O O13 0.500000 0.132314 0.362451
O O14 0.000000 0.656260 0.021065
O O15 0.000000 0.687501 0.673103
#
# Coordination Sequence:
#
# PCOD9352721 Si02
#       6
#     8   8   8   8   8   8
#     4  11  24  41  62  88 118 154 196 242 292 348
#     4  11  23  38  60  89 117 151 195 239 289 348
#     4  10  22  40  60  86 120 156 197 243 291 345
#     4  10  22  40  61  86 119 157 196 242 292 344
#     4  11  24  41  61  86 117 153 193 239 291 347
#     4  11  23  38  60  89 119 155 197 241 293 350
#
# _framework density 20.504942
#
# number of rings (size 3 to 8) (size 9 to 14) (size 15 to 20)
#    0.000    1.333    0.000    5.000    0.000   12.667 
#    0.000    0.000    0.000    0.000    0.000    0.000 
#    0.000    0.000    0.000    0.000    0.000    0.000 
#
# Total GULP energy -134315.232496 kJ/mol
# GULP energy per Si atom -5596.468021 kJ/mol
# Density = 2.045827 g / cm^3
# Si number density = 20.504942 Si / 1000 Ang^3
#
#
#
# Elastic Constant Matrix: (Units=GPa)
#
#
# Indices 1 2 3 4 5 6 
#
# 1 29.3396 27.4148 1.6919 0.0000 0.0000 0.0000
# 2 27.4148 60.4297 -19.8396 0.0000 0.0000 0.0000
# 3 1.6919 -19.8396 54.4887 0.0000 0.0000 0.0000
# 4 0.0000 0.0000 0.0000 33.5004 0.0000 0.0000
# 5 0.0000 0.0000 0.0000 0.0000 29.9681 0.0000
# 6 0.0000 0.0000 0.0000 0.0000 0.0000 32.9488
#
#
#
# Elastic Compliance Matrix: (Units=1/GPa)
#
#
# Indices 1 2 3 4 5 6 
#
# 1 0.068873 -0.036285 -0.015350 0.000000 0.000000 0.000000
# 2 -0.036285 0.037911 0.014930 0.000000 0.000000 0.000000
# 3 -0.015350 0.014930 0.024265 0.000000 0.000000 0.000000
# 4 0.000000 0.000000 0.000000 0.029850 0.000000 0.000000
# 5 0.000000 0.000000 0.000000 0.000000 0.033369 0.000000
# 6 0.000000 0.000000 0.000000 0.000000 0.000000 0.030350
#
#
# Mechanical properties :
#
#
# Convention : Reuss Voigt Hill
#
# Bulk Modulus (GPa) = 17.34902 18.08803 17.71853
# Shear Modulus (GPa) = 15.76088 28.28286 22.02187
#
# Velocity S-wave (km/s) = 2.77544 3.71795 3.28072
# Velocity P-wave (km/s) = 4.33013 5.22219 4.79694
#
# Compressibility (1/GPa) = 0.05764013
#
# Stress axis : x y z
#
# Youngs Moduli (GPa) = 14.51946 26.37756 41.21121
#
# Poissons Ratio (x) = 0.95710 0.63259
# Poissons Ratio (y) = 0.52684 -0.61529
# Poissons Ratio (z) = 0.22287 -0.39382
#
# Static dielectric constant tensor:
#      x y z
#    x 1.678980 0.000000 0.000000 
#    y 0.000000 1.698160 0.000000 
#    z 0.000000 0.000000 1.727120 
# 
# From -- ./inp_files/16444.got.cif
#   From: 2010.05.17/outbox.cif.g08.bks.cpg/sg36_9_cif.got.tgz:16444.got - 2010.06.03 17:41:39.
