data_PCOD9352089
_publ_section_title
;
Structure prediction by ZEFSAII (Michael W. Deem and Ramdas Pophale) SiO2 
 PCOD9352089
Probable space group: C M C 21
;
_chemical_formula_sum "Si O2"
_cell_formula_units_Z 48
_cell_length_a 8.998564
_cell_length_b 27.879063
_cell_length_c 10.279545
_cell_angle_alpha 90.000000
_cell_angle_beta 90.000000
_cell_angle_gamma 90.000000
_cell_volume 2578.845209
_symmetry_space_group_name_H-M "C M C 21"
_symmetry_group_IT_number 36
_symmetry_cell_setting 'orthorhombic'
loop_
_space_group_symop_operation_xyz
x,y,z
-x,-y,1/2+z
x,-y,1/2+z
-x,y,z
1/2+x,1/2+y,z
1/2-x,1/2-y,1/2+z
1/2+x,1/2-y,1/2+z
1/2-x,1/2+y,z
loop_
_atom_site_type_symbol
_atom_site_label
_atom_site_fract_x
_atom_site_fract_y
_atom_site_fract_z
Si Si1 0.821673 0.040423 0.042290
Si Si2 0.178059 0.286855 0.381516
Si Si3 0.177617 0.605285 0.261705
Si Si4 0.321775 0.387911 0.308247
Si Si5 0.321478 0.213717 0.179742
Si Si6 0.178881 0.928684 0.025042
O O1 0.744690 0.066262 0.163317
O O2 0.000000 0.042119 0.061815
O O3 0.779543 0.984882 0.028588
O O4 0.786498 0.070441 0.912218
O O5 0.240106 0.339294 0.346997
O O6 0.243765 0.248682 0.281269
O O7 0.220305 0.275177 0.530697
O O8 0.000000 0.287324 0.374238
O O9 0.216596 0.658434 0.210447
O O10 0.243281 0.596703 0.404312
O O11 0.000000 0.601316 0.263741
O O12 0.500000 0.380139 0.313023
O O13 0.283367 0.404763 0.162985
O O14 0.500000 0.218835 0.191552
O O15 0.000000 0.926029 0.008587
#
# Coordination Sequence:
#
# PCOD9352089 Si02
#       6
#     8   8   8   8   8   8
#     4  10  20  39  65  89 119 161 205 247 295 352
#     4  11  24  42  65  89 118 156 198 248 301 358
#     4  11  23  40  61  89 126 160 196 249 301 354
#     4  10  21  38  62  90 122 158 198 249 300 351
#     4  10  24  44  62  88 123 155 196 247 300 360
#     4  10  22  39  61  91 124 160 205 248 289 351
#
# _framework density 18.612981999999999
#
# number of rings (size 3 to 8) (size 9 to 14) (size 15 to 20)
#    0.000    1.667    1.667    2.000    2.333    6.667 
#    0.000    1.667    0.000    0.000    0.000    0.000 
#    0.000    0.000    0.000    0.000    0.000    0.000 
#
# Total GULP energy -134154.054642 kJ/mol
# GULP energy per Si atom -5589.752277 kJ/mol
# Density = 1.857062 g / cm^3
# Si number density = 18.612982 Si / 1000 Ang^3
#
#
#
# Elastic Constant Matrix: (Units=GPa)
#
#
# Indices 1 2 3 4 5 6 
#
# 1 23.9164 35.8132 51.7263 0.0000 0.0000 0.0000
# 2 35.8132 91.1870 65.6491 0.0000 0.0000 0.0000
# 3 51.7263 65.6491 176.8778 0.0000 0.0000 0.0000
# 4 0.0000 0.0000 0.0000 39.8132 0.0000 0.0000
# 5 0.0000 0.0000 0.0000 0.0000 30.1143 0.0000
# 6 0.0000 0.0000 0.0000 0.0000 0.0000 21.7781
#
#
#
# Elastic Compliance Matrix: (Units=1/GPa)
#
#
# Indices 1 2 3 4 5 6 
#
# 1 0.214668 -0.053376 -0.042967 0.000000 0.000000 0.000000
# 2 -0.053376 0.028237 0.005129 0.000000 0.000000 0.000000
# 3 -0.042967 0.005129 0.016315 0.000000 0.000000 0.000000
# 4 0.000000 0.000000 0.000000 0.025117 0.000000 0.000000
# 5 0.000000 0.000000 0.000000 0.000000 0.033207 0.000000
# 6 0.000000 0.000000 0.000000 0.000000 0.000000 0.045918
#
#
# Mechanical properties :
#
#
# Convention : Reuss Voigt Hill
#
# Bulk Modulus (GPa) = 13.02214 66.48428 39.75321
# Shear Modulus (GPa) = 8.74909 27.59395 18.17152
#
# Velocity S-wave (km/s) = 2.17042 3.85452 3.12794
# Velocity P-wave (km/s) = 3.64588 7.45698 5.86937
#
# Compressibility (1/GPa) = 0.07679230
#
# Stress axis : x y z
#
# Youngs Moduli (GPa) = 4.65835 35.41436 61.29250
#
# Poissons Ratio (x) = 1.89029 2.63355
# Poissons Ratio (y) = 0.24865 -0.31437
# Poissons Ratio (z) = 0.20015 -0.18164
#
# Static dielectric constant tensor:
#      x y z
#    x 1.620810 0.000000 0.000000 
#    y 0.000000 1.612560 0.000000 
#    z 0.000000 0.000000 1.618320 
# 
# From -- ./inp_files/2691.got.cif
#   From: 2010.05.17/outbox.cif.g08.bks.cpg/sg36_2_cif.got.tgz:2691.got - 2010.06.03 17:41:39.
