data_PCOD9352651
_publ_section_title
;
Structure prediction by ZEFSAII (Michael W. Deem and Ramdas Pophale) SiO2 
 PCOD9352651
Probable space group: C M C 21
;
_chemical_formula_sum "Si O2"
_cell_formula_units_Z 48
_cell_length_a 15.566406
_cell_length_b 13.414429
_cell_length_c 9.913028
_cell_angle_alpha 90.000000
_cell_angle_beta 90.000000
_cell_angle_gamma 90.000000
_cell_volume 2069.983471
_symmetry_space_group_name_H-M "C M C 21"
_symmetry_group_IT_number 36
_symmetry_cell_setting 'orthorhombic'
loop_
_space_group_symop_operation_xyz
x,y,z
-x,-y,1/2+z
x,-y,1/2+z
-x,y,z
1/2+x,1/2+y,z
1/2-x,1/2-y,1/2+z
1/2+x,1/2-y,1/2+z
1/2-x,1/2+y,z
loop_
_atom_site_type_symbol
_atom_site_label
_atom_site_fract_x
_atom_site_fract_y
_atom_site_fract_z
Si Si1 0.221776 0.809498 0.227090
Si Si2 0.098073 0.983205 0.333195
Si Si3 0.658152 0.594393 0.098657
Si Si4 0.688244 0.196474 0.476332
Si Si5 0.354717 0.020409 0.080151
Si Si6 0.093157 0.608407 0.811790
O O1 0.163066 0.900848 0.273096
O O2 0.196053 0.716163 0.318208
O O3 0.319766 0.834002 0.272099
O O4 0.224451 0.799707 0.066466
O O5 0.113882 0.981392 0.492888
O O6 0.000000 0.956595 0.307022
O O7 0.121998 0.080892 0.248188
O O8 0.642845 0.704439 0.037561
O O9 0.758529 0.563911 0.095204
O O10 0.650680 0.089211 0.509602
O O11 0.402245 0.087154 0.970718
O O12 0.396682 0.993420 0.223112
O O13 0.000000 0.652666 0.777065
#
# Coordination Sequence:
#
# PCOD9352651 Si02
#       6
#     8   8   8   8   8   8
#     4  10  22  40  60  92 122 162 206 254 304 368
#     4  11  22  40  63  90 125 162 206 253 303 365
#     4  11  21  41  64  90 123 165 204 253 308 363
#     4  10  22  36  68  86 124 160 204 248 316 358
#     4  11  21  41  64  90 123 165 204 253 308 363
#     4  11  22  40  63  90 125 162 206 253 303 365
#
# _framework density 23.188592
#
# number of rings (size 3 to 8) (size 9 to 14) (size 15 to 20)
#    0.000    1.333    6.667    1.000    4.667    0.000 
#    0.000   21.667    0.000    0.000    0.000    0.000 
#    0.000    0.000    0.000    0.000    0.000    0.000 
#
# Total GULP energy -133942.320318 kJ/mol
# GULP energy per Si atom -5580.930013 kJ/mol
# Density = 2.313581 g / cm^3
# Si number density = 23.188592 Si / 1000 Ang^3
#
#
#
# Elastic Constant Matrix: (Units=GPa)
#
#
# Indices 1 2 3 4 5 6 
#
# 1 126.6994 11.5861 -3.5604 0.0000 0.0000 0.0000
# 2 11.5861 66.7125 -1.4120 0.0000 0.0000 0.0000
# 3 -3.5604 -1.4120 62.6400 0.0000 0.0000 0.0000
# 4 0.0000 0.0000 0.0000 44.4416 0.0000 0.0000
# 5 0.0000 0.0000 0.0000 0.0000 15.1922 0.0000
# 6 0.0000 0.0000 0.0000 0.0000 0.0000 -1.0206
#
#
#
# Elastic Compliance Matrix: (Units=1/GPa)
#
#
# Indices 1 2 3 4 5 6 
#
# 1 0.008031 -0.001386 0.000425 0.000000 0.000000 0.000000
# 2 -0.001386 0.015236 0.000265 0.000000 0.000000 0.000000
# 3 0.000425 0.000265 0.015994 0.000000 0.000000 0.000000
# 4 0.000000 0.000000 0.000000 0.022501 0.000000 0.000000
# 5 0.000000 0.000000 0.000000 0.000000 0.065823 0.000000
# 6 0.000000 0.000000 0.000000 0.000000 0.000000 -0.979849
#
#
# Mechanical properties :
#
#
# Convention : Reuss Voigt Hill
#
# Bulk Modulus (GPa) = 26.40619 29.91994 28.16306
# Shear Modulus (GPa) = -5.96483 28.35187 11.19352
#
# Velocity S-wave (km/s) = -1.60558 3.50046 2.19946
# Velocity P-wave (km/s) = 2.82402 5.41003 4.31530
#
# Compressibility (1/GPa) = 0.03786991
#
# Stress axis : x y z
#
# Youngs Moduli (GPa) = 124.51172 65.63414 62.52201
#
# Poissons Ratio (x) = 0.09096 -0.02659
# Poissons Ratio (y) = 0.17255 -0.01655
# Poissons Ratio (z) = -0.05295 -0.01737
#
# Static dielectric constant tensor:
#      x y z
#    x 1.859950 0.000000 0.000000 
#    y 0.000000 1.937310 0.000000 
#    z 0.000000 0.000000 1.946230 
# 
# From -- ./inp_files/8396.got.cif
#   From: 2010.05.17/outbox.cif.g08.bks.cpg/sg36_5_cif.got.tgz:8396.got - 2010.06.03 17:41:39.
