data_PCOD9352600
_publ_section_title
;
Structure prediction by ZEFSAII (Michael W. Deem and Ramdas Pophale) SiO2 
 PCOD9352600
Probable space group: C M C 21
;
_chemical_formula_sum "Si O2"
_cell_formula_units_Z 56
_cell_length_a 14.132992
_cell_length_b 29.722136
_cell_length_c 5.717410
_cell_angle_alpha 90.000000
_cell_angle_beta 90.000000
_cell_angle_gamma 90.000000
_cell_volume 2401.670741
_symmetry_space_group_name_H-M "C M C 21"
_symmetry_group_IT_number 36
_symmetry_cell_setting 'orthorhombic'
loop_
_space_group_symop_operation_xyz
x,y,z
-x,-y,1/2+z
x,-y,1/2+z
-x,y,z
1/2+x,1/2+y,z
1/2-x,1/2-y,1/2+z
1/2+x,1/2-y,1/2+z
1/2-x,1/2+y,z
loop_
_atom_site_type_symbol
_atom_site_label
_atom_site_fract_x
_atom_site_fract_y
_atom_site_fract_z
Si Si1 0.386620 0.398409 0.475460
Si Si2 0.228837 0.635182 0.304726
Si Si3 0.610368 0.697101 0.852587
Si Si4 0.320612 0.272432 0.865286
Si Si5 0.105999 0.411955 0.136391
Si Si6 0.891854 0.322370 0.404134
Si Si7 0.756784 0.525778 0.870676
O O1 0.500000 0.402983 0.502284
O O2 0.329867 0.383010 0.708202
O O3 0.360477 0.354992 0.316208
O O4 0.335814 0.442210 0.376499
O O5 0.248293 0.686043 0.397291
O O6 0.185001 0.592745 0.438859
O O7 0.150476 0.647945 0.111747
O O8 0.500000 0.694410 0.893785
O O9 0.624960 0.723276 0.612554
O O10 0.644563 0.717257 0.100434
O O11 0.318348 0.218064 0.857557
O O12 0.101300 0.359092 0.201311
O O13 0.150743 0.442425 0.339012
O O14 0.000000 0.426799 0.073604
O O15 0.000000 0.305880 0.444407
O O16 0.757214 0.497809 0.626204
#
# Coordination Sequence:
#
# PCOD9352600 Si02
#       7
#     8   8   8   8   8   8   8
#     4  10  23  47  76 109 152 200 250 306 382 462
#     4  11  24  44  75 103 159 205 259 314 380 449
#     4  10  21  41  65  99 143 193 243 296 351 431
#     4  11  25  38  68 101 148 196 252 304 363 428
#     4  11  26  49  76 109 149 199 254 315 392 468
#     4  11  25  43  69 104 146 200 254 316 378 444
#     4  12  27  50  79 111 147 185 238 311 384 462
#
# _framework density 23.3171
#
# number of rings (size 3 to 8) (size 9 to 14) (size 15 to 20)
#    0.000    1.143    1.429    3.429    6.000    3.429 
#    0.000    5.000    0.000    0.000    0.000    0.000 
#    0.000    0.000    0.000    0.000    0.000    0.000 
#
# Total GULP energy -155917.324947 kJ/mol
# GULP energy per Si atom -5568.475891 kJ/mol
# Density = 2.326403 g / cm^3
# Si number density = 23.317100 Si / 1000 Ang^3
#
#
#
# Elastic Constant Matrix: (Units=GPa)
#
#
# Indices 1 2 3 4 5 6 
#
# 1 87.6404 38.5257 17.1038 0.0000 0.0000 0.0000
# 2 38.5257 121.0640 72.6914 0.0000 0.0000 0.0000
# 3 17.1038 72.6914 87.3103 0.0000 0.0000 0.0000
# 4 0.0000 0.0000 0.0000 50.6147 0.0000 0.0000
# 5 0.0000 0.0000 0.0000 0.0000 13.1265 0.0000
# 6 0.0000 0.0000 0.0000 0.0000 0.0000 12.7199
#
#
#
# Elastic Compliance Matrix: (Units=1/GPa)
#
#
# Indices 1 2 3 4 5 6 
#
# 1 0.013414 -0.005381 0.001852 0.000000 0.000000 0.000000
# 2 -0.005381 0.018675 -0.014494 0.000000 0.000000 0.000000
# 3 0.001852 -0.014494 0.023158 0.000000 0.000000 0.000000
# 4 0.000000 0.000000 0.000000 0.019757 0.000000 0.000000
# 5 0.000000 0.000000 0.000000 0.000000 0.076182 0.000000
# 6 0.000000 0.000000 0.000000 0.000000 0.000000 0.078617
#
#
# Mechanical properties :
#
#
# Convention : Reuss Voigt Hill
#
# Bulk Modulus (GPa) = 52.07948 61.40627 56.74287
# Shear Modulus (GPa) = 18.36549 26.47181 22.41865
#
# Velocity S-wave (km/s) = 2.80954 3.37307 3.10412
# Velocity P-wave (km/s) = 5.73659 6.44691 6.10209
#
# Compressibility (1/GPa) = 0.01920142
#
# Stress axis : x y z
#
# Youngs Moduli (GPa) = 74.54818 53.54660 43.18159
#
# Poissons Ratio (x) = 0.28812 -0.07997
# Poissons Ratio (y) = 0.40113 0.62589
# Poissons Ratio (z) = -0.13807 0.77612
#
# Static dielectric constant tensor:
#      x y z
#    x 1.955460 0.000000 0.000000 
#    y 0.000000 1.967100 0.000000 
#    z 0.000000 0.000000 1.984910 
# 
# From -- ./inp_files/927.got.cif
#   From: 2010.05.17/outbox.cif.g08.bks.cpg/sg36_1_cif.got.tgz:927.got - 2010.06.03 17:41:39.
