data_PCOD9352570
_publ_section_title
;
Structure prediction by ZEFSAII (Michael W. Deem and Ramdas Pophale) SiO2 
 PCOD9352570
Probable space group: C M C 21
;
_chemical_formula_sum "Si O2"
_cell_formula_units_Z 20
_cell_length_a 9.865839
_cell_length_b 16.020701
_cell_length_c 4.795988
_cell_angle_alpha 90.000000
_cell_angle_beta 90.000000
_cell_angle_gamma 90.000000
_cell_volume 758.042625
_symmetry_space_group_name_H-M "C M C 21"
_symmetry_group_IT_number 36
_symmetry_cell_setting 'orthorhombic'
loop_
_space_group_symop_operation_xyz
x,y,z
-x,-y,1/2+z
x,-y,1/2+z
-x,y,z
1/2+x,1/2+y,z
1/2-x,1/2-y,1/2+z
1/2+x,1/2-y,1/2+z
1/2-x,1/2+y,z
loop_
_atom_site_type_symbol
_atom_site_label
_atom_site_fract_x
_atom_site_fract_y
_atom_site_fract_z
Si Si1 0.000000 0.948518 0.659580
Si Si2 0.655218 0.769292 0.283747
Si Si3 0.802498 0.441738 0.550444
O O1 0.856574 0.916172 0.559642
O O2 0.756801 0.722342 0.500096
O O3 0.500000 0.735292 0.247397
O O4 0.635738 0.859370 0.425430
O O5 0.831307 0.479197 0.851983
O O6 0.500000 0.538084 0.490800
#
# Coordination Sequence:
#
# PCOD9352570 Si02
#       3
#     4   8   8
#     4   8  16  30  54  90 126 160 208 268 338 392
#     4  12  28  48  73 105 147 193 236 295 364 430
#     4  10  21  40  67 101 134 180 237 293 347 415
#
# _framework density 26.383738999999998
#
# number of rings (size 3 to 8) (size 9 to 14) (size 15 to 20)
#    0.000    1.600    0.000    3.600    5.600    1.600 
#    7.200    0.000    0.000    0.000    0.000    0.000 
#    0.000    0.000    0.000    0.000    0.000    0.000 
#
# Total GULP energy -55870.350294 kJ/mol
# GULP energy per Si atom -5587.035029 kJ/mol
# Density = 2.632369 g / cm^3
# Si number density = 26.383739 Si / 1000 Ang^3
#
#
#
# Elastic Constant Matrix: (Units=GPa)
#
#
# Indices 1 2 3 4 5 6 
#
# 1 240.1672 19.6999 46.9297 0.0000 0.0000 0.0000
# 2 19.6999 79.4898 -6.6415 0.0000 0.0000 0.0000
# 3 46.9297 -6.6415 144.0250 0.0000 0.0000 0.0000
# 4 0.0000 0.0000 0.0000 40.7049 0.0000 0.0000
# 5 0.0000 0.0000 0.0000 0.0000 -1.9802 0.0000
# 6 0.0000 0.0000 0.0000 0.0000 0.0000 39.1686
#
#
#
# Elastic Compliance Matrix: (Units=1/GPa)
#
#
# Indices 1 2 3 4 5 6 
#
# 1 0.004570 -0.001262 -0.001547 0.000000 0.000000 0.000000
# 2 -0.001262 0.012977 0.001010 0.000000 0.000000 0.000000
# 3 -0.001547 0.001010 0.007494 0.000000 0.000000 0.000000
# 4 0.000000 0.000000 0.000000 0.024567 0.000000 0.000000
# 5 0.000000 0.000000 0.000000 0.000000 -0.505001 0.000000
# 6 0.000000 0.000000 0.000000 0.000000 0.000000 0.025531
#
#
# Mechanical properties :
#
#
# Convention : Reuss Voigt Hill
#
# Bulk Modulus (GPa) = 46.63718 64.85090 55.74404
# Shear Modulus (GPa) = -11.92986 42.49159 15.28086
#
# Velocity S-wave (km/s) = -2.12873 4.01748 2.40922
# Velocity P-wave (km/s) = 3.41656 6.79364 5.37710
#
# Compressibility (1/GPa) = 0.02144212
#
# Stress axis : x y z
#
# Youngs Moduli (GPa) = 218.83846 77.05774 133.44146
#
# Poissons Ratio (x) = 0.09723 0.20645
# Poissons Ratio (y) = 0.27612 -0.13472
# Poissons Ratio (z) = 0.33858 -0.07779
#
# Static dielectric constant tensor:
#      x y z
#    x 2.189710 0.000000 0.000000 
#    y 0.000000 2.145100 0.000000 
#    z 0.000000 0.000000 1.970400 
# 
# From -- ./inp_files/108.got.cif
#   From: 2010.05.17/outbox.cif.g08.bks.cpg/sg36_1_cif.got.tgz:108.got - 2010.06.03 17:41:39.
