data_PCOD9352323
_publ_section_title
;
Structure prediction by ZEFSAII (Michael W. Deem and Ramdas Pophale) SiO2 
 PCOD9352323
Probable space group: C M C 21
;
_chemical_formula_sum "Si O2"
_cell_formula_units_Z 64
_cell_length_a 15.708861
_cell_length_b 22.466510
_cell_length_c 8.735756
_cell_angle_alpha 90.000000
_cell_angle_beta 90.000000
_cell_angle_gamma 90.000000
_cell_volume 3083.051685
_symmetry_space_group_name_H-M "C M C 21"
_symmetry_group_IT_number 36
_symmetry_cell_setting 'orthorhombic'
loop_
_space_group_symop_operation_xyz
x,y,z
-x,-y,1/2+z
x,-y,1/2+z
-x,y,z
1/2+x,1/2+y,z
1/2-x,1/2-y,1/2+z
1/2+x,1/2-y,1/2+z
1/2-x,1/2+y,z
loop_
_atom_site_type_symbol
_atom_site_label
_atom_site_fract_x
_atom_site_fract_y
_atom_site_fract_z
Si Si1 0.187189 0.323541 0.823800
Si Si2 0.179502 0.097333 0.462743
Si Si3 0.244170 0.109498 0.796939
Si Si4 0.733612 0.284817 0.530387
Si Si5 0.102795 0.454999 0.444831
Si Si6 0.102075 0.034458 0.976671
Si Si7 0.402747 0.928001 0.786539
Si Si8 0.594090 0.639819 0.202937
O O1 0.194465 0.290548 0.660882
O O2 0.100890 0.359638 0.837037
O O3 0.248771 0.382714 0.837334
O O4 0.212661 0.278025 0.955251
O O5 0.219648 0.116660 0.621614
O O6 0.104157 0.135435 0.385599
O O7 0.144140 0.030730 0.482237
O O8 0.335006 0.078002 0.825560
O O9 0.164436 0.071815 0.865749
O O10 0.250233 0.170663 0.890349
O O11 0.655000 0.312639 0.624324
O O12 0.123737 0.524345 0.414351
O O13 0.133592 0.436695 0.614762
O O14 0.000000 0.443555 0.427491
O O15 0.000000 0.031471 0.936535
O O16 0.107561 0.073024 0.133808
O O17 0.500000 0.945577 0.759814
O O18 0.500000 0.656833 0.158023
#
# Coordination Sequence:
#
# PCOD9352323 Si02
#       8
#     8   8   8   8   8   8   8   8
#     4  11  22  41  60  90 120 165 212 265 312 378
#     4  11  22  33  57  86 121 162 208 252 311 374
#     4  11  22  37  61  92 122 171 213 259 318 386
#     4  10  22  40  63  85 121 160 214 261 313 372
#     4  10  22  40  64  96 132 166 208 270 330 388
#     4  10  21  37  58  90 130 165 206 257 313 379
#     4  10  22  40  64  92 127 164 205 264 329 388
#     4   9  20  38  58  85 123 163 203 260 317 369
#
# _framework density 20.758652999999999
#
# number of rings (size 3 to 8) (size 9 to 14) (size 15 to 20)
#    0.000    1.750    1.250    2.625    3.500    2.500 
#    0.000    0.000    0.000   15.000    0.000    0.000 
#    0.000    0.000    0.000    0.000    0.000    0.000 
#
# Total GULP energy -178166.519742 kJ/mol
# GULP energy per Si atom -5567.703742 kJ/mol
# Density = 2.071141 g / cm^3
# Si number density = 20.758653 Si / 1000 Ang^3
#
#
#
# Elastic Constant Matrix: (Units=GPa)
#
#
# Indices 1 2 3 4 5 6 
#
# 1 62.0898 33.0575 31.5780 0.0000 0.0000 0.0000
# 2 33.0575 113.7923 50.1405 0.0000 0.0000 0.0000
# 3 31.5780 50.1405 107.4767 0.0000 0.0000 0.0000
# 4 0.0000 0.0000 0.0000 18.8170 0.0000 0.0000
# 5 0.0000 0.0000 0.0000 0.0000 22.3903 0.0000
# 6 0.0000 0.0000 0.0000 0.0000 0.0000 19.8520
#
#
#
# Elastic Compliance Matrix: (Units=1/GPa)
#
#
# Indices 1 2 3 4 5 6 
#
# 1 0.020368 -0.004129 -0.004058 0.000000 0.000000 0.000000
# 2 -0.004129 0.011899 -0.004338 0.000000 0.000000 0.000000
# 3 -0.004058 -0.004338 0.012520 0.000000 0.000000 0.000000
# 4 0.000000 0.000000 0.000000 0.053143 0.000000 0.000000
# 5 0.000000 0.000000 0.000000 0.000000 0.044662 0.000000
# 6 0.000000 0.000000 0.000000 0.000000 0.000000 0.050373
#
#
# Mechanical properties :
#
#
# Convention : Reuss Voigt Hill
#
# Bulk Modulus (GPa) = 50.66570 56.99007 53.82789
# Shear Modulus (GPa) = 22.26232 23.45071 22.85651
#
# Velocity S-wave (km/s) = 3.27836 3.36472 3.32182
# Velocity P-wave (km/s) = 6.22818 6.52751 6.37960
#
# Compressibility (1/GPa) = 0.01973722
#
# Stress axis : x y z
#
# Youngs Moduli (GPa) = 49.09688 84.04160 79.86941
#
# Poissons Ratio (x) = 0.34700 0.32412
# Poissons Ratio (y) = 0.20272 0.34647
# Poissons Ratio (z) = 0.19924 0.36457
#
# Static dielectric constant tensor:
#      x y z
#    x 2.059450 0.000000 0.000000 
#    y 0.000000 1.756020 0.000000 
#    z 0.000000 0.000000 1.786310 
# 
# From -- ./inp_files/4920.got.cif
#   From: 2010.05.17/outbox.cif.g08.bks.cpg/sg36_3_cif.got.tgz:4920.got - 2010.06.03 17:41:39.
