data_PCOD9352390
_publ_section_title
;
Structure prediction by ZEFSAII (Michael W. Deem and Ramdas Pophale) SiO2 
 PCOD9352390
Probable space group: C M C 21
;
_chemical_formula_sum "Si O2"
_cell_formula_units_Z 64
_cell_length_a 23.289106
_cell_length_b 8.357421
_cell_length_c 14.161838
_cell_angle_alpha 90.000000
_cell_angle_beta 90.000000
_cell_angle_gamma 90.000000
_cell_volume 2756.415731
_symmetry_space_group_name_H-M "C M C 21"
_symmetry_group_IT_number 36
_symmetry_cell_setting 'orthorhombic'
loop_
_space_group_symop_operation_xyz
x,y,z
-x,-y,1/2+z
x,-y,1/2+z
-x,y,z
1/2+x,1/2+y,z
1/2-x,1/2-y,1/2+z
1/2+x,1/2-y,1/2+z
1/2-x,1/2+y,z
loop_
_atom_site_type_symbol
_atom_site_label
_atom_site_fract_x
_atom_site_fract_y
_atom_site_fract_z
Si Si1 0.067257 0.577225 0.614550
Si Si2 0.874790 0.085832 0.853310
Si Si3 0.760982 0.189613 0.743607
Si Si4 0.934847 0.779514 0.195583
Si Si5 0.862103 0.744260 0.774161
Si Si6 0.137509 0.419080 0.461406
Si Si7 0.358948 0.444367 0.044896
Si Si8 0.233659 0.555658 0.101122
O O1 0.073935 0.402170 0.663119
O O2 0.108469 0.694379 0.675212
O O3 0.089686 0.529486 0.510305
O O4 0.000000 0.623549 0.617158
O O5 0.888654 0.910035 0.810751
O O6 0.881167 0.065106 0.964533
O O7 0.811314 0.145222 0.815710
O O8 0.918348 0.204994 0.804103
O O9 0.706389 0.285915 0.781622
O O10 0.782343 0.274169 0.646876
O O11 0.725313 0.045725 0.696175
O O12 0.000000 0.821763 0.176699
O O13 0.896089 0.903343 0.136350
O O14 0.869076 0.600600 0.849996
O O15 0.140617 0.231248 0.494017
O O16 0.196020 0.484628 0.509911
O O17 0.299439 0.529430 0.074161
#
# Coordination Sequence:
#
# PCOD9352390 Si02
#       8
#     8   8   8   8   8   8   8   8
#     4  10  22  41  63  85 115 160 208 256 307 364
#     4  11  23  39  61  92 123 158 204 251 304 366
#     4  12  21  36  61  88 124 160 194 240 300 359
#     4  10  21  41  63  84 115 158 204 255 311 364
#     4  11  23  38  60  91 122 158 203 252 305 365
#     4  10  21  38  60  87 122 161 201 247 304 366
#     4  10  21  39  61  89 120 159 205 247 299 369
#     4  12  20  38  61  86 125 160 195 240 298 359
#
# _framework density 23.218558000000002
#
# number of rings (size 3 to 8) (size 9 to 14) (size 15 to 20)
#    0.000    1.250    5.000    1.500    0.000    1.500 
#    2.250    2.500    0.000    0.000    0.000    0.000 
#    0.000    0.000    0.000    0.000    0.000    0.000 
#
# Total GULP energy -178371.263877 kJ/mol
# GULP energy per Si atom -5574.101996 kJ/mol
# Density = 2.316571 g / cm^3
# Si number density = 23.218558 Si / 1000 Ang^3
#
#
#
# Elastic Constant Matrix: (Units=GPa)
#
#
# Indices 1 2 3 4 5 6 
#
# 1 60.0043 11.1203 -6.5009 0.0000 0.0000 0.0000
# 2 11.1203 27.6398 0.2477 0.0000 0.0000 0.0000
# 3 -6.5009 0.2477 58.0080 0.0000 0.0000 0.0000
# 4 0.0000 0.0000 0.0000 26.8972 0.0000 0.0000
# 5 0.0000 0.0000 0.0000 0.0000 11.9319 0.0000
# 6 0.0000 0.0000 0.0000 0.0000 0.0000 17.7325
#
#
#
# Elastic Compliance Matrix: (Units=1/GPa)
#
#
# Indices 1 2 3 4 5 6 
#
# 1 0.018255 -0.007363 0.002077 0.000000 0.000000 0.000000
# 2 -0.007363 0.039151 -0.000992 0.000000 0.000000 0.000000
# 3 0.002077 -0.000992 0.017476 0.000000 0.000000 0.000000
# 4 0.000000 0.000000 0.000000 0.037179 0.000000 0.000000
# 5 0.000000 0.000000 0.000000 0.000000 0.083809 0.000000
# 6 0.000000 0.000000 0.000000 0.000000 0.000000 0.056394
#
#
# Mechanical properties :
#
#
# Convention : Reuss Voigt Hill
#
# Bulk Modulus (GPa) = 16.04477 17.26516 16.65496
# Shear Modulus (GPa) = 17.50731 20.69799 19.10265
#
# Velocity S-wave (km/s) = 2.74893 2.98894 2.87144
# Velocity P-wave (km/s) = 4.12320 4.40043 4.26407
#
# Compressibility (1/GPa) = 0.06232562
#
# Stress axis : x y z
#
# Youngs Moduli (GPa) = 54.77921 25.54209 57.22120
#
# Poissons Ratio (x) = 0.18807 -0.11886
# Poissons Ratio (y) = 0.40335 0.05678
# Poissons Ratio (z) = -0.11379 0.02535
#
# Static dielectric constant tensor:
#      x y z
#    x 1.916010 0.000000 0.000000 
#    y 0.000000 2.187850 0.000000 
#    z 0.000000 0.000000 1.916270 
# 
# From -- ./inp_files/12995.got.cif
#   From: 2010.05.17/outbox.cif.g08.bks.cpg/sg36_7_cif.got.tgz:12995.got - 2010.06.03 17:41:39.
