data_PCOD9352780
_publ_section_title
;
Structure prediction by ZEFSAII (Michael W. Deem and Ramdas Pophale) SiO2 
 PCOD9352780
Probable space group: C M C 21
;
_chemical_formula_sum "Si O2"
_cell_formula_units_Z 64
_cell_length_a 8.603212
_cell_length_b 31.176265
_cell_length_c 12.321468
_cell_angle_alpha 90.000000
_cell_angle_beta 90.000000
_cell_angle_gamma 90.000000
_cell_volume 3304.815073
_symmetry_space_group_name_H-M "C M C 21"
_symmetry_group_IT_number 36
_symmetry_cell_setting 'orthorhombic'
loop_
_space_group_symop_operation_xyz
x,y,z
-x,-y,1/2+z
x,-y,1/2+z
-x,y,z
1/2+x,1/2+y,z
1/2-x,1/2-y,1/2+z
1/2+x,1/2-y,1/2+z
1/2-x,1/2+y,z
loop_
_atom_site_type_symbol
_atom_site_label
_atom_site_fract_x
_atom_site_fract_y
_atom_site_fract_z
Si Si1 0.685783 0.044965 0.923630
Si Si2 0.188027 0.125068 0.060211
Si Si3 0.821888 0.323486 0.209688
Si Si4 0.315743 0.547891 0.468092
Si Si5 0.810771 0.124197 0.310732
Si Si6 0.316889 0.290723 0.424948
Si Si7 0.184985 0.198456 0.476580
Si Si8 0.819433 0.575461 0.692772
O O1 0.500000 0.049153 0.924323
O O2 0.738146 0.050400 0.798562
O O3 0.735576 0.998151 0.961965
O O4 0.753456 0.083117 0.997017
O O5 0.240812 0.125254 0.185765
O O6 0.000000 0.124179 0.059083
O O7 0.235798 0.168570 0.997540
O O8 0.714325 0.302431 0.300109
O O9 0.815968 0.374612 0.223528
O O10 0.000000 0.309085 0.225861
O O11 0.767849 0.313578 0.088533
O O12 0.500000 0.542311 0.455354
O O13 0.260983 0.581570 0.376088
O O14 0.278624 0.567706 0.585349
O O15 0.764026 0.165844 0.380940
O O16 0.000000 0.123904 0.309321
O O17 0.500000 0.284089 0.444695
O O18 0.226728 0.247285 0.450617
O O19 0.000000 0.193329 0.489549
O O20 0.000000 0.563861 0.670328
#
# Coordination Sequence:
#
# PCOD9352780 Si02
#       8
#     8   8   8   8   8   8   8   8
#     4  11  24  42  62  91 126 160 205 255 313 368
#     4  10  22  42  64  88 123 164 207 252 306 370
#     4  11  22  41  66  90 123 163 209 262 315 369
#     4  11  23  40  64  92 123 161 208 254 308 372
#     4   9  21  41  62  88 122 161 202 252 306 362
#     4  11  24  40  63  95 127 164 210 257 312 374
#     4  11  23  41  65  93 126 164 208 258 315 371
#     4  10  22  41  64  89 122 161 205 260 313 364
#
# _framework density 19.365683000000001
#
# number of rings (size 3 to 8) (size 9 to 14) (size 15 to 20)
#    0.000    1.500    2.500    1.875    3.500    2.000 
#    0.000    1.875    0.000    0.000    0.000    0.000 
#    0.000    0.000    0.000    0.000    0.000    0.000 
#
# Total GULP energy -178807.249066 kJ/mol
# GULP energy per Si atom -5587.726533 kJ/mol
# Density = 1.932161 g / cm^3
# Si number density = 19.365683 Si / 1000 Ang^3
#
#
#
# Elastic Constant Matrix: (Units=GPa)
#
#
# Indices 1 2 3 4 5 6 
#
# 1 18.6405 7.0433 2.4488 0.0000 0.0000 0.0000
# 2 7.0433 94.1480 19.2724 0.0000 0.0000 0.0000
# 3 2.4488 19.2724 94.4624 0.0000 0.0000 0.0000
# 4 0.0000 0.0000 0.0000 24.0046 0.0000 0.0000
# 5 0.0000 0.0000 0.0000 0.0000 26.6277 0.0000
# 6 0.0000 0.0000 0.0000 0.0000 0.0000 27.5738
#
#
#
# Elastic Compliance Matrix: (Units=1/GPa)
#
#
# Indices 1 2 3 4 5 6 
#
# 1 0.055241 -0.004007 -0.000615 0.000000 0.000000 0.000000
# 2 -0.004007 0.011375 -0.002217 0.000000 0.000000 0.000000
# 3 -0.000615 -0.002217 0.011054 0.000000 0.000000 0.000000
# 4 0.000000 0.000000 0.000000 0.041659 0.000000 0.000000
# 5 0.000000 0.000000 0.000000 0.000000 0.037555 0.000000
# 6 0.000000 0.000000 0.000000 0.000000 0.000000 0.036266
#
#
# Mechanical properties :
#
#
# Convention : Reuss Voigt Hill
#
# Bulk Modulus (GPa) = 15.62637 29.41997 22.52317
# Shear Modulus (GPa) = 21.91455 27.54033 24.72744
#
# Velocity S-wave (km/s) = 3.36760 3.77519 3.57721
# Velocity P-wave (km/s) = 4.81743 5.85043 5.35888
#
# Compressibility (1/GPa) = 0.06399441
#
# Stress axis : x y z
#
# Youngs Moduli (GPa) = 18.10236 87.91109 90.46131
#
# Poissons Ratio (x) = 0.35224 0.05559
# Poissons Ratio (y) = 0.07253 0.20054
# Poissons Ratio (z) = 0.01113 0.19489
#
# Static dielectric constant tensor:
#      x y z
#    x 1.665380 0.000000 0.000000 
#    y 0.000000 1.661400 0.000000 
#    z 0.000000 0.000000 1.659900 
# 
# From -- ./inp_files/7086.got.cif
#   From: 2010.05.17/outbox.cif.g08.bks.cpg/sg36_4_cif.got.tgz:7086.got - 2010.06.03 17:41:39.
