data_PCOD9352392
_publ_section_title
;
Structure prediction by ZEFSAII (Michael W. Deem and Ramdas Pophale) SiO2 
 PCOD9352392
Probable space group: C M C 21
;
_chemical_formula_sum "Si O2"
_cell_formula_units_Z 48
_cell_length_a 17.003489
_cell_length_b 9.527898
_cell_length_c 13.290462
_cell_angle_alpha 90.000000
_cell_angle_beta 90.000000
_cell_angle_gamma 90.000000
_cell_volume 2153.154640
_symmetry_space_group_name_H-M "C M C 21"
_symmetry_group_IT_number 36
_symmetry_cell_setting 'orthorhombic'
loop_
_space_group_symop_operation_xyz
x,y,z
-x,-y,1/2+z
x,-y,1/2+z
-x,y,z
1/2+x,1/2+y,z
1/2-x,1/2-y,1/2+z
1/2+x,1/2-y,1/2+z
1/2-x,1/2+y,z
loop_
_atom_site_type_symbol
_atom_site_label
_atom_site_fract_x
_atom_site_fract_y
_atom_site_fract_z
Si Si1 0.214260 0.925142 0.424940
Si Si2 0.135764 0.418235 0.301085
Si Si3 0.646235 0.688734 0.663232
Si Si4 0.412340 0.333489 0.939333
Si Si5 0.913305 0.724619 0.370661
Si Si6 0.779056 0.526093 0.134585
O O1 0.272804 0.910745 0.332861
O O2 0.158806 0.788638 0.434563
O O3 0.155139 0.054343 0.415957
O O4 0.274100 0.951719 0.515803
O O5 0.095255 0.289269 0.356684
O O6 0.099364 0.561682 0.344205
O O7 0.147976 0.437172 0.180764
O O8 0.603016 0.712103 0.555949
O O9 0.593470 0.695832 0.762512
O O10 0.694982 0.545759 0.654257
O O11 0.707381 0.818044 0.677159
O O12 0.500000 0.393717 0.933958
O O13 0.000000 0.745826 0.414422
#
# Coordination Sequence:
#
# PCOD9352392 Si02
#       6
#     8   8   8   8   8   8
#     4  11  22  40  63  90 120 163 210 255 307 370
#     4  11  22  40  63  90 120 163 210 255 307 370
#     4  10  21  38  60  88 121 158 206 254 315 370
#     4  11  23  39  61  90 125 161 202 259 319 373
#     4  11  23  39  61  90 125 161 202 259 319 373
#     4  10  22  36  62  92 118 158 212 262 300 364
#
# _framework density 22.292870000000001
#
# number of rings (size 3 to 8) (size 9 to 14) (size 15 to 20)
#    0.000    1.333    3.333    2.500    4.667    0.000 
#    0.000    0.000    0.000    2.000    0.000    0.000 
#    0.000    0.000    0.000    0.000    0.000    0.000 
#
# Total GULP energy -133927.159363 kJ/mol
# GULP energy per Si atom -5580.298307 kJ/mol
# Density = 2.224213 g / cm^3
# Si number density = 22.292870 Si / 1000 Ang^3
#
#
#
# Elastic Constant Matrix: (Units=GPa)
#
#
# Indices 1 2 3 4 5 6 
#
# 1 83.8335 11.1109 6.1572 0.0000 0.0000 0.0000
# 2 11.1109 60.3565 1.1091 0.0000 0.0000 0.0000
# 3 6.1572 1.1091 82.4181 0.0000 0.0000 0.0000
# 4 0.0000 0.0000 0.0000 27.9639 0.0000 0.0000
# 5 0.0000 0.0000 0.0000 0.0000 1.1183 0.0000
# 6 0.0000 0.0000 0.0000 0.0000 0.0000 15.5760
#
#
#
# Elastic Compliance Matrix: (Units=1/GPa)
#
#
# Indices 1 2 3 4 5 6 
#
# 1 0.012291 -0.002246 -0.000888 0.000000 0.000000 0.000000
# 2 -0.002246 0.016983 -0.000061 0.000000 0.000000 0.000000
# 3 -0.000888 -0.000061 0.012200 0.000000 0.000000 0.000000
# 4 0.000000 0.000000 0.000000 0.035760 0.000000 0.000000
# 5 0.000000 0.000000 0.000000 0.000000 0.894236 0.000000
# 6 0.000000 0.000000 0.000000 0.000000 0.000000 0.064202
#
#
# Mechanical properties :
#
#
# Convention : Reuss Voigt Hill
#
# Bulk Modulus (GPa) = 28.50268 29.26249 28.88258
# Shear Modulus (GPa) = 4.74492 22.81369 13.77931
#
# Velocity S-wave (km/s) = 1.46050 3.20247 2.48887
# Velocity P-wave (km/s) = 3.95694 5.17971 4.60905
#
# Compressibility (1/GPa) = 0.03508442
#
# Stress axis : x y z
#
# Youngs Moduli (GPa) = 81.35798 58.88288 81.96441
#
# Poissons Ratio (x) = 0.13227 0.07279
# Poissons Ratio (y) = 0.18276 0.00498
# Poissons Ratio (z) = 0.07225 0.00358
#
# Static dielectric constant tensor:
#      x y z
#    x 1.784050 0.000000 0.000000 
#    y 0.000000 1.865300 0.000000 
#    z 0.000000 0.000000 1.958450 
# 
# From -- ./inp_files/12488.got.cif
#   From: 2010.05.17/outbox.cif.g08.bks.cpg/sg36_7_cif.got.tgz:12488.got - 2010.06.03 17:41:39.
