data_PCOD9352099
_publ_section_title
;
Structure prediction by ZEFSAII (Michael W. Deem and Ramdas Pophale) SiO2 
 PCOD9352099
Probable space group: C M C 21
;
_chemical_formula_sum "Si O2"
_cell_formula_units_Z 56
_cell_length_a 14.230337
_cell_length_b 12.185722
_cell_length_c 14.741751
_cell_angle_alpha 90.000000
_cell_angle_beta 90.000000
_cell_angle_gamma 90.000000
_cell_volume 2556.321793
_symmetry_space_group_name_H-M "C M C 21"
_symmetry_group_IT_number 36
_symmetry_cell_setting 'orthorhombic'
loop_
_space_group_symop_operation_xyz
x,y,z
-x,-y,1/2+z
x,-y,1/2+z
-x,y,z
1/2+x,1/2+y,z
1/2-x,1/2-y,1/2+z
1/2+x,1/2-y,1/2+z
1/2-x,1/2+y,z
loop_
_atom_site_type_symbol
_atom_site_label
_atom_site_fract_x
_atom_site_fract_y
_atom_site_fract_z
Si Si1 0.386230 0.199675 0.413370
Si Si2 0.386055 0.887413 0.717135
Si Si3 0.895620 0.361074 0.399615
Si Si4 0.110112 0.464202 0.061861
Si Si5 0.390369 0.393818 0.953417
Si Si6 0.700690 0.420798 0.339343
Si Si7 0.886726 0.854657 0.156725
O O1 0.500000 0.206803 0.415800
O O2 0.362870 0.128361 0.323114
O O3 0.352426 0.139440 0.504802
O O4 0.344249 0.319084 0.395944
O O5 0.500000 0.891598 0.712612
O O6 0.356950 0.772259 0.670239
O O7 0.349916 0.987400 0.655270
O O8 0.887902 0.435172 0.489928
O O9 0.887028 0.233626 0.425264
O O10 0.810430 0.394079 0.336254
O O11 0.000000 0.381449 0.360997
O O12 0.000000 0.438506 0.078468
O O13 0.500000 0.428554 0.944443
O O14 0.326553 0.469595 0.891709
O O15 0.362424 0.400627 0.058583
O O16 0.654516 0.419859 0.240937
O O17 0.000000 0.855030 0.162964
#
# Coordination Sequence:
#
# PCOD9352099 Si02
#       7
#     8   8   8   8   8   8   8
#     4   9  18  31  56  91 122 151 198 259 313 360
#     4   8  13  27  52  82 113 157 204 237 288 375
#     4  10  22  39  60  87 122 168 212 253 309 374
#     4   9  16  31  55  80 114 156 198 244 298 361
#     4  10  20  39  67  93 124 167 211 259 317 382
#     4  11  22  36  63  93 126 158 215 265 313 365
#     4   9  17  35  63  94 123 163 214 255 310 389
#
# _framework density 21.906475
#
# number of rings (size 3 to 8) (size 9 to 14) (size 15 to 20)
#    0.000    2.571    1.429    2.143    2.000    0.000 
#    0.000    2.857    3.143    2.571    0.000    0.000 
#    0.000    0.000    0.000    0.000    0.000    0.000 
#
# Total GULP energy -156513.948762 kJ/mol
# GULP energy per Si atom -5589.783884 kJ/mol
# Density = 2.185662 g / cm^3
# Si number density = 21.906475 Si / 1000 Ang^3
#
#
#
# Elastic Constant Matrix: (Units=GPa)
#
#
# Indices 1 2 3 4 5 6 
#
# 1 87.9775 34.6920 41.3451 0.0000 0.0000 0.0000
# 2 34.6920 80.2564 25.2905 0.0000 0.0000 0.0000
# 3 41.3451 25.2905 71.3318 0.0000 0.0000 0.0000
# 4 0.0000 0.0000 0.0000 39.0465 0.0000 0.0000
# 5 0.0000 0.0000 0.0000 0.0000 14.3627 0.0000
# 6 0.0000 0.0000 0.0000 0.0000 0.0000 17.4957
#
#
#
# Elastic Compliance Matrix: (Units=1/GPa)
#
#
# Indices 1 2 3 4 5 6 
#
# 1 0.017128 -0.004813 -0.008221 0.000000 0.000000 0.000000
# 2 -0.004813 0.015380 -0.002663 0.000000 0.000000 0.000000
# 3 -0.008221 -0.002663 0.019728 0.000000 0.000000 0.000000
# 4 0.000000 0.000000 0.000000 0.025611 0.000000 0.000000
# 5 0.000000 0.000000 0.000000 0.000000 0.069625 0.000000
# 6 0.000000 0.000000 0.000000 0.000000 0.000000 0.057157
#
#
# Mechanical properties :
#
#
# Convention : Reuss Voigt Hill
#
# Bulk Modulus (GPa) = 47.98166 49.13563 48.55864
# Shear Modulus (GPa) = 20.57863 23.39685 21.98774
#
# Velocity S-wave (km/s) = 3.06826 3.27162 3.17157
# Velocity P-wave (km/s) = 5.87391 6.06216 5.96878
#
# Compressibility (1/GPa) = 0.02084130
#
# Stress axis : x y z
#
# Youngs Moduli (GPa) = 58.38364 65.02026 50.68848
#
# Poissons Ratio (x) = 0.31295 0.41672
# Poissons Ratio (y) = 0.28101 0.13499
# Poissons Ratio (z) = 0.47999 0.17315
#
# Static dielectric constant tensor:
#      x y z
#    x 1.830230 0.000000 0.000000 
#    y 0.000000 1.799560 0.000000 
#    z 0.000000 0.000000 1.791310 
# 
# From -- ./inp_files/12163.got.cif
#   From: 2010.05.17/outbox.cif.g08.bks.cpg/sg36_7_cif.got.tgz:12163.got - 2010.06.03 17:41:39.
