data_PCOD9352092
_publ_section_title
;
Structure prediction by ZEFSAII (Michael W. Deem and Ramdas Pophale) SiO2 
 PCOD9352092
Probable space group: C M C 21
;
_chemical_formula_sum "Si O2"
_cell_formula_units_Z 56
_cell_length_a 19.476670
_cell_length_b 9.830430
_cell_length_c 13.718758
_cell_angle_alpha 90.000000
_cell_angle_beta 90.000000
_cell_angle_gamma 90.000000
_cell_volume 2626.648845
_symmetry_space_group_name_H-M "C M C 21"
_symmetry_group_IT_number 36
_symmetry_cell_setting 'orthorhombic'
loop_
_space_group_symop_operation_xyz
x,y,z
-x,-y,1/2+z
x,-y,1/2+z
-x,y,z
1/2+x,1/2+y,z
1/2-x,1/2-y,1/2+z
1/2+x,1/2-y,1/2+z
1/2-x,1/2+y,z
loop_
_atom_site_type_symbol
_atom_site_label
_atom_site_fract_x
_atom_site_fract_y
_atom_site_fract_z
Si Si1 0.208156 0.444156 0.968910
Si Si2 0.422212 0.875352 0.264843
Si Si3 0.185078 0.616686 0.250194
Si Si4 0.079065 0.807095 0.168461
Si Si5 0.077834 0.599635 0.992359
Si Si6 0.224472 0.181097 0.064725
Si Si7 0.077302 0.875350 0.620942
O O1 0.213509 0.394114 0.858890
O O2 0.129635 0.474217 0.999379
O O3 0.240409 0.337403 0.043249
O O4 0.242056 0.589827 0.981742
O O5 0.500000 0.929963 0.247268
O O6 0.415785 0.851871 0.380695
O O7 0.417166 0.733531 0.208522
O O8 0.364064 0.984104 0.234786
O O9 0.134114 0.745054 0.241815
O O10 0.242821 0.633379 0.167210
O O11 0.000000 0.780249 0.197555
O O12 0.085425 0.967891 0.153134
O O13 0.091909 0.720267 0.068889
O O14 0.000000 0.554197 0.009001
O O15 0.143215 0.159443 0.057127
O O16 0.000000 0.861849 0.579077
#
# Coordination Sequence:
#
# PCOD9352092 Si02
#       7
#     8   8   8   8   8   8   8
#     4  11  26  43  66  98 128 175 222 265 335 392
#     4   9  19  39  68 100 130 171 224 268 319 386
#     4  11  23  43  68  95 129 173 221 273 323 389
#     4  10  20  39  65  94 132 172 210 264 326 385
#     4   9  19  39  68  96 129 171 220 269 319 385
#     4  12  25  44  64  93 133 170 218 277 327 395
#     4  10  23  41  64  94 129 170 215 268 332 386
#
# _framework density 21.319942000000001
#
# number of rings (size 3 to 8) (size 9 to 14) (size 15 to 20)
#    0.000    1.714    1.429    2.143    0.000    5.714 
#    2.571    0.000    0.000    0.000    0.000    0.000 
#    0.000    0.000    0.000    0.000    0.000    0.000 
#
# Total GULP energy -156448.577343 kJ/mol
# GULP energy per Si atom -5587.449191 kJ/mol
# Density = 2.127142 g / cm^3
# Si number density = 21.319942 Si / 1000 Ang^3
#
#
#
# Elastic Constant Matrix: (Units=GPa)
#
#
# Indices 1 2 3 4 5 6 
#
# 1 86.7515 25.6877 22.3654 0.0000 0.0000 0.0000
# 2 25.6877 93.3720 11.8145 0.0000 0.0000 0.0000
# 3 22.3654 11.8145 62.7412 0.0000 0.0000 0.0000
# 4 0.0000 0.0000 0.0000 15.0979 0.0000 0.0000
# 5 0.0000 0.0000 0.0000 0.0000 28.0444 0.0000
# 6 0.0000 0.0000 0.0000 0.0000 0.0000 31.8633
#
#
#
# Elastic Compliance Matrix: (Units=1/GPa)
#
#
# Indices 1 2 3 4 5 6 
#
# 1 0.013565 -0.003196 -0.004234 0.000000 0.000000 0.000000
# 2 -0.003196 0.011724 -0.001068 0.000000 0.000000 0.000000
# 3 -0.004234 -0.001068 0.017649 0.000000 0.000000 0.000000
# 4 0.000000 0.000000 0.000000 0.066234 0.000000 0.000000
# 5 0.000000 0.000000 0.000000 0.000000 0.035658 0.000000
# 6 0.000000 0.000000 0.000000 0.000000 0.000000 0.031384
#
#
# Mechanical properties :
#
#
# Convention : Reuss Voigt Hill
#
# Bulk Modulus (GPa) = 38.54800 40.28889 39.41844
# Shear Modulus (GPa) = 24.76984 27.20093 25.98538
#
# Velocity S-wave (km/s) = 3.41224 3.57577 3.49496
# Velocity P-wave (km/s) = 5.80039 5.99887 5.90046
#
# Compressibility (1/GPa) = 0.02594168
#
# Stress axis : x y z
#
# Youngs Moduli (GPa) = 73.71863 85.29260 56.66090
#
# Poissons Ratio (x) = 0.27261 0.23989
# Poissons Ratio (y) = 0.23562 0.06054
# Poissons Ratio (z) = 0.31210 0.09113
#
# Static dielectric constant tensor:
#      x y z
#    x 1.822480 0.000000 0.000000 
#    y 0.000000 1.746940 0.000000 
#    z 0.000000 0.000000 1.762490 
# 
# From -- ./inp_files/12837.got.cif
#   From: 2010.05.17/outbox.cif.g08.bks.cpg/sg36_7_cif.got.tgz:12837.got - 2010.06.03 17:41:39.
