data_PCOD9352136
_publ_section_title
;
Structure prediction by ZEFSAII (Michael W. Deem and Ramdas Pophale) SiO2 
 PCOD9352136
Probable space group: C M C 21
;
_chemical_formula_sum "Si O2"
_cell_formula_units_Z 44
_cell_length_a 15.301068
_cell_length_b 7.910264
_cell_length_c 16.689796
_cell_angle_alpha 90.000000
_cell_angle_beta 90.000000
_cell_angle_gamma 90.000000
_cell_volume 2020.057593
_symmetry_space_group_name_H-M "C M C 21"
_symmetry_group_IT_number 36
_symmetry_cell_setting 'orthorhombic'
loop_
_space_group_symop_operation_xyz
x,y,z
-x,-y,1/2+z
x,-y,1/2+z
-x,y,z
1/2+x,1/2+y,z
1/2-x,1/2-y,1/2+z
1/2+x,1/2-y,1/2+z
1/2-x,1/2+y,z
loop_
_atom_site_type_symbol
_atom_site_label
_atom_site_fract_x
_atom_site_fract_y
_atom_site_fract_z
Si Si1 0.399517 0.353327 0.395540
Si Si2 0.341167 0.301060 0.886518
Si Si3 0.157179 0.387350 0.167354
Si Si4 0.394930 0.992338 0.991363
Si Si5 0.689557 0.226731 0.255337
Si Si6 0.500000 0.729391 0.257928
O O1 0.500000 0.391411 0.411603
O O2 0.344245 0.512670 0.424672
O O3 0.384227 0.337074 0.299184
O O4 0.382313 0.174012 0.436673
O O5 0.258843 0.291364 0.827589
O O6 0.424100 0.283564 0.827952
O O7 0.349508 0.152268 0.950106
O O8 0.143607 0.451816 0.078016
O O9 0.252805 0.309388 0.185203
O O10 0.151238 0.549541 0.226675
O O11 0.078382 0.263133 0.190913
O O12 0.500000 0.022799 0.997011
#
# Coordination Sequence:
#
# PCOD9352136 Si02
#       6
#     8   8   8   8   8   4
#     4  11  23  42  72 100 128 177 237 276 332 417
#     4  11  22  44  70  99 132 177 236 279 333 410
#     4  11  24  44  66 100 143 176 224 287 354 400
#     4  11  24  43  71 102 138 181 222 288 351 406
#     4  11  24  43  67  99 132 182 230 281 339 405
#     4  10  20  40  72  90 132 182 224 272 328 420
#
# _framework density 21.781559000000001
#
# number of rings (size 3 to 8) (size 9 to 14) (size 15 to 20)
#    0.000    1.091    4.545    2.182    3.818    1.455 
#    3.273    0.000    4.000    0.000    0.000    0.000 
#    0.000    0.000    0.000    0.000    0.000    0.000 
#
# Total GULP energy -122472.729032 kJ/mol
# GULP energy per Si atom -5566.942229 kJ/mol
# Density = 2.173198 g / cm^3
# Si number density = 21.781559 Si / 1000 Ang^3
#
#
#
# Elastic Constant Matrix: (Units=GPa)
#
#
# Indices 1 2 3 4 5 6 
#
# 1 49.2648 1.7813 28.9879 0.0000 0.0000 0.0000
# 2 1.7813 77.3855 1.4555 0.0000 0.0000 0.0000
# 3 28.9879 1.4555 55.3454 0.0000 0.0000 0.0000
# 4 0.0000 0.0000 0.0000 18.6581 0.0000 0.0000
# 5 0.0000 0.0000 0.0000 0.0000 24.1338 0.0000
# 6 0.0000 0.0000 0.0000 0.0000 0.0000 2.8430
#
#
#
# Elastic Compliance Matrix: (Units=1/GPa)
#
#
# Indices 1 2 3 4 5 6 
#
# 1 0.029353 -0.000387 -0.015364 0.000000 0.000000 0.000000
# 2 -0.000387 0.012934 -0.000138 0.000000 0.000000 0.000000
# 3 -0.015364 -0.000138 0.026119 0.000000 0.000000 0.000000
# 4 0.000000 0.000000 0.000000 0.053596 0.000000 0.000000
# 5 0.000000 0.000000 0.000000 0.000000 0.041436 0.000000
# 6 0.000000 0.000000 0.000000 0.000000 0.000000 0.351740
#
#
# Mechanical properties :
#
#
# Convention : Reuss Voigt Hill
#
# Bulk Modulus (GPa) = 27.30047 27.38279 27.34163
# Shear Modulus (GPa) = 8.94195 19.11172 14.02683
#
# Velocity S-wave (km/s) = 2.02835 2.96535 2.54042
# Velocity P-wave (km/s) = 4.24812 4.93186 4.60271
#
# Compressibility (1/GPa) = 0.03662940
#
# Stress axis : x y z
#
# Youngs Moduli (GPa) = 34.06858 77.31672 38.28655
#
# Poissons Ratio (x) = 0.02990 0.58822
# Poissons Ratio (y) = 0.01317 0.00527
# Poissons Ratio (z) = 0.52342 0.01064
#
# Static dielectric constant tensor:
#      x y z
#    x 1.828280 0.000000 0.000000 
#    y 0.000000 1.867620 0.000000 
#    z 0.000000 0.000000 1.766980 
# 
# From -- ./inp_files/12448.got.cif
#   From: 2010.05.17/outbox.cif.g08.bks.cpg/sg36_7_cif.got.tgz:12448.got - 2010.06.03 17:41:39.
