data_PCOD9352036
_publ_section_title
;
Structure prediction by ZEFSAII (Michael W. Deem and Ramdas Pophale) SiO2 
 PCOD9352036
Probable space group: C M C 21
;
_chemical_formula_sum "Si O2"
_cell_formula_units_Z 48
_cell_length_a 8.664945
_cell_length_b 19.312067
_cell_length_c 15.434502
_cell_angle_alpha 90.000000
_cell_angle_beta 90.000000
_cell_angle_gamma 90.000000
_cell_volume 2582.778671
_symmetry_space_group_name_H-M "C M C 21"
_symmetry_group_IT_number 36
_symmetry_cell_setting 'orthorhombic'
loop_
_space_group_symop_operation_xyz
x,y,z
-x,-y,1/2+z
x,-y,1/2+z
-x,y,z
1/2+x,1/2+y,z
1/2-x,1/2-y,1/2+z
1/2+x,1/2-y,1/2+z
1/2-x,1/2+y,z
loop_
_atom_site_type_symbol
_atom_site_label
_atom_site_fract_x
_atom_site_fract_y
_atom_site_fract_z
Si Si1 0.315414 0.922988 0.929190
Si Si2 0.185321 0.925342 0.426519
Si Si3 0.814621 0.177583 0.082568
Si Si4 0.815414 0.577012 0.735946
Si Si5 0.183504 0.830786 0.082568
Si Si6 0.814679 0.074658 0.238617
O O1 0.500000 0.923543 0.928443
O O2 0.252425 0.907563 0.832925
O O3 0.253677 0.999837 0.951609
O O4 0.253140 0.868761 0.998612
O O5 0.223497 0.868175 0.498176
O O6 0.252425 0.907563 0.332211
O O7 0.000000 0.931534 0.420945
O O8 0.730610 0.250668 0.082568
O O9 0.776503 0.131825 0.166960
O O10 0.000000 0.189069 0.082568
O O11 0.753140 0.631239 0.666524
O O12 0.753677 0.500163 0.713527
O O13 0.000000 0.576457 0.736693
O O14 0.000000 0.838665 0.082568
O O15 0.000000 0.068466 0.244191
#
# Coordination Sequence:
#
# PCOD9352036 Si02
#       6
#     8   8   8   8   8   8
#     4  11  22  38  61  88 118 151 193 241 287 339
#     4  10  20  38  63  89 118 152 193 237 286 342
#     4  10  23  40  59  85 117 153 191 236 287 342
#     4  11  22  38  61  88 118 151 193 241 287 339
#     4  12  25  40  59  83 115 155 195 238 291 348
#     4  10  20  38  63  89 118 152 193 237 286 342
#
# _framework density 18.584634999999999
#
# number of rings (size 3 to 8) (size 9 to 14) (size 15 to 20)
#    0.000    1.333    0.000    8.500    0.000    5.333 
#    0.000    0.000    0.000    0.000    0.000    0.000 
#    0.000    0.000    0.000    0.000    0.000    0.000 
#
# Total GULP energy -134234.239845 kJ/mol
# GULP energy per Si atom -5593.093327 kJ/mol
# Density = 1.854234 g / cm^3
# Si number density = 18.584635 Si / 1000 Ang^3
#
#
#
# Elastic Constant Matrix: (Units=GPa)
#
#
# Indices 1 2 3 4 5 6 
#
# 1 151.0741 93.0569 80.9666 0.0000 0.0000 0.0000
# 2 93.0569 151.5227 119.6780 0.0000 0.0000 0.0000
# 3 80.9666 119.6780 122.3601 0.0000 0.0000 0.0000
# 4 0.0000 0.0000 0.0000 -67.2080 0.0000 0.0000
# 5 0.0000 0.0000 0.0000 0.0000 -5.9261 0.0000
# 6 0.0000 0.0000 0.0000 0.0000 0.0000 37.8674
#
#
#
# Elastic Compliance Matrix: (Units=1/GPa)
#
#
# Indices 1 2 3 4 5 6 
#
# 1 0.010879 -0.004376 -0.002918 0.000000 0.000000 0.000000
# 2 -0.004376 0.030773 -0.027203 0.000000 0.000000 0.000000
# 3 -0.002918 -0.027203 0.036710 0.000000 0.000000 0.000000
# 4 0.000000 0.000000 0.000000 -0.014879 0.000000 0.000000
# 5 0.000000 0.000000 0.000000 0.000000 -0.168744 0.000000
# 6 0.000000 0.000000 0.000000 0.000000 0.000000 0.026408
#
#
# Mechanical properties :
#
#
# Convention : Reuss Voigt Hill
#
# Bulk Modulus (GPa) = 106.75212 112.48442 109.61827
# Shear Modulus (GPa) = -742.22315 1.69701 -370.26307
#
# Velocity S-wave (km/s) = -20.00604 0.95661 -14.13022
# Velocity P-wave (km/s) = 21.81948 7.86620 14.39119
#
# Compressibility (1/GPa) = 0.00936750
#
# Stress axis : x y z
#
# Youngs Moduli (GPa) = 91.92057 32.49617 27.24045
#
# Poissons Ratio (x) = 0.14221 0.07950
# Poissons Ratio (y) = 0.40226 0.74101
# Poissons Ratio (z) = 0.26827 0.88398
#
# Static dielectric constant tensor:
#      x y z
#    x 1.621360 0.000000 0.000000 
#    y 0.000000 1.605100 0.000000 
#    z 0.000000 0.000000 1.625890 
# 
# From -- ./inp_files/10364.got.cif
#   From: 2010.05.17/outbox.cif.g08.bks.cpg/sg36_6_cif.got.tgz:10364.got - 2010.06.03 17:41:39.
