data_PCOD9352577
_publ_section_title
;
Structure prediction by ZEFSAII (Michael W. Deem and Ramdas Pophale) SiO2 
 PCOD9352577
Probable space group: C M C 21
;
_chemical_formula_sum "Si O2"
_cell_formula_units_Z 36
_cell_length_a 11.605843
_cell_length_b 23.452502
_cell_length_c 4.925859
_cell_angle_alpha 90.000000
_cell_angle_beta 90.000000
_cell_angle_gamma 90.000000
_cell_volume 1340.750134
_symmetry_space_group_name_H-M "C M C 21"
_symmetry_group_IT_number 36
_symmetry_cell_setting 'orthorhombic'
loop_
_space_group_symop_operation_xyz
x,y,z
-x,-y,1/2+z
x,-y,1/2+z
-x,y,z
1/2+x,1/2+y,z
1/2-x,1/2-y,1/2+z
1/2+x,1/2-y,1/2+z
1/2-x,1/2+y,z
loop_
_atom_site_type_symbol
_atom_site_label
_atom_site_fract_x
_atom_site_fract_y
_atom_site_fract_z
Si Si1 0.873042 0.365216 0.778670
Si Si2 0.000000 0.963492 0.140653
Si Si3 0.122652 0.128713 0.339742
Si Si4 0.637090 0.965655 0.177771
Si Si5 0.679324 0.744003 0.621142
O O1 0.741031 0.373221 0.672223
O O2 0.858076 0.401752 0.056673
O O3 0.881266 0.296600 0.773954
O O4 0.000000 0.384567 0.668514
O O5 0.106659 0.925618 0.035937
O O6 0.000000 0.980847 0.450551
O O7 0.126193 0.184449 0.531841
O O8 0.000000 0.133342 0.183959
O O9 0.500000 0.975132 0.199852
O O10 0.683622 0.012447 0.963303
O O11 0.718958 0.768923 0.332049
#
# Coordination Sequence:
#
# PCOD9352577 Si02
#       5
#     8   4   8   8   8
#     4  10  21  40  69 101 136 177 230 278 347 416
#     4  10  24  44  72 100 134 184 238 286 344 410
#     4   9  22  44  67  99 137 180 228 290 341 409
#     4   9  19  35  56  85 123 164 204 258 317 382
#     4  10  22  42  68 100 136 178 226 285 349 409
#
# _framework density 26.850638
#
# number of rings (size 3 to 8) (size 9 to 14) (size 15 to 20)
#    0.667    1.778    0.000    0.667    0.000    8.889 
#    0.000   27.778    0.000    0.000    0.000    0.000 
#    0.000    0.000    0.000    0.000    0.000    0.000 
#
# Total GULP energy -100226.718607 kJ/mol
# GULP energy per Si atom -5568.151034 kJ/mol
# Density = 2.678953 g / cm^3
# Si number density = 26.850638 Si / 1000 Ang^3
#
#
#
# Elastic Constant Matrix: (Units=GPa)
#
#
# Indices 1 2 3 4 5 6 
#
# 1 188.7254 30.3648 23.5055 0.0000 0.0000 0.0000
# 2 30.3648 209.6401 40.8650 0.0000 0.0000 0.0000
# 3 23.5055 40.8650 103.4582 0.0000 0.0000 0.0000
# 4 0.0000 0.0000 0.0000 52.1292 0.0000 0.0000
# 5 0.0000 0.0000 0.0000 0.0000 1.2148 0.0000
# 6 0.0000 0.0000 0.0000 0.0000 0.0000 36.4428
#
#
#
# Elastic Compliance Matrix: (Units=1/GPa)
#
#
# Indices 1 2 3 4 5 6 
#
# 1 0.005522 -0.000602 -0.001017 0.000000 0.000000 0.000000
# 2 -0.000602 0.005234 -0.001931 0.000000 0.000000 0.000000
# 3 -0.001017 -0.001931 0.010659 0.000000 0.000000 0.000000
# 4 0.000000 0.000000 0.000000 0.019183 0.000000 0.000000
# 5 0.000000 0.000000 0.000000 0.000000 0.823171 0.000000
# 6 0.000000 0.000000 0.000000 0.000000 0.000000 0.027440
#
#
# Mechanical properties :
#
#
# Convention : Reuss Voigt Hill
#
# Bulk Modulus (GPa) = 69.84798 76.81047 73.32922
# Shear Modulus (GPa) = 5.53661 45.09658 25.31660
#
# Velocity S-wave (km/s) = 1.43753 4.10266 3.07395
# Velocity P-wave (km/s) = 5.36892 7.14920 6.32204
#
# Compressibility (1/GPa) = 0.01431681
#
# Stress axis : x y z
#
# Youngs Moduli (GPa) = 181.08840 191.07554 93.81451
#
# Poissons Ratio (x) = 0.11495 0.09541
# Poissons Ratio (y) = 0.10894 0.18111
# Poissons Ratio (z) = 0.18417 0.36887
#
# Static dielectric constant tensor:
#      x y z
#    x 2.256510 0.000000 0.000000 
#    y 0.000000 2.090310 0.000000 
#    z 0.000000 0.000000 2.024890 
# 
# From -- ./inp_files/743.got.cif
#   From: 2010.05.17/outbox.cif.g08.bks.cpg/sg36_1_cif.got.tgz:743.got - 2010.06.03 17:41:39.
