data_PCOD9352943
_publ_section_title
;
Structure prediction by ZEFSAII (Michael W. Deem and Ramdas Pophale) SiO2 
 PCOD9352943
Probable space group: C M C 21
;
_chemical_formula_sum "Si O2"
_cell_formula_units_Z 40
_cell_length_a 9.912244
_cell_length_b 19.698500
_cell_length_c 8.846476
_cell_angle_alpha 90.000000
_cell_angle_beta 90.000000
_cell_angle_gamma 90.000000
_cell_volume 1727.330512
_symmetry_space_group_name_H-M "C M C 21"
_symmetry_group_IT_number 36
_symmetry_cell_setting 'orthorhombic'
loop_
_space_group_symop_operation_xyz
x,y,z
-x,-y,1/2+z
x,-y,1/2+z
-x,y,z
1/2+x,1/2+y,z
1/2-x,1/2-y,1/2+z
1/2+x,1/2-y,1/2+z
1/2-x,1/2+y,z
loop_
_atom_site_type_symbol
_atom_site_label
_atom_site_fract_x
_atom_site_fract_y
_atom_site_fract_z
Si Si1 0.347212 0.584147 0.458460
Si Si2 0.351693 0.959587 0.453789
Si Si3 0.152786 0.358451 0.719187
Si Si4 0.150079 0.771927 0.526547
Si Si5 0.246025 0.658855 0.734845
O O1 0.500000 0.577756 0.405229
O O2 0.267649 0.513441 0.449974
O O3 0.259224 0.632873 0.352069
O O4 0.343441 0.615982 0.625573
O O5 0.500000 0.990929 0.426698
O O6 0.352280 0.927561 0.621333
O O7 0.329284 0.897976 0.335998
O O8 0.221075 0.307249 0.602914
O O9 0.000000 0.341165 0.765648
O O10 0.153652 0.700615 0.616756
O O11 0.180895 0.788531 0.350212
O O12 0.000000 0.801251 0.555426
#
# Coordination Sequence:
#
# PCOD9352943 Si02
#       5
#     8   8   8   8   8
#     4  12  25  40  64  98 135 177 227 281 338 403
#     4  10  23  43  66  94 130 174 226 281 339 406
#     4  10  23  42  65  94 131 176 224 276 337 405
#     4  11  24  44  70  98 133 176 223 278 337 400
#     4  11  25  43  69 102 137 177 226 280 341 408
#
# _framework density 23.157119999999999
#
# number of rings (size 3 to 8) (size 9 to 14) (size 15 to 20)
#    0.000    1.200    0.000    4.800    0.000   15.200 
#    0.000    0.000    0.000    0.000    0.000    0.000 
#    0.000    0.000    0.000    0.000    0.000    0.000 
#
# Total GULP energy -111648.798403 kJ/mol
# GULP energy per Si atom -5582.439920 kJ/mol
# Density = 2.310441 g / cm^3
# Si number density = 23.157120 Si / 1000 Ang^3
#
#
#
# Elastic Constant Matrix: (Units=GPa)
#
#
# Indices 1 2 3 4 5 6 
#
# 1 210.5904 45.2944 57.4610 0.0000 0.0000 0.0000
# 2 45.2944 79.0786 40.9353 0.0000 0.0000 0.0000
# 3 57.4610 40.9353 134.9305 0.0000 0.0000 0.0000
# 4 0.0000 0.0000 0.0000 44.9292 0.0000 0.0000
# 5 0.0000 0.0000 0.0000 0.0000 23.3909 0.0000
# 6 0.0000 0.0000 0.0000 0.0000 0.0000 12.5495
#
#
#
# Elastic Compliance Matrix: (Units=1/GPa)
#
#
# Indices 1 2 3 4 5 6 
#
# 1 0.005731 -0.002396 -0.001714 0.000000 0.000000 0.000000
# 2 -0.002396 0.016003 -0.003835 0.000000 0.000000 0.000000
# 3 -0.001714 -0.003835 0.009305 0.000000 0.000000 0.000000
# 4 0.000000 0.000000 0.000000 0.022257 0.000000 0.000000
# 5 0.000000 0.000000 0.000000 0.000000 0.042752 0.000000
# 6 0.000000 0.000000 0.000000 0.000000 0.000000 0.079684
#
#
# Mechanical properties :
#
#
# Convention : Reuss Voigt Hill
#
# Bulk Modulus (GPa) = 66.00605 79.10897 72.55751
# Shear Modulus (GPa) = 25.42318 34.90119 30.16218
#
# Velocity S-wave (km/s) = 3.31699 3.88641 3.61293
# Velocity P-wave (km/s) = 6.57536 7.37393 6.98607
#
# Compressibility (1/GPa) = 0.01515013
#
# Stress axis : x y z
#
# Youngs Moduli (GPa) = 174.47481 62.48879 107.47438
#
# Poissons Ratio (x) = 0.14970 0.18421
# Poissons Ratio (y) = 0.41797 0.41214
# Poissons Ratio (z) = 0.29905 0.23963
#
# Static dielectric constant tensor:
#      x y z
#    x 1.831620 0.000000 0.000000 
#    y 0.000000 1.927170 0.000000 
#    z 0.000000 0.000000 1.899530 
# 
# From -- ./inp_files/2412.got.cif
#   From: 2010.05.17/outbox.cif.g08.bks.cpg/sg36_2_cif.got.tgz:2412.got - 2010.06.03 17:41:39.
