data_PCOD9352782
_publ_section_title
;
Structure prediction by ZEFSAII (Michael W. Deem and Ramdas Pophale) SiO2 
 PCOD9352782
Probable space group: C M C 21
;
_chemical_formula_sum "Si O2"
_cell_formula_units_Z 64
_cell_length_a 9.015354
_cell_length_b 31.023217
_cell_length_c 12.061221
_cell_angle_alpha 90.000000
_cell_angle_beta 90.000000
_cell_angle_gamma 90.000000
_cell_volume 3373.346014
_symmetry_space_group_name_H-M "C M C 21"
_symmetry_group_IT_number 36
_symmetry_cell_setting 'orthorhombic'
loop_
_space_group_symop_operation_xyz
x,y,z
-x,-y,1/2+z
x,-y,1/2+z
-x,y,z
1/2+x,1/2+y,z
1/2-x,1/2-y,1/2+z
1/2+x,1/2-y,1/2+z
1/2-x,1/2+y,z
loop_
_atom_site_type_symbol
_atom_site_label
_atom_site_fract_x
_atom_site_fract_y
_atom_site_fract_z
Si Si1 0.673879 0.791626 0.544140
Si Si2 0.830105 0.336678 0.316960
Si Si3 0.178215 0.874451 0.923050
Si Si4 0.175153 0.455005 0.534310
Si Si5 0.678007 0.374202 0.660773
Si Si6 0.825379 0.045124 0.574856
Si Si7 0.174777 0.699584 0.569930
Si Si8 0.829544 0.076076 0.826070
O O1 0.500000 0.790969 0.574074
O O2 0.684301 0.801472 0.412833
O O3 0.752751 0.831023 0.607820
O O4 0.748263 0.745919 0.566209
O O5 0.807948 0.318777 0.194280
O O6 0.714872 0.374365 0.340712
O O7 0.000000 0.353911 0.324374
O O8 0.211227 0.875818 0.792355
O O9 0.000000 0.870268 0.936085
O O10 0.221739 0.918766 0.985583
O O11 0.253986 0.834261 0.984393
O O12 0.254593 0.416090 0.600246
O O13 0.233347 0.501435 0.571535
O O14 0.223219 0.450359 0.406278
O O15 0.000000 0.450864 0.547536
O O16 0.500000 0.373940 0.646905
O O17 0.811750 0.065008 0.697311
O O18 0.000000 0.035383 0.555309
O O19 0.000000 0.703911 0.547118
O O20 0.000000 0.068207 0.857862
#
# Coordination Sequence:
#
# PCOD9352782 Si02
#       8
#     8   8   8   8   8   8   8   8
#     4  11  24  42  64  92 127 167 209 257 315 371
#     4  10  22  41  64  90 125 163 205 263 315 364
#     4  10  23  44  66  91 126 165 208 260 315 370
#     4  12  26  42  63  94 131 167 207 256 315 375
#     4  11  24  43  66  92 126 166 211 261 312 370
#     4  10  23  43  66  94 124 164 214 258 311 372
#     4  11  24  41  64  95 128 165 210 256 312 376
#     4  11  22  40  69  94 121 161 210 263 311 370
#
# _framework density 18.972261
#
# number of rings (size 3 to 8) (size 9 to 14) (size 15 to 20)
#    0.000    1.250    2.500    2.625    3.500    3.500 
#    0.000    0.000    0.000    0.000    0.000    0.000 
#    0.000    0.000    0.000    0.000    0.000    0.000 
#
# Total GULP energy -178879.056466 kJ/mol
# GULP energy per Si atom -5589.970515 kJ/mol
# Density = 1.892908 g / cm^3
# Si number density = 18.972261 Si / 1000 Ang^3
#
#
#
# Elastic Constant Matrix: (Units=GPa)
#
#
# Indices 1 2 3 4 5 6 
#
# 1 81.3377 50.5140 43.6464 0.0000 0.0000 0.0000
# 2 50.5140 111.4730 28.0252 0.0000 0.0000 0.0000
# 3 43.6464 28.0252 89.1191 0.0000 0.0000 0.0000
# 4 0.0000 0.0000 0.0000 15.2210 0.0000 0.0000
# 5 0.0000 0.0000 0.0000 0.0000 28.8936 0.0000
# 6 0.0000 0.0000 0.0000 0.0000 0.0000 36.5315
#
#
#
# Elastic Compliance Matrix: (Units=1/GPa)
#
#
# Indices 1 2 3 4 5 6 
#
# 1 0.021377 -0.007661 -0.008061 0.000000 0.000000 0.000000
# 2 -0.007661 0.012486 -0.000175 0.000000 0.000000 0.000000
# 3 -0.008061 -0.000175 0.015224 0.000000 0.000000 0.000000
# 4 0.000000 0.000000 0.000000 0.065699 0.000000 0.000000
# 5 0.000000 0.000000 0.000000 0.000000 0.034610 0.000000
# 6 0.000000 0.000000 0.000000 0.000000 0.000000 0.027374
#
#
# Mechanical properties :
#
#
# Convention : Reuss Voigt Hill
#
# Bulk Modulus (GPa) = 57.81944 58.47787 58.14866
# Shear Modulus (GPa) = 23.32895 26.77883 25.05389
#
# Velocity S-wave (km/s) = 3.51042 3.76103 3.63788
# Velocity P-wave (km/s) = 6.85366 7.05338 6.95424
#
# Compressibility (1/GPa) = 0.01729522
#
# Stress axis : x y z
#
# Youngs Moduli (GPa) = 46.77844 80.08891 65.68762
#
# Poissons Ratio (x) = 0.61353 0.52948
# Poissons Ratio (y) = 0.35835 0.01147
# Poissons Ratio (z) = 0.37706 0.01399
#
# Static dielectric constant tensor:
#      x y z
#    x 1.645400 0.000000 0.000000 
#    y 0.000000 1.626100 0.000000 
#    z 0.000000 0.000000 1.647920 
# 
# From -- ./inp_files/7083.got.cif
#   From: 2010.05.17/outbox.cif.g08.bks.cpg/sg36_4_cif.got.tgz:7083.got - 2010.06.03 17:41:39.
