data_PCOD9352496
_publ_section_title
;
Structure prediction by ZEFSAII (Michael W. Deem and Ramdas Pophale) SiO2 
 PCOD9352496
Probable space group: C M C 21
;
_chemical_formula_sum "Si O2"
_cell_formula_units_Z 64
_cell_length_a 8.953424
_cell_length_b 31.751810
_cell_length_c 11.397233
_cell_angle_alpha 90.000000
_cell_angle_beta 90.000000
_cell_angle_gamma 90.000000
_cell_volume 3240.089938
_symmetry_space_group_name_H-M "C M C 21"
_symmetry_group_IT_number 36
_symmetry_cell_setting 'orthorhombic'
loop_
_space_group_symop_operation_xyz
x,y,z
-x,-y,1/2+z
x,-y,1/2+z
-x,y,z
1/2+x,1/2+y,z
1/2-x,1/2-y,1/2+z
1/2+x,1/2-y,1/2+z
1/2-x,1/2+y,z
loop_
_atom_site_type_symbol
_atom_site_label
_atom_site_fract_x
_atom_site_fract_y
_atom_site_fract_z
Si Si1 0.330073 0.069472 0.372840
Si Si2 0.321485 0.864074 0.063442
Si Si3 0.679299 0.077462 0.021549
Si Si4 0.170947 0.647032 0.189910
Si Si5 0.678290 0.074585 0.750394
Si Si6 0.679076 0.275023 0.019018
Si Si7 0.677903 0.267570 0.751894
Si Si8 0.323759 0.488528 0.698102
O O1 0.500000 0.053404 0.385411
O O2 0.284703 0.094142 0.488798
O O3 0.331656 0.107907 0.279620
O O4 0.229044 0.033012 0.320379
O O5 0.500000 0.856128 0.048691
O O6 0.289244 0.879848 0.194444
O O7 0.232507 0.823542 0.022784
O O8 0.500000 0.073301 0.036701
O O9 0.717927 0.123913 0.070429
O O10 0.755962 0.041325 0.097677
O O11 0.717024 0.073866 0.886491
O O12 0.277577 0.683643 0.232962
O O13 0.000000 0.663260 0.180660
O O14 0.500000 0.068368 0.736715
O O15 0.759112 0.035163 0.692023
O O16 0.500000 0.272066 0.025274
O O17 0.747969 0.255011 0.138294
O O18 0.723556 0.257226 0.888332
O O19 0.500000 0.261205 0.744990
O O20 0.500000 0.488677 0.690624
#
# Coordination Sequence:
#
# PCOD9352496 Si02
#       8
#     8   8   8   8   8   8   8   8
#     4   9  18  35  60  86 114 152 196 238 289 357
#     4  10  21  39  64  91 119 157 202 251 305 367
#     4   9  20  39  59  82 115 155 201 246 297 367
#     4   9  17  34  61  87 113 150 194 243 299 355
#     4  10  22  39  60  85 117 158 203 249 301 367
#     4  11  25  43  65  95 131 167 210 263 319 379
#     4  11  24  41  64  95 128 166 211 257 310 380
#     4  11  23  36  55  85 119 155 199 251 302 352
#
# _framework density 19.752538999999999
#
# number of rings (size 3 to 8) (size 9 to 14) (size 15 to 20)
#    0.000    2.000    1.250    2.625    1.750    6.000 
#    0.000    2.500    0.000    0.000    0.000    0.000 
#    0.000    0.000    0.000    0.000    0.000    0.000 
#
# Total GULP energy -178508.458204 kJ/mol
# GULP energy per Si atom -5578.389319 kJ/mol
# Density = 1.970758 g / cm^3
# Si number density = 19.752539 Si / 1000 Ang^3
#
#
#
# Elastic Constant Matrix: (Units=GPa)
#
#
# Indices 1 2 3 4 5 6 
#
# 1 33.0123 23.6320 51.6722 0.0000 0.0000 0.0000
# 2 23.6320 50.8018 43.6734 0.0000 0.0000 0.0000
# 3 51.6722 43.6734 130.6293 0.0000 0.0000 0.0000
# 4 0.0000 0.0000 0.0000 22.2549 0.0000 0.0000
# 5 0.0000 0.0000 0.0000 0.0000 16.4804 0.0000
# 6 0.0000 0.0000 0.0000 0.0000 0.0000 12.2050
#
#
#
# Elastic Compliance Matrix: (Units=1/GPa)
#
#
# Indices 1 2 3 4 5 6 
#
# 1 0.087286 -0.015327 -0.029403 0.000000 0.000000 0.000000
# 2 -0.015327 0.030315 -0.004073 0.000000 0.000000 0.000000
# 3 -0.029403 -0.004073 0.020648 0.000000 0.000000 0.000000
# 4 0.000000 0.000000 0.000000 0.044934 0.000000 0.000000
# 5 0.000000 0.000000 0.000000 0.000000 0.060678 0.000000
# 6 0.000000 0.000000 0.000000 0.000000 0.000000 0.081933
#
#
# Mechanical properties :
#
#
# Convention : Reuss Voigt Hill
#
# Bulk Modulus (GPa) = 24.60364 50.26650 37.43507
# Shear Modulus (GPa) = 11.44303 16.55247 13.99775
#
# Velocity S-wave (km/s) = 2.40952 2.89795 2.66495
# Velocity P-wave (km/s) = 4.49711 6.05812 5.33502
#
# Compressibility (1/GPa) = 0.04064440
#
# Stress axis : x y z
#
# Youngs Moduli (GPa) = 11.45655 32.98680 48.43166
#
# Poissons Ratio (x) = 0.50558 1.42404
# Poissons Ratio (y) = 0.17559 0.19724
# Poissons Ratio (z) = 0.33686 0.13434
#
# Static dielectric constant tensor:
#      x y z
#    x 1.664330 0.000000 0.000000 
#    y 0.000000 1.666330 0.000000 
#    z 0.000000 0.000000 1.794730 
# 
# From -- ./inp_files/7199.got.cif
#   From: 2010.05.17/outbox.cif.g08.bks.cpg/sg36_4_cif.got.tgz:7199.got - 2010.06.03 17:41:39.
