data_PCOD9352807
_publ_section_title
;
Structure prediction by ZEFSAII (Michael W. Deem and Ramdas Pophale) SiO2 
 PCOD9352807
Probable space group: C M C 21
;
_chemical_formula_sum "Si O2"
_cell_formula_units_Z 64
_cell_length_a 15.499522
_cell_length_b 17.110586
_cell_length_c 11.762430
_cell_angle_alpha 90.000000
_cell_angle_beta 90.000000
_cell_angle_gamma 90.000000
_cell_volume 3119.465883
_symmetry_space_group_name_H-M "C M C 21"
_symmetry_group_IT_number 36
_symmetry_cell_setting 'orthorhombic'
loop_
_space_group_symop_operation_xyz
x,y,z
-x,-y,1/2+z
x,-y,1/2+z
-x,y,z
1/2+x,1/2+y,z
1/2-x,1/2-y,1/2+z
1/2+x,1/2-y,1/2+z
1/2-x,1/2+y,z
loop_
_atom_site_type_symbol
_atom_site_label
_atom_site_fract_x
_atom_site_fract_y
_atom_site_fract_z
Si Si1 0.094363 0.608114 0.382030
Si Si2 0.842495 0.193974 0.515472
Si Si3 0.265853 0.666641 0.931493
Si Si4 0.666844 0.131789 0.622830
Si Si5 0.403763 0.575469 0.328022
Si Si6 0.095958 0.777911 0.263521
Si Si7 0.269387 0.019099 0.818663
Si Si8 0.901129 0.203833 0.130700
O O1 0.103743 0.612702 0.518165
O O2 0.101486 0.693198 0.323803
O O3 0.171573 0.555418 0.339163
O O4 0.000000 0.576168 0.352265
O O5 0.807896 0.268180 0.444110
O O6 0.755892 0.153490 0.561063
O O7 0.889801 0.129205 0.439787
O O8 0.892197 0.223217 0.627700
O O9 0.323970 0.676223 0.818258
O O10 0.228082 0.580020 0.923665
O O11 0.333658 0.680757 0.032808
O O12 0.689623 0.065241 0.712366
O O13 0.628958 0.211594 0.676309
O O14 0.500000 0.540757 0.330380
O O15 0.328473 0.512355 0.310800
O O16 0.398270 0.637502 0.225558
O O17 0.000000 0.809598 0.289022
O O18 0.000000 0.209812 0.088301
#
# Coordination Sequence:
#
# PCOD9352807 Si02
#       8
#     8   8   8   8   8   8   8   8
#     4  11  25  44  68  97 133 175 222 280 341 406
#     4  11  22  42  68  96 124 175 227 280 328 390
#     4  11  23  38  69  93 127 171 219 271 329 395
#     4  11  22  40  68  92 130 173 220 273 334 393
#     4  11  25  43  64  97 140 178 218 271 335 402
#     4  11  22  42  69  99 126 166 228 283 330 389
#     4  12  26  42  62  99 137 179 213 272 342 416
#     4  10  22  41  69  95 123 171 231 278 321 389
#
# _framework density 20.516332999999999
#
# number of rings (size 3 to 8) (size 9 to 14) (size 15 to 20)
#    0.000    1.000    5.000    1.875    7.000    2.000 
#    0.000    3.750    0.000    0.000    0.000    0.000 
#    0.000    0.000    0.000    0.000    0.000    0.000 
#
# Total GULP energy -178758.561980 kJ/mol
# GULP energy per Si atom -5586.205062 kJ/mol
# Density = 2.046964 g / cm^3
# Si number density = 20.516333 Si / 1000 Ang^3
#
#
#
# Elastic Constant Matrix: (Units=GPa)
#
#
# Indices 1 2 3 4 5 6 
#
# 1 70.2550 6.3813 6.5975 0.0000 0.0000 0.0000
# 2 6.3813 52.3574 12.8587 0.0000 0.0000 0.0000
# 3 6.5975 12.8587 85.5744 0.0000 0.0000 0.0000
# 4 0.0000 0.0000 0.0000 27.0293 0.0000 0.0000
# 5 0.0000 0.0000 0.0000 0.0000 19.3669 0.0000
# 6 0.0000 0.0000 0.0000 0.0000 0.0000 12.7165
#
#
#
# Elastic Compliance Matrix: (Units=1/GPa)
#
#
# Indices 1 2 3 4 5 6 
#
# 1 0.014457 -0.001545 -0.000882 0.000000 0.000000 0.000000
# 2 -0.001545 0.019997 -0.002886 0.000000 0.000000 0.000000
# 3 -0.000882 -0.002886 0.012187 0.000000 0.000000 0.000000
# 4 0.000000 0.000000 0.000000 0.036997 0.000000 0.000000
# 5 0.000000 0.000000 0.000000 0.000000 0.051634 0.000000
# 6 0.000000 0.000000 0.000000 0.000000 0.000000 0.078638
#
#
# Mechanical properties :
#
#
# Convention : Reuss Voigt Hill
#
# Bulk Modulus (GPa) = 27.76670 28.87353 28.32011
# Shear Modulus (GPa) = 21.13794 23.97918 22.55856
#
# Velocity S-wave (km/s) = 3.21331 3.42246 3.31953
# Velocity P-wave (km/s) = 5.22785 5.45175 5.34098
#
# Compressibility (1/GPa) = 0.03601437
#
# Stress axis : x y z
#
# Youngs Moduli (GPa) = 69.17023 50.00867 82.05219
#
# Poissons Ratio (x) = 0.07728 0.07240
# Poissons Ratio (y) = 0.10689 0.23677
# Poissons Ratio (z) = 0.06104 0.14431
#
# Static dielectric constant tensor:
#      x y z
#    x 1.739960 0.000000 0.000000 
#    y 0.000000 1.715120 0.000000 
#    z 0.000000 0.000000 1.760650 
# 
# From -- ./inp_files/8632.got.cif
#   From: 2010.05.17/outbox.cif.g08.bks.cpg/sg36_5_cif.got.tgz:8632.got - 2010.06.03 17:41:39.
