data_PCOD9352324
_publ_section_title
;
Structure prediction by ZEFSAII (Michael W. Deem and Ramdas Pophale) SiO2 
 PCOD9352324
Probable space group: C M C 21
;
_chemical_formula_sum "Si O2"
_cell_formula_units_Z 48
_cell_length_a 7.740170
_cell_length_b 29.897622
_cell_length_c 8.494757
_cell_angle_alpha 90.000000
_cell_angle_beta 90.000000
_cell_angle_gamma 90.000000
_cell_volume 1965.794457
_symmetry_space_group_name_H-M "C M C 21"
_symmetry_group_IT_number 36
_symmetry_cell_setting 'orthorhombic'
loop_
_space_group_symop_operation_xyz
x,y,z
-x,-y,1/2+z
x,-y,1/2+z
-x,y,z
1/2+x,1/2+y,z
1/2-x,1/2-y,1/2+z
1/2+x,1/2-y,1/2+z
1/2-x,1/2+y,z
loop_
_atom_site_type_symbol
_atom_site_label
_atom_site_fract_x
_atom_site_fract_y
_atom_site_fract_z
Si Si1 0.703394 0.814051 0.653860
Si Si2 0.298917 0.149308 0.638239
Si Si3 0.699041 0.729900 0.830823
Si Si4 0.201426 0.017862 0.134361
Si Si5 0.789106 0.934947 0.320130
Si Si6 0.290874 0.100358 0.320347
O O1 0.500000 0.816725 0.688672
O O2 0.776738 0.776856 0.773976
O O3 0.720473 0.794559 0.480054
O O4 0.768832 0.863836 0.687516
O O5 0.500000 0.159673 0.614008
O O6 0.209384 0.195249 0.685740
O O7 0.277798 0.113924 0.779690
O O8 0.235709 0.123250 0.483674
O O9 0.500000 0.737151 0.873158
O O10 0.217442 0.051951 0.280552
O O11 0.000000 0.010695 0.100382
O O12 0.271658 0.969917 0.185842
O O13 0.274235 0.043821 0.983938
O O14 0.000000 0.933010 0.321047
O O15 0.500000 0.095764 0.321416
#
# Coordination Sequence:
#
# PCOD9352324 Si02
#       6
#     8   8   8   8   8   8
#     4  10  22  40  60  84 116 152 190 235 284 337
#     4  11  23  39  59  84 116 153 192 236 285 338
#     4  11  23  39  61  88 117 151 192 236 283 337
#     4  10  21  37  59  85 114 148 188 237 287 339
#     4  10  21  38  59  85 115 149 191 236 286 342
#     4  10  22  39  58  82 114 151 191 234 283 341
#
# _framework density 24.417605999999999
#
# number of rings (size 3 to 8) (size 9 to 14) (size 15 to 20)
#    0.000    1.667    0.000    4.000    0.000   10.000 
#    0.000    0.000    0.000    0.000    0.000    0.000 
#    0.000    0.000    0.000    0.000    0.000    0.000 
#
# Total GULP energy -134284.618693 kJ/mol
# GULP energy per Si atom -5595.192446 kJ/mol
# Density = 2.436203 g / cm^3
# Si number density = 24.417606 Si / 1000 Ang^3
#
#
#
# Elastic Constant Matrix: (Units=GPa)
#
#
# Indices 1 2 3 4 5 6 
#
# 1 42.3136 -6.1178 -8.8777 0.0000 0.0000 0.0000
# 2 -6.1178 105.2477 -11.2712 0.0000 0.0000 0.0000
# 3 -8.8777 -11.2712 63.1355 0.0000 0.0000 0.0000
# 4 0.0000 0.0000 0.0000 42.8003 0.0000 0.0000
# 5 0.0000 0.0000 0.0000 0.0000 24.1040 0.0000
# 6 0.0000 0.0000 0.0000 0.0000 0.0000 16.0688
#
#
#
# Elastic Compliance Matrix: (Units=1/GPa)
#
#
# Indices 1 2 3 4 5 6 
#
# 1 0.024697 0.001843 0.003802 0.000000 0.000000 0.000000
# 2 0.001843 0.009824 0.002013 0.000000 0.000000 0.000000
# 3 0.003802 0.002013 0.016733 0.000000 0.000000 0.000000
# 4 0.000000 0.000000 0.000000 0.023364 0.000000 0.000000
# 5 0.000000 0.000000 0.000000 0.000000 0.041487 0.000000
# 6 0.000000 0.000000 0.000000 0.000000 0.000000 0.062232
#
#
# Mechanical properties :
#
#
# Convention : Reuss Voigt Hill
#
# Bulk Modulus (GPa) = 15.02204 17.57371 16.29787
# Shear Modulus (GPa) = 26.99602 32.39218 29.69410
#
# Velocity S-wave (km/s) = 3.32866 3.64619 3.49104
# Velocity P-wave (km/s) = 4.57589 4.99390 4.78946
#
# Compressibility (1/GPa) = 0.06656886
#
# Stress axis : x y z
#
# Youngs Moduli (GPa) = 40.49053 101.79067 59.76259
#
# Poissons Ratio (x) = -0.18757 -0.22720
# Poissons Ratio (y) = -0.07461 -0.12030
# Poissons Ratio (z) = -0.15393 -0.20490
#
# Static dielectric constant tensor:
#      x y z
#    x 1.878900 0.000000 0.000000 
#    y 0.000000 1.906310 0.000000 
#    z 0.000000 0.000000 1.994930 
# 
# From -- ./inp_files/2695.got.cif
#   From: 2010.05.17/outbox.cif.g08.bks.cpg/sg36_2_cif.got.tgz:2695.got - 2010.06.03 17:41:39.
