data_PCOD9352686
_publ_section_title
;
Structure prediction by ZEFSAII (Michael W. Deem and Ramdas Pophale) SiO2 
 PCOD9352686
Probable space group: C M C 21
;
_chemical_formula_sum "Si O2"
_cell_formula_units_Z 36
_cell_length_a 20.261733
_cell_length_b 15.479594
_cell_length_c 4.810522
_cell_angle_alpha 90.000000
_cell_angle_beta 90.000000
_cell_angle_gamma 90.000000
_cell_volume 1508.788479
_symmetry_space_group_name_H-M "C M C 21"
_symmetry_group_IT_number 36
_symmetry_cell_setting 'orthorhombic'
loop_
_space_group_symop_operation_xyz
x,y,z
-x,-y,1/2+z
x,-y,1/2+z
-x,y,z
1/2+x,1/2+y,z
1/2-x,1/2-y,1/2+z
1/2+x,1/2-y,1/2+z
1/2-x,1/2+y,z
loop_
_atom_site_type_symbol
_atom_site_label
_atom_site_fract_x
_atom_site_fract_y
_atom_site_fract_z
Si Si1 0.720609 0.056097 0.731900
Si Si2 0.288816 0.280925 0.339383
Si Si3 0.392147 0.829857 0.510799
Si Si4 0.500000 0.573556 0.765222
Si Si5 0.000000 0.442578 0.810282
Si Si6 0.500000 0.288581 0.761661
O O1 0.783464 0.116477 0.799317
O O2 0.721313 0.031723 0.410054
O O3 0.657236 0.107825 0.840820
O O4 0.271962 0.257191 0.653855
O O5 0.351091 0.234766 0.208565
O O6 0.437116 0.889331 0.707752
O O7 0.436999 0.773582 0.306464
O O8 0.500000 0.506503 0.032473
O O9 0.500000 0.658193 0.981477
O O10 0.500000 0.356251 0.010342
O O11 0.000000 0.531407 0.630940
#
# Coordination Sequence:
#
# PCOD9352686 Si02
#       6
#     8   8   8   4   4   4
#     4  11  22  39  61  89 123 163 208 263 314 362
#     4  10  22  40  62  87 120 169 217 258 312 375
#     4  10  23  40  64  93 132 170 210 261 318 390
#     4   9  20  42  62  85 120 162 210 263 310 362
#     4  11  24  40  62  99 132 166 208 255 320 394
#     4  10  22  38  66  96 126 170 212 252 326 400
#
# _framework density 23.860204
#
# number of rings (size 3 to 8) (size 9 to 14) (size 15 to 20)
#    0.000    1.778    0.000    4.000    0.000   12.444 
#    0.000    6.667    0.000    0.000    0.000    0.000 
#    0.000    0.000    0.000    0.000    0.000    0.000 
#
# Total GULP energy -100328.232496 kJ/mol
# GULP energy per Si atom -5573.790694 kJ/mol
# Density = 2.380590 g / cm^3
# Si number density = 23.860204 Si / 1000 Ang^3
#
#
#
# Elastic Constant Matrix: (Units=GPa)
#
#
# Indices 1 2 3 4 5 6 
#
# 1 71.8357 36.3121 2.1972 0.0000 0.0000 0.0000
# 2 36.3121 119.5985 27.6806 0.0000 0.0000 0.0000
# 3 2.1972 27.6806 142.9648 0.0000 0.0000 0.0000
# 4 0.0000 0.0000 0.0000 56.1371 0.0000 0.0000
# 5 0.0000 0.0000 0.0000 0.0000 -27.7208 0.0000
# 6 0.0000 0.0000 0.0000 0.0000 0.0000 20.7256
#
#
#
# Elastic Compliance Matrix: (Units=1/GPa)
#
#
# Indices 1 2 3 4 5 6 
#
# 1 0.016521 -0.005190 0.000751 0.000000 0.000000 0.000000
# 2 -0.005190 0.010384 -0.001931 0.000000 0.000000 0.000000
# 3 0.000751 -0.001931 0.007357 0.000000 0.000000 0.000000
# 4 0.000000 0.000000 0.000000 0.017814 0.000000 0.000000
# 5 0.000000 0.000000 0.000000 0.000000 -0.036074 0.000000
# 6 0.000000 0.000000 0.000000 0.000000 0.000000 0.048249
#
#
# Mechanical properties :
#
#
# Convention : Reuss Voigt Hill
#
# Bulk Modulus (GPa) = 46.46269 51.86432 49.16350
# Shear Modulus (GPa) = 59.40739 27.70899 43.55819
#
# Velocity S-wave (km/s) = 4.99521 3.41149 4.27729
# Velocity P-wave (km/s) = 7.26531 6.10751 6.71142
#
# Compressibility (1/GPa) = 0.02152265
#
# Stress axis : x y z
#
# Youngs Moduli (GPa) = 60.52864 96.30284 135.92464
#
# Poissons Ratio (x) = 0.49980 -0.10207
# Poissons Ratio (y) = 0.31414 0.26244
# Poissons Ratio (z) = -0.04545 0.18594
#
# Static dielectric constant tensor:
#      x y z
#    x 2.397350 0.000000 0.000000 
#    y 0.000000 1.909780 0.000000 
#    z 0.000000 0.000000 1.834130 
# 
# From -- ./inp_files/1292.got.cif
#   From: 2010.05.17/outbox.cif.g08.bks.cpg/sg36_1_cif.got.tgz:1292.got - 2010.06.03 17:41:39.
