data_PCOD9352376
_publ_section_title
;
Structure prediction by ZEFSAII (Michael W. Deem and Ramdas Pophale) SiO2 
 PCOD9352376
Probable space group: C M C 21
;
_chemical_formula_sum "Si O2"
_cell_formula_units_Z 64
_cell_length_a 7.840787
_cell_length_b 18.350511
_cell_length_c 21.009593
_cell_angle_alpha 90.000000
_cell_angle_beta 90.000000
_cell_angle_gamma 90.000000
_cell_volume 3022.911674
_symmetry_space_group_name_H-M "C M C 21"
_symmetry_group_IT_number 36
_symmetry_cell_setting 'orthorhombic'
loop_
_space_group_symop_operation_xyz
x,y,z
-x,-y,1/2+z
x,-y,1/2+z
-x,y,z
1/2+x,1/2+y,z
1/2-x,1/2-y,1/2+z
1/2+x,1/2-y,1/2+z
1/2-x,1/2+y,z
loop_
_atom_site_type_symbol
_atom_site_label
_atom_site_fract_x
_atom_site_fract_y
_atom_site_fract_z
Si Si1 0.697634 0.407321 0.872870
Si Si2 0.800813 0.671544 0.498869
Si Si3 0.291796 0.164511 0.746784
Si Si4 0.791052 0.419612 0.119400
Si Si5 0.698672 0.665945 0.985786
Si Si6 0.301561 0.928114 0.367688
Si Si7 0.292993 0.667435 0.242694
Si Si8 0.201764 0.413062 0.612821
O O1 0.500000 0.385724 0.878599
O O2 0.711288 0.494275 0.871625
O O3 0.763654 0.373866 0.806699
O O4 0.787781 0.374488 0.934535
O O5 0.730092 0.625672 0.558094
O O6 0.727528 0.752257 0.488799
O O7 0.000000 0.683505 0.514431
O O8 0.500000 0.165755 0.747603
O O9 0.238481 0.120585 0.684049
O O10 0.236015 0.122281 0.810152
O O11 0.236661 0.248442 0.744607
O O12 0.735860 0.503538 0.116761
O O13 0.000000 0.420615 0.118953
O O14 0.500000 0.669872 0.966920
O O15 0.712914 0.630013 0.055042
O O16 0.786655 0.615847 0.933224
O O17 0.500000 0.944110 0.354892
O O18 0.500000 0.666103 0.241194
O O19 0.231214 0.627079 0.179539
O O20 0.000000 0.414668 0.599309
#
# Coordination Sequence:
#
# PCOD9352376 Si02
#       8
#     8   8   8   8   8   8   8   8
#     4  11  23  38  58  86 120 155 195 244 296 350
#     4  10  21  38  61  85 113 153 196 240 293 352
#     4   9  18  35  59  83 110 149 193 236 287 345
#     4   9  18  34  56  82 110 144 189 235 282 341
#     4  11  23  39  60  86 117 153 194 244 299 351
#     4  11  22  38  61  86 115 154 199 244 294 353
#     4  10  21  38  59  83 114 152 192 240 298 352
#     4  11  22  36  58  87 117 152 194 239 289 350
#
# _framework density 21.17164
#
# number of rings (size 3 to 8) (size 9 to 14) (size 15 to 20)
#    0.000    1.750    0.000    4.500    0.000    7.000 
#    0.000    1.875    0.000    4.500    0.000    0.000 
#    0.000    0.000    0.000    0.000    0.000    0.000 
#
# Total GULP energy -178929.248663 kJ/mol
# GULP energy per Si atom -5591.539021 kJ/mol
# Density = 2.112345 g / cm^3
# Si number density = 21.171640 Si / 1000 Ang^3
#
#
#
# Elastic Constant Matrix: (Units=GPa)
#
#
# Indices 1 2 3 4 5 6 
#
# 1 27.8792 -9.2584 -16.8117 0.0000 0.0000 0.0000
# 2 -9.2584 177.7620 72.8113 0.0000 0.0000 0.0000
# 3 -16.8117 72.8113 149.8159 0.0000 0.0000 0.0000
# 4 0.0000 0.0000 0.0000 44.1500 0.0000 0.0000
# 5 0.0000 0.0000 0.0000 0.0000 21.9443 0.0000
# 6 0.0000 0.0000 0.0000 0.0000 0.0000 3.0570
#
#
#
# Elastic Compliance Matrix: (Units=1/GPa)
#
#
# Indices 1 2 3 4 5 6 
#
# 1 0.038485 0.000294 0.004176 0.000000 0.000000 0.000000
# 2 0.000294 0.007026 -0.003382 0.000000 0.000000 0.000000
# 3 0.004176 -0.003382 0.008787 0.000000 0.000000 0.000000
# 4 0.000000 0.000000 0.000000 0.022650 0.000000 0.000000
# 5 0.000000 0.000000 0.000000 0.000000 0.045570 0.000000
# 6 0.000000 0.000000 0.000000 0.000000 0.000000 0.327123
#
#
# Mechanical properties :
#
#
# Convention : Reuss Voigt Hill
#
# Bulk Modulus (GPa) = 17.70734 49.88215 33.79475
# Shear Modulus (GPa) = 10.72297 34.41132 22.56714
#
# Velocity S-wave (km/s) = 2.25295 4.03594 3.26838
# Velocity P-wave (km/s) = 3.89224 6.73278 5.49909
#
# Compressibility (1/GPa) = 0.05647375
#
# Stress axis : x y z
#
# Youngs Moduli (GPa) = 25.98434 142.32981 113.80539
#
# Poissons Ratio (x) = -0.04185 -0.47521
# Poissons Ratio (y) = -0.00764 0.38485
# Poissons Ratio (z) = -0.10850 0.48131
#
# Static dielectric constant tensor:
#      x y z
#    x 1.792940 0.000000 0.000000 
#    y 0.000000 1.726910 0.000000 
#    z 0.000000 0.000000 1.705310 
# 
# From -- ./inp_files/15651.got.cif
#   From: 2010.05.17/outbox.cif.g08.bks.cpg/sg36_8_cif.got.tgz:15651.got - 2010.06.03 17:41:39.
