data_PCOD9352839
_publ_section_title
;
Structure prediction by ZEFSAII (Michael W. Deem and Ramdas Pophale) SiO2 
 PCOD9352839
Probable space group: C M C 21
;
_chemical_formula_sum "Si O2"
_cell_formula_units_Z 40
_cell_length_a 11.937306
_cell_length_b 16.969936
_cell_length_c 7.537187
_cell_angle_alpha 90.000000
_cell_angle_beta 90.000000
_cell_angle_gamma 90.000000
_cell_volume 1526.848060
_symmetry_space_group_name_H-M "C M C 21"
_symmetry_group_IT_number 36
_symmetry_cell_setting 'orthorhombic'
loop_
_space_group_symop_operation_xyz
x,y,z
-x,-y,1/2+z
x,-y,1/2+z
-x,y,z
1/2+x,1/2+y,z
1/2-x,1/2-y,1/2+z
1/2+x,1/2-y,1/2+z
1/2-x,1/2+y,z
loop_
_atom_site_type_symbol
_atom_site_label
_atom_site_fract_x
_atom_site_fract_y
_atom_site_fract_z
Si Si1 0.500000 0.388565 0.012100
Si Si2 0.000000 0.075725 0.091392
Si Si3 0.370887 0.974060 0.830743
Si Si4 0.836215 0.764446 0.192021
Si Si5 0.746013 0.108395 0.023851
Si Si6 0.880427 0.676682 0.563659
O O1 0.500000 0.479603 0.079596
O O2 0.400275 0.334801 0.092197
O O3 0.500000 0.395570 0.797386
O O4 0.117948 0.106080 0.002327
O O5 0.500000 0.973151 0.762594
O O6 0.275373 0.940700 0.704020
O O7 0.371221 0.912398 0.994156
O O8 0.327224 0.058104 0.888654
O O9 0.818128 0.688502 0.070024
O O10 0.874049 0.729227 0.381033
O O11 0.712423 0.798243 0.200075
O O12 0.000000 0.690977 0.645900
#
# Coordination Sequence:
#
# PCOD9352839 Si02
#       6
#     4   4   8   8   8   8
#     4  12  26  48  74 104 144 192 236 310 358 442
#     4  12  26  46  72 106 146 190 244 288 376 448
#     4  10  22  42  69  98 139 180 234 289 359 428
#     4  11  24  44  72 100 145 181 241 297 366 417
#     4  11  24  42  71 104 142 188 237 299 355 440
#     4  10  22  43  65  98 137 185 228 296 357 426
#
# _framework density 26.197759000000001
#
# number of rings (size 3 to 8) (size 9 to 14) (size 15 to 20)
#    0.000    1.200    1.000    5.400    4.200    4.800 
#    1.800    0.000    0.000    0.000    0.000    0.000 
#    0.000    0.000    0.000    0.000    0.000    0.000 
#
# Total GULP energy -111932.317381 kJ/mol
# GULP energy per Si atom -5596.615869 kJ/mol
# Density = 2.613813 g / cm^3
# Si number density = 26.197759 Si / 1000 Ang^3
#
#
#
# Elastic Constant Matrix: (Units=GPa)
#
#
# Indices 1 2 3 4 5 6 
#
# 1 154.7891 13.4596 -1.3813 0.0000 0.0000 0.0000
# 2 13.4596 190.4892 30.5589 0.0000 0.0000 0.0000
# 3 -1.3813 30.5589 24.9661 0.0000 0.0000 0.0000
# 4 0.0000 0.0000 0.0000 31.1598 0.0000 0.0000
# 5 0.0000 0.0000 0.0000 0.0000 -118.9677 0.0000
# 6 0.0000 0.0000 0.0000 0.0000 0.0000 -253.9757
#
#
#
# Elastic Compliance Matrix: (Units=1/GPa)
#
#
# Indices 1 2 3 4 5 6 
#
# 1 0.006527 -0.000646 0.001152 0.000000 0.000000 0.000000
# 2 -0.000646 0.006596 -0.008110 0.000000 0.000000 0.000000
# 3 0.001152 -0.008110 0.050044 0.000000 0.000000 0.000000
# 4 0.000000 0.000000 0.000000 0.032093 0.000000 0.000000
# 5 0.000000 0.000000 0.000000 0.000000 -0.008406 0.000000
# 6 0.000000 0.000000 0.000000 0.000000 0.000000 -0.003937
#
#
# Mechanical properties :
#
#
# Convention : Reuss Voigt Hill
#
# Bulk Modulus (GPa) = 20.85084 50.61322 35.73203
# Shear Modulus (GPa) = 43.81691 -46.51623 -1.34966
#
# Velocity S-wave (km/s) = 4.09411 -4.21834 -0.71854
# Velocity P-wave (km/s) = 5.50684 2.08906 3.60285
#
# Compressibility (1/GPa) = 0.04795969
#
# Stress axis : x y z
#
# Youngs Moduli (GPa) = 153.21333 151.60113 19.98231
#
# Poissons Ratio (x) = 0.09793 -0.02301
# Poissons Ratio (y) = 0.09897 0.16205
# Poissons Ratio (z) = -0.17646 1.22943
#
# Static dielectric constant tensor:
#      x y z
#    x 2.093270 0.000000 0.000000 
#    y 0.000000 2.116440 0.000000 
#    z 0.000000 0.000000 2.107280 
# 
# From -- ./inp_files/3082.got.cif
#   From: 2010.05.17/outbox.cif.g08.bks.cpg/sg36_2_cif.got.tgz:3082.got - 2010.06.03 17:41:39.
