data_PCOD9352909
_publ_section_title
;
Structure prediction by ZEFSAII (Michael W. Deem and Ramdas Pophale) SiO2 
 PCOD9352909
Probable space group: C M C 21
;
_chemical_formula_sum "Si O2"
_cell_formula_units_Z 48
_cell_length_a 31.579134
_cell_length_b 4.889240
_cell_length_c 12.821710
_cell_angle_alpha 90.000000
_cell_angle_beta 90.000000
_cell_angle_gamma 90.000000
_cell_volume 1979.645933
_symmetry_space_group_name_H-M "C M C 21"
_symmetry_group_IT_number 36
_symmetry_cell_setting 'orthorhombic'
loop_
_space_group_symop_operation_xyz
x,y,z
-x,-y,1/2+z
x,-y,1/2+z
-x,y,z
1/2+x,1/2+y,z
1/2-x,1/2-y,1/2+z
1/2+x,1/2-y,1/2+z
1/2-x,1/2+y,z
loop_
_atom_site_type_symbol
_atom_site_label
_atom_site_fract_x
_atom_site_fract_y
_atom_site_fract_z
Si Si1 0.592330 0.499517 0.944030
Si Si2 0.780146 0.200937 0.151080
Si Si3 0.651420 0.673568 0.759329
Si Si4 0.722592 0.714207 0.907629
Si Si5 0.000000 0.432460 0.102435
Si Si6 0.500000 0.436388 0.964333
Si Si7 0.905014 0.498805 0.597471
O O1 0.619398 0.538413 0.841143
O O2 0.543238 0.519767 0.910791
O O3 0.597162 0.210841 0.000703
O O4 0.601408 0.713651 0.038303
O O5 0.740656 0.994885 0.171947
O O6 0.820898 0.058919 0.201468
O O7 0.789602 0.222516 0.028077
O O8 0.684932 0.815962 0.836376
O O9 0.628103 0.881562 0.681389
O O10 0.736398 0.401830 0.889865
O O11 0.046987 0.496616 0.146261
O O12 0.000000 0.113322 0.071747
O O13 0.000000 0.619357 0.996965
#
# Coordination Sequence:
#
# PCOD9352909 Si02
#       7
#     8   8   8   8   4   4   8
#     4  10  23  40  61  91 125 161 203 252 304 365
#     4  10  23  42  62  85 118 160 202 246 301 366
#     4  12  24  39  66  94 124 158 206 261 312 362
#     4  10  23  42  62  85 118 160 202 246 301 366
#     4   8  16  37  60  81 120 164 198 241 300 363
#     4   8  16  37  60  81 120 164 198 241 300 363
#     4  10  23  40  61  91 125 161 203 252 304 365
#
# _framework density 24.246760999999999
#
# number of rings (size 3 to 8) (size 9 to 14) (size 15 to 20)
#    0.000    2.000    0.000    2.000    0.000   11.333 
#    0.000    0.000    0.000   12.000    0.000    0.000 
#    0.000    0.000    0.000    0.000    0.000    0.000 
#
# Total GULP energy -134161.237303 kJ/mol
# GULP energy per Si atom -5590.051554 kJ/mol
# Density = 2.419157 g / cm^3
# Si number density = 24.246761 Si / 1000 Ang^3
#
#
#
# Elastic Constant Matrix: (Units=GPa)
#
#
# Indices 1 2 3 4 5 6 
#
# 1 141.3228 -8.6737 61.1936 0.0000 0.0000 0.0000
# 2 -8.6737 65.2189 -9.8464 0.0000 0.0000 0.0000
# 3 61.1936 -9.8464 98.9204 0.0000 0.0000 0.0000
# 4 0.0000 0.0000 0.0000 16.0446 0.0000 0.0000
# 5 0.0000 0.0000 0.0000 0.0000 40.6788 0.0000
# 6 0.0000 0.0000 0.0000 0.0000 0.0000 22.1047
#
#
#
# Elastic Compliance Matrix: (Units=1/GPa)
#
#
# Indices 1 2 3 4 5 6 
#
# 1 0.009675 0.000389 -0.005946 0.000000 0.000000 0.000000
# 2 0.000389 0.015583 0.001310 0.000000 0.000000 0.000000
# 3 -0.005946 0.001310 0.013918 0.000000 0.000000 0.000000
# 4 0.000000 0.000000 0.000000 0.062326 0.000000 0.000000
# 5 0.000000 0.000000 0.000000 0.000000 0.024583 0.000000
# 6 0.000000 0.000000 0.000000 0.000000 0.000000 0.045239
#
#
# Mechanical properties :
#
#
# Convention : Reuss Voigt Hill
#
# Bulk Modulus (GPa) = 32.59279 43.42324 38.00802
# Shear Modulus (GPa) = 26.30972 33.28488 29.79730
#
# Velocity S-wave (km/s) = 3.29763 3.70909 3.50940
# Velocity P-wave (km/s) = 5.28871 6.02419 5.66839
#
# Compressibility (1/GPa) = 0.03068163
#
# Stress axis : x y z
#
# Youngs Moduli (GPa) = 103.36366 64.17435 71.84972
#
# Poissons Ratio (x) = -0.02496 0.42723
# Poissons Ratio (y) = -0.04020 -0.09416
# Poissons Ratio (z) = 0.61461 -0.08410
#
# Static dielectric constant tensor:
#      x y z
#    x 1.990030 0.000000 0.000000 
#    y 0.000000 1.893290 0.000000 
#    z 0.000000 0.000000 1.918710 
# 
# From -- ./inp_files/13138.got.cif
#   From: 2010.05.17/outbox.cif.g08.bks.cpg/sg36_7_cif.got.tgz:13138.got - 2010.06.03 17:41:39.
