data_PCOD9352964
_publ_section_title
;
Structure prediction by ZEFSAII (Michael W. Deem and Ramdas Pophale) SiO2 
 PCOD9352964
Probable space group: C M C 21
;
_chemical_formula_sum "Si O2"
_cell_formula_units_Z 48
_cell_length_a 12.185775
_cell_length_b 18.359068
_cell_length_c 10.147268
_cell_angle_alpha 90.000000
_cell_angle_beta 90.000000
_cell_angle_gamma 90.000000
_cell_volume 2270.141438
_symmetry_space_group_name_H-M "C M C 21"
_symmetry_group_IT_number 36
_symmetry_cell_setting 'orthorhombic'
loop_
_space_group_symop_operation_xyz
x,y,z
-x,-y,1/2+z
x,-y,1/2+z
-x,y,z
1/2+x,1/2+y,z
1/2-x,1/2-y,1/2+z
1/2+x,1/2-y,1/2+z
1/2-x,1/2+y,z
loop_
_atom_site_type_symbol
_atom_site_label
_atom_site_fract_x
_atom_site_fract_y
_atom_site_fract_z
Si Si1 0.707427 0.766831 0.791280
Si Si2 0.500000 0.587292 0.577687
Si Si3 0.127116 0.433686 0.185381
Si Si4 0.121406 0.604826 0.137330
Si Si5 0.206161 0.118352 0.910589
Si Si6 0.276128 0.331476 0.048730
Si Si7 0.500000 0.479697 0.353935
O O1 0.630026 0.832903 0.747872
O O2 0.659712 0.697230 0.869375
O O3 0.753006 0.730676 0.656507
O O4 0.787292 0.800427 0.901885
O O5 0.608679 0.634821 0.593800
O O6 0.500000 0.555451 0.430390
O O7 0.500000 0.526844 0.694787
O O8 0.131313 0.521211 0.182680
O O9 0.201803 0.405278 0.304295
O O10 0.184975 0.395082 0.060014
O O11 0.000000 0.412244 0.195523
O O12 0.000000 0.611674 0.073394
O O13 0.225054 0.618609 0.043966
O O14 0.108116 0.061547 0.904708
#
# Coordination Sequence:
#
# PCOD9352964 Si02
#       7
#     8   4   8   8   8   8   4
#     4  11  24  43  69 101 135 192 217 293 346 419
#     4  12  26  46  74 104 144 192 228 307 347 424
#     4  10  23  43  68 100 132 176 225 292 336 407
#     4  11  25  42  74 100 136 180 230 282 356 409
#     4  11  24  45  67  98 141 175 235 280 343 416
#     4  11  25  47  69  99 147 176 244 279 358 413
#     4  12  26  44  76 100 142 188 232 293 355 410
#
# _framework density 21.144058000000001
#
# number of rings (size 3 to 8) (size 9 to 14) (size 15 to 20)
#    0.000    1.000    5.000    1.500    7.000    0.667 
#    6.000    0.000    0.000    0.000    0.000    0.000 
#    0.000    0.000    0.000    0.000    0.000    0.000 
#
# Total GULP energy -133872.043174 kJ/mol
# GULP energy per Si atom -5578.001799 kJ/mol
# Density = 2.109593 g / cm^3
# Si number density = 21.144058 Si / 1000 Ang^3
#
#
#
# Elastic Constant Matrix: (Units=GPa)
#
#
# Indices 1 2 3 4 5 6 
#
# 1 121.9835 35.7188 29.5562 0.0000 0.0000 0.0000
# 2 35.7188 106.0235 24.6933 0.0000 0.0000 0.0000
# 3 29.5562 24.6933 85.5417 0.0000 0.0000 0.0000
# 4 0.0000 0.0000 0.0000 35.9838 0.0000 0.0000
# 5 0.0000 0.0000 0.0000 0.0000 1168.6883 0.0000
# 6 0.0000 0.0000 0.0000 0.0000 0.0000 -15.6629
#
#
#
# Elastic Compliance Matrix: (Units=1/GPa)
#
#
# Indices 1 2 3 4 5 6 
#
# 1 0.009588 -0.002636 -0.002552 0.000000 0.000000 0.000000
# 2 -0.002636 0.010836 -0.002217 0.000000 0.000000 0.000000
# 3 -0.002552 -0.002217 0.013212 0.000000 0.000000 0.000000
# 4 0.000000 0.000000 0.000000 0.027790 0.000000 0.000000
# 5 0.000000 0.000000 0.000000 0.000000 0.000856 0.000000
# 6 0.000000 0.000000 0.000000 0.000000 0.000000 -0.063845
#
#
# Mechanical properties :
#
#
# Convention : Reuss Voigt Hill
#
# Bulk Modulus (GPa) = 53.11788 54.83169 53.97479
# Shear Modulus (GPa) = 256.11114 252.70719 254.40917
#
# Velocity S-wave (km/s) = 11.01770 10.94424 10.98103
# Velocity P-wave (km/s) = 13.67587 13.62683 13.65137
#
# Compressibility (1/GPa) = 0.01882605
#
# Stress axis : x y z
#
# Youngs Moduli (GPa) = 104.29754 92.28248 75.68857
#
# Poissons Ratio (x) = 0.24324 0.19315
# Poissons Ratio (y) = 0.27491 0.16783
# Poissons Ratio (z) = 0.26616 0.20463
#
# Static dielectric constant tensor:
#      x y z
#    x 1.687490 0.000000 0.000000 
#    y 0.000000 1.782480 0.000000 
#    z 0.000000 0.000000 1.815160 
# 
# From -- ./inp_files/7730.got.cif
#   From: 2010.05.17/outbox.cif.g08.bks.cpg/sg36_4_cif.got.tgz:7730.got - 2010.06.03 17:41:39.
