data_PCOD9352271
_publ_section_title
;
Structure prediction by ZEFSAII (Michael W. Deem and Ramdas Pophale) SiO2 
 PCOD9352271
Probable space group: C M C 21
;
_chemical_formula_sum "Si O2"
_cell_formula_units_Z 56
_cell_length_a 19.141342
_cell_length_b 5.203823
_cell_length_c 24.616174
_cell_angle_alpha 90.000000
_cell_angle_beta 90.000000
_cell_angle_gamma 90.000000
_cell_volume 2451.971694
_symmetry_space_group_name_H-M "C M C 21"
_symmetry_group_IT_number 36
_symmetry_cell_setting 'orthorhombic'
loop_
_space_group_symop_operation_xyz
x,y,z
-x,-y,1/2+z
x,-y,1/2+z
-x,y,z
1/2+x,1/2+y,z
1/2-x,1/2-y,1/2+z
1/2+x,1/2-y,1/2+z
1/2-x,1/2+y,z
loop_
_atom_site_type_symbol
_atom_site_label
_atom_site_fract_x
_atom_site_fract_y
_atom_site_fract_z
Si Si1 0.083707 0.667606 0.855930
Si Si2 0.289448 0.039146 0.925533
Si Si3 0.083712 0.824430 0.290288
Si Si4 0.919393 0.033034 0.562953
Si Si5 0.834187 0.462172 0.043234
Si Si6 0.209068 0.530125 0.665833
Si Si7 0.081122 0.147316 0.187015
O O1 0.131954 0.599016 0.906744
O O2 0.105905 0.456322 0.810395
O O3 0.000000 0.644466 0.865432
O O4 0.098294 0.954829 0.834992
O O5 0.260067 0.768101 0.905567
O O6 0.289458 0.027060 0.990746
O O7 0.105048 0.952294 0.233599
O O8 0.000000 0.804617 0.286027
O O9 0.891577 0.313962 0.549704
O O10 0.914168 0.984835 0.627953
O O11 0.000000 0.002963 0.547267
O O12 0.872071 0.811615 0.536742
O O13 0.792871 0.463920 0.099940
O O14 0.240845 0.262241 0.683610
O O15 0.131594 0.607811 0.684378
O O16 0.000000 0.220430 0.196663
#
# Coordination Sequence:
#
# PCOD9352271 Si02
#       7
#     8   8   8   8   8   8   8
#     4  10  22  41  64  90 119 156 203 254 305 360
#     4  12  25  43  65  92 120 159 205 253 306 362
#     4   9  19  38  64  90 119 158 202 246 301 365
#     4  10  21  36  59  94 128 157 199 252 297 345
#     4  11  22  39  60  85 121 167 203 240 298 370
#     4  11  22  38  57  85 120 157 196 241 290 351
#     4   9  20  39  63  90 122 162 204 246 295 359
#
# _framework density 22.838761000000002
#
# number of rings (size 3 to 8) (size 9 to 14) (size 15 to 20)
#    0.000    1.714    0.000    4.714    0.000    5.143 
#    0.000   15.000    0.000    0.000    0.000    0.000 
#    0.000    0.000    0.000    0.000    0.000    0.000 
#
# Total GULP energy -156697.130852 kJ/mol
# GULP energy per Si atom -5596.326102 kJ/mol
# Density = 2.278678 g / cm^3
# Si number density = 22.838761 Si / 1000 Ang^3
#
#
#
# Elastic Constant Matrix: (Units=GPa)
#
#
# Indices 1 2 3 4 5 6 
#
# 1 91.6839 34.0848 18.2950 0.0000 0.0000 0.0000
# 2 34.0848 79.3705 9.3617 0.0000 0.0000 0.0000
# 3 18.2950 9.3617 29.4433 0.0000 0.0000 0.0000
# 4 0.0000 0.0000 0.0000 17.0459 0.0000 0.0000
# 5 0.0000 0.0000 0.0000 0.0000 24.3980 0.0000
# 6 0.0000 0.0000 0.0000 0.0000 0.0000 39.8914
#
#
#
# Elastic Compliance Matrix: (Units=1/GPa)
#
#
# Indices 1 2 3 4 5 6 
#
# 1 0.014315 -0.005297 -0.007211 0.000000 0.000000 0.000000
# 2 -0.005297 0.015050 -0.001494 0.000000 0.000000 0.000000
# 3 -0.007211 -0.001494 0.038919 0.000000 0.000000 0.000000
# 4 0.000000 0.000000 0.000000 0.058665 0.000000 0.000000
# 5 0.000000 0.000000 0.000000 0.000000 0.040987 0.000000
# 6 0.000000 0.000000 0.000000 0.000000 0.000000 0.025068
#
#
# Mechanical properties :
#
#
# Convention : Reuss Voigt Hill
#
# Bulk Modulus (GPa) = 24.82556 35.99786 30.41171
# Shear Modulus (GPa) = 21.32790 25.51747 23.42268
#
# Velocity S-wave (km/s) = 3.05921 3.34621 3.20592
# Velocity P-wave (km/s) = 4.83444 5.54306 5.20083
#
# Compressibility (1/GPa) = 0.04028106
#
# Stress axis : x y z
#
# Youngs Moduli (GPa) = 69.85629 66.44485 25.69436
#
# Poissons Ratio (x) = 0.35196 0.18527
# Poissons Ratio (y) = 0.37003 0.03839
# Poissons Ratio (z) = 0.50371 0.09927
#
# Static dielectric constant tensor:
#      x y z
#    x 1.823870 0.000000 0.000000 
#    y 0.000000 1.841990 0.000000 
#    z 0.000000 0.000000 1.863200 
# 
# From -- ./inp_files/17039.got.cif
#   From: 2010.05.17/outbox.cif.g08.bks.cpg/sg36_9_cif.got.tgz:17039.got - 2010.06.03 17:41:39.
