data_PCOD9352458
_publ_section_title
;
Structure prediction by ZEFSAII (Michael W. Deem and Ramdas Pophale) SiO2 
 PCOD9352458
Probable space group: C M C 21
;
_chemical_formula_sum "Si O2"
_cell_formula_units_Z 60
_cell_length_a 12.859648
_cell_length_b 27.993170
_cell_length_c 7.298396
_cell_angle_alpha 90.000000
_cell_angle_beta 90.000000
_cell_angle_gamma 90.000000
_cell_volume 2627.293470
_symmetry_space_group_name_H-M "C M C 21"
_symmetry_group_IT_number 36
_symmetry_cell_setting 'orthorhombic'
loop_
_space_group_symop_operation_xyz
x,y,z
-x,-y,1/2+z
x,-y,1/2+z
-x,y,z
1/2+x,1/2+y,z
1/2-x,1/2-y,1/2+z
1/2+x,1/2-y,1/2+z
1/2-x,1/2+y,z
loop_
_atom_site_type_symbol
_atom_site_label
_atom_site_fract_x
_atom_site_fract_y
_atom_site_fract_z
Si Si1 0.112931 0.882262 0.574580
Si Si2 0.154923 0.383036 0.046532
Si Si3 0.000000 0.698250 0.707908
Si Si4 0.154542 0.775415 0.646279
Si Si5 0.114627 0.141736 0.641423
Si Si6 0.615511 0.030459 0.820685
Si Si7 0.683574 0.934030 0.703082
Si Si8 0.613726 0.248089 0.223377
O O1 0.117904 0.829603 0.663630
O O2 0.123813 0.873267 0.355873
O O3 0.205111 0.914076 0.646951
O O4 0.000000 0.903586 0.608336
O O5 0.090932 0.339542 0.133029
O O6 0.279079 0.374637 0.049496
O O7 0.132791 0.429729 0.167898
O O8 0.129075 0.396439 0.837980
O O9 0.907767 0.737341 0.768019
O O10 0.278684 0.776156 0.667864
O O11 0.121655 0.757231 0.442859
O O12 0.114622 0.199145 0.638004
O O13 0.000000 0.125250 0.576038
O O14 0.500000 0.010042 0.800119
O O15 0.690826 0.985372 0.802427
O O16 0.625156 0.056024 0.014532
O O17 0.500000 0.225014 0.189618
#
# Coordination Sequence:
#
# PCOD9352458 Si02
#       8
#     8   8   4   8   8   8   8   8
#     4  10  22  43  68 102 141 195 239 296 363 432
#     4  12  25  43  71 110 142 188 247 297 364 449
#     4  12  24  42  68 108 146 198 240 308 368 434
#     4  11  22  42  67  96 150 190 238 303 362 419
#     4   9  19  40  66  91 137 189 236 290 359 420
#     4  12  26  48  71 103 146 185 229 307 371 433
#     4  12  27  44  76 108 140 189 243 294 372 445
#     4  10  21  39  60  92 134 191 240 294 350 422
#
# _framework density 22.837188000000001
#
# number of rings (size 3 to 8) (size 9 to 14) (size 15 to 20)
#    0.000    1.067    6.000    1.200    3.733    0.533 
#    1.200    4.000    0.000    0.000    0.000    0.000 
#    0.000    0.000    0.000    0.000    0.000    0.000 
#
# Total GULP energy -167349.048991 kJ/mol
# GULP energy per Si atom -5578.301633 kJ/mol
# Density = 2.278521 g / cm^3
# Si number density = 22.837188 Si / 1000 Ang^3
#
#
#
# Elastic Constant Matrix: (Units=GPa)
#
#
# Indices 1 2 3 4 5 6 
#
# 1 190.2371 47.4409 25.2169 0.0000 0.0000 0.0000
# 2 47.4409 87.3091 15.6103 0.0000 0.0000 0.0000
# 3 25.2169 15.6103 71.3437 0.0000 0.0000 0.0000
# 4 0.0000 0.0000 0.0000 22.2312 0.0000 0.0000
# 5 0.0000 0.0000 0.0000 0.0000 146.7810 0.0000
# 6 0.0000 0.0000 0.0000 0.0000 0.0000 115.9218
#
#
#
# Elastic Compliance Matrix: (Units=1/GPa)
#
#
# Indices 1 2 3 4 5 6 
#
# 1 0.006235 -0.003116 -0.001522 0.000000 0.000000 0.000000
# 2 -0.003116 0.013477 -0.001847 0.000000 0.000000 0.000000
# 3 -0.001522 -0.001847 0.014959 0.000000 0.000000 0.000000
# 4 0.000000 0.000000 0.000000 0.044982 0.000000 0.000000
# 5 0.000000 0.000000 0.000000 0.000000 0.006813 0.000000
# 6 0.000000 0.000000 0.000000 0.000000 0.000000 0.008627
#
#
# Mechanical properties :
#
#
# Convention : Reuss Voigt Hill
#
# Bulk Modulus (GPa) = 46.08268 58.38069 52.23168
# Shear Modulus (GPa) = 43.36620 74.36158 58.86389
#
# Velocity S-wave (km/s) = 4.36240 5.71247 5.08246
# Velocity P-wave (km/s) = 6.75253 8.31439 7.57383
#
# Compressibility (1/GPa) = 0.02170013
#
# Stress axis : x y z
#
# Youngs Moduli (GPa) = 160.37396 74.20056 66.84984
#
# Poissons Ratio (x) = 0.23121 0.10176
# Poissons Ratio (y) = 0.49972 0.12350
# Poissons Ratio (z) = 0.24412 0.13708
#
# Static dielectric constant tensor:
#      x y z
#    x 1.735340 0.000000 0.000000 
#    y 0.000000 1.814980 0.000000 
#    z 0.000000 0.000000 1.950920 
# 
# From -- ./inp_files/3545.got.cif
#   From: 2010.05.17/outbox.cif.g08.bks.cpg/sg36_2_cif.got.tgz:3545.got - 2010.06.03 17:41:39.
