data_PCOD9352824
_publ_section_title
;
Structure prediction by ZEFSAII (Michael W. Deem and Ramdas Pophale) SiO2 
 PCOD9352824
Probable space group: C M C 21
;
_chemical_formula_sum "Si O2"
_cell_formula_units_Z 64
_cell_length_a 8.465743
_cell_length_b 31.132964
_cell_length_c 12.203268
_cell_angle_alpha 90.000000
_cell_angle_beta 90.000000
_cell_angle_gamma 90.000000
_cell_volume 3216.338125
_symmetry_space_group_name_H-M "C M C 21"
_symmetry_group_IT_number 36
_symmetry_cell_setting 'orthorhombic'
loop_
_space_group_symop_operation_xyz
x,y,z
-x,-y,1/2+z
x,-y,1/2+z
-x,y,z
1/2+x,1/2+y,z
1/2-x,1/2-y,1/2+z
1/2+x,1/2-y,1/2+z
1/2-x,1/2+y,z
loop_
_atom_site_type_symbol
_atom_site_label
_atom_site_fract_x
_atom_site_fract_y
_atom_site_fract_z
Si Si1 0.183245 0.415290 0.072960
Si Si2 0.190936 0.377512 0.469770
Si Si3 0.684942 0.446380 0.301252
Si Si4 0.313669 0.196666 0.800761
Si Si5 0.684996 0.210794 0.353324
Si Si6 0.192399 0.625439 0.223194
Si Si7 0.688133 0.960949 0.851932
Si Si8 0.179961 0.175495 0.565171
O O1 0.219876 0.430989 0.194481
O O2 0.291460 0.374796 0.046140
O O3 0.000000 0.401331 0.064689
O O4 0.208197 0.451079 0.980676
O O5 0.260337 0.418035 0.404687
O O6 0.233323 0.334869 0.400440
O O7 0.242025 0.374978 0.596263
O O8 0.000000 0.381144 0.469200
O O9 0.500000 0.439247 0.281878
O O10 0.721313 0.496292 0.319714
O O11 0.500000 0.190324 0.782492
O O12 0.276860 0.245988 0.825583
O O13 0.223367 0.183916 0.690648
O O14 0.500000 0.217169 0.328559
O O15 0.742428 0.168802 0.286065
O O16 0.709268 0.200503 0.481008
O O17 0.239189 0.581737 0.285655
O O18 0.000000 0.625937 0.226279
O O19 0.500000 0.967278 0.831567
O O20 0.000000 0.187796 0.543219
#
# Coordination Sequence:
#
# PCOD9352824 Si02
#       8
#     8   8   8   8   8   8   8   8
#     4  11  22  42  69  93 121 164 216 266 317 377
#     4  10  22  42  66  89 124 169 214 259 310 378
#     4  12  26  41  61  94 132 165 206 260 321 377
#     4  11  24  41  64  96 130 169 215 263 319 379
#     4  11  23  42  67  96 130 167 211 264 321 382
#     4   9  20  41  66  92 121 163 211 257 311 373
#     4  10  22  42  67  92 122 165 214 258 311 378
#     4  12  24  41  66  94 128 168 213 267 322 376
#
# _framework density 19.898403999999999
#
# number of rings (size 3 to 8) (size 9 to 14) (size 15 to 20)
#    0.000    1.250    2.500    3.375    3.500    1.500 
#    0.000    1.250    0.000    0.000    0.000    0.000 
#    0.000    0.000    0.000    0.000    0.000    0.000 
#
# Total GULP energy -178897.908581 kJ/mol
# GULP energy per Si atom -5590.559643 kJ/mol
# Density = 1.985311 g / cm^3
# Si number density = 19.898404 Si / 1000 Ang^3
#
#
#
# Elastic Constant Matrix: (Units=GPa)
#
#
# Indices 1 2 3 4 5 6 
#
# 1 25.1480 6.4537 6.5618 0.0000 0.0000 0.0000
# 2 6.4537 98.5248 17.9863 0.0000 0.0000 0.0000
# 3 6.5618 17.9863 95.4405 0.0000 0.0000 0.0000
# 4 0.0000 0.0000 0.0000 20.2632 0.0000 0.0000
# 5 0.0000 0.0000 0.0000 0.0000 13.9470 0.0000
# 6 0.0000 0.0000 0.0000 0.0000 0.0000 33.1131
#
#
#
# Elastic Compliance Matrix: (Units=1/GPa)
#
#
# Indices 1 2 3 4 5 6 
#
# 1 0.040966 -0.002246 -0.002393 0.000000 0.000000 0.000000
# 2 -0.002246 0.010635 -0.001850 0.000000 0.000000 0.000000
# 3 -0.002393 -0.001850 0.010991 0.000000 0.000000 0.000000
# 4 0.000000 0.000000 0.000000 0.049351 0.000000 0.000000
# 5 0.000000 0.000000 0.000000 0.000000 0.071700 0.000000
# 6 0.000000 0.000000 0.000000 0.000000 0.000000 0.030200
#
#
# Mechanical properties :
#
#
# Convention : Reuss Voigt Hill
#
# Bulk Modulus (GPa) = 20.15629 31.23522 25.69576
# Shear Modulus (GPa) = 20.54592 26.00541 23.27567
#
# Velocity S-wave (km/s) = 3.21680 3.61904 3.42384
# Velocity P-wave (km/s) = 4.89374 5.76149 5.34525
#
# Compressibility (1/GPa) = 0.04961229
#
# Stress axis : x y z
#
# Youngs Moduli (GPa) = 24.41078 94.03314 90.98476
#
# Poissons Ratio (x) = 0.21124 0.21774
# Poissons Ratio (y) = 0.05484 0.16829
# Poissons Ratio (z) = 0.05842 0.17393
#
# Static dielectric constant tensor:
#      x y z
#    x 1.681200 0.000000 0.000000 
#    y 0.000000 1.684660 0.000000 
#    z 0.000000 0.000000 1.682100 
# 
# From -- ./inp_files/7059.got.cif
#   From: 2010.05.17/outbox.cif.g08.bks.cpg/sg36_4_cif.got.tgz:7059.got - 2010.06.03 17:41:39.
