data_PCOD9352521
_publ_section_title
;
Structure prediction by ZEFSAII (Michael W. Deem and Ramdas Pophale) SiO2 
 PCOD9352521
Probable space group: C M C 21
;
_chemical_formula_sum "Si O2"
_cell_formula_units_Z 40
_cell_length_a 21.393783
_cell_length_b 9.113517
_cell_length_c 8.697486
_cell_angle_alpha 90.000000
_cell_angle_beta 90.000000
_cell_angle_gamma 90.000000
_cell_volume 1695.771503
_symmetry_space_group_name_H-M "C M C 21"
_symmetry_group_IT_number 36
_symmetry_cell_setting 'orthorhombic'
loop_
_space_group_symop_operation_xyz
x,y,z
-x,-y,1/2+z
x,-y,1/2+z
-x,y,z
1/2+x,1/2+y,z
1/2-x,1/2-y,1/2+z
1/2+x,1/2-y,1/2+z
1/2-x,1/2+y,z
loop_
_atom_site_type_symbol
_atom_site_label
_atom_site_fract_x
_atom_site_fract_y
_atom_site_fract_z
Si Si1 0.408118 0.038827 0.887280
Si Si2 0.591064 0.213975 0.591200
Si Si3 0.258186 0.047658 0.911316
Si Si4 0.500000 0.550514 0.200024
Si Si5 0.775587 0.197163 0.216616
Si Si6 0.500000 0.729531 0.519147
O O1 0.429145 0.097911 0.722582
O O2 0.332673 0.034046 0.886819
O O3 0.440149 0.162200 0.997343
O O4 0.424255 0.873858 0.937164
O O5 0.558185 0.368360 0.617790
O O6 0.663316 0.242304 0.631454
O O7 0.236632 0.170938 0.789441
O O8 0.217648 0.906279 0.866749
O O9 0.254514 0.098894 0.085701
O O10 0.500000 0.613526 0.374330
O O11 0.500000 0.377963 0.165929
#
# Coordination Sequence:
#
# PCOD9352521 Si02
#       6
#     8   8   8   4   8   4
#     4  10  21  40  61  86 118 160 204 244 298 368
#     4  10  22  39  61  87 118 157 203 251 301 362
#     4  11  22  39  59  88 122 158 203 253 305 368
#     4  10  23  40  58  92 124 152 201 254 304 350
#     4  11  23  38  61  89 121 160 202 251 307 366
#     4  10  23  40  62  88 122 158 201 252 302 358
#
# _framework density 23.588083999999998
#
# number of rings (size 3 to 8) (size 9 to 14) (size 15 to 20)
#    0.000    1.600    0.000    5.400    0.000    8.000 
#    0.000    0.000    0.000    0.000    0.000    0.000 
#    0.000    0.000    0.000    0.000    0.000    0.000 
#
# Total GULP energy -111554.381786 kJ/mol
# GULP energy per Si atom -5577.719089 kJ/mol
# Density = 2.353440 g / cm^3
# Si number density = 23.588084 Si / 1000 Ang^3
#
#
#
# Elastic Constant Matrix: (Units=GPa)
#
#
# Indices 1 2 3 4 5 6 
#
# 1 41.3352 3.8578 8.6408 0.0000 0.0000 0.0000
# 2 3.8578 106.0455 28.2670 0.0000 0.0000 0.0000
# 3 8.6408 28.2670 48.1995 0.0000 0.0000 0.0000
# 4 0.0000 0.0000 0.0000 54.0162 0.0000 0.0000
# 5 0.0000 0.0000 0.0000 0.0000 5.8022 0.0000
# 6 0.0000 0.0000 0.0000 0.0000 0.0000 28.3900
#
#
#
# Elastic Compliance Matrix: (Units=1/GPa)
#
#
# Indices 1 2 3 4 5 6 
#
# 1 0.025145 0.000340 -0.004707 0.000000 0.000000 0.000000
# 2 0.000340 0.011182 -0.006619 0.000000 0.000000 0.000000
# 3 -0.004707 -0.006619 0.025472 0.000000 0.000000 0.000000
# 4 0.000000 0.000000 0.000000 0.018513 0.000000 0.000000
# 5 0.000000 0.000000 0.000000 0.000000 0.172347 0.000000
# 6 0.000000 0.000000 0.000000 0.000000 0.000000 0.035224
#
#
# Mechanical properties :
#
#
# Convention : Reuss Voigt Hill
#
# Bulk Modulus (GPa) = 25.10825 30.79013 27.94919
# Shear Modulus (GPa) = 15.47363 27.96267 21.71815
#
# Velocity S-wave (km/s) = 2.56402 3.44678 3.03764
# Velocity P-wave (km/s) = 4.40830 5.37792 4.91707
#
# Compressibility (1/GPa) = 0.03982754
#
# Stress axis : x y z
#
# Youngs Moduli (GPa) = 39.76976 89.43137 39.25803
#
# Poissons Ratio (x) = -0.03041 0.18479
# Poissons Ratio (y) = -0.01352 0.25983
# Poissons Ratio (z) = 0.18720 0.59191
#
# Static dielectric constant tensor:
#      x y z
#    x 1.936960 0.000000 0.000000 
#    y 0.000000 1.935000 0.000000 
#    z 0.000000 0.000000 1.926620 
# 
# From -- ./inp_files/5482.got.cif
#   From: 2010.05.17/outbox.cif.g08.bks.cpg/sg36_3_cif.got.tgz:5482.got - 2010.06.03 17:41:39.
