data_PCOD9352168
_publ_section_title
;
Structure prediction by ZEFSAII (Michael W. Deem and Ramdas Pophale) SiO2 
 PCOD9352168
Probable space group: C M C 21
;
_chemical_formula_sum "Si O2"
_cell_formula_units_Z 64
_cell_length_a 25.656222
_cell_length_b 7.271031
_cell_length_c 13.835723
_cell_angle_alpha 90.000000
_cell_angle_beta 90.000000
_cell_angle_gamma 90.000000
_cell_volume 2581.015185
_symmetry_space_group_name_H-M "C M C 21"
_symmetry_group_IT_number 36
_symmetry_cell_setting 'orthorhombic'
loop_
_space_group_symop_operation_xyz
x,y,z
-x,-y,1/2+z
x,-y,1/2+z
-x,y,z
1/2+x,1/2+y,z
1/2-x,1/2-y,1/2+z
1/2+x,1/2-y,1/2+z
1/2-x,1/2+y,z
loop_
_atom_site_type_symbol
_atom_site_label
_atom_site_fract_x
_atom_site_fract_y
_atom_site_fract_z
Si Si1 0.943490 0.084934 0.541610
Si Si2 0.669328 0.164270 0.856748
Si Si3 0.844621 0.569425 0.633689
Si Si4 0.922676 0.489766 0.490814
Si Si5 0.173841 0.864173 0.102540
Si Si6 0.727648 0.137520 0.464509
Si Si7 0.329041 0.409044 0.313309
Si Si8 0.444412 0.671270 0.857969
O O1 0.947907 0.304513 0.529467
O O2 0.884675 0.055234 0.583993
O O3 0.000000 0.020206 0.584514
O O4 0.941818 0.991974 0.436134
O O5 0.662733 0.108954 0.745338
O O6 0.717151 0.388865 0.020419
O O7 0.621920 0.094947 0.921399
O O8 0.716189 0.061791 0.913093
O O9 0.901425 0.594062 0.586183
O O10 0.832955 0.354826 0.615991
O O11 0.807842 0.677241 0.559424
O O12 0.946055 0.643081 0.421373
O O13 0.194781 0.926768 0.206526
O O14 0.699407 0.260820 0.380712
O O15 0.827776 0.116114 0.352581
O O16 0.389544 0.342210 0.302559
O O17 0.500000 0.658640 0.804041
#
# Coordination Sequence:
#
# PCOD9352168 Si02
#       8
#     8   8   8   8   8   8   8   8
#     4  10  23  44  73 111 153 198 257 322 388 464
#     4  11  23  48  79 112 154 208 264 309 399 469
#     4  10  22  46  74 108 154 199 254 317 377 470
#     4  10  20  42  74 109 152 200 255 322 378 451
#     4  11  26  50  78 116 154 211 259 320 401 465
#     4  11  26  54  74 110 160 201 261 326 386 477
#     4  12  25  49  82 112 163 210 258 331 393 468
#     4  11  22  41  76 114 152 211 263 317 394 460
#
# _framework density 24.796444000000001
#
# number of rings (size 3 to 8) (size 9 to 14) (size 15 to 20)
#    0.000    1.250    5.000    0.375    1.750    2.500 
#   11.250    0.000    0.000    3.000    0.000    0.000 
#    0.000    0.000    0.000    0.000    0.000    0.000 
#
# Total GULP energy -178588.990958 kJ/mol
# GULP energy per Si atom -5580.905967 kJ/mol
# Density = 2.474001 g / cm^3
# Si number density = 24.796444 Si / 1000 Ang^3
#
#
#
# Elastic Constant Matrix: (Units=GPa)
#
#
# Indices 1 2 3 4 5 6 
#
# 1 161.1008 37.1684 68.8960 0.0000 0.0000 0.0000
# 2 37.1684 76.1655 13.1807 0.0000 0.0000 0.0000
# 3 68.8960 13.1807 177.9037 0.0000 0.0000 0.0000
# 4 0.0000 0.0000 0.0000 17.7890 0.0000 0.0000
# 5 0.0000 0.0000 0.0000 0.0000 10.1060 0.0000
# 6 0.0000 0.0000 0.0000 0.0000 0.0000 3.0658
#
#
#
# Elastic Compliance Matrix: (Units=1/GPa)
#
#
# Indices 1 2 3 4 5 6 
#
# 1 0.008282 -0.003532 -0.002946 0.000000 0.000000 0.000000
# 2 -0.003532 0.014806 0.000271 0.000000 0.000000 0.000000
# 3 -0.002946 0.000271 0.006742 0.000000 0.000000 0.000000
# 4 0.000000 0.000000 0.000000 0.056215 0.000000 0.000000
# 5 0.000000 0.000000 0.000000 0.000000 0.098951 0.000000
# 6 0.000000 0.000000 0.000000 0.000000 0.000000 0.326178
#
#
# Mechanical properties :
#
#
# Convention : Reuss Voigt Hill
#
# Bulk Modulus (GPa) = 57.41755 72.62890 65.02322
# Shear Modulus (GPa) = 9.44481 25.92049 17.68265
#
# Velocity S-wave (km/s) = 1.95377 3.23667 2.67331
# Velocity P-wave (km/s) = 5.31935 6.58192 5.98402
#
# Compressibility (1/GPa) = 0.01741628
#
# Stress axis : x y z
#
# Youngs Moduli (GPa) = 120.74617 67.54054 148.33072
#
# Poissons Ratio (x) = 0.23854 0.43692
# Poissons Ratio (y) = 0.42645 -0.04016
# Poissons Ratio (z) = 0.35567 -0.01829
#
# Static dielectric constant tensor:
#      x y z
#    x 2.227380 0.000000 0.000000 
#    y 0.000000 2.110720 0.000000 
#    z 0.000000 0.000000 1.922050 
# 
# From -- ./inp_files/12981.got.cif
#   From: 2010.05.17/outbox.cif.g08.bks.cpg/sg36_7_cif.got.tgz:12981.got - 2010.06.03 17:41:39.
