data_PCOD9352275
_publ_section_title
;
Structure prediction by ZEFSAII (Michael W. Deem and Ramdas Pophale) SiO2 
 PCOD9352275
Probable space group: C M C 21
;
_chemical_formula_sum "Si O2"
_cell_formula_units_Z 56
_cell_length_a 15.512212
_cell_length_b 9.099320
_cell_length_c 17.833956
_cell_angle_alpha 90.000000
_cell_angle_beta 90.000000
_cell_angle_gamma 90.000000
_cell_volume 2517.273249
_symmetry_space_group_name_H-M "C M C 21"
_symmetry_group_IT_number 36
_symmetry_cell_setting 'orthorhombic'
loop_
_space_group_symop_operation_xyz
x,y,z
-x,-y,1/2+z
x,-y,1/2+z
-x,y,z
1/2+x,1/2+y,z
1/2-x,1/2-y,1/2+z
1/2+x,1/2-y,1/2+z
1/2-x,1/2+y,z
loop_
_atom_site_type_symbol
_atom_site_label
_atom_site_fract_x
_atom_site_fract_y
_atom_site_fract_z
Si Si1 0.686646 0.278492 0.639940
Si Si2 0.711731 0.994938 0.322774
Si Si3 0.324966 0.516068 0.518456
Si Si4 0.095141 0.474171 0.174711
Si Si5 0.880126 0.197774 0.643606
Si Si6 0.403722 0.536509 0.265960
Si Si7 0.278826 0.744473 0.921390
O O1 0.709721 0.413253 0.586082
O O2 0.778005 0.210883 0.659497
O O3 0.628731 0.340031 0.707439
O O4 0.628472 0.142682 0.613344
O O5 0.707232 0.852345 0.376482
O O6 0.661770 0.977425 0.244735
O O7 0.815762 0.015562 0.313162
O O8 0.678530 0.143513 0.362666
O O9 0.394391 0.609407 0.566038
O O10 0.338045 0.381778 0.459693
O O11 0.265992 0.642036 0.480283
O O12 0.090941 0.635977 0.141009
O O13 0.000000 0.433998 0.201733
O O14 0.912748 0.107446 0.714176
O O15 0.500000 0.567049 0.298197
#
# Coordination Sequence:
#
# PCOD9352275 Si02
#       7
#     8   8   8   8   8   8   8
#     4  11  20  37  64  95 130 159 204 265 332 376
#     4  11  21  39  61  92 132 166 222 258 310 389
#     4  10  21  36  61  96 120 168 222 260 307 383
#     4  12  24  39  66 101 133 165 206 267 331 385
#     4  11  20  37  64  95 130 159 204 265 332 376
#     4  11  22  38  63  97 132 165 206 267 331 381
#     4  10  22  36  62  94 116 180 226 246 312 380
#
# _framework density 22.246293999999999
#
# number of rings (size 3 to 8) (size 9 to 14) (size 15 to 20)
#    0.000    1.143    4.286    3.429    0.000    0.000 
#    0.000    0.000    0.000   32.571    0.000    0.000 
#    0.000    0.000    0.000    0.000    0.000    0.000 
#
# Total GULP energy -155878.203394 kJ/mol
# GULP energy per Si atom -5567.078693 kJ/mol
# Density = 2.219566 g / cm^3
# Si number density = 22.246294 Si / 1000 Ang^3
#
#
#
# Elastic Constant Matrix: (Units=GPa)
#
#
# Indices 1 2 3 4 5 6 
#
# 1 130.3612 24.8778 21.4087 0.0000 0.0000 0.0000
# 2 24.8778 172.0950 42.5611 0.0000 0.0000 0.0000
# 3 21.4087 42.5611 71.2482 0.0000 0.0000 0.0000
# 4 0.0000 0.0000 0.0000 45.7529 0.0000 0.0000
# 5 0.0000 0.0000 0.0000 0.0000 -15.8724 0.0000
# 6 0.0000 0.0000 0.0000 0.0000 0.0000 19.2733
#
#
#
# Elastic Compliance Matrix: (Units=1/GPa)
#
#
# Indices 1 2 3 4 5 6 
#
# 1 0.008135 -0.000670 -0.002044 0.000000 0.000000 0.000000
# 2 -0.000670 0.006873 -0.003904 0.000000 0.000000 0.000000
# 3 -0.002044 -0.003904 0.016982 0.000000 0.000000 0.000000
# 4 0.000000 0.000000 0.000000 0.021857 0.000000 0.000000
# 5 0.000000 0.000000 0.000000 0.000000 -0.063002 0.000000
# 6 0.000000 0.000000 0.000000 0.000000 0.000000 0.051885
#
#
# Mechanical properties :
#
#
# Convention : Reuss Voigt Hill
#
# Bulk Modulus (GPa) = 53.32620 61.26661 57.29641
# Shear Modulus (GPa) = 80.36356 28.82121 54.59238
#
# Velocity S-wave (km/s) = 6.01688 3.60328 4.95916
# Velocity P-wave (km/s) = 8.50255 6.70160 7.65522
#
# Compressibility (1/GPa) = 0.01875251
#
# Stress axis : x y z
#
# Youngs Moduli (GPa) = 122.93186 145.49124 58.88622
#
# Poissons Ratio (x) = 0.09755 0.12035
# Poissons Ratio (y) = 0.08242 0.22991
# Poissons Ratio (z) = 0.25124 0.56805
#
# Static dielectric constant tensor:
#      x y z
#    x 1.941980 0.000000 0.000000 
#    y 0.000000 1.888960 0.000000 
#    z 0.000000 0.000000 1.916380 
# 
# From -- ./inp_files/16135.got.cif
#   From: 2010.05.17/outbox.cif.g08.bks.cpg/sg36_9_cif.got.tgz:16135.got - 2010.06.03 17:41:39.
