data_PCOD9352960
_publ_section_title
;
Structure prediction by ZEFSAII (Michael W. Deem and Ramdas Pophale) SiO2 
 PCOD9352960
Probable space group: C M C 21
;
_chemical_formula_sum "Si O2"
_cell_formula_units_Z 60
_cell_length_a 21.099862
_cell_length_b 4.976888
_cell_length_c 22.589325
_cell_angle_alpha 90.000000
_cell_angle_beta 90.000000
_cell_angle_gamma 90.000000
_cell_volume 2372.142290
_symmetry_space_group_name_H-M "C M C 21"
_symmetry_group_IT_number 36
_symmetry_cell_setting 'orthorhombic'
loop_
_space_group_symop_operation_xyz
x,y,z
-x,-y,1/2+z
x,-y,1/2+z
-x,y,z
1/2+x,1/2+y,z
1/2-x,1/2-y,1/2+z
1/2+x,1/2-y,1/2+z
1/2-x,1/2+y,z
loop_
_atom_site_type_symbol
_atom_site_label
_atom_site_fract_x
_atom_site_fract_y
_atom_site_fract_z
Si Si1 0.790728 0.659069 0.396870
Si Si2 0.570848 0.939283 0.365543
Si Si3 0.869740 0.877618 0.633867
Si Si4 0.708683 0.388470 0.224516
Si Si5 0.401913 0.039411 0.236896
Si Si6 0.000000 0.126395 0.655365
Si Si7 0.647168 0.903611 0.014746
Si Si8 0.571611 0.404485 0.977951
O O1 0.738609 0.440435 0.377854
O O2 0.862557 0.589066 0.378351
O O3 0.796326 0.640061 0.468590
O O4 0.500000 0.060201 0.378671
O O5 0.571172 0.896538 0.295026
O O6 0.575444 0.681341 0.408739
O O7 0.880223 0.686869 0.690903
O O8 0.842561 0.703608 0.580318
O O9 0.818881 0.095910 0.657094
O O10 0.941124 0.979086 0.619914
O O11 0.735278 0.680480 0.236206
O O12 0.650907 0.251431 0.257979
O O13 0.447353 0.222174 0.197534
O O14 0.591454 0.708045 0.989662
O O15 0.620846 0.205782 0.010788
O O16 0.500000 0.347067 0.996821
#
# Coordination Sequence:
#
# PCOD9352960 Si02
#       8
#     8   8   8   8   8   4   8   8
#     4  11  25  51  74 108 146 192 252 314 389 449
#     4  10  23  48  78 109 152 197 257 322 388 465
#     4  11  26  42  72 108 150 205 251 312 384 462
#     4  11  24  46  67  98 143 184 246 302 364 450
#     4  11  23  47  71 107 149 199 249 312 387 461
#     4  10  24  42  64 110 158 194 246 306 380 458
#     4  11  25  43  72 103 146 195 253 313 380 456
#     4  10  23  43  67 106 141 192 245 316 380 447
#
# _framework density 25.293590999999999
#
# number of rings (size 3 to 8) (size 9 to 14) (size 15 to 20)
#    0.000    1.333    2.000    2.400    5.600    2.667 
#   14.400    0.667    0.000    0.000    0.000    0.000 
#    0.000    0.000    0.000    0.000    0.000    0.000 
#
# Total GULP energy -167146.737693 kJ/mol
# GULP energy per Si atom -5571.557923 kJ/mol
# Density = 2.523602 g / cm^3
# Si number density = 25.293591 Si / 1000 Ang^3
#
#
#
# Elastic Constant Matrix: (Units=GPa)
#
#
# Indices 1 2 3 4 5 6 
#
# 1 85.5845 7.4862 22.3881 0.0000 0.0000 0.0000
# 2 7.4862 47.1134 29.1528 0.0000 0.0000 0.0000
# 3 22.3881 29.1528 103.1273 0.0000 0.0000 0.0000
# 4 0.0000 0.0000 0.0000 12.2706 0.0000 0.0000
# 5 0.0000 0.0000 0.0000 0.0000 18.3427 0.0000
# 6 0.0000 0.0000 0.0000 0.0000 0.0000 37.2438
#
#
#
# Elastic Compliance Matrix: (Units=1/GPa)
#
#
# Indices 1 2 3 4 5 6 
#
# 1 0.012393 -0.000369 -0.002586 0.000000 0.000000 0.000000
# 2 -0.000369 0.025736 -0.007195 0.000000 0.000000 0.000000
# 3 -0.002586 -0.007195 0.012292 0.000000 0.000000 0.000000
# 4 0.000000 0.000000 0.000000 0.081496 0.000000 0.000000
# 5 0.000000 0.000000 0.000000 0.000000 0.054518 0.000000
# 6 0.000000 0.000000 0.000000 0.000000 0.000000 0.026850
#
#
# Mechanical properties :
#
#
# Convention : Reuss Voigt Hill
#
# Bulk Modulus (GPa) = 33.19954 39.31994 36.25974
# Shear Modulus (GPa) = 20.52327 25.35795 22.94061
#
# Velocity S-wave (km/s) = 2.85160 3.16973 3.01487
# Velocity P-wave (km/s) = 4.89861 5.38288 5.14644
#
# Compressibility (1/GPa) = 0.03012089
#
# Stress axis : x y z
#
# Youngs Moduli (GPa) = 80.68973 38.85568 81.35244
#
# Poissons Ratio (x) = 0.01434 0.21039
# Poissons Ratio (y) = 0.02977 0.58535
# Poissons Ratio (z) = 0.20868 0.27958
#
# Static dielectric constant tensor:
#      x y z
#    x 2.122640 0.000000 0.000000 
#    y 0.000000 1.987320 0.000000 
#    z 0.000000 0.000000 2.128560 
# 
# From -- ./inp_files/17051.got.cif
#   From: 2010.05.17/outbox.cif.g08.bks.cpg/sg36_9_cif.got.tgz:17051.got - 2010.06.03 17:41:39.
