data_PCOD9352706
_publ_section_title
;
Structure prediction by ZEFSAII (Michael W. Deem and Ramdas Pophale) SiO2 
 PCOD9352706
Probable space group: C M C 21
;
_chemical_formula_sum "Si O2"
_cell_formula_units_Z 56
_cell_length_a 13.206293
_cell_length_b 8.783665
_cell_length_c 22.683337
_cell_angle_alpha 90.000000
_cell_angle_beta 90.000000
_cell_angle_gamma 90.000000
_cell_volume 2631.259235
_symmetry_space_group_name_H-M "C M C 21"
_symmetry_group_IT_number 36
_symmetry_cell_setting 'orthorhombic'
loop_
_space_group_symop_operation_xyz
x,y,z
-x,-y,1/2+z
x,-y,1/2+z
-x,y,z
1/2+x,1/2+y,z
1/2-x,1/2-y,1/2+z
1/2+x,1/2-y,1/2+z
1/2-x,1/2+y,z
loop_
_atom_site_type_symbol
_atom_site_label
_atom_site_fract_x
_atom_site_fract_y
_atom_site_fract_z
Si Si1 0.883004 0.312209 0.020360
Si Si2 0.258385 0.511533 0.858449
Si Si3 0.118934 0.726189 0.292940
Si Si4 0.616868 0.668748 0.146976
Si Si5 0.696884 0.331630 0.170045
Si Si6 0.115271 0.646707 0.060248
Si Si7 0.692303 0.745107 0.442720
O O1 0.881674 0.200242 0.076557
O O2 0.846416 0.477421 0.044499
O O3 0.000000 0.327602 0.000626
O O4 0.806420 0.261036 0.969861
O O5 0.188609 0.413546 0.814738
O O6 0.332895 0.627203 0.825777
O O7 0.320316 0.398504 0.900812
O O8 0.186066 0.607806 0.901675
O O9 0.136787 0.758778 0.224161
O O10 0.000000 0.706250 0.305657
O O11 0.500000 0.671267 0.165612
O O12 0.665673 0.506094 0.162043
O O13 0.683594 0.800146 0.177683
O O14 0.670712 0.237309 0.111237
O O15 0.000000 0.627160 0.079151
O O16 0.123222 0.741212 0.999837
#
# Coordination Sequence:
#
# PCOD9352706 Si02
#       7
#     8   8   8   8   8   8   8
#     4  10  22  39  62  95 137 183 217 264 346 420
#     4  10  25  43  68  96 128 180 236 281 335 395
#     4  11  25  49  72  96 135 184 233 287 340 396
#     4  11  24  41  66 101 143 181 217 268 339 412
#     4  12  24  43  71 101 141 178 227 284 338 408
#     4  11  23  38  63 100 135 174 221 278 349 415
#     4  11  21  41  64  95 135 166 221 288 341 402
#
# _framework density 21.282585000000001
#
# number of rings (size 3 to 8) (size 9 to 14) (size 15 to 20)
#    0.000    1.143    2.857    3.000    2.000    3.429 
#    0.000    7.143    0.000    0.000    0.000    0.000 
#    0.000    0.000    0.000    0.000    0.000    0.000 
#
# Total GULP energy -156575.751672 kJ/mol
# GULP energy per Si atom -5591.991131 kJ/mol
# Density = 2.123415 g / cm^3
# Si number density = 21.282585 Si / 1000 Ang^3
#
#
#
# Elastic Constant Matrix: (Units=GPa)
#
#
# Indices 1 2 3 4 5 6 
#
# 1 106.8130 25.1427 3.2365 0.0000 0.0000 0.0000
# 2 25.1427 57.6461 4.0584 0.0000 0.0000 0.0000
# 3 3.2365 4.0584 60.2176 0.0000 0.0000 0.0000
# 4 0.0000 0.0000 0.0000 24.5398 0.0000 0.0000
# 5 0.0000 0.0000 0.0000 0.0000 11.6738 0.0000
# 6 0.0000 0.0000 0.0000 0.0000 0.0000 24.7749
#
#
#
# Elastic Compliance Matrix: (Units=1/GPa)
#
#
# Indices 1 2 3 4 5 6 
#
# 1 0.010437 -0.004534 -0.000255 0.000000 0.000000 0.000000
# 2 -0.004534 0.019400 -0.001064 0.000000 0.000000 0.000000
# 3 -0.000255 -0.001064 0.016692 0.000000 0.000000 0.000000
# 4 0.000000 0.000000 0.000000 0.040750 0.000000 0.000000
# 5 0.000000 0.000000 0.000000 0.000000 0.085662 0.000000
# 6 0.000000 0.000000 0.000000 0.000000 0.000000 0.040363
#
#
# Mechanical properties :
#
#
# Convention : Reuss Voigt Hill
#
# Bulk Modulus (GPa) = 28.71744 32.17242 30.44493
# Shear Modulus (GPa) = 21.13105 25.01364 23.07234
#
# Velocity S-wave (km/s) = 3.15442 3.43200 3.29613
# Velocity P-wave (km/s) = 5.17589 5.55468 5.36862
#
# Compressibility (1/GPa) = 0.03482205
#
# Stress axis : x y z
#
# Youngs Moduli (GPa) = 95.81097 51.54701 59.90943
#
# Poissons Ratio (x) = 0.23373 0.01530
# Poissons Ratio (y) = 0.43443 0.06373
# Poissons Ratio (z) = 0.02447 0.05483
#
# Static dielectric constant tensor:
#      x y z
#    x 1.777720 0.000000 0.000000 
#    y 0.000000 1.784400 0.000000 
#    z 0.000000 0.000000 1.776560 
# 
# From -- ./inp_files/16148.got.cif
#   From: 2010.05.17/outbox.cif.g08.bks.cpg/sg36_9_cif.got.tgz:16148.got - 2010.06.03 17:41:39.
