data_PCOD9352978
_publ_section_title
;
Structure prediction by ZEFSAII (Michael W. Deem and Ramdas Pophale) SiO2 
 PCOD9352978
Probable space group: C M C 21
;
_chemical_formula_sum "Si O2"
_cell_formula_units_Z 40
_cell_length_a 13.365058
_cell_length_b 4.914479
_cell_length_c 21.125486
_cell_angle_alpha 90.000000
_cell_angle_beta 90.000000
_cell_angle_gamma 90.000000
_cell_volume 1387.570443
_symmetry_space_group_name_H-M "C M C 21"
_symmetry_group_IT_number 36
_symmetry_cell_setting 'orthorhombic'
loop_
_space_group_symop_operation_xyz
x,y,z
-x,-y,1/2+z
x,-y,1/2+z
-x,y,z
1/2+x,1/2+y,z
1/2-x,1/2-y,1/2+z
1/2+x,1/2-y,1/2+z
1/2-x,1/2+y,z
loop_
_atom_site_type_symbol
_atom_site_label
_atom_site_fract_x
_atom_site_fract_y
_atom_site_fract_z
Si Si1 0.000000 0.818874 0.108650
Si Si2 0.000000 0.799518 0.346698
Si Si3 0.804901 0.554794 0.616101
Si Si4 0.195747 0.431124 0.966135
Si Si5 0.676355 0.973124 0.291976
Si Si6 0.000000 0.198538 0.465889
Si Si7 0.500000 0.722097 0.226187
O O1 0.094857 0.621702 0.115429
O O2 0.000000 0.051311 0.161821
O O3 0.000000 0.935002 0.036507
O O4 0.904008 0.600967 0.340830
O O5 0.000000 0.980452 0.409678
O O6 0.000000 0.008928 0.286106
O O7 0.780124 0.852374 0.643122
O O8 0.790178 0.615454 0.541270
O O9 0.218201 0.132211 0.939891
O O10 0.234474 0.810411 0.794444
O O11 0.594941 0.897454 0.462396
O O12 0.597404 0.914375 0.235018
#
# Coordination Sequence:
#
# PCOD9352978 Si02
#       7
#     4   4   8   8   8   4   4
#     4  10  23  44  72 106 149 198 248 314 386 449
#     4  11  25  47  76 115 153 197 268 322 379 478
#     4   9  19  38  60  90 131 177 229 285 351 429
#     4   9  19  38  60  90 131 177 229 285 351 429
#     4  11  24  49  78 110 146 199 252 321 388 452
#     4  10  23  44  72 106 149 198 248 314 386 449
#     4  11  25  47  76 115 153 197 268 322 379 478
#
# _framework density 28.827369000000001
#
# number of rings (size 3 to 8) (size 9 to 14) (size 15 to 20)
#    0.000    2.000    2.000    0.000    0.000    4.800 
#   14.400    8.000    0.000    0.000    0.000    0.000 
#    0.000    0.000    0.000    0.000    0.000    0.000 
#
# Total GULP energy -112081.398859 kJ/mol
# GULP energy per Si atom -5604.069943 kJ/mol
# Density = 2.876176 g / cm^3
# Si number density = 28.827369 Si / 1000 Ang^3
#
#
#
# Elastic Constant Matrix: (Units=GPa)
#
#
# Indices 1 2 3 4 5 6 
#
# 1 165.2305 19.8086 -7.7110 0.0000 0.0000 0.0000
# 2 19.8086 170.8070 24.0065 0.0000 0.0000 0.0000
# 3 -7.7110 24.0065 188.0845 0.0000 0.0000 0.0000
# 4 0.0000 0.0000 0.0000 49.1322 0.0000 0.0000
# 5 0.0000 0.0000 0.0000 0.0000 18.6283 0.0000
# 6 0.0000 0.0000 0.0000 0.0000 0.0000 21.5586
#
#
#
# Elastic Compliance Matrix: (Units=1/GPa)
#
#
# Indices 1 2 3 4 5 6 
#
# 1 0.006160 -0.000764 0.000350 0.000000 0.000000 0.000000
# 2 -0.000764 0.006056 -0.000804 0.000000 0.000000 0.000000
# 3 0.000350 -0.000804 0.005434 0.000000 0.000000 0.000000
# 4 0.000000 0.000000 0.000000 0.020353 0.000000 0.000000
# 5 0.000000 0.000000 0.000000 0.000000 0.053682 0.000000
# 6 0.000000 0.000000 0.000000 0.000000 0.000000 0.046385
#
#
# Mechanical properties :
#
#
# Convention : Reuss Voigt Hill
#
# Bulk Modulus (GPa) = 65.72797 66.25892 65.99344
# Shear Modulus (GPa) = 34.34606 50.39836 42.37221
#
# Velocity S-wave (km/s) = 3.45547 4.18578 3.83804
# Velocity P-wave (km/s) = 6.22659 6.81144 6.52557
#
# Compressibility (1/GPa) = 0.01521422
#
# Stress axis : x y z
#
# Youngs Moduli (GPa) = 162.33698 165.12132 184.03441
#
# Poissons Ratio (x) = 0.12608 -0.06441
# Poissons Ratio (y) = 0.12396 0.14802
# Poissons Ratio (z) = -0.05682 0.13281
#
# Static dielectric constant tensor:
#      x y z
#    x 2.310020 0.000000 0.000000 
#    y 0.000000 2.123040 0.000000 
#    z 0.000000 0.000000 2.461860 
# 
# From -- ./inp_files/14809.got.cif
#   From: 2010.05.17/outbox.cif.g08.bks.cpg/sg36_8_cif.got.tgz:14809.got - 2010.06.03 17:41:39.
