data_PCOD9352034
_publ_section_title
;
Structure prediction by ZEFSAII (Michael W. Deem and Ramdas Pophale) SiO2 
 PCOD9352034
Probable space group: C M C 21
;
_chemical_formula_sum "Si O2"
_cell_formula_units_Z 48
_cell_length_a 14.100283
_cell_length_b 9.817321
_cell_length_c 17.423028
_cell_angle_alpha 90.000000
_cell_angle_beta 90.000000
_cell_angle_gamma 90.000000
_cell_volume 2411.817574
_symmetry_space_group_name_H-M "C M C 21"
_symmetry_group_IT_number 36
_symmetry_cell_setting 'orthorhombic'
loop_
_space_group_symop_operation_xyz
x,y,z
-x,-y,1/2+z
x,-y,1/2+z
-x,y,z
1/2+x,1/2+y,z
1/2-x,1/2-y,1/2+z
1/2+x,1/2-y,1/2+z
1/2-x,1/2+y,z
loop_
_atom_site_type_symbol
_atom_site_label
_atom_site_fract_x
_atom_site_fract_y
_atom_site_fract_z
Si Si1 0.695556 0.288156 0.758140
Si Si2 0.784205 0.435967 0.018325
Si Si3 0.301300 0.196099 0.105343
Si Si4 0.000000 0.381394 0.841601
Si Si5 0.794006 0.521256 0.848692
Si Si6 0.500000 0.170280 0.511245
Si Si7 0.000000 0.281964 0.179620
Si Si8 0.000000 0.616583 0.169241
O O1 0.758048 0.251664 0.684352
O O2 0.731580 0.431564 0.790349
O O3 0.590362 0.273331 0.725039
O O4 0.710386 0.177297 0.824436
O O5 0.726959 0.301117 0.039432
O O6 0.760132 0.550004 0.080942
O O7 0.898261 0.406740 0.019616
O O8 0.760867 0.492591 0.934675
O O9 0.410024 0.167253 0.122469
O O10 0.903380 0.469905 0.844091
O O11 0.000000 0.321613 0.755605
O O12 0.000000 0.290516 0.919985
O O13 0.500000 0.260563 0.589232
O O14 0.000000 0.449909 0.178521
#
# Coordination Sequence:
#
# PCOD9352034 Si02
#       8
#     8   8   8   4   8   4   4   4
#     4  12  22  39  65  91 122 162 208 261 308 364
#     4  11  23  40  62  92 125 164 208 256 312 372
#     4  12  22  39  65  91 122 162 208 261 308 364
#     4  10  20  38  63  88 120 164 206 251 303 367
#     4  11  23  40  62  92 125 164 208 256 312 372
#     4  10  20  38  63  88 120 164 206 251 303 367
#     4  12  20  40  62  91 120 157 216 255 294 371
#     4  12  20  40  62  91 120 157 216 255 294 371
#
# _framework density 19.902003000000001
#
# number of rings (size 3 to 8) (size 9 to 14) (size 15 to 20)
#    0.000    0.667    6.667    2.000    0.000    0.000 
#    0.000    7.500    0.000    0.000    0.000    0.000 
#    0.000    0.000    0.000    0.000    0.000    0.000 
#
# Total GULP energy -133907.656171 kJ/mol
# GULP energy per Si atom -5579.485674 kJ/mol
# Density = 1.985671 g / cm^3
# Si number density = 19.902003 Si / 1000 Ang^3
#
#
#
# Elastic Constant Matrix: (Units=GPa)
#
#
# Indices 1 2 3 4 5 6 
#
# 1 93.8302 22.3981 14.3603 0.0000 0.0000 0.0000
# 2 22.3981 46.4830 3.7353 0.0000 0.0000 0.0000
# 3 14.3603 3.7353 90.7996 0.0000 0.0000 0.0000
# 4 0.0000 0.0000 0.0000 35.3423 0.0000 0.0000
# 5 0.0000 0.0000 0.0000 0.0000 33.8557 0.0000
# 6 0.0000 0.0000 0.0000 0.0000 0.0000 -8.3176
#
#
#
# Elastic Compliance Matrix: (Units=1/GPa)
#
#
# Indices 1 2 3 4 5 6 
#
# 1 0.012301 -0.005790 -0.001707 0.000000 0.000000 0.000000
# 2 -0.005790 0.024310 -0.000084 0.000000 0.000000 0.000000
# 3 -0.001707 -0.000084 0.011287 0.000000 0.000000 0.000000
# 4 0.000000 0.000000 0.000000 0.028295 0.000000 0.000000
# 5 0.000000 0.000000 0.000000 0.000000 0.029537 0.000000
# 6 0.000000 0.000000 0.000000 0.000000 0.000000 -0.120227
#
#
# Mechanical properties :
#
#
# Convention : Reuss Voigt Hill
#
# Bulk Modulus (GPa) = 30.54895 34.67779 32.61337
# Shear Modulus (GPa) = 431.87130 24.88402 228.37766
#
# Velocity S-wave (km/s) = 14.74686 3.53983 10.72381
# Velocity P-wave (km/s) = 17.47407 5.84545 13.02905
#
# Compressibility (1/GPa) = 0.03273435
#
# Stress axis : x y z
#
# Youngs Moduli (GPa) = 81.29429 41.13535 88.59949
#
# Poissons Ratio (x) = 0.23818 0.15126
# Poissons Ratio (y) = 0.47070 0.00747
# Poissons Ratio (z) = 0.13879 0.00347
#
# Static dielectric constant tensor:
#      x y z
#    x 1.519160 0.000000 0.000000 
#    y 0.000000 1.681660 0.000000 
#    z 0.000000 0.000000 1.735250 
# 
# From -- ./inp_files/14611.got.cif
#   From: 2010.05.17/outbox.cif.g08.bks.cpg/sg36_8_cif.got.tgz:14611.got - 2010.06.03 17:41:39.
