data_PCOD9352672
_publ_section_title
;
Structure prediction by ZEFSAII (Michael W. Deem and Ramdas Pophale) SiO2 
 PCOD9352672
Probable space group: C M C 21
;
_chemical_formula_sum "Si O2"
_cell_formula_units_Z 64
_cell_length_a 7.508113
_cell_length_b 14.602963
_cell_length_c 22.582681
_cell_angle_alpha 90.000000
_cell_angle_beta 90.000000
_cell_angle_gamma 90.000000
_cell_volume 2475.980870
_symmetry_space_group_name_H-M "C M C 21"
_symmetry_group_IT_number 36
_symmetry_cell_setting 'orthorhombic'
loop_
_space_group_symop_operation_xyz
x,y,z
-x,-y,1/2+z
x,-y,1/2+z
-x,y,z
1/2+x,1/2+y,z
1/2-x,1/2-y,1/2+z
1/2+x,1/2-y,1/2+z
1/2-x,1/2+y,z
loop_
_atom_site_type_symbol
_atom_site_label
_atom_site_fract_x
_atom_site_fract_y
_atom_site_fract_z
Si Si1 0.281724 0.621964 0.007410
Si Si2 0.297067 0.782713 0.079398
Si Si3 0.785385 0.956276 0.848088
Si Si4 0.787137 0.167857 0.879555
Si Si5 0.295746 0.698442 0.755323
Si Si6 0.706970 0.385996 0.722477
Si Si7 0.198738 0.563272 0.661436
Si Si8 0.216594 0.913270 0.976972
O O1 0.500000 0.624360 0.008192
O O2 0.221203 0.683278 0.062878
O O3 0.216845 0.669973 0.946250
O O4 0.235488 0.514683 0.002251
O O5 0.500000 0.768551 0.102269
O O6 0.209144 0.861153 0.119932
O O7 0.300642 0.835503 0.016801
O O8 0.716702 0.923654 0.784835
O O9 0.725767 0.906810 0.908334
O O10 0.000000 0.948261 0.846382
O O11 0.751361 0.063334 0.859207
O O12 0.726753 0.223228 0.821345
O O13 0.000000 0.181873 0.884979
O O14 0.500000 0.667304 0.761693
O O15 0.291234 0.787223 0.713759
O O16 0.196008 0.616212 0.723957
O O17 0.500000 0.366807 0.730271
O O18 0.722287 0.464320 0.673537
O O19 0.000000 0.548678 0.638548
O O20 0.000000 0.906902 0.978962
#
# Coordination Sequence:
#
# PCOD9352672 Si02
#       8
#     8   8   8   8   8   8   8   8
#     4   8  16  33  56  81 111 148 184 225 280 343
#     4  10  22  38  58  83 114 150 192 239 287 342
#     4   8  15  31  55  83 116 149 185 234 287 344
#     4   8  14  29  55  83 113 146 183 227 282 348
#     4  11  22  37  60  90 118 153 195 242 298 355
#     4  11  22  38  60  86 118 157 198 243 296 351
#     4  11  24  42  58  81 119 161 205 249 288 342
#     4   9  18  34  58  85 113 148 190 231 280 347
#
# _framework density 25.848341999999999
#
# number of rings (size 3 to 8) (size 9 to 14) (size 15 to 20)
#    0.000    2.500    1.250    2.625    1.750    2.000 
#    0.000    2.500    0.000    0.000    0.000    0.000 
#    0.000    0.000    0.000    0.000    0.000    0.000 
#
# Total GULP energy -178793.933729 kJ/mol
# GULP energy per Si atom -5587.310429 kJ/mol
# Density = 2.578951 g / cm^3
# Si number density = 25.848342 Si / 1000 Ang^3
#
#
#
# Elastic Constant Matrix: (Units=GPa)
#
#
# Indices 1 2 3 4 5 6 
#
# 1 79.0206 -2.8985 -1.5805 0.0000 0.0000 0.0000
# 2 -2.8985 95.8035 27.7469 0.0000 0.0000 0.0000
# 3 -1.5805 27.7469 61.1340 0.0000 0.0000 0.0000
# 4 0.0000 0.0000 0.0000 54.0042 0.0000 0.0000
# 5 0.0000 0.0000 0.0000 0.0000 12.0225 0.0000
# 6 0.0000 0.0000 0.0000 0.0000 0.0000 8.4682
#
#
#
# Elastic Compliance Matrix: (Units=1/GPa)
#
#
# Indices 1 2 3 4 5 6 
#
# 1 0.012671 0.000332 0.000177 0.000000 0.000000 0.000000
# 2 0.000332 0.012026 -0.005450 0.000000 0.000000 0.000000
# 3 0.000177 -0.005450 0.018836 0.000000 0.000000 0.000000
# 4 0.000000 0.000000 0.000000 0.018517 0.000000 0.000000
# 5 0.000000 0.000000 0.000000 0.000000 0.083177 0.000000
# 6 0.000000 0.000000 0.000000 0.000000 0.000000 0.118089
#
#
# Mechanical properties :
#
#
# Convention : Reuss Voigt Hill
#
# Bulk Modulus (GPa) = 29.71687 31.38822 30.55254
# Shear Modulus (GPa) = 17.57998 29.07833 23.32916
#
# Velocity S-wave (km/s) = 2.61074 3.35768 3.00749
# Velocity P-wave (km/s) = 4.53977 5.21552 4.88933
#
# Compressibility (1/GPa) = 0.03365092
#
# Stress axis : x y z
#
# Youngs Moduli (GPa) = 78.92254 83.14978 53.09087
#
# Poissons Ratio (x) = -0.02762 -0.00939
# Poissons Ratio (y) = -0.02621 0.28934
# Poissons Ratio (z) = -0.01396 0.45316
#
# Static dielectric constant tensor:
#      x y z
#    x 1.973100 0.000000 0.000000 
#    y 0.000000 1.999340 0.000000 
#    z 0.000000 0.000000 2.114890 
# 
# From -- ./inp_files/17354.got.cif
#   From: 2010.05.17/outbox.cif.g08.bks.cpg/sg36_9_cif.got.tgz:17354.got - 2010.06.03 17:41:39.
