data_PCOD9352819
_publ_section_title
;
Structure prediction by ZEFSAII (Michael W. Deem and Ramdas Pophale) SiO2 
 PCOD9352819
Probable space group: C M C 21
;
_chemical_formula_sum "Si O2"
_cell_formula_units_Z 48
_cell_length_a 8.916045
_cell_length_b 27.846836
_cell_length_c 10.247814
_cell_angle_alpha 90.000000
_cell_angle_beta 90.000000
_cell_angle_gamma 90.000000
_cell_volume 2544.364592
_symmetry_space_group_name_H-M "C M C 21"
_symmetry_group_IT_number 36
_symmetry_cell_setting 'orthorhombic'
loop_
_space_group_symop_operation_xyz
x,y,z
-x,-y,1/2+z
x,-y,1/2+z
-x,y,z
1/2+x,1/2+y,z
1/2-x,1/2-y,1/2+z
1/2+x,1/2-y,1/2+z
1/2-x,1/2+y,z
loop_
_atom_site_type_symbol
_atom_site_label
_atom_site_fract_x
_atom_site_fract_y
_atom_site_fract_z
Si Si1 0.679365 0.892412 0.632950
Si Si2 0.679697 0.284299 0.003593
Si Si3 0.678753 0.066706 0.849433
Si Si4 0.179863 0.038628 0.346900
Si Si5 0.320667 0.393045 0.090029
Si Si6 0.679663 0.290056 0.704177
O O1 0.500000 0.891553 0.649503
O O2 0.713001 0.905007 0.482699
O O3 0.749506 0.933003 0.725589
O O4 0.748116 0.841389 0.672049
O O5 0.500000 0.277510 0.016839
O O6 0.713381 0.339646 0.038819
O O7 0.762807 0.248827 0.101333
O O8 0.720205 0.275766 0.852543
O O9 0.500000 0.060148 0.841693
O O10 0.736742 0.094763 0.722985
O O11 0.757054 0.014886 0.853650
O O12 0.217744 0.068455 0.477804
O O13 0.000000 0.037864 0.333805
O O14 0.500000 0.395946 0.111687
O O15 0.500000 0.294539 0.698763
#
# Coordination Sequence:
#
# PCOD9352819 Si02
#       6
#     8   8   8   8   8   8
#     4  11  24  42  64  92 128 165 206 258 310 364
#     4  10  23  44  65  93 127 158 205 258 308 368
#     4  11  25  40  59  93 129 164 206 255 306 367
#     4  11  22  41  66  92 122 163 211 257 307 367
#     4  10  22  42  65  90 123 163 207 258 306 363
#     4  11  24  43  67  94 125 163 207 254 309 371
#
# _framework density 18.865220999999998
#
# number of rings (size 3 to 8) (size 9 to 14) (size 15 to 20)
#    0.000    1.333    1.667    3.000    2.333    8.667 
#    0.000    0.000    0.000    0.000    0.000    0.000 
#    0.000    0.000    0.000    0.000    0.000    0.000 
#
# Total GULP energy -134239.210386 kJ/mol
# GULP energy per Si atom -5593.300433 kJ/mol
# Density = 1.882228 g / cm^3
# Si number density = 18.865221 Si / 1000 Ang^3
#
#
#
# Elastic Constant Matrix: (Units=GPa)
#
#
# Indices 1 2 3 4 5 6 
#
# 1 54.0319 38.2272 76.2214 0.0000 0.0000 0.0000
# 2 38.2272 77.7912 60.4336 0.0000 0.0000 0.0000
# 3 76.2214 60.4336 183.5982 0.0000 0.0000 0.0000
# 4 0.0000 0.0000 0.0000 40.0111 0.0000 0.0000
# 5 0.0000 0.0000 0.0000 0.0000 34.6043 0.0000
# 6 0.0000 0.0000 0.0000 0.0000 0.0000 -622.6492
#
#
#
# Elastic Compliance Matrix: (Units=1/GPa)
#
#
# Indices 1 2 3 4 5 6 
#
# 1 0.051527 -0.011692 -0.017543 0.000000 0.000000 0.000000
# 2 -0.011692 0.019925 -0.001704 0.000000 0.000000 0.000000
# 3 -0.017543 -0.001704 0.013291 0.000000 0.000000 0.000000
# 4 0.000000 0.000000 0.000000 0.024993 0.000000 0.000000
# 5 0.000000 0.000000 0.000000 0.000000 0.028898 0.000000
# 6 0.000000 0.000000 0.000000 0.000000 0.000000 -0.001606
#
#
# Mechanical properties :
#
#
# Convention : Reuss Voigt Hill
#
# Bulk Modulus (GPa) = 43.73812 73.90951 58.82382
# Shear Modulus (GPa) = 24.20973 -100.23748 -38.01387
#
# Velocity S-wave (km/s) = 3.58620 -7.29718 -4.49377
# Velocity P-wave (km/s) = 6.35474 5.63345 2.07930
#
# Compressibility (1/GPa) = 0.02286335
#
# Stress axis : x y z
#
# Youngs Moduli (GPa) = 19.40716 50.18907 75.24022
#
# Poissons Ratio (x) = 0.58682 1.31995
# Poissons Ratio (y) = 0.22691 0.12824
# Poissons Ratio (z) = 0.34046 0.08554
#
# Static dielectric constant tensor:
#      x y z
#    x 1.630510 0.000000 0.000000 
#    y 0.000000 1.566650 0.000000 
#    z 0.000000 0.000000 1.632060 
# 
# From -- ./inp_files/2706.got.cif
#   From: 2010.05.17/outbox.cif.g08.bks.cpg/sg36_2_cif.got.tgz:2706.got - 2010.06.03 17:41:39.
