data_PCOD9352681
_publ_section_title
;
Structure prediction by ZEFSAII (Michael W. Deem and Ramdas Pophale) SiO2 
 PCOD9352681
Probable space group: C M C 21
;
_chemical_formula_sum "Si O2"
_cell_formula_units_Z 64
_cell_length_a 24.336796
_cell_length_b 14.312429
_cell_length_c 8.277479
_cell_angle_alpha 90.000000
_cell_angle_beta 90.000000
_cell_angle_gamma 90.000000
_cell_volume 2883.200434
_symmetry_space_group_name_H-M "C M C 21"
_symmetry_group_IT_number 36
_symmetry_cell_setting 'orthorhombic'
loop_
_space_group_symop_operation_xyz
x,y,z
-x,-y,1/2+z
x,-y,1/2+z
-x,y,z
1/2+x,1/2+y,z
1/2-x,1/2-y,1/2+z
1/2+x,1/2-y,1/2+z
1/2-x,1/2+y,z
loop_
_atom_site_type_symbol
_atom_site_label
_atom_site_fract_x
_atom_site_fract_y
_atom_site_fract_z
Si Si1 0.874988 0.646111 0.252150
Si Si2 0.935222 0.801750 0.428017
Si Si3 0.130955 0.537546 0.919129
Si Si4 0.630955 0.537545 0.772821
Si Si5 0.125012 0.146111 0.439802
Si Si6 0.935222 0.698250 0.763932
Si Si7 0.250000 0.106257 0.845974
Si Si8 0.775215 0.250001 0.595977
O O1 0.917157 0.728750 0.288746
O O2 0.880131 0.571116 0.395083
O O3 0.816447 0.697709 0.221636
O O4 0.882138 0.583362 0.091923
O O5 0.902108 0.896591 0.396622
O O6 0.921816 0.750000 0.595974
O O7 0.000000 0.820078 0.423510
O O8 0.097892 0.603410 0.795329
O O9 0.195684 0.549130 0.883375
O O10 0.617860 0.583361 0.600028
O O11 0.695684 0.549132 0.808571
O O12 0.619870 0.428883 0.796869
O O13 0.082842 0.228749 0.403203
O O14 0.183552 0.197710 0.470321
O O15 0.000000 0.679921 0.768437
O O16 0.258811 0.173529 0.692130
O O17 0.241190 0.173528 0.999820
#
# Coordination Sequence:
#
# PCOD9352681 Si02
#       8
#     8   8   8   8   8   8   8   8
#     4  11  22  44  64  97 135 170 224 265 329 389
#     4  11  24  44  68  95 128 170 219 274 332 387
#     4  11  24  40  65  99 130 175 217 267 328 393
#     4  11  24  40  65  99 130 175 217 267 328 393
#     4  11  22  44  64  97 135 170 224 265 329 389
#     4  11  24  44  68  95 128 170 219 274 332 387
#     4  10  22  38  62  98 130 174 216 262 330 392
#     4  10  22  40  63  96 133 180 214 264 330 396
#
# _framework density 22.197555000000001
#
# number of rings (size 3 to 8) (size 9 to 14) (size 15 to 20)
#    0.000    1.250    5.000    1.500    1.750   10.000 
#    0.000    0.000    0.000    0.000    0.000    0.000 
#    0.000    0.000    0.000    0.000    0.000    0.000 
#
# Total GULP energy -178906.961513 kJ/mol
# GULP energy per Si atom -5590.842547 kJ/mol
# Density = 2.214703 g / cm^3
# Si number density = 22.197555 Si / 1000 Ang^3
#
#
#
# Elastic Constant Matrix: (Units=GPa)
#
#
# Indices 1 2 3 4 5 6 
#
# 1 41.2554 22.3782 21.1154 0.0000 0.0000 0.0000
# 2 22.3782 116.6232 5.7690 0.0000 0.0000 0.0000
# 3 21.1154 5.7690 64.5579 0.0000 0.0000 0.0000
# 4 0.0000 0.0000 0.0000 38.9683 0.0000 0.0000
# 5 0.0000 0.0000 0.0000 0.0000 33.7756 0.0000
# 6 0.0000 0.0000 0.0000 0.0000 0.0000 -3.7469
#
#
#
# Elastic Compliance Matrix: (Units=1/GPa)
#
#
# Indices 1 2 3 4 5 6 
#
# 1 0.032539 -0.005743 -0.010129 0.000000 0.000000 0.000000
# 2 -0.005743 0.009626 0.001018 0.000000 0.000000 0.000000
# 3 -0.010129 0.001018 0.018712 0.000000 0.000000 0.000000
# 4 0.000000 0.000000 0.000000 0.025662 0.000000 0.000000
# 5 0.000000 0.000000 0.000000 0.000000 0.029607 0.000000
# 6 0.000000 0.000000 0.000000 0.000000 0.000000 -0.266886
#
#
# Mechanical properties :
#
#
# Convention : Reuss Voigt Hill
#
# Bulk Modulus (GPa) = 32.08321 35.66241 33.87281
# Shear Modulus (GPa) = -45.19081 25.34434 -9.92324
#
# Velocity S-wave (km/s) = -4.51693 3.38266 -2.11663
# Velocity P-wave (km/s) = 3.56633 5.59976 3.05276
#
# Compressibility (1/GPa) = 0.03116895
#
# Stress axis : x y z
#
# Youngs Moduli (GPa) = 30.73264 103.88342 53.44136
#
# Poissons Ratio (x) = 0.59656 0.54133
# Poissons Ratio (y) = 0.17648 -0.05441
# Poissons Ratio (z) = 0.31131 -0.10576
#
# Static dielectric constant tensor:
#      x y z
#    x 1.751290 0.000000 0.000000 
#    y 0.000000 1.776190 0.000000 
#    z 0.000000 0.000000 1.901230 
# 
# From -- ./inp_files/5677.got.cif
#   From: 2010.05.17/outbox.cif.g08.bks.cpg/sg36_3_cif.got.tgz:5677.got - 2010.06.03 17:41:39.
