data_PCOD9352889
_publ_section_title
;
Structure prediction by ZEFSAII (Michael W. Deem and Ramdas Pophale) SiO2 
 PCOD9352889
Probable space group: C M C 21
;
_chemical_formula_sum "Si O2"
_cell_formula_units_Z 48
_cell_length_a 23.841701
_cell_length_b 9.866511
_cell_length_c 9.735814
_cell_angle_alpha 90.000000
_cell_angle_beta 90.000000
_cell_angle_gamma 90.000000
_cell_volume 2290.198415
_symmetry_space_group_name_H-M "C M C 21"
_symmetry_group_IT_number 36
_symmetry_cell_setting 'orthorhombic'
loop_
_space_group_symop_operation_xyz
x,y,z
-x,-y,1/2+z
x,-y,1/2+z
-x,y,z
1/2+x,1/2+y,z
1/2-x,1/2-y,1/2+z
1/2+x,1/2-y,1/2+z
1/2-x,1/2+y,z
loop_
_atom_site_type_symbol
_atom_site_label
_atom_site_fract_x
_atom_site_fract_y
_atom_site_fract_z
Si Si1 0.000000 0.670645 0.001881
Si Si2 0.621823 0.195422 0.338408
Si Si3 0.670075 0.578242 0.020140
Si Si4 0.621129 0.282540 0.034657
Si Si5 0.000000 0.416205 0.811531
Si Si6 0.722294 0.973173 0.867459
Si Si7 0.802802 0.259537 0.272858
O O1 0.000000 0.586835 0.145595
O O2 0.944160 0.760738 0.003036
O O3 0.000000 0.564966 0.877079
O O4 0.639165 0.340707 0.398923
O O5 0.633428 0.798250 0.674852
O O6 0.556751 0.159811 0.357450
O O7 0.660854 0.080033 0.406867
O O8 0.638784 0.438861 0.054139
O O9 0.733475 0.540260 0.973045
O O10 0.670394 0.682084 0.146179
O O11 0.656732 0.233270 0.904428
O O12 0.716511 0.087395 0.749847
O O13 0.751809 0.836469 0.816624
#
# Coordination Sequence:
#
# PCOD9352889 Si02
#       7
#     4   8   8   8   4   8   8
#     4  10  22  45  72  96 138 181 236 286 352 420
#     4  11  24  44  67  94 141 176 232 287 346 416
#     4  11  25  42  64 102 134 179 231 282 351 423
#     4  10  23  44  65  96 134 179 225 287 348 414
#     4  10  24  43  68 100 130 183 234 288 350 410
#     4  11  24  39  63  96 133 178 219 284 344 410
#     4  11  25  39  65  97 134 172 228 278 346 415
#
# _framework density 20.958884000000001
#
# number of rings (size 3 to 8) (size 9 to 14) (size 15 to 20)
#    0.000    1.333    1.667    3.000    4.667    4.667 
#    0.000    2.500    0.000    0.000    0.000    0.000 
#    0.000    0.000    0.000    0.000    0.000    0.000 
#
# Total GULP energy -134129.497278 kJ/mol
# GULP energy per Si atom -5588.729053 kJ/mol
# Density = 2.091118 g / cm^3
# Si number density = 20.958884 Si / 1000 Ang^3
#
#
#
# Elastic Constant Matrix: (Units=GPa)
#
#
# Indices 1 2 3 4 5 6 
#
# 1 158.3225 57.6169 60.1918 0.0000 0.0000 0.0000
# 2 57.6169 126.2364 26.9365 0.0000 0.0000 0.0000
# 3 60.1918 26.9365 66.0896 0.0000 0.0000 0.0000
# 4 0.0000 0.0000 0.0000 36.4177 0.0000 0.0000
# 5 0.0000 0.0000 0.0000 0.0000 20.4244 0.0000
# 6 0.0000 0.0000 0.0000 0.0000 0.0000 27.0781
#
#
#
# Elastic Compliance Matrix: (Units=1/GPa)
#
#
# Indices 1 2 3 4 5 6 
#
# 1 0.010638 -0.003053 -0.008444 0.000000 0.000000 0.000000
# 2 -0.003053 0.009553 -0.001112 0.000000 0.000000 0.000000
# 3 -0.008444 -0.001112 0.023275 0.000000 0.000000 0.000000
# 4 0.000000 0.000000 0.000000 0.027459 0.000000 0.000000
# 5 0.000000 0.000000 0.000000 0.000000 0.048961 0.000000
# 6 0.000000 0.000000 0.000000 0.000000 0.000000 0.036930
#
#
# Mechanical properties :
#
#
# Convention : Reuss Voigt Hill
#
# Bulk Modulus (GPa) = 54.80801 71.12656 62.96728
# Shear Modulus (GPa) = 26.57920 30.51092 28.54506
#
# Velocity S-wave (km/s) = 3.56499 3.81957 3.69447
# Velocity P-wave (km/s) = 6.56906 7.31178 6.95034
#
# Compressibility (1/GPa) = 0.01824551
#
# Stress axis : x y z
#
# Youngs Moduli (GPa) = 94.00550 104.68248 42.96511
#
# Poissons Ratio (x) = 0.31965 0.36279
# Poissons Ratio (y) = 0.28705 0.04780
# Poissons Ratio (z) = 0.79377 0.11645
#
# Static dielectric constant tensor:
#      x y z
#    x 1.756570 0.000000 0.000000 
#    y 0.000000 1.722260 0.000000 
#    z 0.000000 0.000000 1.783800 
# 
# From -- ./inp_files/9450.got.cif
#   From: 2010.05.17/outbox.cif.g08.bks.cpg/sg36_5_cif.got.tgz:9450.got - 2010.06.03 17:41:39.
