data_PCOD9352381
_publ_section_title
;
Structure prediction by ZEFSAII (Michael W. Deem and Ramdas Pophale) SiO2 
 PCOD9352381
Probable space group: C M C 21
;
_chemical_formula_sum "Si O2"
_cell_formula_units_Z 48
_cell_length_a 7.675986
_cell_length_b 9.882169
_cell_length_c 25.224187
_cell_angle_alpha 90.000000
_cell_angle_beta 90.000000
_cell_angle_gamma 90.000000
_cell_volume 1913.390565
_symmetry_space_group_name_H-M "C M C 21"
_symmetry_group_IT_number 36
_symmetry_cell_setting 'orthorhombic'
loop_
_space_group_symop_operation_xyz
x,y,z
-x,-y,1/2+z
x,-y,1/2+z
-x,y,z
1/2+x,1/2+y,z
1/2-x,1/2-y,1/2+z
1/2+x,1/2-y,1/2+z
1/2-x,1/2+y,z
loop_
_atom_site_type_symbol
_atom_site_label
_atom_site_fract_x
_atom_site_fract_y
_atom_site_fract_z
Si Si1 0.212360 0.056119 0.583960
Si Si2 0.797615 0.952892 0.413726
Si Si3 0.788064 0.546636 0.251421
Si Si4 0.701675 0.198926 0.355483
Si Si5 0.798485 0.691910 0.019830
Si Si6 0.296097 0.703808 0.688790
O O1 0.266822 0.161985 0.538073
O O2 0.276824 0.123179 0.638541
O O3 0.000000 0.049143 0.584575
O O4 0.282373 0.908741 0.570071
O O5 0.719844 0.841473 0.373108
O O6 0.788384 0.884988 0.471184
O O7 0.000000 0.976100 0.401950
O O8 0.709112 0.096580 0.405202
O O9 0.726210 0.614837 0.306001
O O10 0.722866 0.397420 0.238594
O O11 0.725852 0.650243 0.205418
O O12 0.000000 0.541979 0.251745
O O13 0.500000 0.225784 0.343003
O O14 0.000000 0.708125 0.005302
O O15 0.500000 0.723446 0.677906
#
# Coordination Sequence:
#
# PCOD9352381 Si02
#       6
#     8   8   8   8   8   8
#     4  10  22  39  59  85 116 150 189 233 281 335
#     4  11  23  39  60  85 114 149 189 234 284 337
#     4  10  21  38  59  85 117 150 188 234 281 332
#     4  10  22  39  59  85 116 150 189 233 281 335
#     4  11  23  39  60  85 114 149 189 234 284 337
#     4  10  21  38  59  85 117 150 188 234 281 332
#
# _framework density 25.086358000000001
#
# number of rings (size 3 to 8) (size 9 to 14) (size 15 to 20)
#    0.000    1.667    0.000    4.000    0.000   10.000 
#    0.000    0.000    0.000    0.000    0.000    0.000 
#    0.000    0.000    0.000    0.000    0.000    0.000 
#
# Total GULP energy -134321.946986 kJ/mol
# GULP energy per Si atom -5596.747791 kJ/mol
# Density = 2.502926 g / cm^3
# Si number density = 25.086358 Si / 1000 Ang^3
#
#
#
# Elastic Constant Matrix: (Units=GPa)
#
#
# Indices 1 2 3 4 5 6 
#
# 1 55.3284 -11.1228 -5.5442 0.0000 0.0000 0.0000
# 2 -11.1228 110.9786 -11.7072 0.0000 0.0000 0.0000
# 3 -5.5442 -11.7072 66.8448 0.0000 0.0000 0.0000
# 4 0.0000 0.0000 0.0000 43.1019 0.0000 0.0000
# 5 0.0000 0.0000 0.0000 0.0000 20.7147 0.0000
# 6 0.0000 0.0000 0.0000 0.0000 0.0000 14.5292
#
#
#
# Elastic Compliance Matrix: (Units=1/GPa)
#
#
# Indices 1 2 3 4 5 6 
#
# 1 0.018683 0.002074 0.001913 0.000000 0.000000 0.000000
# 2 0.002074 0.009411 0.001820 0.000000 0.000000 0.000000
# 3 0.001913 0.001820 0.015437 0.000000 0.000000 0.000000
# 4 0.000000 0.000000 0.000000 0.023201 0.000000 0.000000
# 5 0.000000 0.000000 0.000000 0.000000 0.048275 0.000000
# 6 0.000000 0.000000 0.000000 0.000000 0.000000 0.068827
#
#
# Mechanical properties :
#
#
# Convention : Reuss Voigt Hill
#
# Bulk Modulus (GPa) = 18.13393 19.60040 18.86717
# Shear Modulus (GPa) = 26.23288 33.10423 29.66855
#
# Velocity S-wave (km/s) = 3.23724 3.63659 3.44271
# Velocity P-wave (km/s) = 4.60622 5.04610 4.83117
#
# Compressibility (1/GPa) = 0.05514523
#
# Stress axis : x y z
#
# Youngs Moduli (GPa) = 53.52590 106.26258 64.77747
#
# Poissons Ratio (x) = -0.22041 -0.12391
# Poissons Ratio (y) = -0.11103 -0.11791
# Poissons Ratio (z) = -0.10239 -0.19342
#
# Static dielectric constant tensor:
#      x y z
#    x 1.897420 0.000000 0.000000 
#    y 0.000000 1.912940 0.000000 
#    z 0.000000 0.000000 2.065380 
# 
# From -- ./inp_files/16440.got.cif
#   From: 2010.05.17/outbox.cif.g08.bks.cpg/sg36_9_cif.got.tgz:16440.got - 2010.06.03 17:41:39.
