data_PCOD9352922
_publ_section_title
;
Structure prediction by ZEFSAII (Michael W. Deem and Ramdas Pophale) SiO2 
 PCOD9352922
Probable space group: C M C 21
;
_chemical_formula_sum "Si O2"
_cell_formula_units_Z 48
_cell_length_a 8.419787
_cell_length_b 29.446804
_cell_length_c 8.450822
_cell_angle_alpha 90.000000
_cell_angle_beta 90.000000
_cell_angle_gamma 90.000000
_cell_volume 2095.261461
_symmetry_space_group_name_H-M "C M C 21"
_symmetry_group_IT_number 36
_symmetry_cell_setting 'orthorhombic'
loop_
_space_group_symop_operation_xyz
x,y,z
-x,-y,1/2+z
x,-y,1/2+z
-x,y,z
1/2+x,1/2+y,z
1/2-x,1/2-y,1/2+z
1/2+x,1/2-y,1/2+z
1/2-x,1/2+y,z
loop_
_atom_site_type_symbol
_atom_site_label
_atom_site_fract_x
_atom_site_fract_y
_atom_site_fract_z
Si Si1 0.684988 0.141614 0.817530
Si Si2 0.808770 0.189105 0.337397
Si Si3 0.186331 0.098438 0.503114
Si Si4 0.810808 0.775445 0.494477
Si Si5 0.314262 0.564061 0.019209
Si Si6 0.684533 0.016294 0.333752
O O1 0.500000 0.138530 0.779328
O O2 0.783777 0.121427 0.671883
O O3 0.731258 0.192642 0.862733
O O4 0.727360 0.109881 0.967156
O O5 0.767858 0.137319 0.376473
O O6 0.735822 0.223652 0.463965
O O7 0.000000 0.192305 0.346888
O O8 0.757590 0.206333 0.165333
O O9 0.286760 0.053535 0.471185
O O10 0.000000 0.087251 0.484650
O O11 0.000000 0.780699 0.484358
O O12 0.500000 0.573151 0.042697
O O13 0.286072 0.527742 0.878685
O O14 0.242331 0.540678 0.174479
O O15 0.500000 0.003842 0.323800
#
# Coordination Sequence:
#
# PCOD9352922 Si02
#       6
#     8   8   8   8   8   8
#     4  12  25  42  64  93 127 163 208 262 317 372
#     4  10  23  41  62  90 124 162 207 257 309 370
#     4  11  23  42  66  93 127 168 211 256 311 374
#     4  11  23  40  63  91 124 163 208 257 312 376
#     4  12  25  44  67  93 126 167 212 257 311 373
#     4  12  25  43  66  96 130 165 208 259 314 369
#
# _framework density 22.908835
#
# number of rings (size 3 to 8) (size 9 to 14) (size 15 to 20)
#    0.000    0.667    0.000    8.500    0.000    6.667 
#    0.000    0.000    0.000    0.000    0.000    0.000 
#    0.000    0.000    0.000    0.000    0.000    0.000 
#
# Total GULP energy -134546.823392 kJ/mol
# GULP energy per Si atom -5606.117641 kJ/mol
# Density = 2.285669 g / cm^3
# Si number density = 22.908835 Si / 1000 Ang^3
#
#
#
# Elastic Constant Matrix: (Units=GPa)
#
#
# Indices 1 2 3 4 5 6 
#
# 1 48.2156 6.8720 -9.3616 0.0000 0.0000 0.0000
# 2 6.8720 73.5898 -10.8319 0.0000 0.0000 0.0000
# 3 -9.3616 -10.8319 63.6731 0.0000 0.0000 0.0000
# 4 0.0000 0.0000 0.0000 42.9037 0.0000 0.0000
# 5 0.0000 0.0000 0.0000 0.0000 30.5244 0.0000
# 6 0.0000 0.0000 0.0000 0.0000 0.0000 37.5072
#
#
#
# Elastic Compliance Matrix: (Units=1/GPa)
#
#
# Indices 1 2 3 4 5 6 
#
# 1 0.021528 -0.001584 0.002896 0.000000 0.000000 0.000000
# 2 -0.001584 0.014054 0.002158 0.000000 0.000000 0.000000
# 3 0.002896 0.002158 0.016498 0.000000 0.000000 0.000000
# 4 0.000000 0.000000 0.000000 0.023308 0.000000 0.000000
# 5 0.000000 0.000000 0.000000 0.000000 0.032761 0.000000
# 6 0.000000 0.000000 0.000000 0.000000 0.000000 0.026662
#
#
# Mechanical properties :
#
#
# Convention : Reuss Voigt Hill
#
# Bulk Modulus (GPa) = 16.94344 17.64837 17.29591
# Shear Modulus (GPa) = 33.88796 35.44039 34.66417
#
# Velocity S-wave (km/s) = 3.85028 3.93748 3.89412
# Velocity P-wave (km/s) = 5.21328 5.32843 5.27117
#
# Compressibility (1/GPa) = 0.05901988
#
# Stress axis : x y z
#
# Youngs Moduli (GPa) = 46.45073 71.15200 60.61313
#
# Poissons Ratio (x) = 0.11271 -0.17552
# Poissons Ratio (y) = 0.07358 -0.13080
# Poissons Ratio (z) = -0.13451 -0.15355
#
# Static dielectric constant tensor:
#      x y z
#    x 1.766860 0.000000 0.000000 
#    y 0.000000 1.811970 0.000000 
#    z 0.000000 0.000000 1.901210 
# 
# From -- ./inp_files/2665.got.cif
#   From: 2010.05.17/outbox.cif.g08.bks.cpg/sg36_2_cif.got.tgz:2665.got - 2010.06.03 17:41:39.
