data_PCOD9352396
_publ_section_title
;
Structure prediction by ZEFSAII (Michael W. Deem and Ramdas Pophale) SiO2 
 PCOD9352396
Probable space group: C M C 21
;
_chemical_formula_sum "Si O2"
_cell_formula_units_Z 48
_cell_length_a 8.921338
_cell_length_b 19.372426
_cell_length_c 15.362246
_cell_angle_alpha 90.000000
_cell_angle_beta 90.000000
_cell_angle_gamma 90.000000
_cell_volume 2655.025641
_symmetry_space_group_name_H-M "C M C 21"
_symmetry_group_IT_number 36
_symmetry_cell_setting 'orthorhombic'
loop_
_space_group_symop_operation_xyz
x,y,z
-x,-y,1/2+z
x,-y,1/2+z
-x,y,z
1/2+x,1/2+y,z
1/2-x,1/2-y,1/2+z
1/2+x,1/2-y,1/2+z
1/2-x,1/2+y,z
loop_
_atom_site_type_symbol
_atom_site_label
_atom_site_fract_x
_atom_site_fract_y
_atom_site_fract_z
Si Si1 0.680075 0.920890 0.313360
Si Si2 0.178845 0.582338 0.311517
Si Si3 0.178076 0.169270 0.160200
Si Si4 0.678670 0.675176 0.460280
Si Si5 0.320414 0.171244 0.647692
Si Si6 0.678677 0.675606 0.957010
O O1 0.500000 0.914559 0.324474
O O2 0.718669 0.881989 0.223509
O O3 0.760540 0.881859 0.392026
O O4 0.718327 0.001486 0.309676
O O5 0.231497 0.620065 0.223702
O O6 0.257658 0.620955 0.391403
O O7 0.000000 0.588312 0.320698
O O8 0.212791 0.250119 0.177054
O O9 0.000000 0.159644 0.174807
O O10 0.209708 0.157451 0.058062
O O11 0.500000 0.676661 0.457426
O O12 0.736489 0.658291 0.557326
O O13 0.742799 0.751173 0.438405
O O14 0.500000 0.168267 0.631511
O O15 0.500000 0.684118 0.948391
#
# Coordination Sequence:
#
# PCOD9352396 Si02
#       6
#     8   8   8   8   8   8
#     4  10  22  38  57  83 116 152 186 226 277 331
#     4  11  23  37  55  82 116 153 189 226 274 331
#     4   9  19  36  58  83 110 142 183 233 282 327
#     4  11  22  37  59  84 111 147 189 232 278 329
#     4   9  19  38  60  82 109 142 185 236 283 327
#     4  10  21  38  61  86 112 144 184 233 282 329
#
# _framework density 18.07892
#
# number of rings (size 3 to 8) (size 9 to 14) (size 15 to 20)
#    0.000    2.000    0.000    4.500    0.000    8.000 
#    0.000    5.000    0.000    0.000    0.000    0.000 
#    0.000    0.000    0.000    0.000    0.000    0.000 
#
# Total GULP energy -134095.107206 kJ/mol
# GULP energy per Si atom -5587.296134 kJ/mol
# Density = 1.803777 g / cm^3
# Si number density = 18.078920 Si / 1000 Ang^3
#
#
#
# Elastic Constant Matrix: (Units=GPa)
#
#
# Indices 1 2 3 4 5 6 
#
# 1 80.2756 88.7106 79.4823 0.0000 0.0000 0.0000
# 2 88.7106 165.7248 125.2237 0.0000 0.0000 0.0000
# 3 79.4823 125.2237 125.5383 0.0000 0.0000 0.0000
# 4 0.0000 0.0000 0.0000 -24.9368 0.0000 0.0000
# 5 0.0000 0.0000 0.0000 0.0000 34.1561 0.0000
# 6 0.0000 0.0000 0.0000 0.0000 0.0000 24.1959
#
#
#
# Elastic Compliance Matrix: (Units=1/GPa)
#
#
# Indices 1 2 3 4 5 6 
#
# 1 0.036003 -0.008316 -0.014499 0.000000 0.000000 0.000000
# 2 -0.008316 0.026422 -0.021090 0.000000 0.000000 0.000000
# 3 -0.014499 -0.021090 0.038183 0.000000 0.000000 0.000000
# 4 0.000000 0.000000 0.000000 -0.040101 0.000000 0.000000
# 5 0.000000 0.000000 0.000000 0.000000 0.029277 0.000000
# 6 0.000000 0.000000 0.000000 0.000000 0.000000 0.041329
#
#
# Mechanical properties :
#
#
# Convention : Reuss Voigt Hill
#
# Bulk Modulus (GPa) = 78.14740 106.48576 92.31658
# Shear Modulus (GPa) = 22.40233 11.89117 17.14675
#
# Velocity S-wave (km/s) = 3.52396 2.56742 3.08301
# Velocity P-wave (km/s) = 7.73804 8.23512 7.99045
#
# Compressibility (1/GPa) = 0.01279633
#
# Stress axis : x y z
#
# Youngs Moduli (GPa) = 27.77531 37.84756 26.18943
#
# Poissons Ratio (x) = 0.31474 0.37973
# Poissons Ratio (y) = 0.23098 0.55235
# Poissons Ratio (z) = 0.40273 0.79822
#
# Static dielectric constant tensor:
#      x y z
#    x 1.603690 0.000000 0.000000 
#    y 0.000000 1.592980 0.000000 
#    z 0.000000 0.000000 1.600780 
# 
# From -- ./inp_files/10351.got.cif
#   From: 2010.05.17/outbox.cif.g08.bks.cpg/sg36_6_cif.got.tgz:10351.got - 2010.06.03 17:41:39.
