data_PCOD9352402
_publ_section_title
;
Structure prediction by ZEFSAII (Michael W. Deem and Ramdas Pophale) SiO2 
 PCOD9352402
Probable space group: C M C 21
;
_chemical_formula_sum "Si O2"
_cell_formula_units_Z 32
_cell_length_a 8.416432
_cell_length_b 33.526020
_cell_length_c 4.834023
_cell_angle_alpha 90.000000
_cell_angle_beta 90.000000
_cell_angle_gamma 90.000000
_cell_volume 1364.013696
_symmetry_space_group_name_H-M "C M C 21"
_symmetry_group_IT_number 36
_symmetry_cell_setting 'orthorhombic'
loop_
_space_group_symop_operation_xyz
x,y,z
-x,-y,1/2+z
x,-y,1/2+z
-x,y,z
1/2+x,1/2+y,z
1/2-x,1/2-y,1/2+z
1/2+x,1/2-y,1/2+z
1/2-x,1/2+y,z
loop_
_atom_site_type_symbol
_atom_site_label
_atom_site_fract_x
_atom_site_fract_y
_atom_site_fract_z
Si Si1 0.182828 0.394262 0.299910
Si Si2 0.314407 0.772445 0.119851
Si Si3 0.811187 0.026206 0.060987
Si Si4 0.185221 0.149634 0.312068
O O1 0.218149 0.436167 0.446102
O O2 0.223740 0.361408 0.532676
O O3 0.000000 0.391186 0.214886
O O4 0.290206 0.386176 0.032190
O O5 0.500000 0.774812 0.187256
O O6 0.282394 0.737583 0.895900
O O7 0.255494 0.812099 0.967225
O O8 0.000000 0.034848 0.035971
O O9 0.776620 0.987666 0.870424
O O10 0.000000 0.155167 0.252183
#
# Coordination Sequence:
#
# PCOD9352402 Si02
#       4
#     8   8   8   8
#     4  12  25  42  65  96 130 165 209 264 319 372
#     4  12  25  44  67  96 130 167 211 260 315 374
#     4  10  21  38  61  89 123 164 208 254 309 374
#     4  12  25  44  67  93 127 170 214 258 313 376
#
# _framework density 23.460172
#
# number of rings (size 3 to 8) (size 9 to 14) (size 15 to 20)
#    0.000    0.500    0.000    9.750    0.000    3.000 
#    0.000    0.000    0.000    0.000    0.000    0.000 
#    0.000    0.000    0.000    0.000    0.000    0.000 
#
# Total GULP energy -89739.088043 kJ/mol
# GULP energy per Si atom -5608.693003 kJ/mol
# Density = 2.340678 g / cm^3
# Si number density = 23.460172 Si / 1000 Ang^3
#
#
#
# Elastic Constant Matrix: (Units=GPa)
#
#
# Indices 1 2 3 4 5 6 
#
# 1 89.4590 9.0579 -16.6909 0.0000 0.0000 0.0000
# 2 9.0579 70.9907 -14.0369 0.0000 0.0000 0.0000
# 3 -16.6909 -14.0369 74.4995 0.0000 0.0000 0.0000
# 4 0.0000 0.0000 0.0000 35.7753 0.0000 0.0000
# 5 0.0000 0.0000 0.0000 0.0000 27.9108 0.0000
# 6 0.0000 0.0000 0.0000 0.0000 0.0000 35.1847
#
#
#
# Elastic Compliance Matrix: (Units=1/GPa)
#
#
# Indices 1 2 3 4 5 6 
#
# 1 0.011736 -0.001015 0.002438 0.000000 0.000000 0.000000
# 2 -0.001015 0.014719 0.002546 0.000000 0.000000 0.000000
# 3 0.002438 0.002546 0.014449 0.000000 0.000000 0.000000
# 4 0.000000 0.000000 0.000000 0.027952 0.000000 0.000000
# 5 0.000000 0.000000 0.000000 0.000000 0.035828 0.000000
# 6 0.000000 0.000000 0.000000 0.000000 0.000000 0.028421
#
#
# Mechanical properties :
#
#
# Convention : Reuss Voigt Hill
#
# Bulk Modulus (GPa) = 20.47456 21.28996 20.88226
# Shear Modulus (GPa) = 35.34831 36.88211 36.11521
#
# Velocity S-wave (km/s) = 3.88588 3.96929 3.92781
# Velocity P-wave (km/s) = 5.37399 5.48650 5.43054
#
# Compressibility (1/GPa) = 0.04884110
#
# Stress axis : x y z
#
# Youngs Moduli (GPa) = 85.20795 67.93804 69.20990
#
# Poissons Ratio (x) = 0.06898 -0.16874
# Poissons Ratio (y) = 0.08652 -0.17620
# Poissons Ratio (z) = -0.20774 -0.17296
#
# Static dielectric constant tensor:
#      x y z
#    x 1.805250 0.000000 0.000000 
#    y 0.000000 1.949850 0.000000 
#    z 0.000000 0.000000 1.838000 
# 
# From -- ./inp_files/226.got.cif
#   From: 2010.05.17/outbox.cif.g08.bks.cpg/sg36_1_cif.got.tgz:226.got - 2010.06.03 17:41:39.
