data_PCOD9352935
_publ_section_title
;
Structure prediction by ZEFSAII (Michael W. Deem and Ramdas Pophale) SiO2 
 PCOD9352935
Probable space group: C M C 21
;
_chemical_formula_sum "Si O2"
_cell_formula_units_Z 64
_cell_length_a 24.217595
_cell_length_b 14.736160
_cell_length_c 9.242281
_cell_angle_alpha 90.000000
_cell_angle_beta 90.000000
_cell_angle_gamma 90.000000
_cell_volume 3298.333068
_symmetry_space_group_name_H-M "C M C 21"
_symmetry_group_IT_number 36
_symmetry_cell_setting 'orthorhombic'
loop_
_space_group_symop_operation_xyz
x,y,z
-x,-y,1/2+z
x,-y,1/2+z
-x,y,z
1/2+x,1/2+y,z
1/2-x,1/2-y,1/2+z
1/2+x,1/2-y,1/2+z
1/2-x,1/2+y,z
loop_
_atom_site_type_symbol
_atom_site_label
_atom_site_fract_x
_atom_site_fract_y
_atom_site_fract_z
Si Si1 0.187210 0.168652 0.745440
Si Si2 0.882276 0.306047 0.400738
Si Si3 0.440463 0.924950 0.825823
Si Si4 0.740299 0.521100 0.262330
Si Si5 0.936593 0.230843 0.672769
Si Si6 0.686404 0.032829 0.002869
Si Si7 0.231457 0.209530 0.428209
Si Si8 0.604713 0.921397 0.137105
O O1 0.121168 0.184764 0.726019
O O2 0.220329 0.200847 0.600473
O O3 0.216745 0.229194 0.872231
O O4 0.196100 0.059735 0.756264
O O5 0.924407 0.252931 0.503525
O O6 0.861664 0.392717 0.496144
O O7 0.825218 0.254668 0.373246
O O8 0.903746 0.338946 0.245887
O O9 0.500000 0.964760 0.789250
O O10 0.436921 0.824940 0.761689
O O11 0.400123 0.991939 0.742627
O O12 0.434312 0.922849 0.998066
O O13 0.790358 0.471281 0.343364
O O14 0.730782 0.609076 0.360014
O O15 0.763063 0.554807 0.108648
O O16 0.000000 0.192973 0.688154
O O17 0.662978 0.935935 0.054846
#
# Coordination Sequence:
#
# PCOD9352935 Si02
#       8
#     8   8   8   8   8   8   8   8
#     4  11  24  40  63  95 124 163 205 255 315 376
#     4  11  22  38  59  88 119 161 206 249 313 364
#     4  11  22  35  52  78 109 154 201 243 291 346
#     4  12  23  38  59  89 130 157 197 248 314 375
#     4  10  23  42  61  82 117 165 212 256 303 365
#     4  12  20  36  55  88 124 158 193 240 308 380
#     4  11  24  39  61  91 125 158 201 255 315 380
#     4  12  21  34  54  81 118 158 195 244 293 364
#
# _framework density 19.403739999999999
#
# number of rings (size 3 to 8) (size 9 to 14) (size 15 to 20)
#    0.000    0.750    6.250    1.875    1.750    2.000 
#    0.000    0.000    0.000    3.000    0.000    0.000 
#    0.000    0.000    0.000    0.000    0.000    0.000 
#
# Total GULP energy -178275.810971 kJ/mol
# GULP energy per Si atom -5571.119093 kJ/mol
# Density = 1.935958 g / cm^3
# Si number density = 19.403740 Si / 1000 Ang^3
#
#
#
# Elastic Constant Matrix: (Units=GPa)
#
#
# Indices 1 2 3 4 5 6 
#
# 1 112.2226 21.4368 30.1673 0.0000 0.0000 0.0000
# 2 21.4368 45.2799 4.9053 0.0000 0.0000 0.0000
# 3 30.1673 4.9053 57.8654 0.0000 0.0000 0.0000
# 4 0.0000 0.0000 0.0000 19.9737 0.0000 0.0000
# 5 0.0000 0.0000 0.0000 0.0000 21.7705 0.0000
# 6 0.0000 0.0000 0.0000 0.0000 0.0000 22.8699
#
#
#
# Elastic Compliance Matrix: (Units=1/GPa)
#
#
# Indices 1 2 3 4 5 6 
#
# 1 0.011293 -0.004752 -0.005485 0.000000 0.000000 0.000000
# 2 -0.004752 0.024289 0.000418 0.000000 0.000000 0.000000
# 3 -0.005485 0.000418 0.020105 0.000000 0.000000 0.000000
# 4 0.000000 0.000000 0.000000 0.050066 0.000000 0.000000
# 5 0.000000 0.000000 0.000000 0.000000 0.045934 0.000000
# 6 0.000000 0.000000 0.000000 0.000000 0.000000 0.043726
#
#
# Mechanical properties :
#
#
# Convention : Reuss Voigt Hill
#
# Bulk Modulus (GPa) = 27.73852 36.48742 32.11297
# Shear Modulus (GPa) = 22.01996 23.51337 22.76666
#
# Velocity S-wave (km/s) = 3.37238 3.48486 3.42908
# Velocity P-wave (km/s) = 5.43051 5.91925 5.68014
#
# Compressibility (1/GPa) = 0.03605096
#
# Stress axis : x y z
#
# Youngs Moduli (GPa) = 88.55045 41.17028 49.73804
#
# Poissons Ratio (x) = 0.19565 0.27279
# Poissons Ratio (y) = 0.42082 -0.02081
# Poissons Ratio (z) = 0.48566 -0.01723
#
# Static dielectric constant tensor:
#      x y z
#    x 1.740010 0.000000 0.000000 
#    y 0.000000 1.753000 0.000000 
#    z 0.000000 0.000000 1.709170 
# 
# From -- ./inp_files/5660.got.cif
#   From: 2010.05.17/outbox.cif.g08.bks.cpg/sg36_3_cif.got.tgz:5660.got - 2010.06.03 17:41:39.
