data_PCOD9352953
_publ_section_title
;
Structure prediction by ZEFSAII (Michael W. Deem and Ramdas Pophale) SiO2 
 PCOD9352953
Probable space group: C M C 21
;
_chemical_formula_sum "Si O2"
_cell_formula_units_Z 64
_cell_length_a 15.037820
_cell_length_b 21.071532
_cell_length_c 9.020881
_cell_angle_alpha 90.000000
_cell_angle_beta 90.000000
_cell_angle_gamma 90.000000
_cell_volume 2858.445709
_symmetry_space_group_name_H-M "C M C 21"
_symmetry_group_IT_number 36
_symmetry_cell_setting 'orthorhombic'
loop_
_space_group_symop_operation_xyz
x,y,z
-x,-y,1/2+z
x,-y,1/2+z
-x,y,z
1/2+x,1/2+y,z
1/2-x,1/2-y,1/2+z
1/2+x,1/2-y,1/2+z
1/2-x,1/2+y,z
loop_
_atom_site_type_symbol
_atom_site_label
_atom_site_fract_x
_atom_site_fract_y
_atom_site_fract_z
Si Si1 0.274349 0.809579 0.238350
Si Si2 0.393309 0.575004 0.996465
Si Si3 0.901533 0.640752 0.981602
Si Si4 0.404489 0.720681 0.067261
Si Si5 0.601354 0.998062 0.355909
Si Si6 0.284895 0.103729 0.465856
Si Si7 0.639995 0.791088 0.781822
Si Si8 0.203492 0.007179 0.271596
O O1 0.319236 0.829186 0.392674
O O2 0.336440 0.754437 0.173375
O O3 0.179816 0.775785 0.230647
O O4 0.276789 0.868380 0.127531
O O5 0.500000 0.563351 0.997298
O O6 0.378590 0.650115 0.017605
O O7 0.344086 0.538876 0.131949
O O8 0.349164 0.551246 0.843264
O O9 0.893283 0.564689 0.959449
O O10 0.000000 0.656646 0.918187
O O11 0.899433 0.668309 0.147618
O O12 0.500000 0.714978 0.141580
O O13 0.411534 0.768059 0.927046
O O14 0.500000 0.000292 0.295127
O O15 0.689716 0.995297 0.250717
O O16 0.624375 0.063086 0.442991
O O17 0.286826 0.162517 0.353165
O O18 0.207979 0.057913 0.407531
#
# Coordination Sequence:
#
# PCOD9352953 Si02
#       8
#     8   8   8   8   8   8   8   8
#     4  11  23  39  63  91 125 172 218 268 327 400
#     4  11  24  44  69  98 131 173 228 285 344 404
#     4  11  24  40  62  97 134 166 213 280 337 400
#     4  10  23  43  65  88 125 171 218 270 329 398
#     4   9  23  41  66 100 136 175 219 275 339 411
#     4   9  23  38  62  92 126 177 219 264 329 409
#     4  11  23  40  64  94 124 172 221 266 328 398
#     4  10  24  41  68  96 135 174 223 278 346 400
#
# _framework density 22.389789
#
# number of rings (size 3 to 8) (size 9 to 14) (size 15 to 20)
#    0.750    1.000    0.000    3.375    7.000    4.000 
#    0.000    3.125    0.000    6.000    0.000    0.000 
#    0.000    0.000    0.000    0.000    0.000    0.000 
#
# Total GULP energy -178485.629757 kJ/mol
# GULP energy per Si atom -5577.675930 kJ/mol
# Density = 2.233883 g / cm^3
# Si number density = 22.389789 Si / 1000 Ang^3
#
#
#
# Elastic Constant Matrix: (Units=GPa)
#
#
# Indices 1 2 3 4 5 6 
#
# 1 105.6637 16.3408 28.3354 0.0000 0.0000 0.0000
# 2 16.3408 91.5682 26.1317 0.0000 0.0000 0.0000
# 3 28.3354 26.1317 66.9036 0.0000 0.0000 0.0000
# 4 0.0000 0.0000 0.0000 41.6588 0.0000 0.0000
# 5 0.0000 0.0000 0.0000 0.0000 172.2834 0.0000
# 6 0.0000 0.0000 0.0000 0.0000 0.0000 19.6519
#
#
#
# Elastic Compliance Matrix: (Units=1/GPa)
#
#
# Indices 1 2 3 4 5 6 
#
# 1 0.010716 -0.000695 -0.004267 0.000000 0.000000 0.000000
# 2 -0.000695 0.012336 -0.004524 0.000000 0.000000 0.000000
# 3 -0.004267 -0.004524 0.018521 0.000000 0.000000 0.000000
# 4 0.000000 0.000000 0.000000 0.024005 0.000000 0.000000
# 5 0.000000 0.000000 0.000000 0.000000 0.005804 0.000000
# 6 0.000000 0.000000 0.000000 0.000000 0.000000 0.050886
#
#
# Mechanical properties :
#
#
# Convention : Reuss Voigt Hill
#
# Bulk Modulus (GPa) = 44.24527 45.08347 44.66437
# Shear Modulus (GPa) = 33.60842 59.60733 46.60787
#
# Velocity S-wave (km/s) = 3.87855 5.16530 4.56747
# Velocity P-wave (km/s) = 6.31362 7.46681 6.91430
#
# Compressibility (1/GPa) = 0.02260129
#
# Stress axis : x y z
#
# Youngs Moduli (GPa) = 93.32121 81.06459 53.99237
#
# Poissons Ratio (x) = 0.05630 0.23039
# Poissons Ratio (y) = 0.06481 0.24427
# Poissons Ratio (z) = 0.39821 0.36674
#
# Static dielectric constant tensor:
#      x y z
#    x 1.620050 0.000000 0.000000 
#    y 0.000000 1.823860 0.000000 
#    z 0.000000 0.000000 1.841450 
# 
# From -- ./inp_files/4339.got.cif
#   From: 2010.05.17/outbox.cif.g08.bks.cpg/sg36_3_cif.got.tgz:4339.got - 2010.06.03 17:41:39.
