data_PCOD9352798
_publ_section_title
;
Structure prediction by ZEFSAII (Michael W. Deem and Ramdas Pophale) SiO2 
 PCOD9352798
Probable space group: C M C 21
;
_chemical_formula_sum "Si O2"
_cell_formula_units_Z 60
_cell_length_a 11.638484
_cell_length_b 17.348152
_cell_length_c 14.892431
_cell_angle_alpha 90.000000
_cell_angle_beta 90.000000
_cell_angle_gamma 90.000000
_cell_volume 3006.873995
_symmetry_space_group_name_H-M "C M C 21"
_symmetry_group_IT_number 36
_symmetry_cell_setting 'orthorhombic'
loop_
_space_group_symop_operation_xyz
x,y,z
-x,-y,1/2+z
x,-y,1/2+z
-x,y,z
1/2+x,1/2+y,z
1/2-x,1/2-y,1/2+z
1/2+x,1/2-y,1/2+z
1/2-x,1/2+y,z
loop_
_atom_site_type_symbol
_atom_site_label
_atom_site_fract_x
_atom_site_fract_y
_atom_site_fract_z
Si Si1 0.635015 0.514340 0.450760
Si Si2 0.364449 0.183655 0.222085
Si Si3 0.796842 0.904430 0.604765
Si Si4 0.627262 0.753067 0.023006
Si Si5 0.286132 0.674543 0.388765
Si Si6 0.793203 0.666055 0.694102
Si Si7 0.129651 0.028743 0.741938
Si Si8 0.000000 0.734303 0.804686
O O1 0.500000 0.512008 0.476582
O O2 0.703088 0.461008 0.520104
O O3 0.680234 0.601340 0.448573
O O4 0.643300 0.484783 0.348216
O O5 0.500000 0.191295 0.227432
O O6 0.323693 0.127594 0.141806
O O7 0.307110 0.152051 0.313375
O O8 0.301143 0.265632 0.207012
O O9 0.864982 0.827799 0.575340
O O10 0.856516 0.949651 0.686526
O O11 0.500000 0.761064 0.983798
O O12 0.651690 0.818467 0.096752
O O13 0.725222 0.760193 0.948835
O O14 0.399484 0.706784 0.342378
O O15 0.725866 0.587037 0.706882
O O16 0.897168 0.679168 0.762979
O O17 0.000000 0.058525 0.726398
#
# Coordination Sequence:
#
# PCOD9352798 Si02
#       8
#     8   8   8   8   8   8   8   4
#     4  11  23  40  66  99 129 170 230 281 335 403
#     4  10  22  43  67  94 133 176 226 274 341 407
#     4  11  24  43  64  98 135 176 224 278 345 395
#     4  11  23  40  68  98 131 171 228 284 336 406
#     4  11  22  42  70  98 130 178 227 285 337 404
#     4  10  22  41  67  95 130 179 224 273 343 405
#     4  11  23  41  67  97 137 176 224 284 343 403
#     4  10  22  42  70  92 136 174 230 272 336 408
#
# _framework density 19.954277999999999
#
# number of rings (size 3 to 8) (size 9 to 14) (size 15 to 20)
#    0.000    1.333    2.667    2.800    3.733    0.000 
#    8.400    1.333    0.000    0.000    0.000    0.000 
#    0.000    0.000    0.000    0.000    0.000    0.000 
#
# Total GULP energy -167047.096713 kJ/mol
# GULP energy per Si atom -5568.236557 kJ/mol
# Density = 1.990886 g / cm^3
# Si number density = 19.954278 Si / 1000 Ang^3
#
#
#
# Elastic Constant Matrix: (Units=GPa)
#
#
# Indices 1 2 3 4 5 6 
#
# 1 169.7922 52.8799 29.4435 0.0000 0.0000 0.0000
# 2 52.8799 77.0533 32.4821 0.0000 0.0000 0.0000
# 3 29.4435 32.4821 67.2834 0.0000 0.0000 0.0000
# 4 0.0000 0.0000 0.0000 38.0840 0.0000 0.0000
# 5 0.0000 0.0000 0.0000 0.0000 18.8997 0.0000
# 6 0.0000 0.0000 0.0000 0.0000 0.0000 16.4593
#
#
#
# Elastic Compliance Matrix: (Units=1/GPa)
#
#
# Indices 1 2 3 4 5 6 
#
# 1 0.007544 -0.004753 -0.001007 0.000000 0.000000 0.000000
# 2 -0.004753 0.019289 -0.007232 0.000000 0.000000 0.000000
# 3 -0.001007 -0.007232 0.018794 0.000000 0.000000 0.000000
# 4 0.000000 0.000000 0.000000 0.026258 0.000000 0.000000
# 5 0.000000 0.000000 0.000000 0.000000 0.052911 0.000000
# 6 0.000000 0.000000 0.000000 0.000000 0.000000 0.060756
#
#
# Mechanical properties :
#
#
# Convention : Reuss Voigt Hill
#
# Bulk Modulus (GPa) = 50.90675 60.41556 55.66116
# Shear Modulus (GPa) = 22.92698 27.97683 25.45190
#
# Velocity S-wave (km/s) = 3.39333 3.74845 3.57530
# Velocity P-wave (km/s) = 6.39688 7.00552 6.70810
#
# Compressibility (1/GPa) = 0.01964376
#
# Stress axis : x y z
#
# Youngs Moduli (GPa) = 132.54748 51.84403 53.20736
#
# Poissons Ratio (x) = 0.24642 0.05357
# Poissons Ratio (y) = 0.63002 0.38479
# Poissons Ratio (z) = 0.13345 0.37493
#
# Static dielectric constant tensor:
#      x y z
#    x 1.660670 0.000000 0.000000 
#    y 0.000000 1.707770 0.000000 
#    z 0.000000 0.000000 1.753840 
# 
# From -- ./inp_files/11722.got.cif
#   From: 2010.05.17/outbox.cif.g08.bks.cpg/sg36_6_cif.got.tgz:11722.got - 2010.06.03 17:41:39.
