data_PCOD9352966
_publ_section_title
;
Structure prediction by ZEFSAII (Michael W. Deem and Ramdas Pophale) SiO2 
 PCOD9352966
Probable space group: C M C 21
;
_chemical_formula_sum "Si O2"
_cell_formula_units_Z 48
_cell_length_a 23.736087
_cell_length_b 7.180787
_cell_length_c 9.796208
_cell_angle_alpha 90.000000
_cell_angle_beta 90.000000
_cell_angle_gamma 90.000000
_cell_volume 1669.702770
_symmetry_space_group_name_H-M "C M C 21"
_symmetry_group_IT_number 36
_symmetry_cell_setting 'orthorhombic'
loop_
_space_group_symop_operation_xyz
x,y,z
-x,-y,1/2+z
x,-y,1/2+z
-x,y,z
1/2+x,1/2+y,z
1/2-x,1/2-y,1/2+z
1/2+x,1/2-y,1/2+z
1/2-x,1/2+y,z
loop_
_atom_site_type_symbol
_atom_site_label
_atom_site_fract_x
_atom_site_fract_y
_atom_site_fract_z
Si Si1 0.932661 0.725212 0.707480
Si Si2 0.711779 0.852144 0.435859
Si Si3 0.564198 0.913240 0.513226
Si Si4 0.165811 0.011870 0.339185
Si Si5 0.875762 0.066634 0.587491
Si Si6 0.713557 0.819417 0.750448
O O1 0.927672 0.627051 0.854121
O O2 0.908718 0.580654 0.597083
O O3 0.889420 0.903838 0.712141
O O4 0.000000 0.778792 0.692224
O O5 0.667551 0.680231 0.467416
O O6 0.670067 0.644745 0.708288
O O7 0.779347 0.860179 0.394983
O O8 0.687603 0.022360 0.348126
O O9 0.500000 0.963985 0.528236
O O10 0.575066 0.718798 0.589699
O O11 0.117668 0.932674 0.452095
O O12 0.217163 0.174199 0.281629
O O13 0.717415 0.912726 0.596777
#
# Coordination Sequence:
#
# PCOD9352966 Si02
#       6
#     8   8   8   8   8   8
#     4  10  23  43  69 100 137 182 229 275 332 403
#     4  12  27  46  73 100 132 176 225 282 340 409
#     4  10  23  43  69 101 136 182 231 274 332 402
#     4  12  28  46  67 101 139 176 230 279 346 401
#     4  12  25  46  66  99 141 181 224 282 337 404
#     4  12  27  46  73  99 133 175 225 282 340 411
#
# _framework density 28.747631999999999
#
# number of rings (size 3 to 8) (size 9 to 14) (size 15 to 20)
#    0.000    0.667    5.000    1.500    7.000    2.667 
#    0.000    0.000    0.000    0.000    0.000    0.000 
#    0.000    0.000    0.000    0.000    0.000    0.000 
#
# Total GULP energy -133786.388805 kJ/mol
# GULP energy per Si atom -5574.432867 kJ/mol
# Density = 2.868220 g / cm^3
# Si number density = 28.747632 Si / 1000 Ang^3
#
#
#
# Elastic Constant Matrix: (Units=GPa)
#
#
# Indices 1 2 3 4 5 6 
#
# 1 112.5970 48.8684 50.4592 0.0000 0.0000 0.0000
# 2 48.8684 220.8948 68.2012 0.0000 0.0000 0.0000
# 3 50.4592 68.2012 220.9588 0.0000 0.0000 0.0000
# 4 0.0000 0.0000 0.0000 51.5628 0.0000 0.0000
# 5 0.0000 0.0000 0.0000 0.0000 37.0021 0.0000
# 6 0.0000 0.0000 0.0000 0.0000 0.0000 44.3913
#
#
#
# Elastic Compliance Matrix: (Units=1/GPa)
#
#
# Indices 1 2 3 4 5 6 
#
# 1 0.010468 -0.001744 -0.001852 0.000000 0.000000 0.000000
# 2 -0.001744 0.005294 -0.001236 0.000000 0.000000 0.000000
# 3 -0.001852 -0.001236 0.005330 0.000000 0.000000 0.000000
# 4 0.000000 0.000000 0.000000 0.019394 0.000000 0.000000
# 5 0.000000 0.000000 0.000000 0.000000 0.027025 0.000000
# 6 0.000000 0.000000 0.000000 0.000000 0.000000 0.022527
#
#
# Mechanical properties :
#
#
# Convention : Reuss Voigt Hill
#
# Bulk Modulus (GPa) = 87.50047 98.83426 93.16736
# Shear Modulus (GPa) = 48.30312 52.38603 50.34457
#
# Velocity S-wave (km/s) = 4.10353 4.27344 4.18935
# Velocity P-wave (km/s) = 7.27705 7.66840 7.47529
#
# Compressibility (1/GPa) = 0.01142851
#
# Stress axis : x y z
#
# Youngs Moduli (GPa) = 95.52724 188.87687 187.61004
#
# Poissons Ratio (x) = 0.32940 0.34751
# Poissons Ratio (y) = 0.16660 0.23187
# Poissons Ratio (z) = 0.17694 0.23344
#
# Static dielectric constant tensor:
#      x y z
#    x 2.201890 0.000000 0.000000 
#    y 0.000000 2.560200 0.000000 
#    z 0.000000 0.000000 2.690310 
# 
# From -- ./inp_files/9584.got.cif
#   From: 2010.05.17/outbox.cif.g08.bks.cpg/sg36_5_cif.got.tgz:9584.got - 2010.06.03 17:41:39.
