data_PCOD9352918
_publ_section_title
;
Structure prediction by ZEFSAII (Michael W. Deem and Ramdas Pophale) SiO2 
 PCOD9352918
Probable space group: C M C 21
;
_chemical_formula_sum "Si O2"
_cell_formula_units_Z 56
_cell_length_a 15.648456
_cell_length_b 15.003786
_cell_length_c 10.899488
_cell_angle_alpha 90.000000
_cell_angle_beta 90.000000
_cell_angle_gamma 90.000000
_cell_volume 2559.048117
_symmetry_space_group_name_H-M "C M C 21"
_symmetry_group_IT_number 36
_symmetry_cell_setting 'orthorhombic'
loop_
_space_group_symop_operation_xyz
x,y,z
-x,-y,1/2+z
x,-y,1/2+z
-x,y,z
1/2+x,1/2+y,z
1/2-x,1/2-y,1/2+z
1/2+x,1/2-y,1/2+z
1/2-x,1/2+y,z
loop_
_atom_site_type_symbol
_atom_site_label
_atom_site_fract_x
_atom_site_fract_y
_atom_site_fract_z
Si Si1 0.235773 0.817279 0.716540
Si Si2 0.810300 0.615996 0.985849
Si Si3 0.406864 0.177782 0.784010
Si Si4 0.095295 0.450583 0.078509
Si Si5 0.903441 0.294914 0.881592
Si Si6 0.596767 0.535380 0.169337
Si Si7 0.866834 0.912317 0.393208
O O1 0.268906 0.814286 0.578149
O O2 0.171934 0.737893 0.745612
O O3 0.321269 0.817131 0.797809
O O4 0.173130 0.902592 0.719932
O O5 0.836270 0.525421 0.052250
O O6 0.892795 0.658698 0.925709
O O7 0.735943 0.592406 0.890328
O O8 0.500000 0.215728 0.754489
O O9 0.401259 0.082994 0.717019
O O10 0.000000 0.485271 0.052495
O O11 0.105022 0.360898 0.997689
O O12 0.898686 0.189435 0.911469
O O13 0.000000 0.311680 0.830371
O O14 0.500000 0.571069 0.183841
O O15 0.601452 0.451335 0.263109
O O16 0.610551 0.532668 0.019634
#
# Coordination Sequence:
#
# PCOD9352918 Si02
#       7
#     8   8   8   8   8   8   8
#     4  11  25  42  67  97 133 182 228 282 348 407
#     4  11  24  42  66 100 137 174 226 286 343 411
#     4  11  24  44  69  98 137 180 226 282 347 415
#     4  10  23  40  67  98 130 178 226 276 344 413
#     4  11  23  44  69  95 134 183 231 282 347 419
#     4  11  23  43  69 100 138 180 232 289 347 421
#     4  11  24  43  70 102 139 185 236 285 351 420
#
# _framework density 21.883137999999999
#
# number of rings (size 3 to 8) (size 9 to 14) (size 15 to 20)
#    0.000    1.143    1.429    4.714    6.000    2.286 
#    2.571    0.000    0.000    0.000    0.000    0.000 
#    0.000    0.000    0.000    0.000    0.000    0.000 
#
# Total GULP energy -156190.413505 kJ/mol
# GULP energy per Si atom -5578.229054 kJ/mol
# Density = 2.183333 g / cm^3
# Si number density = 21.883138 Si / 1000 Ang^3
#
#
#
# Elastic Constant Matrix: (Units=GPa)
#
#
# Indices 1 2 3 4 5 6 
#
# 1 156.0134 11.4186 33.6720 0.0000 0.0000 0.0000
# 2 11.4186 42.3880 20.9716 0.0000 0.0000 0.0000
# 3 33.6720 20.9716 75.6230 0.0000 0.0000 0.0000
# 4 0.0000 0.0000 0.0000 25.2481 0.0000 0.0000
# 5 0.0000 0.0000 0.0000 0.0000 27.3748 0.0000
# 6 0.0000 0.0000 0.0000 0.0000 0.0000 18.6913
#
#
#
# Elastic Compliance Matrix: (Units=1/GPa)
#
#
# Indices 1 2 3 4 5 6 
#
# 1 0.007097 -0.000404 -0.003048 0.000000 0.000000 0.000000
# 2 -0.000404 0.027366 -0.007409 0.000000 0.000000 0.000000
# 3 -0.003048 -0.007409 0.016635 0.000000 0.000000 0.000000
# 4 0.000000 0.000000 0.000000 0.039607 0.000000 0.000000
# 5 0.000000 0.000000 0.000000 0.000000 0.036530 0.000000
# 6 0.000000 0.000000 0.000000 0.000000 0.000000 0.053501
#
#
# Mechanical properties :
#
#
# Convention : Reuss Voigt Hill
#
# Bulk Modulus (GPa) = 34.04110 45.12765 39.58437
# Shear Modulus (GPa) = 23.55704 28.12699 25.84201
#
# Velocity S-wave (km/s) = 3.28455 3.58904 3.44017
# Velocity P-wave (km/s) = 5.47485 6.15157 5.82305
#
# Compressibility (1/GPa) = 0.02937626
#
# Stress axis : x y z
#
# Youngs Moduli (GPa) = 140.90215 36.54155 60.11267
#
# Poissons Ratio (x) = 0.01476 0.18323
# Poissons Ratio (y) = 0.05689 0.44539
# Poissons Ratio (z) = 0.42948 0.27075
#
# Static dielectric constant tensor:
#      x y z
#    x 1.841650 0.000000 0.000000 
#    y 0.000000 1.797420 0.000000 
#    z 0.000000 0.000000 1.849150 
# 
# From -- ./inp_files/8489.got.cif
#   From: 2010.05.17/outbox.cif.g08.bks.cpg/sg36_5_cif.got.tgz:8489.got - 2010.06.03 17:41:39.
