data_PCOD9352497
_publ_section_title
;
Structure prediction by ZEFSAII (Michael W. Deem and Ramdas Pophale) SiO2 
 PCOD9352497
Probable space group: C M C 21
;
_chemical_formula_sum "Si O2"
_cell_formula_units_Z 40
_cell_length_a 19.437335
_cell_length_b 7.459539
_cell_length_c 12.007868
_cell_angle_alpha 90.000000
_cell_angle_beta 90.000000
_cell_angle_gamma 90.000000
_cell_volume 1741.063511
_symmetry_space_group_name_H-M "C M C 21"
_symmetry_group_IT_number 36
_symmetry_cell_setting 'orthorhombic'
loop_
_space_group_symop_operation_xyz
x,y,z
-x,-y,1/2+z
x,-y,1/2+z
-x,y,z
1/2+x,1/2+y,z
1/2-x,1/2-y,1/2+z
1/2+x,1/2-y,1/2+z
1/2-x,1/2+y,z
loop_
_atom_site_type_symbol
_atom_site_label
_atom_site_fract_x
_atom_site_fract_y
_atom_site_fract_z
Si Si1 0.079070 0.432383 0.463190
Si Si2 0.655506 0.768808 0.084253
Si Si3 0.824305 0.107404 0.866465
Si Si4 0.919496 0.950307 0.041508
Si Si5 0.687606 0.025006 0.279500
O O1 0.093903 0.615230 0.529389
O O2 0.091718 0.261679 0.542079
O O3 0.133376 0.432370 0.363069
O O4 0.000000 0.424322 0.424956
O O5 0.623323 0.580131 0.123811
O O6 0.688548 0.903564 0.170130
O O7 0.702623 0.709783 0.980139
O O8 0.835582 0.267962 0.779491
O O9 0.765113 0.978776 0.824919
O O10 0.891017 0.013197 0.919301
O O11 0.000000 0.983880 0.053665
#
# Coordination Sequence:
#
# PCOD9352497 Si02
#       5
#     8   8   8   8   8
#     4  10  21  39  64  91 126 166 207 259 319 375
#     4   9  22  39  62  90 126 165 208 263 308 378
#     4   9  22  38  61  90 125 163 210 259 318 370
#     4   9  19  42  65  87 126 165 202 262 318 371
#     4  11  21  40  62  94 128 169 209 263 316 382
#
# _framework density 22.974461999999999
#
# number of rings (size 3 to 8) (size 9 to 14) (size 15 to 20)
#    1.200    1.200    0.000    1.800    0.000    4.800 
#    7.200    0.000    0.000    0.000    0.000    0.000 
#    0.000    0.000    0.000    0.000    0.000    0.000 
#
# Total GULP energy -111491.081973 kJ/mol
# GULP energy per Si atom -5574.554099 kJ/mol
# Density = 2.292217 g / cm^3
# Si number density = 22.974462 Si / 1000 Ang^3
#
#
#
# Elastic Constant Matrix: (Units=GPa)
#
#
# Indices 1 2 3 4 5 6 
#
# 1 55.7647 4.3185 13.1234 0.0000 0.0000 0.0000
# 2 4.3185 95.1315 -9.1103 0.0000 0.0000 0.0000
# 3 13.1234 -9.1103 26.7132 0.0000 0.0000 0.0000
# 4 0.0000 0.0000 0.0000 15.0629 0.0000 0.0000
# 5 0.0000 0.0000 0.0000 0.0000 21.0965 0.0000
# 6 0.0000 0.0000 0.0000 0.0000 0.0000 32.2870
#
#
#
# Elastic Compliance Matrix: (Units=1/GPa)
#
#
# Indices 1 2 3 4 5 6 
#
# 1 0.020628 -0.001971 -0.010806 0.000000 0.000000 0.000000
# 2 -0.001971 0.011055 0.004739 0.000000 0.000000 0.000000
# 3 -0.010806 0.004739 0.044360 0.000000 0.000000 0.000000
# 4 0.000000 0.000000 0.000000 0.066388 0.000000 0.000000
# 5 0.000000 0.000000 0.000000 0.000000 0.047401 0.000000
# 6 0.000000 0.000000 0.000000 0.000000 0.000000 0.030972
#
#
# Mechanical properties :
#
#
# Convention : Reuss Voigt Hill
#
# Bulk Modulus (GPa) = 16.67640 21.58584 19.13112
# Shear Modulus (GPa) = 19.46503 24.97446 22.21975
#
# Velocity S-wave (km/s) = 2.91391 3.30063 3.11328
# Velocity P-wave (km/s) = 4.31226 4.89300 4.61178
#
# Compressibility (1/GPa) = 0.05996498
#
# Stress axis : x y z
#
# Youngs Moduli (GPa) = 48.47725 90.45634 22.54307
#
# Poissons Ratio (x) = 0.17832 0.24361
# Poissons Ratio (y) = 0.09556 -0.10682
# Poissons Ratio (z) = 0.52386 -0.42864
#
# Static dielectric constant tensor:
#      x y z
#    x 1.786710 0.000000 0.000000 
#    y 0.000000 1.883720 0.000000 
#    z 0.000000 0.000000 1.928100 
# 
# From -- ./inp_files/8781.got.cif
#   From: 2010.05.17/outbox.cif.g08.bks.cpg/sg36_5_cif.got.tgz:8781.got - 2010.06.03 17:41:39.
