data_PCOD9352254
_publ_section_title
;
Structure prediction by ZEFSAII (Michael W. Deem and Ramdas Pophale) SiO2 
 PCOD9352254
Probable space group: C M C 21
;
_chemical_formula_sum "Si O2"
_cell_formula_units_Z 40
_cell_length_a 7.424473
_cell_length_b 28.634510
_cell_length_c 8.433338
_cell_angle_alpha 90.000000
_cell_angle_beta 90.000000
_cell_angle_gamma 90.000000
_cell_volume 1792.895160
_symmetry_space_group_name_H-M "C M C 21"
_symmetry_group_IT_number 36
_symmetry_cell_setting 'orthorhombic'
loop_
_space_group_symop_operation_xyz
x,y,z
-x,-y,1/2+z
x,-y,1/2+z
-x,y,z
1/2+x,1/2+y,z
1/2-x,1/2-y,1/2+z
1/2+x,1/2-y,1/2+z
1/2-x,1/2+y,z
loop_
_atom_site_type_symbol
_atom_site_label
_atom_site_fract_x
_atom_site_fract_y
_atom_site_fract_z
Si Si1 0.783312 0.226646 0.147620
Si Si2 0.286440 0.630920 0.007984
Si Si3 0.000000 0.429968 0.669421
Si Si4 0.283557 0.593215 0.656443
Si Si5 0.000000 0.473508 0.018865
Si Si6 0.206507 0.817243 0.970505
O O1 0.741653 0.185899 0.020907
O O2 0.713841 0.206119 0.313751
O O3 0.000000 0.232106 0.155258
O O4 0.708515 0.276657 0.101441
O O5 0.500000 0.626477 0.037502
O O6 0.172712 0.602493 0.136914
O O7 0.246664 0.610187 0.835199
O O8 0.000000 0.471182 0.539019
O O9 0.000000 0.454817 0.839359
O O10 0.500000 0.587307 0.642481
O O11 0.174317 0.547726 0.607303
O O12 0.218957 0.635186 0.541469
O O13 0.000000 0.828282 0.929124
#
# Coordination Sequence:
#
# PCOD9352254 Si02
#       6
#     8   8   4   8   4   8
#     4  10  21  36  56  85 121 163 208 252 304 367
#     4  10  22  42  66  92 126 165 208 260 315 374
#     4  12  26  44  68  96 126 164 210 262 317 378
#     4  10  22  42  66  92 126 165 208 260 315 374
#     4  12  26  44  68  96 126 164 210 262 317 378
#     4  10  21  36  56  85 121 163 208 252 304 367
#
# _framework density 22.310282000000001
#
# number of rings (size 3 to 8) (size 9 to 14) (size 15 to 20)
#    0.000    1.600    0.000    4.200    2.800    5.600 
#    0.000    0.000    0.000    0.000    0.000    0.000 
#    0.000    0.000    0.000    0.000    0.000    0.000 
#
# Total GULP energy -111886.434030 kJ/mol
# GULP energy per Si atom -5594.321702 kJ/mol
# Density = 2.225950 g / cm^3
# Si number density = 22.310282 Si / 1000 Ang^3
#
#
#
# Elastic Constant Matrix: (Units=GPa)
#
#
# Indices 1 2 3 4 5 6 
#
# 1 65.0662 4.1127 5.3636 0.0000 0.0000 0.0000
# 2 4.1127 77.5188 -19.3955 0.0000 0.0000 0.0000
# 3 5.3636 -19.3955 63.3454 0.0000 0.0000 0.0000
# 4 0.0000 0.0000 0.0000 40.7508 0.0000 0.0000
# 5 0.0000 0.0000 0.0000 0.0000 26.7561 0.0000
# 6 0.0000 0.0000 0.0000 0.0000 0.0000 11.7722
#
#
#
# Elastic Compliance Matrix: (Units=1/GPa)
#
#
# Indices 1 2 3 4 5 6 
#
# 1 0.015589 -0.001253 -0.001704 0.000000 0.000000 0.000000
# 2 -0.001253 0.014071 0.004415 0.000000 0.000000 0.000000
# 3 -0.001704 0.004415 0.017282 0.000000 0.000000 0.000000
# 4 0.000000 0.000000 0.000000 0.024539 0.000000 0.000000
# 5 0.000000 0.000000 0.000000 0.000000 0.037375 0.000000
# 6 0.000000 0.000000 0.000000 0.000000 0.000000 0.084946
#
#
# Mechanical properties :
#
#
# Convention : Reuss Voigt Hill
#
# Bulk Modulus (GPa) = 20.05730 20.67690 20.36710
# Shear Modulus (GPa) = 24.09564 30.24578 27.17071
#
# Velocity S-wave (km/s) = 3.28994 3.68596 3.49357
# Velocity P-wave (km/s) = 4.84162 5.23479 5.04204
#
# Compressibility (1/GPa) = 0.04985716
#
# Stress axis : x y z
#
# Youngs Moduli (GPa) = 64.14937 71.06762 57.86236
#
# Poissons Ratio (x) = 0.08907 0.09858
# Poissons Ratio (y) = 0.08040 -0.25543
# Poissons Ratio (z) = 0.10929 -0.31373
#
# Static dielectric constant tensor:
#      x y z
#    x 1.801370 0.000000 0.000000 
#    y 0.000000 1.752900 0.000000 
#    z 0.000000 0.000000 1.852850 
# 
# From -- ./inp_files/2454.got.cif
#   From: 2010.05.17/outbox.cif.g08.bks.cpg/sg36_2_cif.got.tgz:2454.got - 2010.06.03 17:41:39.
