data_PCOD9352628
_publ_section_title
;
Structure prediction by ZEFSAII (Michael W. Deem and Ramdas Pophale) SiO2 
 PCOD9352628
Probable space group: C M C 21
;
_chemical_formula_sum "Si O2"
_cell_formula_units_Z 28
_cell_length_a 12.753350
_cell_length_b 7.478199
_cell_length_c 13.936295
_cell_angle_alpha 90.000000
_cell_angle_beta 90.000000
_cell_angle_gamma 90.000000
_cell_volume 1329.133570
_symmetry_space_group_name_H-M "C M C 21"
_symmetry_group_IT_number 36
_symmetry_cell_setting 'orthorhombic'
loop_
_space_group_symop_operation_xyz
x,y,z
-x,-y,1/2+z
x,-y,1/2+z
-x,y,z
1/2+x,1/2+y,z
1/2-x,1/2-y,1/2+z
1/2+x,1/2-y,1/2+z
1/2-x,1/2+y,z
loop_
_atom_site_type_symbol
_atom_site_label
_atom_site_fract_x
_atom_site_fract_y
_atom_site_fract_z
Si Si1 0.000000 0.431980 0.282130
Si Si2 0.153348 0.214747 0.989460
Si Si3 0.500000 0.655475 0.819416
Si Si4 0.000000 0.117489 0.144552
Si Si5 0.887857 0.371404 0.466354
O O1 0.000000 0.644954 0.275110
O O2 0.000000 0.317357 0.188037
O O3 0.097118 0.375523 0.350791
O O4 0.101186 0.106088 0.076160
O O5 0.117917 0.420748 0.995204
O O6 0.278285 0.213835 0.991887
O O7 0.100501 0.141705 0.890950
O O8 0.500000 0.513924 0.734570
O O9 0.000000 0.295701 0.502613
#
# Coordination Sequence:
#
# PCOD9352628 Si02
#       5
#     4   8   4   4   8
#     4   8  20  42  66  90 132 172 222 282 324 388
#     4  10  21  43  64  97 137 170 221 285 329 397
#     4   9  21  43  66  98 133 173 229 270 342 402
#     4  11  21  43  66 102 133 177 235 266 332 418
#     4   9  20  43  65  88 130 172 217 279 338 387
#
# _framework density 21.066355000000001
#
# number of rings (size 3 to 8) (size 9 to 14) (size 15 to 20)
#    0.857    1.714    2.857    0.000    4.000    0.000 
#   12.857    2.857    0.000    0.000    0.000    0.000 
#    0.000    0.000    0.000    0.000    0.000    0.000 
#
# Total GULP energy -78069.872211 kJ/mol
# GULP energy per Si atom -5576.419444 kJ/mol
# Density = 2.101841 g / cm^3
# Si number density = 21.066355 Si / 1000 Ang^3
#
#
#
# Elastic Constant Matrix: (Units=GPa)
#
#
# Indices 1 2 3 4 5 6 
#
# 1 202.6021 38.0547 52.4614 0.0000 0.0000 0.0000
# 2 38.0547 58.9846 58.9224 0.0000 0.0000 0.0000
# 3 52.4614 58.9224 102.5342 0.0000 0.0000 0.0000
# 4 0.0000 0.0000 0.0000 33.9891 0.0000 0.0000
# 5 0.0000 0.0000 0.0000 0.0000 -5.8649 0.0000
# 6 0.0000 0.0000 0.0000 0.0000 0.0000 32.6579
#
#
#
# Elastic Compliance Matrix: (Units=1/GPa)
#
#
# Indices 1 2 3 4 5 6 
#
# 1 0.005771 -0.001816 -0.001909 0.000000 0.000000 0.000000
# 2 -0.001816 0.040374 -0.022272 0.000000 0.000000 0.000000
# 3 -0.001909 -0.022272 0.023528 0.000000 0.000000 0.000000
# 4 0.000000 0.000000 0.000000 0.029421 0.000000 0.000000
# 5 0.000000 0.000000 0.000000 0.000000 -0.170505 0.000000
# 6 0.000000 0.000000 0.000000 0.000000 0.000000 0.030620
#
#
# Mechanical properties :
#
#
# Convention : Reuss Voigt Hill
#
# Bulk Modulus (GPa) = 56.56482 73.66642 65.11562
# Shear Modulus (GPa) = 292.42047 26.46857 159.44452
#
# Velocity S-wave (km/s) = 11.79451 3.54847 8.70925
# Velocity P-wave (km/s) = 14.57360 7.19955 11.49399
#
# Compressibility (1/GPa) = 0.01767883
#
# Stress axis : x y z
#
# Youngs Moduli (GPa) = 173.27177 24.76846 42.50168
#
# Poissons Ratio (x) = 0.04499 0.08114
# Poissons Ratio (y) = 0.31472 0.94660
# Poissons Ratio (z) = 0.33079 0.55164
#
# Static dielectric constant tensor:
#      x y z
#    x 1.760940 0.000000 0.000000 
#    y 0.000000 1.786810 0.000000 
#    z 0.000000 0.000000 1.740780 
# 
# From -- ./inp_files/8155.got.cif
#   From: 2010.05.17/outbox.cif.g08.bks.cpg/sg36_5_cif.got.tgz:8155.got - 2010.06.03 17:41:39.
