data_PCOD9352478
_publ_section_title
;
Structure prediction by ZEFSAII (Michael W. Deem and Ramdas Pophale) SiO2 
 PCOD9352478
Probable space group: C M C 21
;
_chemical_formula_sum "Si O2"
_cell_formula_units_Z 64
_cell_length_a 9.261969
_cell_length_b 14.679809
_cell_length_c 22.192047
_cell_angle_alpha 90.000000
_cell_angle_beta 90.000000
_cell_angle_gamma 90.000000
_cell_volume 3017.318055
_symmetry_space_group_name_H-M "C M C 21"
_symmetry_group_IT_number 36
_symmetry_cell_setting 'orthorhombic'
loop_
_space_group_symop_operation_xyz
x,y,z
-x,-y,1/2+z
x,-y,1/2+z
-x,y,z
1/2+x,1/2+y,z
1/2-x,1/2-y,1/2+z
1/2+x,1/2-y,1/2+z
1/2-x,1/2+y,z
loop_
_atom_site_type_symbol
_atom_site_label
_atom_site_fract_x
_atom_site_fract_y
_atom_site_fract_z
Si Si1 0.332582 0.819232 0.929940
Si Si2 0.831528 0.120185 0.975819
Si Si3 0.833192 0.163140 0.626953
Si Si4 0.334823 0.492956 0.217579
Si Si5 0.669631 0.407673 0.337726
Si Si6 0.827228 0.660079 0.190022
Si Si7 0.171888 0.221169 0.312514
Si Si8 0.165484 0.464152 0.034895
O O1 0.500000 0.804554 0.910361
O O2 0.290766 0.726335 0.966002
O O3 0.231805 0.828620 0.872104
O O4 0.329185 0.905224 0.973325
O O5 0.816360 0.075778 0.908847
O O6 0.000000 0.117368 0.992617
O O7 0.741381 0.060174 0.022038
O O8 0.783337 0.265708 0.639934
O O9 0.743132 0.101862 0.581943
O O10 0.000000 0.165205 0.606862
O O11 0.828836 0.108411 0.690279
O O12 0.500000 0.525385 0.210239
O O13 0.300977 0.485606 0.288577
O O14 0.228815 0.558088 0.181034
O O15 0.500000 0.382179 0.327770
O O16 0.775732 0.324802 0.322920
O O17 0.750216 0.687548 0.252370
O O18 0.000000 0.664326 0.195588
O O19 0.000000 0.213709 0.307571
O O20 0.000000 0.478666 0.052181
#
# Coordination Sequence:
#
# PCOD9352478 Si02
#       8
#     8   8   8   8   8   8   8   8
#     4   9  21  41  60  84 120 163 198 242 303 358
#     4   9  19  37  61  86 118 158 198 238 298 364
#     4  10  23  44  64  82 119 165 201 242 300 361
#     4  10  21  39  62  90 120 157 202 244 298 362
#     4   9  18  37  61  86 124 162 195 241 301 361
#     4  11  23  40  61  89 122 159 200 248 304 359
#     4  11  21  34  59  92 124 158 200 248 298 357
#     4  11  24  40  62  89 119 154 204 255 294 348
#
# _framework density 21.210889999999999
#
# number of rings (size 3 to 8) (size 9 to 14) (size 15 to 20)
#    0.000    2.000    1.250    2.625    1.750    6.000 
#    0.000    3.750    0.000    0.000    0.000    0.000 
#    0.000    0.000    0.000    0.000    0.000    0.000 
#
# Total GULP energy -178761.478415 kJ/mol
# GULP energy per Si atom -5586.296200 kJ/mol
# Density = 2.116261 g / cm^3
# Si number density = 21.210890 Si / 1000 Ang^3
#
#
#
# Elastic Constant Matrix: (Units=GPa)
#
#
# Indices 1 2 3 4 5 6 
#
# 1 56.1224 13.1793 9.6818 0.0000 0.0000 0.0000
# 2 13.1793 61.1372 -8.0045 0.0000 0.0000 0.0000
# 3 9.6818 -8.0045 20.8761 0.0000 0.0000 0.0000
# 4 0.0000 0.0000 0.0000 31.0309 0.0000 0.0000
# 5 0.0000 0.0000 0.0000 0.0000 26.6905 0.0000
# 6 0.0000 0.0000 0.0000 0.0000 0.0000 29.2057
#
#
#
# Elastic Compliance Matrix: (Units=1/GPa)
#
#
# Indices 1 2 3 4 5 6 
#
# 1 0.021405 -0.006227 -0.012314 0.000000 0.000000 0.000000
# 2 -0.006227 0.019032 0.010185 0.000000 0.000000 0.000000
# 3 -0.012314 0.010185 0.057518 0.000000 0.000000 0.000000
# 4 0.000000 0.000000 0.000000 0.032226 0.000000 0.000000
# 5 0.000000 0.000000 0.000000 0.000000 0.037466 0.000000
# 6 0.000000 0.000000 0.000000 0.000000 0.000000 0.034240
#
#
# Mechanical properties :
#
#
# Convention : Reuss Voigt Hill
#
# Bulk Modulus (GPa) = 12.30860 18.64988 15.47924
# Shear Modulus (GPa) = 20.35168 25.60404 22.97786
#
# Velocity S-wave (km/s) = 3.10093 3.47813 3.29493
# Velocity P-wave (km/s) = 4.31701 4.99415 4.66787
#
# Compressibility (1/GPa) = 0.08124400
#
# Stress axis : x y z
#
# Youngs Moduli (GPa) = 46.71860 52.54191 17.38587
#
# Poissons Ratio (x) = 0.32715 0.21410
# Poissons Ratio (y) = 0.29089 -0.17708
# Poissons Ratio (z) = 0.57531 -0.53515
#
# Static dielectric constant tensor:
#      x y z
#    x 1.713840 0.000000 0.000000 
#    y 0.000000 1.800440 0.000000 
#    z 0.000000 0.000000 1.781680 
# 
# From -- ./inp_files/16690.got.cif
#   From: 2010.05.17/outbox.cif.g08.bks.cpg/sg36_9_cif.got.tgz:16690.got - 2010.06.03 17:41:39.
