data_PCOD9352225
_publ_section_title
;
Structure prediction by ZEFSAII (Michael W. Deem and Ramdas Pophale) SiO2 
 PCOD9352225
Probable space group: C M C 21
;
_chemical_formula_sum "Si O2"
_cell_formula_units_Z 64
_cell_length_a 17.957784
_cell_length_b 13.750153
_cell_length_c 12.851107
_cell_angle_alpha 90.000000
_cell_angle_beta 90.000000
_cell_angle_gamma 90.000000
_cell_volume 3173.224609
_symmetry_space_group_name_H-M "C M C 21"
_symmetry_group_IT_number 36
_symmetry_cell_setting 'orthorhombic'
loop_
_space_group_symop_operation_xyz
x,y,z
-x,-y,1/2+z
x,-y,1/2+z
-x,y,z
1/2+x,1/2+y,z
1/2-x,1/2-y,1/2+z
1/2+x,1/2-y,1/2+z
1/2-x,1/2+y,z
loop_
_atom_site_type_symbol
_atom_site_label
_atom_site_fract_x
_atom_site_fract_y
_atom_site_fract_z
Si Si1 0.585968 0.676434 0.861300
Si Si2 0.585495 0.176309 0.166543
Si Si3 0.589217 0.169445 0.542135
Si Si4 0.177535 0.259419 0.239958
Si Si5 0.735321 0.082307 0.139966
Si Si6 0.586394 0.790760 0.428721
Si Si7 0.830454 0.484771 0.439553
Si Si8 0.282370 0.561540 0.786839
O O1 0.500000 0.646245 0.869320
O O2 0.592237 0.748223 0.760987
O O3 0.640427 0.586790 0.840017
O O4 0.604243 0.740670 0.963092
O O5 0.500000 0.139007 0.165703
O O6 0.648655 0.094288 0.176372
O O7 0.599066 0.224478 0.052560
O O8 0.500000 0.153807 0.544189
O O9 0.621360 0.193171 0.655994
O O10 0.630894 0.075552 0.494471
O O11 0.220079 0.173841 0.181763
O O12 0.134750 0.231160 0.345822
O O13 0.238382 0.337914 0.275153
O O14 0.781716 0.988546 0.175179
O O15 0.723464 0.074420 0.017512
O O16 0.500000 0.775033 0.408529
O O17 0.608069 0.904474 0.408469
O O18 0.772976 0.510439 0.349082
#
# Coordination Sequence:
#
# PCOD9352225 Si02
#       8
#     8   8   8   8   8   8   8   8
#     4  10  21  39  62  87 117 162 208 253 302 360
#     4   9  18  36  62  88 119 155 201 253 306 365
#     4  11  22  39  64  94 127 162 201 254 320 373
#     4  11  22  38  60  89 127 162 200 252 306 374
#     4  11  21  39  57  92 121 156 206 247 309 365
#     4   9  19  36  57  86 122 159 196 246 309 367
#     4  10  21  35  59  91 121 158 196 254 308 371
#     4  11  22  40  59  89 122 158 210 251 304 365
#
# _framework density 20.168758
#
# number of rings (size 3 to 8) (size 9 to 14) (size 15 to 20)
#    0.000    1.750    2.500    2.250    0.000    0.500 
#    2.250    1.875    0.000    0.750    0.000    0.000 
#    0.000    0.000    0.000    0.000    0.000    0.000 
#
# Total GULP energy -178465.502543 kJ/mol
# GULP energy per Si atom -5577.046954 kJ/mol
# Density = 2.012285 g / cm^3
# Si number density = 20.168758 Si / 1000 Ang^3
#
#
#
# Elastic Constant Matrix: (Units=GPa)
#
#
# Indices 1 2 3 4 5 6 
#
# 1 82.4578 25.3565 41.3179 0.0000 0.0000 0.0000
# 2 25.3565 19.0815 5.0705 0.0000 0.0000 0.0000
# 3 41.3179 5.0705 74.7094 0.0000 0.0000 0.0000
# 4 0.0000 0.0000 0.0000 17.7652 0.0000 0.0000
# 5 0.0000 0.0000 0.0000 0.0000 30.6750 0.0000
# 6 0.0000 0.0000 0.0000 0.0000 0.0000 33.2990
#
#
#
# Elastic Compliance Matrix: (Units=1/GPa)
#
#
# Indices 1 2 3 4 5 6 
#
# 1 0.030804 -0.037076 -0.014520 0.000000 0.000000 0.000000
# 2 -0.037076 0.097994 0.013854 0.000000 0.000000 0.000000
# 3 -0.014520 0.013854 0.020475 0.000000 0.000000 0.000000
# 4 0.000000 0.000000 0.000000 0.056290 0.000000 0.000000
# 5 0.000000 0.000000 0.000000 0.000000 0.032600 0.000000
# 6 0.000000 0.000000 0.000000 0.000000 0.000000 0.030031
#
#
# Mechanical properties :
#
#
# Convention : Reuss Voigt Hill
#
# Bulk Modulus (GPa) = 13.55208 35.52649 24.53929
# Shear Modulus (GPa) = 13.57687 23.31476 18.44582
#
# Velocity S-wave (km/s) = 2.59735 3.40367 3.02747
# Velocity P-wave (km/s) = 3.96597 5.75321 4.94107
#
# Compressibility (1/GPa) = 0.07378940
#
# Stress axis : x y z
#
# Youngs Moduli (GPa) = 32.46310 10.20475 48.83973
#
# Poissons Ratio (x) = 0.37835 0.70915
# Poissons Ratio (y) = 1.20360 -0.67663
# Poissons Ratio (z) = 0.47136 -0.14138
#
# Static dielectric constant tensor:
#      x y z
#    x 1.711850 0.000000 0.000000 
#    y 0.000000 1.699400 0.000000 
#    z 0.000000 0.000000 1.764520 
# 
# From -- ./inp_files/8990.got.cif
#   From: 2010.05.17/outbox.cif.g08.bks.cpg/sg36_5_cif.got.tgz:8990.got - 2010.06.03 17:41:39.
