data_PCOD9352146
_publ_section_title
;
Structure prediction by ZEFSAII (Michael W. Deem and Ramdas Pophale) SiO2 
 PCOD9352146
Probable space group: C M C 21
;
_chemical_formula_sum "Si O2"
_cell_formula_units_Z 64
_cell_length_a 9.389936
_cell_length_b 19.408839
_cell_length_c 16.599205
_cell_angle_alpha 90.000000
_cell_angle_beta 90.000000
_cell_angle_gamma 90.000000
_cell_volume 3025.167863
_symmetry_space_group_name_H-M "C M C 21"
_symmetry_group_IT_number 36
_symmetry_cell_setting 'orthorhombic'
loop_
_space_group_symop_operation_xyz
x,y,z
-x,-y,1/2+z
x,-y,1/2+z
-x,y,z
1/2+x,1/2+y,z
1/2-x,1/2-y,1/2+z
1/2+x,1/2-y,1/2+z
1/2-x,1/2+y,z
loop_
_atom_site_type_symbol
_atom_site_label
_atom_site_fract_x
_atom_site_fract_y
_atom_site_fract_z
Si Si1 0.831896 0.576930 0.701650
Si Si2 0.833892 0.657436 0.532392
Si Si3 0.336838 0.809377 0.772594
Si Si4 0.662800 0.787311 0.588348
Si Si5 0.167400 0.901307 0.510544
Si Si6 0.836191 0.952754 0.945378
Si Si7 0.330988 0.666036 0.835476
Si Si8 0.164617 0.050447 0.259783
O O1 0.816366 0.613980 0.615366
O O2 0.760755 0.625141 0.769780
O O3 0.752784 0.503516 0.706986
O O4 0.000000 0.568115 0.717404
O O5 0.752217 0.728609 0.544526
O O6 0.766055 0.610550 0.463236
O O7 0.000000 0.670132 0.518363
O O8 0.500000 0.831827 0.789028
O O9 0.335684 0.774868 0.683926
O O10 0.296573 0.747472 0.832245
O O11 0.233934 0.874330 0.766712
O O12 0.500000 0.787539 0.560594
O O13 0.735397 0.860728 0.572458
O O14 0.189926 0.865154 0.423808
O O15 0.000000 0.894828 0.530661
O O16 0.201763 0.981389 0.499239
O O17 0.831701 0.975826 0.852495
O O18 0.000000 0.932840 0.962982
O O19 0.500000 0.659263 0.815732
O O20 0.000000 0.053774 0.233937
#
# Coordination Sequence:
#
# PCOD9352146 Si02
#       8
#     8   8   8   8   8   8   8   8
#     4  11  23  40  64  93 122 156 205 257 305 363
#     4  11  25  42  63  91 125 163 206 253 307 367
#     4  10  23  41  63  92 126 162 202 254 311 365
#     4  11  24  42  64  91 125 163 207 253 304 367
#     4  10  22  41  64  91 125 162 206 253 305 369
#     4  10  23  43  64  91 124 162 207 252 303 366
#     4  10  20  41  67  89 119 161 204 249 308 366
#     4  11  24  42  65  92 124 161 207 257 307 367
#
# _framework density 21.155851999999999
#
# number of rings (size 3 to 8) (size 9 to 14) (size 15 to 20)
#    0.000    1.500    2.500    1.500    3.500    5.000 
#    0.000    0.000    0.000    0.000    0.000    0.000 
#    0.000    0.000    0.000    0.000    0.000    0.000 
#
# Total GULP energy -179027.257332 kJ/mol
# GULP energy per Si atom -5594.601792 kJ/mol
# Density = 2.110770 g / cm^3
# Si number density = 21.155852 Si / 1000 Ang^3
#
#
#
# Elastic Constant Matrix: (Units=GPa)
#
#
# Indices 1 2 3 4 5 6 
#
# 1 81.0229 51.0877 9.3610 0.0000 0.0000 0.0000
# 2 51.0877 92.1502 -5.1269 0.0000 0.0000 0.0000
# 3 9.3610 -5.1269 41.8940 0.0000 0.0000 0.0000
# 4 0.0000 0.0000 0.0000 39.0067 0.0000 0.0000
# 5 0.0000 0.0000 0.0000 0.0000 25.5440 0.0000
# 6 0.0000 0.0000 0.0000 0.0000 0.0000 40.3834
#
#
#
# Elastic Compliance Matrix: (Units=1/GPa)
#
#
# Indices 1 2 3 4 5 6 
#
# 1 0.020358 -0.011619 -0.005971 0.000000 0.000000 0.000000
# 2 -0.011619 0.017557 0.004745 0.000000 0.000000 0.000000
# 3 -0.005971 0.004745 0.025785 0.000000 0.000000 0.000000
# 4 0.000000 0.000000 0.000000 0.025637 0.000000 0.000000
# 5 0.000000 0.000000 0.000000 0.000000 0.039148 0.000000
# 6 0.000000 0.000000 0.000000 0.000000 0.000000 0.024763
#
#
# Mechanical properties :
#
#
# Convention : Reuss Voigt Hill
#
# Bulk Modulus (GPa) = 26.30856 36.19006 31.24931
# Shear Modulus (GPa) = 26.09519 31.63650 28.86584
#
# Velocity S-wave (km/s) = 3.51589 3.87124 3.69784
# Velocity P-wave (km/s) = 5.38002 6.09307 5.74761
#
# Compressibility (1/GPa) = 0.03801045
#
# Stress axis : x y z
#
# Youngs Moduli (GPa) = 49.12100 56.95706 38.78294
#
# Poissons Ratio (x) = 0.66176 0.23156
# Poissons Ratio (y) = 0.57071 -0.18401
# Poissons Ratio (z) = 0.29329 -0.27024
#
# Static dielectric constant tensor:
#      x y z
#    x 1.712080 0.000000 0.000000 
#    y 0.000000 1.741370 0.000000 
#    z 0.000000 0.000000 1.790960 
# 
# From -- ./inp_files/15729.got.cif
#   From: 2010.05.17/outbox.cif.g08.bks.cpg/sg36_8_cif.got.tgz:15729.got - 2010.06.03 17:41:39.
