data_PCOD9352314
_publ_section_title
;
Structure prediction by ZEFSAII (Michael W. Deem and Ramdas Pophale) SiO2 
 PCOD9352314
Probable space group: C M C 21
;
_chemical_formula_sum "Si O2"
_cell_formula_units_Z 48
_cell_length_a 25.506476
_cell_length_b 9.371597
_cell_length_c 8.198382
_cell_angle_alpha 90.000000
_cell_angle_beta 90.000000
_cell_angle_gamma 90.000000
_cell_volume 1959.711834
_symmetry_space_group_name_H-M "C M C 21"
_symmetry_group_IT_number 36
_symmetry_cell_setting 'orthorhombic'
loop_
_space_group_symop_operation_xyz
x,y,z
-x,-y,1/2+z
x,-y,1/2+z
-x,y,z
1/2+x,1/2+y,z
1/2-x,1/2-y,1/2+z
1/2+x,1/2-y,1/2+z
1/2-x,1/2+y,z
loop_
_atom_site_type_symbol
_atom_site_label
_atom_site_fract_x
_atom_site_fract_y
_atom_site_fract_z
Si Si1 0.278825 0.073945 0.035270
Si Si2 0.386388 0.829058 0.691342
Si Si3 0.279261 0.646093 0.348896
Si Si4 0.938970 0.815101 0.709094
Si Si5 0.886845 0.046080 0.507154
Si Si6 0.060715 0.531303 0.893742
O O1 0.233130 0.112055 0.163088
O O2 0.331925 0.102387 0.132979
O O3 0.280750 0.186910 0.887098
O O4 0.266738 0.921730 0.959524
O O5 0.384615 0.660872 0.656839
O O6 0.428658 0.891964 0.564111
O O7 0.403916 0.893341 0.862324
O O8 0.332231 0.571299 0.412455
O O9 0.930582 0.901928 0.878433
O O10 0.925326 0.653469 0.760028
O O11 0.000000 0.819664 0.660133
O O12 0.902171 0.893970 0.579370
O O13 0.000000 0.494545 0.880283
#
# Coordination Sequence:
#
# PCOD9352314 Si02
#       6
#     8   8   8   8   8   8
#     4  11  23  40  62  89 121 159 203 249 300 358
#     4  10  22  39  59  86 117 153 195 240 292 348
#     4  11  23  39  61  89 121 159 202 249 301 357
#     4  10  21  37  58  84 116 154 195 240 289 345
#     4  10  22  39  58  85 118 153 194 241 293 347
#     4  10  21  38  60  87 119 154 193 239 291 349
#
# _framework density 24.493397999999999
#
# number of rings (size 3 to 8) (size 9 to 14) (size 15 to 20)
#    0.000    1.667    0.000    4.000    0.000    8.667 
#    0.000    0.000    0.000    0.000    0.000    0.000 
#    0.000    0.000    0.000    0.000    0.000    0.000 
#
# Total GULP energy -134359.513596 kJ/mol
# GULP energy per Si atom -5598.313066 kJ/mol
# Density = 2.443765 g / cm^3
# Si number density = 24.493398 Si / 1000 Ang^3
#
#
#
# Elastic Constant Matrix: (Units=GPa)
#
#
# Indices 1 2 3 4 5 6 
#
# 1 63.4823 28.4212 -5.8209 0.0000 0.0000 0.0000
# 2 28.4212 73.8056 2.9600 0.0000 0.0000 0.0000
# 3 -5.8209 2.9600 45.3649 0.0000 0.0000 0.0000
# 4 0.0000 0.0000 0.0000 39.1459 0.0000 0.0000
# 5 0.0000 0.0000 0.0000 0.0000 36.6241 0.0000
# 6 0.0000 0.0000 0.0000 0.0000 0.0000 20.2478
#
#
#
# Elastic Compliance Matrix: (Units=1/GPa)
#
#
# Indices 1 2 3 4 5 6 
#
# 1 0.019430 -0.007602 0.002989 0.000000 0.000000 0.000000
# 2 -0.007602 0.016559 -0.002056 0.000000 0.000000 0.000000
# 3 0.002989 -0.002056 0.022561 0.000000 0.000000 0.000000
# 4 0.000000 0.000000 0.000000 0.025545 0.000000 0.000000
# 5 0.000000 0.000000 0.000000 0.000000 0.027304 0.000000
# 6 0.000000 0.000000 0.000000 0.000000 0.000000 0.049388
#
#
# Mechanical properties :
#
#
# Convention : Reuss Voigt Hill
#
# Bulk Modulus (GPa) = 22.11777 25.97484 24.04630
# Shear Modulus (GPa) = 26.42757 29.67639 28.05198
#
# Velocity S-wave (km/s) = 3.28833 3.48459 3.38788
# Velocity P-wave (km/s) = 4.84429 5.17858 5.01422
#
# Compressibility (1/GPa) = 0.04521252
#
# Stress axis : x y z
#
# Youngs Moduli (GPa) = 51.46689 60.39023 44.32398
#
# Poissons Ratio (x) = 0.45909 -0.13249
# Poissons Ratio (y) = 0.39125 0.09113
# Poissons Ratio (z) = -0.15384 0.12416
#
# Static dielectric constant tensor:
#      x y z
#    x 1.928820 0.000000 0.000000 
#    y 0.000000 1.927340 0.000000 
#    z 0.000000 0.000000 1.985640 
# 
# From -- ./inp_files/5983.got.cif
#   From: 2010.05.17/outbox.cif.g08.bks.cpg/sg36_3_cif.got.tgz:5983.got - 2010.06.03 17:41:39.
