data_PCOD9352805
_publ_section_title
;
Structure prediction by ZEFSAII (Michael W. Deem and Ramdas Pophale) SiO2 
 PCOD9352805
Probable space group: C M C 21
;
_chemical_formula_sum "Si O2"
_cell_formula_units_Z 64
_cell_length_a 17.187024
_cell_length_b 11.476538
_cell_length_c 15.968803
_cell_angle_alpha 90.000000
_cell_angle_beta 90.000000
_cell_angle_gamma 90.000000
_cell_volume 3149.807013
_symmetry_space_group_name_H-M "C M C 21"
_symmetry_group_IT_number 36
_symmetry_cell_setting 'orthorhombic'
loop_
_space_group_symop_operation_xyz
x,y,z
-x,-y,1/2+z
x,-y,1/2+z
-x,y,z
1/2+x,1/2+y,z
1/2-x,1/2-y,1/2+z
1/2+x,1/2-y,1/2+z
1/2-x,1/2+y,z
loop_
_atom_site_type_symbol
_atom_site_label
_atom_site_fract_x
_atom_site_fract_y
_atom_site_fract_z
Si Si1 0.591541 0.682815 0.978640
Si Si2 0.657142 0.192097 0.641859
Si Si3 0.590850 0.755339 0.318494
Si Si4 0.407154 0.123567 0.364281
Si Si5 0.092887 0.561373 0.175159
Si Si6 0.692294 0.064130 0.924564
Si Si7 0.348133 0.435868 0.936394
Si Si8 0.686256 0.762964 0.572313
O O1 0.500000 0.700445 0.983205
O O2 0.620547 0.750220 0.895180
O O3 0.608319 0.547490 0.972063
O O4 0.626863 0.747076 0.058075
O O5 0.613874 0.246885 0.721672
O O6 0.748716 0.220803 0.637683
O O7 0.637156 0.054914 0.645103
O O8 0.500000 0.792104 0.328243
O O9 0.652611 0.844203 0.361211
O O10 0.604842 0.633907 0.365828
O O11 0.500000 0.120211 0.362733
O O12 0.382560 0.087025 0.271231
O O13 0.375207 0.032088 0.432056
O O14 0.116077 0.673660 0.120405
O O15 0.000000 0.540788 0.172126
O O16 0.767342 0.988125 0.900258
O O17 0.714028 0.135813 0.007614
O O18 0.333251 0.345066 0.011882
#
# Coordination Sequence:
#
# PCOD9352805 Si02
#       8
#     8   8   8   8   8   8   8   8
#     4  11  23  42  67  92 136 183 220 271 338 411
#     4  12  24  43  70 101 135 170 233 286 340 402
#     4  11  25  44  71 102 134 177 229 283 340 401
#     4  10  22  41  68  99 131 171 226 284 336 396
#     4  11  24  44  71 102 135 175 232 288 341 399
#     4  11  22  42  69  94 130 174 225 280 332 400
#     4  11  25  44  65  98 140 178 225 269 336 418
#     4  11  25  42  67 102 135 176 224 281 339 405
#
# _framework density 20.318705000000001
#
# number of rings (size 3 to 8) (size 9 to 14) (size 15 to 20)
#    0.000    1.000    2.500    4.125    3.500    4.000 
#    2.250    0.000    0.000    0.000    0.000    0.000 
#    0.000    0.000    0.000    0.000    0.000    0.000 
#
# Total GULP energy -178678.721595 kJ/mol
# GULP energy per Si atom -5583.710050 kJ/mol
# Density = 2.027246 g / cm^3
# Si number density = 20.318705 Si / 1000 Ang^3
#
#
#
# Elastic Constant Matrix: (Units=GPa)
#
#
# Indices 1 2 3 4 5 6 
#
# 1 38.0610 17.1585 39.9426 0.0000 0.0000 0.0000
# 2 17.1585 119.3264 43.7477 0.0000 0.0000 0.0000
# 3 39.9426 43.7477 84.3854 0.0000 0.0000 0.0000
# 4 0.0000 0.0000 0.0000 22.7403 0.0000 0.0000
# 5 0.0000 0.0000 0.0000 0.0000 29.8795 0.0000
# 6 0.0000 0.0000 0.0000 0.0000 0.0000 34.9031
#
#
#
# Elastic Compliance Matrix: (Units=1/GPa)
#
#
# Indices 1 2 3 4 5 6 
#
# 1 0.052564 0.001930 -0.025881 0.000000 0.000000 0.000000
# 2 0.001930 0.010418 -0.006315 0.000000 0.000000 0.000000
# 3 -0.025881 -0.006315 0.027374 0.000000 0.000000 0.000000
# 4 0.000000 0.000000 0.000000 0.043975 0.000000 0.000000
# 5 0.000000 0.000000 0.000000 0.000000 0.033468 0.000000
# 6 0.000000 0.000000 0.000000 0.000000 0.000000 0.028651
#
#
# Mechanical properties :
#
#
# Convention : Reuss Voigt Hill
#
# Bulk Modulus (GPa) = 33.52837 49.27448 41.40142
# Shear Modulus (GPa) = 18.73203 26.89951 22.81577
#
# Velocity S-wave (km/s) = 3.03959 3.64246 3.35460
# Velocity P-wave (km/s) = 5.37177 6.48024 5.95186
#
# Compressibility (1/GPa) = 0.02982549
#
# Stress axis : x y z
#
# Youngs Moduli (GPa) = 19.02440 95.98889 36.53041
#
# Poissons Ratio (x) = -0.18527 0.94545
# Poissons Ratio (y) = -0.03672 0.23067
# Poissons Ratio (z) = 0.49237 0.60612
#
# Static dielectric constant tensor:
#      x y z
#    x 1.741440 0.000000 0.000000 
#    y 0.000000 1.719840 0.000000 
#    z 0.000000 0.000000 1.722960 
# 
# From -- ./inp_files/14709.got.cif
#   From: 2010.05.17/outbox.cif.g08.bks.cpg/sg36_8_cif.got.tgz:14709.got - 2010.06.03 17:41:39.
