data_PCOD9352190
_publ_section_title
;
Structure prediction by ZEFSAII (Michael W. Deem and Ramdas Pophale) SiO2 
 PCOD9352190
Probable space group: C M C 21
;
_chemical_formula_sum "Si O2"
_cell_formula_units_Z 64
_cell_length_a 7.613739
_cell_length_b 26.259684
_cell_length_c 14.798433
_cell_angle_alpha 90.000000
_cell_angle_beta 90.000000
_cell_angle_gamma 90.000000
_cell_volume 2958.715530
_symmetry_space_group_name_H-M "C M C 21"
_symmetry_group_IT_number 36
_symmetry_cell_setting 'orthorhombic'
loop_
_space_group_symop_operation_xyz
x,y,z
-x,-y,1/2+z
x,-y,1/2+z
-x,y,z
1/2+x,1/2+y,z
1/2-x,1/2-y,1/2+z
1/2+x,1/2-y,1/2+z
1/2-x,1/2+y,z
loop_
_atom_site_type_symbol
_atom_site_label
_atom_site_fract_x
_atom_site_fract_y
_atom_site_fract_z
Si Si1 0.715200 0.264844 0.179050
Si Si2 0.297568 0.330940 0.020170
Si Si3 0.215895 0.649185 0.187203
Si Si4 0.210488 0.605820 0.996236
Si Si5 0.296323 0.097924 0.365035
Si Si6 0.201940 0.928777 0.154069
Si Si7 0.788779 0.142284 0.803164
Si Si8 0.794379 0.507356 0.488558
O O1 0.500000 0.266196 0.177031
O O2 0.769737 0.207743 0.199857
O O3 0.772823 0.306539 0.252872
O O4 0.773021 0.284245 0.079527
O O5 0.500000 0.320639 0.996858
O O6 0.209007 0.352868 0.930998
O O7 0.294152 0.378087 0.091183
O O8 0.279873 0.613730 0.268948
O O9 0.000000 0.648902 0.189093
O O10 0.274485 0.629488 0.089723
O O11 0.246216 0.638871 0.907760
O O12 0.282641 0.548805 0.981381
O O13 0.000000 0.601793 0.005552
O O14 0.500000 0.085569 0.349227
O O15 0.217588 0.050609 0.421622
O O16 0.278116 0.907749 0.248186
O O17 0.000000 0.943912 0.168030
O O18 0.284603 0.971866 0.091420
O O19 0.000000 0.141144 0.792855
O O20 0.000000 0.503686 0.466509
#
# Coordination Sequence:
#
# PCOD9352190 Si02
#       8
#     8   8   8   8   8   8   8   8
#     4   8  15  30  51  71  93 124 157 191 238 291
#     4   8  14  27  48  71  92 114 147 192 236 279
#     4   9  18  32  48  67  94 128 162 193 232 288
#     4  10  21  34  48  70 100 132 164 198 239 287
#     4   9  17  30  48  69  93 123 161 198 231 276
#     4   8  15  29  49  71  93 120 156 194 234 283
#     4   9  18  33  52  73  96 125 162 201 242 289
#     4   9  18  31  48  72  99 126 157 197 242 279
#
# _framework density 21.631008000000001
#
# number of rings (size 3 to 8) (size 9 to 14) (size 15 to 20)
#    0.000    3.250    0.000    1.500    0.000    3.000 
#    0.000    5.000    0.000    1.500    0.000    0.000 
#    0.000    0.000    0.000    0.000    0.000    0.000 
#
# Total GULP energy -178373.130837 kJ/mol
# GULP energy per Si atom -5574.160339 kJ/mol
# Density = 2.158177 g / cm^3
# Si number density = 21.631008 Si / 1000 Ang^3
#
#
#
# Elastic Constant Matrix: (Units=GPa)
#
#
# Indices 1 2 3 4 5 6 
#
# 1 39.9820 5.7210 -0.7433 0.0000 0.0000 0.0000
# 2 5.7210 112.0594 65.8144 0.0000 0.0000 0.0000
# 3 -0.7433 65.8144 163.0630 0.0000 0.0000 0.0000
# 4 0.0000 0.0000 0.0000 17.6934 0.0000 0.0000
# 5 0.0000 0.0000 0.0000 0.0000 19.7766 0.0000
# 6 0.0000 0.0000 0.0000 0.0000 0.0000 -2.6527
#
#
#
# Elastic Compliance Matrix: (Units=1/GPa)
#
#
# Indices 1 2 3 4 5 6 
#
# 1 0.025282 -0.001780 0.000834 0.000000 0.000000 0.000000
# 2 -0.001780 0.011822 -0.004780 0.000000 0.000000 0.000000
# 3 0.000834 -0.004780 0.008066 0.000000 0.000000 0.000000
# 4 0.000000 0.000000 0.000000 0.056518 0.000000 0.000000
# 5 0.000000 0.000000 0.000000 0.000000 0.050565 0.000000
# 6 0.000000 0.000000 0.000000 0.000000 0.000000 -0.376980
#
#
# Mechanical properties :
#
#
# Convention : Reuss Voigt Hill
#
# Bulk Modulus (GPa) = 29.65899 50.74316 40.20108
# Shear Modulus (GPa) = -24.74790 23.25096 -0.74847
#
# Velocity S-wave (km/s) = -3.38611 3.28211 -0.58887
# Velocity P-wave (km/s) = 1.24362 6.15406 4.26180
#
# Compressibility (1/GPa) = 0.03371659
#
# Stress axis : x y z
#
# Youngs Moduli (GPa) = 39.55454 84.58897 123.98479
#
# Poissons Ratio (x) = 0.15061 -0.10339
# Poissons Ratio (y) = 0.07042 0.59260
# Poissons Ratio (z) = -0.03298 0.40430
#
# Static dielectric constant tensor:
#      x y z
#    x 1.810790 0.000000 0.000000 
#    y 0.000000 1.815640 0.000000 
#    z 0.000000 0.000000 1.787740 
# 
# From -- ./inp_files/8086.got.cif
#   From: 2010.05.17/outbox.cif.g08.bks.cpg/sg36_5_cif.got.tgz:8086.got - 2010.06.03 17:41:39.
