data_PCOD9352120
_publ_section_title
;
Structure prediction by ZEFSAII (Michael W. Deem and Ramdas Pophale) SiO2 
 PCOD9352120
Probable space group: C M C 21
;
_chemical_formula_sum "Si O2"
_cell_formula_units_Z 48
_cell_length_a 10.605280
_cell_length_b 24.226694
_cell_length_c 8.960987
_cell_angle_alpha 90.000000
_cell_angle_beta 90.000000
_cell_angle_gamma 90.000000
_cell_volume 2302.354216
_symmetry_space_group_name_H-M "C M C 21"
_symmetry_group_IT_number 36
_symmetry_cell_setting 'orthorhombic'
loop_
_space_group_symop_operation_xyz
x,y,z
-x,-y,1/2+z
x,-y,1/2+z
-x,y,z
1/2+x,1/2+y,z
1/2-x,1/2-y,1/2+z
1/2+x,1/2-y,1/2+z
1/2-x,1/2+y,z
loop_
_atom_site_type_symbol
_atom_site_label
_atom_site_fract_x
_atom_site_fract_y
_atom_site_fract_z
Si Si1 0.802923 0.978982 0.082400
Si Si2 0.174148 0.922447 0.776925
Si Si3 0.362928 0.704892 0.298453
Si Si4 0.649239 0.613375 0.829342
Si Si5 0.358036 0.925888 0.555479
Si Si6 0.356454 0.271895 0.149819
O O1 0.809923 0.934147 0.212291
O O2 0.868473 0.033277 0.152327
O O3 0.671362 0.008540 0.035556
O O4 0.852393 0.950232 0.934672
O O5 0.129001 0.860510 0.774218
O O6 0.321681 0.917381 0.729217
O O7 0.500000 0.729273 0.257148
O O8 0.342013 0.715114 0.474521
O O9 0.249990 0.730411 0.204787
O O10 0.500000 0.605651 0.870113
O O11 0.657107 0.671858 0.745379
O O12 0.753505 0.607663 0.959606
O O13 0.500000 0.911382 0.518009
O O14 0.500000 0.251308 0.172371
#
# Coordination Sequence:
#
# PCOD9352120 Si02
#       6
#     8   8   8   8   8   8
#     4  10  20  40  65  98 131 174 216 275 337 404
#     4  10  22  41  67 101 134 175 224 279 337 403
#     4  11  25  46  71 100 137 179 229 286 342 406
#     4  11  23  42  69 100 133 176 227 285 342 404
#     4  10  23  42  64  97 139 181 222 271 335 411
#     4  10  25  47  70  98 136 179 232 286 343 406
#
# _framework density 20.848226
#
# number of rings (size 3 to 8) (size 9 to 14) (size 15 to 20)
#    1.000    0.667    3.333    0.000    2.333    6.667 
#    0.000    0.000    0.000    0.000    0.000    0.000 
#    0.000    0.000    0.000    0.000    0.000    0.000 
#
# Total GULP energy -133660.556201 kJ/mol
# GULP energy per Si atom -5569.189842 kJ/mol
# Density = 2.080077 g / cm^3
# Si number density = 20.848226 Si / 1000 Ang^3
#
#
#
# Elastic Constant Matrix: (Units=GPa)
#
#
# Indices 1 2 3 4 5 6 
#
# 1 151.5215 55.3735 65.0716 0.0000 0.0000 0.0000
# 2 55.3735 108.4164 43.1456 0.0000 0.0000 0.0000
# 3 65.0716 43.1456 97.0324 0.0000 0.0000 0.0000
# 4 0.0000 0.0000 0.0000 41.1988 0.0000 0.0000
# 5 0.0000 0.0000 0.0000 0.0000 -18.1740 0.0000
# 6 0.0000 0.0000 0.0000 0.0000 0.0000 6.9051
#
#
#
# Elastic Compliance Matrix: (Units=1/GPa)
#
#
# Indices 1 2 3 4 5 6 
#
# 1 0.009995 -0.002962 -0.005386 0.000000 0.000000 0.000000
# 2 -0.002962 0.012084 -0.003387 0.000000 0.000000 0.000000
# 3 -0.005386 -0.003387 0.015424 0.000000 0.000000 0.000000
# 4 0.000000 0.000000 0.000000 0.024273 0.000000 0.000000
# 5 0.000000 0.000000 0.000000 0.000000 -0.055024 0.000000
# 6 0.000000 0.000000 0.000000 0.000000 0.000000 0.144820
#
#
# Mechanical properties :
#
#
# Convention : Reuss Voigt Hill
#
# Bulk Modulus (GPa) = 71.25700 76.01685 73.63692
# Shear Modulus (GPa) = 27.82113 18.87797 23.34955
#
# Velocity S-wave (km/s) = 3.65699 3.01241 3.35024
# Velocity P-wave (km/s) = 7.21696 6.97429 7.09666
#
# Compressibility (1/GPa) = 0.01403371
#
# Stress axis : x y z
#
# Youngs Moduli (GPa) = 100.04940 82.75205 64.83431
#
# Poissons Ratio (x) = 0.24507 0.34920
# Poissons Ratio (y) = 0.29630 0.21961
# Poissons Ratio (z) = 0.53887 0.28030
#
# Static dielectric constant tensor:
#      x y z
#    x 1.812930 0.000000 0.000000 
#    y 0.000000 1.741290 0.000000 
#    z 0.000000 0.000000 1.766420 
# 
# From -- ./inp_files/3316.got.cif
#   From: 2010.05.17/outbox.cif.g08.bks.cpg/sg36_2_cif.got.tgz:3316.got - 2010.06.03 17:41:39.
