data_PCOD9352952
_publ_section_title
;
Structure prediction by ZEFSAII (Michael W. Deem and Ramdas Pophale) SiO2 
 PCOD9352952
Probable space group: C M C 21
;
_chemical_formula_sum "Si O2"
_cell_formula_units_Z 56
_cell_length_a 21.720862
_cell_length_b 8.612291
_cell_length_c 15.057832
_cell_angle_alpha 90.000000
_cell_angle_beta 90.000000
_cell_angle_gamma 90.000000
_cell_volume 2816.814188
_symmetry_space_group_name_H-M "C M C 21"
_symmetry_group_IT_number 36
_symmetry_cell_setting 'orthorhombic'
loop_
_space_group_symop_operation_xyz
x,y,z
-x,-y,1/2+z
x,-y,1/2+z
-x,y,z
1/2+x,1/2+y,z
1/2-x,1/2-y,1/2+z
1/2+x,1/2-y,1/2+z
1/2-x,1/2+y,z
loop_
_atom_site_type_symbol
_atom_site_label
_atom_site_fract_x
_atom_site_fract_y
_atom_site_fract_z
Si Si1 0.929390 0.264477 0.099240
Si Si2 0.706854 0.669823 0.546361
Si Si3 0.677240 0.008210 0.122890
Si Si4 0.387836 0.550625 0.940605
Si Si5 0.430697 0.698791 0.305342
Si Si6 0.713864 0.774968 0.884460
Si Si7 0.182009 0.594879 0.819100
O O1 0.877479 0.397597 0.085294
O O2 0.918220 0.188632 0.198155
O O3 0.000000 0.323615 0.100288
O O4 0.922987 0.142038 0.018841
O O5 0.755667 0.564528 0.599836
O O6 0.658381 0.564806 0.493164
O O7 0.749298 0.756384 0.474382
O O8 0.674773 0.811392 0.597420
O O9 0.670136 0.991768 0.227717
O O10 0.424255 0.454142 0.865934
O O11 0.347035 0.674748 0.886549
O O12 0.500000 0.758676 0.314008
O O13 0.379464 0.814897 0.343269
O O14 0.762315 0.717810 0.810707
O O15 0.701533 0.957076 0.883468
#
# Coordination Sequence:
#
# PCOD9352952 Si02
#       7
#     8   8   8   8   8   8   8
#     4  10  23  43  63  88 124 165 210 254 298 358
#     4  12  21  37  60  90 125 154 195 249 310 368
#     4  11  22  38  62  89 121 160 202 252 309 363
#     4  12  23  38  68  88 127 162 202 250 314 360
#     4  10  23  43  63  88 124 165 210 254 298 358
#     4  12  21  37  60  90 125 154 195 249 310 368
#     4  11  22  38  62  89 121 160 202 252 309 363
#
# _framework density 19.880616
#
# number of rings (size 3 to 8) (size 9 to 14) (size 15 to 20)
#    0.000    0.857    5.714    1.286    0.000    4.571 
#    0.000    4.286    0.000    3.429    0.000    0.000 
#    0.000    0.000    0.000    0.000    0.000    0.000 
#
# Total GULP energy -156225.828476 kJ/mol
# GULP energy per Si atom -5579.493874 kJ/mol
# Density = 1.983537 g / cm^3
# Si number density = 19.880616 Si / 1000 Ang^3
#
#
#
# Elastic Constant Matrix: (Units=GPa)
#
#
# Indices 1 2 3 4 5 6 
#
# 1 105.6888 42.7373 18.7700 0.0000 0.0000 0.0000
# 2 42.7373 91.7564 12.3711 0.0000 0.0000 0.0000
# 3 18.7700 12.3711 25.0851 0.0000 0.0000 0.0000
# 4 0.0000 0.0000 0.0000 30.1711 0.0000 0.0000
# 5 0.0000 0.0000 0.0000 0.0000 27.2822 0.0000
# 6 0.0000 0.0000 0.0000 0.0000 0.0000 21.0545
#
#
#
# Elastic Compliance Matrix: (Units=1/GPa)
#
#
# Indices 1 2 3 4 5 6 
#
# 1 0.012730 -0.004976 -0.007071 0.000000 0.000000 0.000000
# 2 -0.004976 0.013620 -0.002994 0.000000 0.000000 0.000000
# 3 -0.007071 -0.002994 0.046632 0.000000 0.000000 0.000000
# 4 0.000000 0.000000 0.000000 0.033144 0.000000 0.000000
# 5 0.000000 0.000000 0.000000 0.000000 0.036654 0.000000
# 6 0.000000 0.000000 0.000000 0.000000 0.000000 0.047496
#
#
# Mechanical properties :
#
#
# Convention : Reuss Voigt Hill
#
# Bulk Modulus (GPa) = 23.31005 41.14300 32.22653
# Shear Modulus (GPa) = 21.30783 25.61169 23.45976
#
# Velocity S-wave (km/s) = 3.27737 3.59315 3.43889
# Velocity P-wave (km/s) = 5.10608 6.16070 5.65801
#
# Compressibility (1/GPa) = 0.04289994
#
# Stress axis : x y z
#
# Youngs Moduli (GPa) = 78.55733 73.42389 21.44469
#
# Poissons Ratio (x) = 0.36533 0.15164
# Poissons Ratio (y) = 0.39088 0.06420
# Poissons Ratio (z) = 0.55549 0.21980
#
# Static dielectric constant tensor:
#      x y z
#    x 1.713190 0.000000 0.000000 
#    y 0.000000 1.695830 0.000000 
#    z 0.000000 0.000000 1.769190 
# 
# From -- ./inp_files/12834.got.cif
#   From: 2010.05.17/outbox.cif.g08.bks.cpg/sg36_7_cif.got.tgz:12834.got - 2010.06.03 17:41:39.
