data_PCOD9352437
_publ_section_title
;
Structure prediction by ZEFSAII (Michael W. Deem and Ramdas Pophale) SiO2 
 PCOD9352437
Probable space group: C M C 21
;
_chemical_formula_sum "Si O2"
_cell_formula_units_Z 40
_cell_length_a 17.232938
_cell_length_b 9.281444
_cell_length_c 12.982272
_cell_angle_alpha 90.000000
_cell_angle_beta 90.000000
_cell_angle_gamma 90.000000
_cell_volume 2076.469605
_symmetry_space_group_name_H-M "C M C 21"
_symmetry_group_IT_number 36
_symmetry_cell_setting 'orthorhombic'
loop_
_space_group_symop_operation_xyz
x,y,z
-x,-y,1/2+z
x,-y,1/2+z
-x,y,z
1/2+x,1/2+y,z
1/2-x,1/2-y,1/2+z
1/2+x,1/2-y,1/2+z
1/2-x,1/2+y,z
loop_
_atom_site_type_symbol
_atom_site_label
_atom_site_fract_x
_atom_site_fract_y
_atom_site_fract_z
Si Si1 0.186641 0.510775 0.170010
Si Si2 0.187340 0.811059 0.054347
Si Si3 0.910522 0.247991 0.172291
Si Si4 0.410631 0.552606 0.980302
Si Si5 0.700320 0.593764 0.337162
O O1 0.178737 0.658154 0.107277
O O2 0.250658 0.408677 0.114986
O O3 0.109654 0.416064 0.174102
O O4 0.221760 0.545526 0.281767
O O5 0.213647 0.803081 0.935143
O O6 0.109179 0.907160 0.045645
O O7 0.853046 0.170872 0.252179
O O8 0.000000 0.219136 0.198150
O O9 0.895825 0.182856 0.058633
O O10 0.500000 0.554580 0.947391
O O11 0.350334 0.536419 0.886622
#
# Coordination Sequence:
#
# PCOD9352437 Si02
#       5
#     8   8   8   8   8
#     4  12  22  41  62  94 125 165 213 266 313 378
#     4  10  23  36  60  93 122 161 213 254 319 370
#     4  11  23  41  63  93 130 165 207 264 322 374
#     4   9  20  40  64  91 125 165 210 261 317 381
#     4  10  21  38  66  89 120 168 211 259 312 385
#
# _framework density 19.263465
#
# number of rings (size 3 to 8) (size 9 to 14) (size 15 to 20)
#    1.200    0.400    4.000    0.600    2.800    0.800 
#    0.000    0.000    0.000    0.000    0.000    0.000 
#    0.000    0.000    0.000    0.000    0.000    0.000 
#
# Total GULP energy -111517.842598 kJ/mol
# GULP energy per Si atom -5575.892130 kJ/mol
# Density = 1.921962 g / cm^3
# Si number density = 19.263465 Si / 1000 Ang^3
#
#
#
# Elastic Constant Matrix: (Units=GPa)
#
#
# Indices 1 2 3 4 5 6 
#
# 1 32.2297 17.1280 13.2336 0.0000 0.0000 0.0000
# 2 17.1280 87.6758 18.1777 0.0000 0.0000 0.0000
# 3 13.2336 18.1777 73.4094 0.0000 0.0000 0.0000
# 4 0.0000 0.0000 0.0000 14.6720 0.0000 0.0000
# 5 0.0000 0.0000 0.0000 0.0000 23.0641 0.0000
# 6 0.0000 0.0000 0.0000 0.0000 0.0000 27.9880
#
#
#
# Elastic Compliance Matrix: (Units=1/GPa)
#
#
# Indices 1 2 3 4 5 6 
#
# 1 0.036314 -0.006047 -0.005049 0.000000 0.000000 0.000000
# 2 -0.006047 0.013030 -0.002136 0.000000 0.000000 0.000000
# 3 -0.005049 -0.002136 0.015061 0.000000 0.000000 0.000000
# 4 0.000000 0.000000 0.000000 0.068157 0.000000 0.000000
# 5 0.000000 0.000000 0.000000 0.000000 0.043358 0.000000
# 6 0.000000 0.000000 0.000000 0.000000 0.000000 0.035730
#
#
# Mechanical properties :
#
#
# Convention : Reuss Voigt Hill
#
# Bulk Modulus (GPa) = 26.35722 32.26593 29.31157
# Shear Modulus (GPa) = 19.93921 22.79650 21.36786
#
# Velocity S-wave (km/s) = 3.22076 3.44380 3.33414
# Velocity P-wave (km/s) = 5.24816 5.70957 5.48372
#
# Compressibility (1/GPa) = 0.03794027
#
# Stress axis : x y z
#
# Youngs Moduli (GPa) = 27.53739 76.74612 66.39482
#
# Poissons Ratio (x) = 0.46412 0.33523
# Poissons Ratio (y) = 0.16653 0.14184
# Poissons Ratio (z) = 0.13904 0.16395
#
# Static dielectric constant tensor:
#      x y z
#    x 1.665680 0.000000 0.000000 
#    y 0.000000 1.683100 0.000000 
#    z 0.000000 0.000000 1.684740 
# 
# From -- ./inp_files/9162.got.cif
#   From: 2010.05.17/outbox.cif.g08.bks.cpg/sg36_5_cif.got.tgz:9162.got - 2010.06.03 17:41:39.
