data_PCOD9352145
_publ_section_title
;
Structure prediction by ZEFSAII (Michael W. Deem and Ramdas Pophale) SiO2 
 PCOD9352145
Probable space group: C M C 21
;
_chemical_formula_sum "Si O2"
_cell_formula_units_Z 56
_cell_length_a 20.118293
_cell_length_b 10.204199
_cell_length_c 12.802130
_cell_angle_alpha 90.000000
_cell_angle_beta 90.000000
_cell_angle_gamma 90.000000
_cell_volume 2628.162906
_symmetry_space_group_name_H-M "C M C 21"
_symmetry_group_IT_number 36
_symmetry_cell_setting 'orthorhombic'
loop_
_space_group_symop_operation_xyz
x,y,z
-x,-y,1/2+z
x,-y,1/2+z
-x,y,z
1/2+x,1/2+y,z
1/2-x,1/2-y,1/2+z
1/2+x,1/2-y,1/2+z
1/2-x,1/2+y,z
loop_
_atom_site_type_symbol
_atom_site_label
_atom_site_fract_x
_atom_site_fract_y
_atom_site_fract_z
Si Si1 0.318507 0.215071 0.587440
Si Si2 0.728287 0.011385 0.416564
Si Si3 0.883619 0.604619 0.267902
Si Si4 0.074048 0.676299 0.764312
Si Si5 0.178485 0.699026 0.065116
Si Si6 0.073676 0.821121 0.427922
Si Si7 0.875885 0.900384 0.919446
O O1 0.291442 0.094442 0.519323
O O2 0.366475 0.180366 0.681288
O O3 0.249856 0.282909 0.621397
O O4 0.366796 0.293278 0.509121
O O5 0.685642 0.067665 0.322619
O O6 0.804630 0.035484 0.388480
O O7 0.702996 0.869313 0.455972
O O8 0.926667 0.476684 0.296434
O O9 0.870544 0.625873 0.144935
O O10 0.910613 0.735032 0.324689
O O11 0.094259 0.783274 0.850270
O O12 0.000000 0.708501 0.724736
O O13 0.141675 0.832269 0.030319
O O14 0.000000 0.781077 0.464969
O O15 0.075594 0.976715 0.414110
#
# Coordination Sequence:
#
# PCOD9352145 Si02
#       7
#     8   8   8   8   8   8   8
#     4  10  22  39  66  95 124 168 215 273 329 387
#     4  10  20  41  66  96 130 162 212 280 341 385
#     4  11  24  41  68  98 132 171 220 279 333 390
#     4  12  24  41  63  96 133 177 225 267 319 397
#     4  11  21  42  69 102 130 163 225 284 338 389
#     4  11  24  45  63  90 134 180 217 261 328 405
#     4  11  24  41  67  95 132 173 218 274 336 389
#
# _framework density 21.307661
#
# number of rings (size 3 to 8) (size 9 to 14) (size 15 to 20)
#    0.000    1.143    4.286    2.143    0.000    2.286 
#    0.000    5.714    0.000    0.000    0.000    0.000 
#    0.000    0.000    0.000    0.000    0.000    0.000 
#
# Total GULP energy -156080.021726 kJ/mol
# GULP energy per Si atom -5574.286490 kJ/mol
# Density = 2.125916 g / cm^3
# Si number density = 21.307661 Si / 1000 Ang^3
#
#
#
# Elastic Constant Matrix: (Units=GPa)
#
#
# Indices 1 2 3 4 5 6 
#
# 1 105.4692 30.6122 11.6631 0.0000 0.0000 0.0000
# 2 30.6122 110.5070 24.7808 0.0000 0.0000 0.0000
# 3 11.6631 24.7808 46.5157 0.0000 0.0000 0.0000
# 4 0.0000 0.0000 0.0000 23.6719 0.0000 0.0000
# 5 0.0000 0.0000 0.0000 0.0000 3.7036 0.0000
# 6 0.0000 0.0000 0.0000 0.0000 0.0000 12.8675
#
#
#
# Elastic Compliance Matrix: (Units=1/GPa)
#
#
# Indices 1 2 3 4 5 6 
#
# 1 0.010371 -0.002600 -0.001215 0.000000 0.000000 0.000000
# 2 -0.002600 0.010929 -0.005170 0.000000 0.000000 0.000000
# 3 -0.001215 -0.005170 0.024557 0.000000 0.000000 0.000000
# 4 0.000000 0.000000 0.000000 0.042244 0.000000 0.000000
# 5 0.000000 0.000000 0.000000 0.000000 0.270009 0.000000
# 6 0.000000 0.000000 0.000000 0.000000 0.000000 0.077715
#
#
# Mechanical properties :
#
#
# Convention : Reuss Voigt Hill
#
# Bulk Modulus (GPa) = 35.86097 44.06713 39.96405
# Shear Modulus (GPa) = 10.79701 21.07766 15.93734
#
# Velocity S-wave (km/s) = 2.25349 3.14858 2.73786
# Velocity P-wave (km/s) = 4.86185 5.82617 5.36572
#
# Compressibility (1/GPa) = 0.02788547
#
# Stress axis : x y z
#
# Youngs Moduli (GPa) = 96.42693 91.49995 40.72130
#
# Poissons Ratio (x) = 0.23793 0.04947
# Poissons Ratio (y) = 0.25075 0.21054
# Poissons Ratio (z) = 0.11715 0.47308
#
# Static dielectric constant tensor:
#      x y z
#    x 1.759040 0.000000 0.000000 
#    y 0.000000 1.868930 0.000000 
#    z 0.000000 0.000000 1.758920 
# 
# From -- ./inp_files/12849.got.cif
#   From: 2010.05.17/outbox.cif.g08.bks.cpg/sg36_7_cif.got.tgz:12849.got - 2010.06.03 17:41:39.
