data_PCOD9352725
_publ_section_title
;
Structure prediction by ZEFSAII (Michael W. Deem and Ramdas Pophale) SiO2 
 PCOD9352725
Probable space group: C M C 21
;
_chemical_formula_sum "Si O2"
_cell_formula_units_Z 64
_cell_length_a 8.688843
_cell_length_b 15.869649
_cell_length_c 24.418199
_cell_angle_alpha 90.000000
_cell_angle_beta 90.000000
_cell_angle_gamma 90.000000
_cell_volume 3366.998322
_symmetry_space_group_name_H-M "C M C 21"
_symmetry_group_IT_number 36
_symmetry_cell_setting 'orthorhombic'
loop_
_space_group_symop_operation_xyz
x,y,z
-x,-y,1/2+z
x,-y,1/2+z
-x,y,z
1/2+x,1/2+y,z
1/2-x,1/2-y,1/2+z
1/2+x,1/2-y,1/2+z
1/2-x,1/2+y,z
loop_
_atom_site_type_symbol
_atom_site_label
_atom_site_fract_x
_atom_site_fract_y
_atom_site_fract_z
Si Si1 0.316021 0.844601 0.859690
Si Si2 0.682976 0.909619 0.475161
Si Si3 0.685392 0.655114 0.087880
Si Si4 0.685903 0.496446 0.788237
Si Si5 0.316021 0.155399 0.590630
Si Si6 0.314097 0.496445 0.162084
Si Si7 0.685392 0.344886 0.362442
Si Si8 0.816298 0.098173 0.475160
O O1 0.500000 0.852837 0.862011
O O2 0.277359 0.749107 0.842380
O O3 0.249541 0.860189 0.920284
O O4 0.250024 0.915391 0.819631
O O5 0.500000 0.920746 0.475161
O O6 0.736352 0.861707 0.529598
O O7 0.736352 0.861706 0.420725
O O8 0.763712 0.000844 0.475161
O O9 0.500000 0.650373 0.080544
O O10 0.722639 0.749108 0.107941
O O11 0.731418 0.580912 0.129325
O O12 0.500000 0.492044 0.789319
O O13 0.735892 0.500002 0.725161
O O14 0.731419 0.580911 0.820997
O O15 0.500000 0.147162 0.588306
O O16 0.249536 0.139812 0.530036
O O17 0.250026 0.084608 0.630688
O O18 0.500000 0.492043 0.161001
O O19 0.500000 0.349627 0.369778
O O20 0.000000 0.102899 0.475159
#
# Coordination Sequence:
#
# PCOD9352725 Si02
#       8
#     8   8   8   8   8   8   8   8
#     4  11  23  39  61  91 122 157 201 248 300 354
#     4  12  23  36  61  94 122 154 199 245 292 361
#     4  10  22  40  61  87 124 162 194 243 305 356
#     4  10  22  41  63  86 117 163 210 249 298 358
#     4  11  23  39  61  91 122 157 201 248 300 354
#     4  10  22  41  63  86 117 163 210 249 298 358
#     4  10  22  40  61  87 124 162 194 243 305 356
#     4  12  23  38  61  88 122 160 193 241 306 361
#
# _framework density 19.008029000000001
#
# number of rings (size 3 to 8) (size 9 to 14) (size 15 to 20)
#    0.000    1.250    2.500    3.750    0.000    6.500 
#    0.000    0.000    0.000    0.000    0.000    0.000 
#    0.000    0.000    0.000    0.000    0.000    0.000 
#
# Total GULP energy -178930.178438 kJ/mol
# GULP energy per Si atom -5591.568076 kJ/mol
# Density = 1.896477 g / cm^3
# Si number density = 19.008029 Si / 1000 Ang^3
#
#
#
# Elastic Constant Matrix: (Units=GPa)
#
#
# Indices 1 2 3 4 5 6 
#
# 1 34.1042 48.6004 43.6783 0.0000 0.0000 0.0000
# 2 48.6004 183.6135 94.6614 0.0000 0.0000 0.0000
# 3 43.6783 94.6614 169.7038 0.0000 0.0000 0.0000
# 4 0.0000 0.0000 0.0000 -2.1360 0.0000 0.0000
# 5 0.0000 0.0000 0.0000 0.0000 -30.7855 0.0000
# 6 0.0000 0.0000 0.0000 0.0000 0.0000 27.8812
#
#
#
# Elastic Compliance Matrix: (Units=1/GPa)
#
#
# Indices 1 2 3 4 5 6 
#
# 1 0.054431 -0.010085 -0.008384 0.000000 0.000000 0.000000
# 2 -0.010085 0.009513 -0.002711 0.000000 0.000000 0.000000
# 3 -0.008384 -0.002711 0.009563 0.000000 0.000000 0.000000
# 4 0.000000 0.000000 0.000000 -0.468172 0.000000 0.000000
# 5 0.000000 0.000000 0.000000 0.000000 -0.032483 0.000000
# 6 0.000000 0.000000 0.000000 0.000000 0.000000 0.035866
#
#
# Mechanical properties :
#
#
# Convention : Reuss Voigt Hill
#
# Bulk Modulus (GPa) = 32.10542 84.58908 58.34725
# Shear Modulus (GPa) = -14.76933 12.35737 -1.20598
#
# Velocity S-wave (km/s) = -2.79050 2.55250 -0.79739
# Velocity P-wave (km/s) = 2.55823 7.29968 5.46946
#
# Compressibility (1/GPa) = 0.03114739
#
# Stress axis : x y z
#
# Youngs Moduli (GPa) = 18.37176 105.11773 104.57398
#
# Poissons Ratio (x) = 1.06011 0.87676
# Poissons Ratio (y) = 0.18528 0.28348
# Poissons Ratio (z) = 0.15403 0.28495
#
# Static dielectric constant tensor:
#      x y z
#    x 1.638600 0.000000 0.000000 
#    y 0.000000 1.662590 0.000000 
#    z 0.000000 0.000000 1.626390 
# 
# From -- ./inp_files/16642.got.cif
#   From: 2010.05.17/outbox.cif.g08.bks.cpg/sg36_9_cif.got.tgz:16642.got - 2010.06.03 17:41:39.
