data_PCOD9352151
_publ_section_title
;
Structure prediction by ZEFSAII (Michael W. Deem and Ramdas Pophale) SiO2 
 PCOD9352151
Probable space group: C M C 21
;
_chemical_formula_sum "Si O2"
_cell_formula_units_Z 56
_cell_length_a 31.360029
_cell_length_b 5.630428
_cell_length_c 12.914288
_cell_angle_alpha 90.000000
_cell_angle_beta 90.000000
_cell_angle_gamma 90.000000
_cell_volume 2280.280809
_symmetry_space_group_name_H-M "C M C 21"
_symmetry_group_IT_number 36
_symmetry_cell_setting 'orthorhombic'
loop_
_space_group_symop_operation_xyz
x,y,z
-x,-y,1/2+z
x,-y,1/2+z
-x,y,z
1/2+x,1/2+y,z
1/2-x,1/2-y,1/2+z
1/2+x,1/2-y,1/2+z
1/2-x,1/2+y,z
loop_
_atom_site_type_symbol
_atom_site_label
_atom_site_fract_x
_atom_site_fract_y
_atom_site_fract_z
Si Si1 0.000000 0.944530 0.232661
Si Si2 0.853491 0.735682 0.241691
Si Si3 0.000000 0.443635 0.362624
Si Si4 0.353275 0.082078 0.557471
Si Si5 0.411864 0.608887 0.173875
Si Si6 0.735898 0.394332 0.297538
Si Si7 0.265639 0.346766 0.532682
Si Si8 0.405211 0.916131 0.382298
O O1 0.000000 0.186926 0.303252
O O2 0.957222 0.982716 0.166558
O O3 0.000000 0.686401 0.290467
O O4 0.838502 0.524743 0.167469
O O5 0.814187 0.849508 0.298136
O O6 0.889671 0.650242 0.320544
O O7 0.875237 0.917183 0.165274
O O8 0.954134 0.443212 0.419053
O O9 0.398615 0.202821 0.587554
O O10 0.314403 0.253965 0.528022
O O11 0.368096 0.898344 0.468238
O O12 0.406535 0.722159 0.289479
O O13 0.743647 0.654422 0.253015
O O14 0.752174 0.393155 0.416059
O O15 0.261164 0.617604 0.574210
#
# Coordination Sequence:
#
# PCOD9352151 Si02
#       8
#     4   8   4   8   8   8   8   8
#     4  10  20  43  69  96 137 174 226 276 334 399
#     4  11  23  41  66  96 132 175 225 279 340 400
#     4  10  20  41  71  98 127 186 222 266 342 399
#     4  11  25  41  65 103 134 177 226 284 339 410
#     4  10  24  41  68 100 131 184 222 281 344 403
#     4  10  23  41  67  94 127 176 225 276 338 405
#     4  10  23  42  64  94 132 177 223 278 339 402
#     4  10  22  43  67  94 137 175 227 275 336 408
#
# _framework density 24.558382000000002
#
# number of rings (size 3 to 8) (size 9 to 14) (size 15 to 20)
#    0.000    1.714    2.857    0.000    6.000    4.000 
#    0.000    1.429    0.000    0.000    0.000    0.000 
#    0.000    0.000    0.000    0.000    0.000    0.000 
#
# Total GULP energy -156194.559343 kJ/mol
# GULP energy per Si atom -5578.377119 kJ/mol
# Density = 2.450249 g / cm^3
# Si number density = 24.558382 Si / 1000 Ang^3
#
#
#
# Elastic Constant Matrix: (Units=GPa)
#
#
# Indices 1 2 3 4 5 6 
#
# 1 122.8244 29.5194 15.4663 0.0000 0.0000 0.0000
# 2 29.5194 113.3690 20.1107 0.0000 0.0000 0.0000
# 3 15.4663 20.1107 55.1369 0.0000 0.0000 0.0000
# 4 0.0000 0.0000 0.0000 27.0952 0.0000 0.0000
# 5 0.0000 0.0000 0.0000 0.0000 19.2246 0.0000
# 6 0.0000 0.0000 0.0000 0.0000 0.0000 35.5170
#
#
#
# Elastic Compliance Matrix: (Units=1/GPa)
#
#
# Indices 1 2 3 4 5 6 
#
# 1 0.008841 -0.001991 -0.001754 0.000000 0.000000 0.000000
# 2 -0.001991 0.009879 -0.003045 0.000000 0.000000 0.000000
# 3 -0.001754 -0.003045 0.019739 0.000000 0.000000 0.000000
# 4 0.000000 0.000000 0.000000 0.036907 0.000000 0.000000
# 5 0.000000 0.000000 0.000000 0.000000 0.052017 0.000000
# 6 0.000000 0.000000 0.000000 0.000000 0.000000 0.028156
#
#
# Mechanical properties :
#
#
# Convention : Reuss Voigt Hill
#
# Bulk Modulus (GPa) = 40.19251 46.83592 43.51422
# Shear Modulus (GPa) = 28.18306 31.44961 29.81633
#
# Velocity S-wave (km/s) = 3.39129 3.58244 3.48817
# Velocity P-wave (km/s) = 5.63348 6.01868 5.82926
#
# Compressibility (1/GPa) = 0.02488026
#
# Stress axis : x y z
#
# Youngs Moduli (GPa) = 113.10877 101.22166 50.66050
#
# Poissons Ratio (x) = 0.20153 0.08885
# Poissons Ratio (y) = 0.22519 0.15426
# Poissons Ratio (z) = 0.19837 0.30821
#
# Static dielectric constant tensor:
#      x y z
#    x 1.914520 0.000000 0.000000 
#    y 0.000000 2.060160 0.000000 
#    z 0.000000 0.000000 2.018310 
# 
# From -- ./inp_files/13179.got.cif
#   From: 2010.05.17/outbox.cif.g08.bks.cpg/sg36_7_cif.got.tgz:13179.got - 2010.06.03 17:41:39.
