data_PCOD9352863
_publ_section_title
;
Structure prediction by ZEFSAII (Michael W. Deem and Ramdas Pophale) SiO2 
 PCOD9352863
Probable space group: C M C 21
;
_chemical_formula_sum "Si O2"
_cell_formula_units_Z 40
_cell_length_a 8.384025
_cell_length_b 14.255916
_cell_length_c 11.790472
_cell_angle_alpha 90.000000
_cell_angle_beta 90.000000
_cell_angle_gamma 90.000000
_cell_volume 1409.220277
_symmetry_space_group_name_H-M "C M C 21"
_symmetry_group_IT_number 36
_symmetry_cell_setting 'orthorhombic'
loop_
_space_group_symop_operation_xyz
x,y,z
-x,-y,1/2+z
x,-y,1/2+z
-x,y,z
1/2+x,1/2+y,z
1/2-x,1/2-y,1/2+z
1/2+x,1/2-y,1/2+z
1/2-x,1/2+y,z
loop_
_atom_site_type_symbol
_atom_site_label
_atom_site_fract_x
_atom_site_fract_y
_atom_site_fract_z
Si Si1 0.816987 0.395623 0.084420
Si Si2 0.000000 0.990976 0.646025
Si Si3 0.000000 0.894992 0.383657
Si Si4 0.183755 0.294264 0.649143
Si Si5 0.670941 0.146147 0.893373
Si Si6 0.817466 0.427117 0.830709
O O1 0.670348 0.458241 0.125142
O O2 0.796733 0.295323 0.140916
O O3 0.000000 0.431543 0.098107
O O4 0.785220 0.381698 0.951445
O O5 0.000000 0.015818 0.792743
O O6 0.000000 0.928830 0.518876
O O7 0.848981 0.826871 0.361423
O O8 0.172279 0.345651 0.528344
O O9 0.268338 0.369038 0.732974
O O10 0.000000 0.260580 0.664409
O O11 0.500000 0.185490 0.856123
O O12 0.678730 0.037417 0.855156
O O13 0.000000 0.407761 0.796572
#
# Coordination Sequence:
#
# PCOD9352863 Si02
#       6
#     8   4   4   8   8   8
#     4  11  24  47  72 102 147 194 240 301 371 433
#     4  12  28  50  74 112 150 188 244 306 364 442
#     4  12  28  44  76 110 148 186 250 300 364 438
#     4  10  22  43  73 104 144 193 247 301 365 439
#     4  10  23  43  68 105 142 186 236 300 361 427
#     4   9  20  41  69  98 142 189 235 302 366 431
#
# _framework density 28.384491000000001
#
# number of rings (size 3 to 8) (size 9 to 14) (size 15 to 20)
#    0.000    1.600    3.000    0.000    4.200    2.400 
#    3.600    2.000    0.000    0.000    0.000    0.000 
#    0.000    0.000    0.000    0.000    0.000    0.000 
#
# Total GULP energy -111576.259502 kJ/mol
# GULP energy per Si atom -5578.812975 kJ/mol
# Density = 2.831989 g / cm^3
# Si number density = 28.384491 Si / 1000 Ang^3
#
#
#
# Elastic Constant Matrix: (Units=GPa)
#
#
# Indices 1 2 3 4 5 6 
#
# 1 185.1004 23.7970 40.1870 0.0000 0.0000 0.0000
# 2 23.7970 52.1248 0.9932 0.0000 0.0000 0.0000
# 3 40.1870 0.9932 154.3572 0.0000 0.0000 0.0000
# 4 0.0000 0.0000 0.0000 44.3915 0.0000 0.0000
# 5 0.0000 0.0000 0.0000 0.0000 33.3713 0.0000
# 6 0.0000 0.0000 0.0000 0.0000 0.0000 14.6216
#
#
#
# Elastic Compliance Matrix: (Units=1/GPa)
#
#
# Indices 1 2 3 4 5 6 
#
# 1 0.006097 -0.002754 -0.001570 0.000000 0.000000 0.000000
# 2 -0.002754 0.020431 0.000585 0.000000 0.000000 0.000000
# 3 -0.001570 0.000585 0.006883 0.000000 0.000000 0.000000
# 4 0.000000 0.000000 0.000000 0.022527 0.000000 0.000000
# 5 0.000000 0.000000 0.000000 0.000000 0.029966 0.000000
# 6 0.000000 0.000000 0.000000 0.000000 0.000000 0.068392
#
#
# Mechanical properties :
#
#
# Convention : Reuss Voigt Hill
#
# Bulk Modulus (GPa) = 38.55722 57.94854 48.25288
# Shear Modulus (GPa) = 29.33974 40.25056 34.79515
#
# Velocity S-wave (km/s) = 3.21854 3.76978 3.50501
# Velocity P-wave (km/s) = 5.23692 6.27760 5.78073
#
# Compressibility (1/GPa) = 0.02593548
#
# Stress axis : x y z
#
# Youngs Moduli (GPa) = 164.00694 48.94580 145.27728
#
# Poissons Ratio (x) = 0.13478 0.22804
# Poissons Ratio (y) = 0.45163 -0.08506
# Poissons Ratio (z) = 0.25744 -0.02866
#
# Static dielectric constant tensor:
#      x y z
#    x 2.242250 0.000000 0.000000 
#    y 0.000000 2.233090 0.000000 
#    z 0.000000 0.000000 2.420760 
# 
# From -- ./inp_files/6525.got.cif
#   From: 2010.05.17/outbox.cif.g08.bks.cpg/sg36_4_cif.got.tgz:6525.got - 2010.06.03 17:41:39.
