data_PCOD9352417
_publ_section_title
;
Structure prediction by ZEFSAII (Michael W. Deem and Ramdas Pophale) SiO2 
 PCOD9352417
Probable space group: C M C 21
;
_chemical_formula_sum "Si O2"
_cell_formula_units_Z 56
_cell_length_a 21.864699
_cell_length_b 25.653823
_cell_length_c 5.100363
_cell_angle_alpha 90.000000
_cell_angle_beta 90.000000
_cell_angle_gamma 90.000000
_cell_volume 2860.860514
_symmetry_space_group_name_H-M "C M C 21"
_symmetry_group_IT_number 36
_symmetry_cell_setting 'orthorhombic'
loop_
_space_group_symop_operation_xyz
x,y,z
-x,-y,1/2+z
x,-y,1/2+z
-x,y,z
1/2+x,1/2+y,z
1/2-x,1/2-y,1/2+z
1/2+x,1/2-y,1/2+z
1/2-x,1/2+y,z
loop_
_atom_site_type_symbol
_atom_site_label
_atom_site_fract_x
_atom_site_fract_y
_atom_site_fract_z
Si Si1 0.071378 0.646403 0.660420
Si Si2 0.622370 0.805776 0.660846
Si Si3 0.571556 0.694960 0.813989
Si Si4 0.623904 0.645306 0.325287
Si Si5 0.071566 0.036382 0.194305
Si Si6 0.747366 0.287250 0.820781
Si Si7 0.574441 0.029718 0.609292
O O1 0.080104 0.661696 0.358444
O O2 0.093329 0.587236 0.691894
O O3 0.000000 0.650205 0.728552
O O4 0.107598 0.682911 0.860123
O O5 0.608901 0.745930 0.728926
O O6 0.691750 0.817630 0.735970
O O7 0.500000 0.705764 0.786882
O O8 0.592671 0.651034 0.609308
O O9 0.586846 0.678463 0.108355
O O10 0.616164 0.585470 0.236963
O O11 0.690263 0.673216 0.335188
O O12 0.000000 0.054768 0.207609
O O13 0.079947 0.993347 0.420730
O O14 0.740504 0.243171 0.593621
O O15 0.500000 0.030699 0.606401
O O16 0.594238 0.012556 0.322081
#
# Coordination Sequence:
#
# PCOD9352417 Si02
#       7
#     8   8   8   8   8   8   8
#     4  11  22  36  56  85 119 152 192 245 314 367
#     4  12  23  38  57  85 122 159 197 243 299 354
#     4  12  23  36  59  92 127 157 195 247 303 371
#     4  12  23  41  64  89 122 168 207 251 304 365
#     4  10  21  38  62  93 126 157 200 257 316 376
#     4  12  23  44  62  84 118 162 215 251 281 358
#     4   9  17  31  52  76 104 143 189 234 283 349
#
# _framework density 19.574528000000001
#
# number of rings (size 3 to 8) (size 9 to 14) (size 15 to 20)
#    0.000    0.857    2.857    6.000    0.000    3.429 
#    0.000    0.000    0.000    5.143    0.000    0.000 
#    0.000    0.000    0.000    0.000    0.000    0.000 
#
# Total GULP energy -156471.036887 kJ/mol
# GULP energy per Si atom -5588.251317 kJ/mol
# Density = 1.952998 g / cm^3
# Si number density = 19.574528 Si / 1000 Ang^3
#
#
#
# Elastic Constant Matrix: (Units=GPa)
#
#
# Indices 1 2 3 4 5 6 
#
# 1 79.1119 11.0713 -1.0663 0.0000 0.0000 0.0000
# 2 11.0713 64.3812 -11.0461 0.0000 0.0000 0.0000
# 3 -1.0663 -11.0461 58.0250 0.0000 0.0000 0.0000
# 4 0.0000 0.0000 0.0000 28.4505 0.0000 0.0000
# 5 0.0000 0.0000 0.0000 0.0000 22.0962 0.0000
# 6 0.0000 0.0000 0.0000 0.0000 0.0000 21.6036
#
#
#
# Elastic Compliance Matrix: (Units=1/GPa)
#
#
# Indices 1 2 3 4 5 6 
#
# 1 0.012954 -0.002261 -0.000192 0.000000 0.000000 0.000000
# 2 -0.002261 0.016451 0.003090 0.000000 0.000000 0.000000
# 3 -0.000192 0.003090 0.017819 0.000000 0.000000 0.000000
# 4 0.000000 0.000000 0.000000 0.035149 0.000000 0.000000
# 5 0.000000 0.000000 0.000000 0.000000 0.045257 0.000000
# 6 0.000000 0.000000 0.000000 0.000000 0.000000 0.046289
#
#
# Mechanical properties :
#
#
# Convention : Reuss Voigt Hill
#
# Bulk Modulus (GPa) = 20.61900 22.15954 21.38927
# Shear Modulus (GPa) = 26.48165 27.93399 27.20782
#
# Velocity S-wave (km/s) = 3.68212 3.78174 3.73226
# Velocity P-wave (km/s) = 5.35105 5.51488 5.43359
#
# Compressibility (1/GPa) = 0.04849896
#
# Stress axis : x y z
#
# Youngs Moduli (GPa) = 77.19564 60.78489 56.12075
#
# Poissons Ratio (x) = 0.13741 0.01079
# Poissons Ratio (y) = 0.17451 -0.17343
# Poissons Ratio (z) = 0.01485 -0.18784
#
# Static dielectric constant tensor:
#      x y z
#    x 1.681130 0.000000 0.000000 
#    y 0.000000 1.694380 0.000000 
#    z 0.000000 0.000000 1.680280 
# 
# From -- ./inp_files/1406.got.cif
#   From: 2010.05.17/outbox.cif.g08.bks.cpg/sg36_1_cif.got.tgz:1406.got - 2010.06.03 17:41:39.
