data_PCOD9352834
_publ_section_title
;
Structure prediction by ZEFSAII (Michael W. Deem and Ramdas Pophale) SiO2 
 PCOD9352834
Probable space group: C M C 21
;
_chemical_formula_sum "Si O2"
_cell_formula_units_Z 36
_cell_length_a 12.357349
_cell_length_b 24.843939
_cell_length_c 5.030213
_cell_angle_alpha 90.000000
_cell_angle_beta 90.000000
_cell_angle_gamma 90.000000
_cell_volume 1544.301673
_symmetry_space_group_name_H-M "C M C 21"
_symmetry_group_IT_number 36
_symmetry_cell_setting 'orthorhombic'
loop_
_space_group_symop_operation_xyz
x,y,z
-x,-y,1/2+z
x,-y,1/2+z
-x,y,z
1/2+x,1/2+y,z
1/2-x,1/2-y,1/2+z
1/2+x,1/2-y,1/2+z
1/2-x,1/2+y,z
loop_
_atom_site_type_symbol
_atom_site_label
_atom_site_fract_x
_atom_site_fract_y
_atom_site_fract_z
Si Si1 0.500000 0.160324 0.461661
Si Si2 0.500000 0.909809 0.460136
Si Si3 0.769904 0.537512 0.867112
Si Si4 0.270101 0.784675 0.867677
Si Si5 0.621720 0.379291 0.639430
Si Si6 0.500000 0.537795 0.460749
O O1 0.500000 0.142154 0.767794
O O2 0.609467 0.192185 0.399114
O O3 0.500000 0.108575 0.266390
O O4 0.607440 0.942255 0.391976
O O5 0.752635 0.493583 0.095908
O O6 0.693345 0.588423 0.927262
O O7 0.268769 0.737045 0.651709
O O8 0.189413 0.830042 0.754578
O O9 0.500000 0.363997 0.542369
O O10 0.596585 0.422757 0.871405
O O11 0.500000 0.512682 0.753231
#
# Coordination Sequence:
#
# PCOD9352834 Si02
#       6
#     4   4   8   8   8   4
#     4  12  26  49  77 102 150 186 240 313 376 437
#     4  12  24  47  71 108 147 195 240 297 366 437
#     4  12  25  43  72 107 149 197 242 293 366 455
#     4  12  29  50  78 108 140 197 257 316 382 446
#     4  10  26  47  72 107 152 192 245 313 370 448
#     4  10  22  42  68 104 145 187 232 288 366 444
#
# _framework density 23.311508
#
# number of rings (size 3 to 8) (size 9 to 14) (size 15 to 20)
#    0.667    0.000    2.222    4.667    3.111    1.778 
#    0.000    0.000    0.000    0.000    0.000    0.000 
#    0.000    0.000    0.000    0.000    0.000    0.000 
#
# Total GULP energy -100864.139982 kJ/mol
# GULP energy per Si atom -5603.563332 kJ/mol
# Density = 2.325845 g / cm^3
# Si number density = 23.311508 Si / 1000 Ang^3
#
#
#
# Elastic Constant Matrix: (Units=GPa)
#
#
# Indices 1 2 3 4 5 6 
#
# 1 181.7557 47.3181 7.7730 0.0000 0.0000 0.0000
# 2 47.3181 63.0301 -4.1027 0.0000 0.0000 0.0000
# 3 7.7730 -4.1027 87.0205 0.0000 0.0000 0.0000
# 4 0.0000 0.0000 0.0000 12.0014 0.0000 0.0000
# 5 0.0000 0.0000 0.0000 0.0000 19.4508 0.0000
# 6 0.0000 0.0000 0.0000 0.0000 0.0000 132.4377
#
#
#
# Elastic Compliance Matrix: (Units=1/GPa)
#
#
# Indices 1 2 3 4 5 6 
#
# 1 0.006902 -0.005238 -0.000864 0.000000 0.000000 0.000000
# 2 -0.005238 0.019889 0.001406 0.000000 0.000000 0.000000
# 3 -0.000864 0.001406 0.011635 0.000000 0.000000 0.000000
# 4 0.000000 0.000000 0.000000 0.083323 0.000000 0.000000
# 5 0.000000 0.000000 0.000000 0.000000 0.051412 0.000000
# 6 0.000000 0.000000 0.000000 0.000000 0.000000 0.007551
#
#
# Mechanical properties :
#
#
# Convention : Reuss Voigt Hill
#
# Bulk Modulus (GPa) = 34.44153 48.19813 41.31983
# Shear Modulus (GPa) = 25.02720 51.49919 38.26320
#
# Velocity S-wave (km/s) = 3.28014 4.70528 4.05580
# Velocity P-wave (km/s) = 5.39928 7.08803 6.30049
#
# Compressibility (1/GPa) = 0.02903472
#
# Stress axis : x y z
#
# Youngs Moduli (GPa) = 144.87527 50.27838 85.94801
#
# Poissons Ratio (x) = 0.26336 0.07422
# Poissons Ratio (y) = 0.75887 -0.12081
# Poissons Ratio (z) = 0.12510 -0.07067
#
# Static dielectric constant tensor:
#      x y z
#    x 1.982440 0.000000 0.000000 
#    y 0.000000 1.851480 0.000000 
#    z 0.000000 0.000000 1.840250 
# 
# From -- ./inp_files/475.got.cif
#   From: 2010.05.17/outbox.cif.g08.bks.cpg/sg36_1_cif.got.tgz:475.got - 2010.06.03 17:41:39.
