data_PCOD9352620
_publ_section_title
;
Structure prediction by ZEFSAII (Michael W. Deem and Ramdas Pophale) SiO2 
 PCOD9352620
Probable space group: C M C 21
;
_chemical_formula_sum "Si O2"
_cell_formula_units_Z 52
_cell_length_a 8.171615
_cell_length_b 22.335163
_cell_length_c 13.506910
_cell_angle_alpha 90.000000
_cell_angle_beta 90.000000
_cell_angle_gamma 90.000000
_cell_volume 2465.204940
_symmetry_space_group_name_H-M "C M C 21"
_symmetry_group_IT_number 36
_symmetry_cell_setting 'orthorhombic'
loop_
_space_group_symop_operation_xyz
x,y,z
-x,-y,1/2+z
x,-y,1/2+z
-x,y,z
1/2+x,1/2+y,z
1/2-x,1/2-y,1/2+z
1/2+x,1/2-y,1/2+z
1/2-x,1/2+y,z
loop_
_atom_site_type_symbol
_atom_site_label
_atom_site_fract_x
_atom_site_fract_y
_atom_site_fract_z
Si Si1 0.803492 0.670793 0.589860
Si Si2 0.500000 0.633661 0.085484
Si Si3 0.306760 0.796910 0.658758
Si Si4 0.319500 0.013645 0.400648
Si Si5 0.183551 0.454208 0.200734
Si Si6 0.500000 0.521727 0.951117
Si Si7 0.500000 0.524692 0.222198
Si Si8 0.193508 0.648455 0.366063
O O1 0.712896 0.726681 0.638341
O O2 0.784914 0.610511 0.654022
O O3 0.742326 0.661600 0.476485
O O4 0.000000 0.682870 0.587755
O O5 0.330847 0.671035 0.090455
O O6 0.500000 0.592403 0.184702
O O7 0.500000 0.589164 0.991019
O O8 0.500000 0.814508 0.645155
O O9 0.254229 0.813513 0.771415
O O10 0.500000 0.019233 0.444702
O O11 0.321673 0.959697 0.321374
O O12 0.175962 0.004782 0.477782
O O13 0.287573 0.077362 0.346813
O O14 0.335352 0.496460 0.178938
O O15 0.000000 0.474079 0.171024
O O16 0.500000 0.499854 0.835284
O O17 0.000000 0.659222 0.373357
#
# Coordination Sequence:
#
# PCOD9352620 Si02
#       8
#     8   4   8   8   8   4   4   8
#     4  10  21  42  66  96 131 169 223 271 318 383
#     4  12  26  44  68  96 138 174 215 281 317 391
#     4  11  24  46  66  92 128 178 225 268 324 384
#     4   9  18  38  62  93 131 167 210 257 333 390
#     4   9  19  36  62  94 131 165 204 267 322 386
#     4  10  22  38  60  96 126 168 206 263 325 378
#     4  10  22  40  62 100 130 170 213 264 334 385
#     4   9  20  40  68  93 127 173 216 272 325 387
#
# _framework density 21.093579999999999
#
# number of rings (size 3 to 8) (size 9 to 14) (size 15 to 20)
#    0.000    2.154    0.769    1.846    3.231    2.462 
#    8.308    0.000    0.000    0.000    0.000    0.000 
#    0.000    0.000    0.000    0.000    0.000    0.000 
#
# Total GULP energy -144749.228886 kJ/mol
# GULP energy per Si atom -5567.278034 kJ/mol
# Density = 2.104557 g / cm^3
# Si number density = 21.093580 Si / 1000 Ang^3
#
#
#
# Elastic Constant Matrix: (Units=GPa)
#
#
# Indices 1 2 3 4 5 6 
#
# 1 121.9131 36.8262 3.8351 0.0000 0.0000 0.0000
# 2 36.8262 85.6711 31.7155 0.0000 0.0000 0.0000
# 3 3.8351 31.7155 113.3194 0.0000 0.0000 0.0000
# 4 0.0000 0.0000 0.0000 33.0394 0.0000 0.0000
# 5 0.0000 0.0000 0.0000 0.0000 -15.2518 0.0000
# 6 0.0000 0.0000 0.0000 0.0000 0.0000 35.9779
#
#
#
# Elastic Compliance Matrix: (Units=1/GPa)
#
#
# Indices 1 2 3 4 5 6 
#
# 1 0.009511 -0.004428 0.000917 0.000000 0.000000 0.000000
# 2 -0.004428 0.015083 -0.004072 0.000000 0.000000 0.000000
# 3 0.000917 -0.004072 0.009933 0.000000 0.000000 0.000000
# 4 0.000000 0.000000 0.000000 0.030267 0.000000 0.000000
# 5 0.000000 0.000000 0.000000 0.000000 -0.065566 0.000000
# 6 0.000000 0.000000 0.000000 0.000000 0.000000 0.027795
#
#
# Mechanical properties :
#
#
# Convention : Reuss Voigt Hill
#
# Bulk Modulus (GPa) = 51.64451 51.73968 51.69210
# Shear Modulus (GPa) = 102.79132 27.32157 65.05645
#
# Velocity S-wave (km/s) = 6.98834 3.60287 5.55957
# Velocity P-wave (km/s) = 9.46850 6.47221 8.10993
#
# Compressibility (1/GPa) = 0.01936314
#
# Stress axis : x y z
#
# Youngs Moduli (GPa) = 105.13809 66.29846 100.67342
#
# Poissons Ratio (x) = 0.29358 -0.09236
# Poissons Ratio (y) = 0.46556 0.40990
# Poissons Ratio (z) = -0.09646 0.26994
#
# Static dielectric constant tensor:
#      x y z
#    x 1.876440 0.000000 0.000000 
#    y 0.000000 1.724930 0.000000 
#    z 0.000000 0.000000 1.827760 
# 
# From -- ./inp_files/10605.got.cif
#   From: 2010.05.17/outbox.cif.g08.bks.cpg/sg36_6_cif.got.tgz:10605.got - 2010.06.03 17:41:39.
