data_PCOD9352768
_publ_section_title
;
Structure prediction by ZEFSAII (Michael W. Deem and Ramdas Pophale) SiO2 
 PCOD9352768
Probable space group: C M C 21
;
_chemical_formula_sum "Si O2"
_cell_formula_units_Z 64
_cell_length_a 11.494867
_cell_length_b 13.982020
_cell_length_c 19.746445
_cell_angle_alpha 90.000000
_cell_angle_beta 90.000000
_cell_angle_gamma 90.000000
_cell_volume 3173.677476
_symmetry_space_group_name_H-M "C M C 21"
_symmetry_group_IT_number 36
_symmetry_cell_setting 'orthorhombic'
loop_
_space_group_symop_operation_xyz
x,y,z
-x,-y,1/2+z
x,-y,1/2+z
-x,y,z
1/2+x,1/2+y,z
1/2-x,1/2-y,1/2+z
1/2+x,1/2-y,1/2+z
1/2-x,1/2+y,z
loop_
_atom_site_type_symbol
_atom_site_label
_atom_site_fract_x
_atom_site_fract_y
_atom_site_fract_z
Si Si1 0.746045 0.144290 0.406710
Si Si2 0.359737 0.733664 0.784936
Si Si3 0.626405 0.999327 0.491122
Si Si4 0.776215 0.763247 0.643822
Si Si5 0.128702 0.963197 0.683060
Si Si6 0.139234 0.708379 0.004168
Si Si7 0.626561 0.942316 0.145714
Si Si8 0.370157 0.477689 0.332321
O O1 0.684531 0.194621 0.343217
O O2 0.831618 0.216735 0.444889
O O3 0.663094 0.102481 0.464286
O O4 0.801087 0.044143 0.382783
O O5 0.500000 0.736426 0.778898
O O6 0.302682 0.756223 0.712084
O O7 0.325483 0.626459 0.809685
O O8 0.500000 0.983530 0.459597
O O9 0.687281 0.896422 0.481909
O O10 0.621035 0.011535 0.571643
O O11 0.848886 0.860772 0.650001
O O12 0.699019 0.764623 0.575601
O O13 0.859066 0.671393 0.642625
O O14 0.000000 0.002435 0.661308
O O15 0.247867 0.021832 0.671802
O O16 0.122310 0.959501 0.764028
O O17 0.000000 0.703744 0.014678
O O18 0.500000 0.966113 0.179242
O O19 0.500000 0.461715 0.359365
#
# Coordination Sequence:
#
# PCOD9352768 Si02
#       8
#     8   8   8   8   8   8   8   8
#     4  12  22  42  64  90 124 172 230 262 334 394
#     4  11  24  40  65  97 130 172 221 273 332 394
#     4  10  22  41  61  87 129 166 209 272 327 386
#     4  12  22  42  66  98 131 170 219 274 329 392
#     4  11  23  42  67  97 131 170 214 268 332 390
#     4  11  24  40  65  97 130 172 221 273 332 394
#     4  11  23  42  67  97 131 170 214 268 332 390
#     4  10  22  41  61  87 129 166 209 272 327 386
#
# _framework density 20.165880999999999
#
# number of rings (size 3 to 8) (size 9 to 14) (size 15 to 20)
#    0.000    1.000    5.000    2.250    0.000    1.000 
#    0.000    0.000    0.000    0.000    0.000    0.000 
#    0.000    0.000    0.000    0.000    0.000    0.000 
#
# Total GULP energy -178251.278233 kJ/mol
# GULP energy per Si atom -5570.352445 kJ/mol
# Density = 2.011998 g / cm^3
# Si number density = 20.165881 Si / 1000 Ang^3
#
#
#
# Elastic Constant Matrix: (Units=GPa)
#
#
# Indices 1 2 3 4 5 6 
#
# 1 97.9776 31.7665 20.3962 0.0000 0.0000 0.0000
# 2 31.7665 80.8806 9.1827 0.0000 0.0000 0.0000
# 3 20.3962 9.1827 62.9367 0.0000 0.0000 0.0000
# 4 0.0000 0.0000 0.0000 35.3416 0.0000 0.0000
# 5 0.0000 0.0000 0.0000 0.0000 1.0377 0.0000
# 6 0.0000 0.0000 0.0000 0.0000 0.0000 8.9658
#
#
#
# Elastic Compliance Matrix: (Units=1/GPa)
#
#
# Indices 1 2 3 4 5 6 
#
# 1 0.012354 -0.004472 -0.003351 0.000000 0.000000 0.000000
# 2 -0.004472 0.014191 -0.000621 0.000000 0.000000 0.000000
# 3 -0.003351 -0.000621 0.017066 0.000000 0.000000 0.000000
# 4 0.000000 0.000000 0.000000 0.028295 0.000000 0.000000
# 5 0.000000 0.000000 0.000000 0.000000 0.963631 0.000000
# 6 0.000000 0.000000 0.000000 0.000000 0.000000 0.111534
#
#
# Mechanical properties :
#
#
# Convention : Reuss Voigt Hill
#
# Bulk Modulus (GPa) = 37.42232 40.49840 38.96036
# Shear Modulus (GPa) = 4.26306 21.09901 12.68104
#
# Velocity S-wave (km/s) = 1.45554 3.23812 2.51038
# Velocity P-wave (km/s) = 4.62842 5.84010 5.26921
#
# Compressibility (1/GPa) = 0.02672202
#
# Stress axis : x y z
#
# Youngs Moduli (GPa) = 80.94664 70.46872 58.59725
#
# Poissons Ratio (x) = 0.31511 0.19637
# Poissons Ratio (y) = 0.36196 0.03641
# Poissons Ratio (z) = 0.27126 0.04379
#
# Static dielectric constant tensor:
#      x y z
#    x 1.787240 0.000000 0.000000 
#    y 0.000000 1.747730 0.000000 
#    z 0.000000 0.000000 1.706170 
# 
# From -- ./inp_files/14400.got.cif
#   From: 2010.05.17/outbox.cif.g08.bks.cpg/sg36_8_cif.got.tgz:14400.got - 2010.06.03 17:41:39.
