data_PCOD9352720
_publ_section_title
;
Structure prediction by ZEFSAII (Michael W. Deem and Ramdas Pophale) SiO2 
 PCOD9352720
Probable space group: C M C 21
;
_chemical_formula_sum "Si O2"
_cell_formula_units_Z 48
_cell_length_a 7.914355
_cell_length_b 29.748910
_cell_length_c 8.466582
_cell_angle_alpha 90.000000
_cell_angle_beta 90.000000
_cell_angle_gamma 90.000000
_cell_volume 1993.401145
_symmetry_space_group_name_H-M "C M C 21"
_symmetry_group_IT_number 36
_symmetry_cell_setting 'orthorhombic'
loop_
_space_group_symop_operation_xyz
x,y,z
-x,-y,1/2+z
x,-y,1/2+z
-x,y,z
1/2+x,1/2+y,z
1/2-x,1/2-y,1/2+z
1/2+x,1/2-y,1/2+z
1/2-x,1/2+y,z
loop_
_atom_site_type_symbol
_atom_site_label
_atom_site_fract_x
_atom_site_fract_y
_atom_site_fract_z
Si Si1 0.798809 0.147438 0.493400
Si Si2 0.802449 0.483748 0.498364
Si Si3 0.804725 0.936112 0.182125
Si Si4 0.197060 0.733726 0.649452
Si Si5 0.696583 0.184737 0.956707
Si Si6 0.294604 0.895134 0.660538
O O1 0.735976 0.112077 0.626470
O O2 0.714015 0.195644 0.515279
O O3 0.763801 0.124914 0.325433
O O4 0.000000 0.153129 0.510771
O O5 0.709137 0.530041 0.533299
O O6 0.782735 0.461018 0.327681
O O7 0.742051 0.445717 0.621792
O O8 0.000000 0.492915 0.524155
O O9 0.000000 0.930427 0.224285
O O10 0.288260 0.778750 0.596001
O O11 0.000000 0.744935 0.676715
O O12 0.271832 0.709045 0.803648
O O13 0.500000 0.176824 0.919287
O O14 0.767702 0.138112 0.021400
O O15 0.500000 0.894712 0.659037
#
# Coordination Sequence:
#
# PCOD9352720 Si02
#       6
#     8   8   8   8   8   8
#     4  11  24  40  60  87 119 156 198 243 293 352
#     4  11  23  40  64  92 121 157 202 249 297 353
#     4  11  24  41  61  88 123 161 200 246 301 358
#     4  11  23  39  61  87 117 154 195 242 294 349
#     4  10  22  40  60  86 119 153 193 240 292 351
#     4  10  22  40  62  88 119 155 196 244 295 349
#
# _framework density 24.079449
#
# number of rings (size 3 to 8) (size 9 to 14) (size 15 to 20)
#    0.000    1.333    0.000    5.000    0.000   12.667 
#    0.000    0.000    0.000    0.000    0.000    0.000 
#    0.000    0.000    0.000    0.000    0.000    0.000 
#
# Total GULP energy -134366.421319 kJ/mol
# GULP energy per Si atom -5598.600888 kJ/mol
# Density = 2.402464 g / cm^3
# Si number density = 24.079449 Si / 1000 Ang^3
#
#
#
# Elastic Constant Matrix: (Units=GPa)
#
#
# Indices 1 2 3 4 5 6 
#
# 1 39.3743 -2.0038 -6.5373 0.0000 0.0000 0.0000
# 2 -2.0038 90.0653 -15.5156 0.0000 0.0000 0.0000
# 3 -6.5373 -15.5156 65.9801 0.0000 0.0000 0.0000
# 4 0.0000 0.0000 0.0000 41.9585 0.0000 0.0000
# 5 0.0000 0.0000 0.0000 0.0000 29.7595 0.0000
# 6 0.0000 0.0000 0.0000 0.0000 0.0000 14.0206
#
#
#
# Elastic Compliance Matrix: (Units=1/GPa)
#
#
# Indices 1 2 3 4 5 6 
#
# 1 0.025919 0.001062 0.002818 0.000000 0.000000 0.000000
# 2 0.001062 0.011615 0.002837 0.000000 0.000000 0.000000
# 3 0.002818 0.002837 0.016102 0.000000 0.000000 0.000000
# 4 0.000000 0.000000 0.000000 0.023833 0.000000 0.000000
# 5 0.000000 0.000000 0.000000 0.000000 0.033603 0.000000
# 6 0.000000 0.000000 0.000000 0.000000 0.000000 0.071324
#
#
# Mechanical properties :
#
#
# Convention : Reuss Voigt Hill
#
# Bulk Modulus (GPa) = 14.90979 16.36736 15.63858
# Shear Modulus (GPa) = 26.13426 31.77949 28.95687
#
# Velocity S-wave (km/s) = 3.29802 3.63681 3.47155
# Velocity P-wave (km/s) = 4.55059 4.94441 4.75158
#
# Compressibility (1/GPa) = 0.06707001
#
# Stress axis : x y z
#
# Youngs Moduli (GPa) = 38.58148 86.09297 62.10285
#
# Poissons Ratio (x) = -0.09144 -0.17500
# Poissons Ratio (y) = -0.04098 -0.17616
# Poissons Ratio (z) = -0.10872 -0.24422
#
# Static dielectric constant tensor:
#      x y z
#    x 1.864690 0.000000 0.000000 
#    y 0.000000 1.879600 0.000000 
#    z 0.000000 0.000000 1.977650 
# 
# From -- ./inp_files/2644.got.cif
#   From: 2010.05.17/outbox.cif.g08.bks.cpg/sg36_2_cif.got.tgz:2644.got - 2010.06.03 17:41:39.
