data_PCOD9352276
_publ_section_title
;
Structure prediction by ZEFSAII (Michael W. Deem and Ramdas Pophale) SiO2 
 PCOD9352276
Probable space group: C M C 21
;
_chemical_formula_sum "Si O2"
_cell_formula_units_Z 52
_cell_length_a 8.240184
_cell_length_b 14.654135
_cell_length_c 17.572206
_cell_angle_alpha 90.000000
_cell_angle_beta 90.000000
_cell_angle_gamma 90.000000
_cell_volume 2121.892528
_symmetry_space_group_name_H-M "C M C 21"
_symmetry_group_IT_number 36
_symmetry_cell_setting 'orthorhombic'
loop_
_space_group_symop_operation_xyz
x,y,z
-x,-y,1/2+z
x,-y,1/2+z
-x,y,z
1/2+x,1/2+y,z
1/2-x,1/2-y,1/2+z
1/2+x,1/2-y,1/2+z
1/2-x,1/2+y,z
loop_
_atom_site_type_symbol
_atom_site_label
_atom_site_fract_x
_atom_site_fract_y
_atom_site_fract_z
Si Si1 0.806701 0.820220 0.109800
Si Si2 0.818210 0.131067 0.063781
Si Si3 0.184458 0.103555 0.447959
Si Si4 0.173478 0.254046 0.845972
Si Si5 0.809734 0.993691 0.203805
Si Si6 0.681649 0.084993 0.903621
Si Si7 0.500000 0.107346 0.254790
O O1 0.719049 0.723971 0.107651
O O2 0.000000 0.802954 0.102814
O O3 0.783536 0.888846 0.179200
O O4 0.754463 0.870467 0.031417
O O5 0.806039 0.049780 0.123878
O O6 0.000000 0.132515 0.032980
O O7 0.704928 0.119183 0.990687
O O8 0.195314 0.192257 0.395104
O O9 0.000000 0.071950 0.455825
O O10 0.280968 0.021806 0.409174
O O11 0.205867 0.147274 0.850452
O O12 0.139205 0.309554 0.769281
O O13 0.000000 0.272668 0.887241
O O14 0.649538 0.033020 0.245063
O O15 0.000000 0.004842 0.232814
O O16 0.500000 0.100171 0.878766
#
# Coordination Sequence:
#
# PCOD9352276 Si02
#       7
#     8   8   8   8   8   8   4
#     4  10  21  36  61  99 131 162 203 262 334 391
#     4  11  22  36  62  99 134 164 208 268 336 398
#     4  11  21  37  64  97 133 164 204 266 336 394
#     4  10  23  43  62  90 126 169 219 267 317 386
#     4  10  23  44  67  94 129 175 219 269 323 393
#     4  12  23  36  63  98 133 170 212 268 339 400
#     4  10  26  46  72  84 130 182 232 262 324 386
#
# _framework density 24.506423999999999
#
# number of rings (size 3 to 8) (size 9 to 14) (size 15 to 20)
#    0.462    0.923    3.077    2.769    3.231    1.846 
#    0.000    1.538    0.000    0.000    0.000    0.000 
#    0.000    0.000    0.000    0.000    0.000    0.000 
#
# Total GULP energy -144810.637281 kJ/mol
# GULP energy per Si atom -5569.639895 kJ/mol
# Density = 2.445065 g / cm^3
# Si number density = 24.506424 Si / 1000 Ang^3
#
#
#
# Elastic Constant Matrix: (Units=GPa)
#
#
# Indices 1 2 3 4 5 6 
#
# 1 80.1489 7.4308 26.1594 0.0000 0.0000 0.0000
# 2 7.4308 97.6529 17.0022 0.0000 0.0000 0.0000
# 3 26.1594 17.0022 80.1219 0.0000 0.0000 0.0000
# 4 0.0000 0.0000 0.0000 29.5743 0.0000 0.0000
# 5 0.0000 0.0000 0.0000 0.0000 18.2253 0.0000
# 6 0.0000 0.0000 0.0000 0.0000 0.0000 31.9949
#
#
#
# Elastic Compliance Matrix: (Units=1/GPa)
#
#
# Indices 1 2 3 4 5 6 
#
# 1 0.013972 -0.000279 -0.004503 0.000000 0.000000 0.000000
# 2 -0.000279 0.010639 -0.002166 0.000000 0.000000 0.000000
# 3 -0.004503 -0.002166 0.014411 0.000000 0.000000 0.000000
# 4 0.000000 0.000000 0.000000 0.033813 0.000000 0.000000
# 5 0.000000 0.000000 0.000000 0.000000 0.054869 0.000000
# 6 0.000000 0.000000 0.000000 0.000000 0.000000 0.031255
#
#
# Mechanical properties :
#
#
# Convention : Reuss Voigt Hill
#
# Bulk Modulus (GPa) = 39.80059 39.90094 39.85076
# Shear Modulus (GPa) = 27.58919 29.78099 28.68509
#
# Velocity S-wave (km/s) = 3.35893 3.48980 3.42499
# Velocity P-wave (km/s) = 5.59637 5.70574 5.65132
#
# Compressibility (1/GPa) = 0.02512525
#
# Stress axis : x y z
#
# Youngs Moduli (GPa) = 71.57049 93.99559 69.39246
#
# Poissons Ratio (x) = 0.02625 0.31245
# Poissons Ratio (y) = 0.01999 0.15033
# Poissons Ratio (z) = 0.32225 0.20363
#
# Static dielectric constant tensor:
#      x y z
#    x 1.883840 0.000000 0.000000 
#    y 0.000000 1.920330 0.000000 
#    z 0.000000 0.000000 2.017910 
# 
# From -- ./inp_files/15389.got.cif
#   From: 2010.05.17/outbox.cif.g08.bks.cpg/sg36_8_cif.got.tgz:15389.got - 2010.06.03 17:41:39.
