data_PCOD9352342
_publ_section_title
;
Structure prediction by ZEFSAII (Michael W. Deem and Ramdas Pophale) SiO2 
 PCOD9352342
Probable space group: C M C 21
;
_chemical_formula_sum "Si O2"
_cell_formula_units_Z 60
_cell_length_a 16.765304
_cell_length_b 27.092952
_cell_length_c 5.878477
_cell_angle_alpha 90.000000
_cell_angle_beta 90.000000
_cell_angle_gamma 90.000000
_cell_volume 2670.131091
_symmetry_space_group_name_H-M "C M C 21"
_symmetry_group_IT_number 36
_symmetry_cell_setting 'orthorhombic'
loop_
_space_group_symop_operation_xyz
x,y,z
-x,-y,1/2+z
x,-y,1/2+z
-x,y,z
1/2+x,1/2+y,z
1/2-x,1/2-y,1/2+z
1/2+x,1/2-y,1/2+z
1/2-x,1/2+y,z
loop_
_atom_site_type_symbol
_atom_site_label
_atom_site_fract_x
_atom_site_fract_y
_atom_site_fract_z
Si Si1 0.865125 0.897462 0.828930
Si Si2 0.000000 0.972973 0.705640
Si Si3 0.809751 0.700983 0.510152
Si Si4 0.212325 0.370235 0.618013
Si Si5 0.591405 0.882502 0.262657
Si Si6 0.661769 0.342222 0.226449
Si Si7 0.093663 0.484603 0.032480
Si Si8 0.586899 0.705667 0.096927
O O1 0.770561 0.901917 0.778851
O O2 0.895748 0.843244 0.744765
O O3 0.921385 0.938366 0.724742
O O4 0.868078 0.890829 0.099275
O O5 0.000000 0.997666 0.451969
O O6 0.815581 0.678568 0.255242
O O7 0.863849 0.663950 0.657440
O O8 0.717157 0.693417 0.574035
O O9 0.843434 0.753903 0.579860
O O10 0.138653 0.395586 0.493355
O O11 0.275983 0.356961 0.422200
O O12 0.500000 0.872285 0.314034
O O13 0.595674 0.926113 0.079349
O O14 0.589048 0.314525 0.339240
O O15 0.126445 0.504107 0.278696
O O16 0.000000 0.501325 0.021928
O O17 0.500000 0.726236 0.156550
#
# Coordination Sequence:
#
# PCOD9352342 Si02
#       8
#     8   4   8   8   8   8   8   8
#     4  10  23  46  70  99 141 189 239 307 385 468
#     4  12  30  50  88 122 154 194 256 336 416 484
#     4  10  22  38  60  95 135 190 237 296 355 438
#     4   9  21  41  64  92 136 186 239 288 367 442
#     4  10  21  37  61  91 138 182 235 301 362 424
#     4   9  22  38  66  86 136 181 237 282 362 441
#     4   9  19  35  57  86 116 163 222 276 336 400
#     4  11  23  36  64 100 138 181 240 296 361 450
#
# _framework density 22.470808999999999
#
# number of rings (size 3 to 8) (size 9 to 14) (size 15 to 20)
#    0.000    2.133    0.667    0.400   12.133    2.133 
#    0.000    1.333    0.000    0.000    0.000    0.000 
#    0.000    0.000    0.000    0.000    0.000    0.000 
#
# Total GULP energy -167138.191696 kJ/mol
# GULP energy per Si atom -5571.273057 kJ/mol
# Density = 2.241966 g / cm^3
# Si number density = 22.470809 Si / 1000 Ang^3
#
#
#
# Elastic Constant Matrix: (Units=GPa)
#
#
# Indices 1 2 3 4 5 6 
#
# 1 94.1473 16.2921 6.0081 0.0000 0.0000 0.0000
# 2 16.2921 62.9017 25.2655 0.0000 0.0000 0.0000
# 3 6.0081 25.2655 93.5136 0.0000 0.0000 0.0000
# 4 0.0000 0.0000 0.0000 40.0729 0.0000 0.0000
# 5 0.0000 0.0000 0.0000 0.0000 16.7365 0.0000
# 6 0.0000 0.0000 0.0000 0.0000 0.0000 25.2561
#
#
#
# Elastic Compliance Matrix: (Units=1/GPa)
#
#
# Indices 1 2 3 4 5 6 
#
# 1 0.011120 -0.002909 0.000071 0.000000 0.000000 0.000000
# 2 -0.002909 0.018594 -0.004837 0.000000 0.000000 0.000000
# 3 0.000071 -0.004837 0.011996 0.000000 0.000000 0.000000
# 4 0.000000 0.000000 0.000000 0.024955 0.000000 0.000000
# 5 0.000000 0.000000 0.000000 0.000000 0.059750 0.000000
# 6 0.000000 0.000000 0.000000 0.000000 0.000000 0.039594
#
#
# Mechanical properties :
#
#
# Convention : Reuss Voigt Hill
#
# Bulk Modulus (GPa) = 37.93388 38.41046 38.17217
# Shear Modulus (GPa) = 26.29573 29.94623 28.12098
#
# Velocity S-wave (km/s) = 3.42456 3.65454 3.54141
# Velocity P-wave (km/s) = 5.70568 5.91085 5.80917
#
# Compressibility (1/GPa) = 0.02636166
#
# Stress axis : x y z
#
# Youngs Moduli (GPa) = 89.92411 53.78060 83.36211
#
# Poissons Ratio (x) = 0.15645 -0.00596
# Poissons Ratio (y) = 0.26159 0.40321
# Poissons Ratio (z) = -0.00643 0.26013
#
# Static dielectric constant tensor:
#      x y z
#    x 1.825980 0.000000 0.000000 
#    y 0.000000 1.863890 0.000000 
#    z 0.000000 0.000000 1.996580 
# 
# From -- ./inp_files/1179.got.cif
#   From: 2010.05.17/outbox.cif.g08.bks.cpg/sg36_1_cif.got.tgz:1179.got - 2010.06.03 17:41:39.
