data_PCOD9352597
_publ_section_title
;
Structure prediction by ZEFSAII (Michael W. Deem and Ramdas Pophale) SiO2 
 PCOD9352597
Probable space group: C M C 21
;
_chemical_formula_sum "Si O2"
_cell_formula_units_Z 52
_cell_length_a 14.926530
_cell_length_b 7.777442
_cell_length_c 19.090380
_cell_angle_alpha 90.000000
_cell_angle_beta 90.000000
_cell_angle_gamma 90.000000
_cell_volume 2216.206440
_symmetry_space_group_name_H-M "C M C 21"
_symmetry_group_IT_number 36
_symmetry_cell_setting 'orthorhombic'
loop_
_space_group_symop_operation_xyz
x,y,z
-x,-y,1/2+z
x,-y,1/2+z
-x,y,z
1/2+x,1/2+y,z
1/2-x,1/2-y,1/2+z
1/2+x,1/2-y,1/2+z
1/2-x,1/2+y,z
loop_
_atom_site_type_symbol
_atom_site_label
_atom_site_fract_x
_atom_site_fract_y
_atom_site_fract_z
Si Si1 0.393856 0.461175 0.438260
Si Si2 0.000000 0.225664 0.186385
Si Si3 0.176763 0.318698 0.745473
Si Si4 0.500000 0.914158 0.729600
Si Si5 0.671230 0.828555 0.584597
Si Si6 0.206521 0.636866 0.493983
Si Si7 0.500000 0.378499 0.114279
Si Si8 0.356359 0.440271 0.783468
O O1 0.500000 0.478562 0.464016
O O2 0.304126 0.573878 0.463032
O O3 0.355953 0.266804 0.450439
O O4 0.398879 0.507473 0.356391
O O5 0.000000 0.428956 0.174506
O O6 0.000000 0.081893 0.126478
O O7 0.915770 0.180394 0.235158
O O8 0.182407 0.385534 0.665288
O O9 0.261114 0.352573 0.792831
O O10 0.163503 0.115578 0.742134
O O11 0.088946 0.411480 0.774704
O O12 0.500000 0.733693 0.687302
O O13 0.764300 0.743447 0.562785
O O14 0.590782 0.691885 0.580958
O O15 0.655883 0.973403 0.526098
#
# Coordination Sequence:
#
# PCOD9352597 Si02
#       8
#     8   4   8   4   8   8   4   8
#     4  11  25  46  69  97 135 186 239 289 342 413
#     4  12  22  40  62  96 139 175 216 275 347 417
#     4  11  22  40  67 101 136 174 217 287 359 424
#     4  10  22  40  58  99 138 171 224 254 345 440
#     4  10  21  41  65  93 135 168 226 287 346 419
#     4  10  24  44  65  97 129 182 238 282 343 413
#     4  10  22  42  60  97 139 172 218 281 346 427
#     4  12  22  41  67  94 138 174 225 288 343 418
#
# _framework density 23.463518000000001
#
# number of rings (size 3 to 8) (size 9 to 14) (size 15 to 20)
#    0.000    1.231    3.846    2.769    2.154    1.231 
#    5.538    0.000    0.000    0.000    0.000    0.000 
#    0.000    0.000    0.000    0.000    0.000    0.000 
#
# Total GULP energy -145001.646566 kJ/mol
# GULP energy per Si atom -5576.986406 kJ/mol
# Density = 2.341011 g / cm^3
# Si number density = 23.463518 Si / 1000 Ang^3
#
#
#
# Elastic Constant Matrix: (Units=GPa)
#
#
# Indices 1 2 3 4 5 6 
#
# 1 135.1330 16.1161 16.0082 0.0000 0.0000 0.0000
# 2 16.1161 63.3390 -18.3783 0.0000 0.0000 0.0000
# 3 16.0082 -18.3783 50.3176 0.0000 0.0000 0.0000
# 4 0.0000 0.0000 0.0000 17.2962 0.0000 0.0000
# 5 0.0000 0.0000 0.0000 0.0000 27.5179 0.0000
# 6 0.0000 0.0000 0.0000 0.0000 0.0000 31.9513
#
#
#
# Elastic Compliance Matrix: (Units=1/GPa)
#
#
# Indices 1 2 3 4 5 6 
#
# 1 0.008229 -0.003192 -0.003784 0.000000 0.000000 0.000000
# 2 -0.003192 0.018898 0.007918 0.000000 0.000000 0.000000
# 3 -0.003784 0.007918 0.023969 0.000000 0.000000 0.000000
# 4 0.000000 0.000000 0.000000 0.057816 0.000000 0.000000
# 5 0.000000 0.000000 0.000000 0.000000 0.036340 0.000000
# 6 0.000000 0.000000 0.000000 0.000000 0.000000 0.031298
#
#
# Mechanical properties :
#
#
# Convention : Reuss Voigt Hill
#
# Bulk Modulus (GPa) = 18.87488 30.69795 24.78641
# Shear Modulus (GPa) = 25.99762 31.02267 28.51014
#
# Velocity S-wave (km/s) = 3.33228 3.64010 3.48959
# Velocity P-wave (km/s) = 4.78197 5.54787 5.17910
#
# Compressibility (1/GPa) = 0.05298047
#
# Stress axis : x y z
#
# Youngs Moduli (GPa) = 121.52150 52.91689 41.71976
#
# Poissons Ratio (x) = 0.16889 0.15786
# Poissons Ratio (y) = 0.38786 -0.33032
# Poissons Ratio (z) = 0.45981 -0.41898
#
# Static dielectric constant tensor:
#      x y z
#    x 2.011120 0.000000 0.000000 
#    y 0.000000 1.916350 0.000000 
#    z 0.000000 0.000000 1.921000 
# 
# From -- ./inp_files/16130.got.cif
#   From: 2010.05.17/outbox.cif.g08.bks.cpg/sg36_9_cif.got.tgz:16130.got - 2010.06.03 17:41:39.
