data_PCOD9352304
_publ_section_title
;
Structure prediction by ZEFSAII (Michael W. Deem and Ramdas Pophale) SiO2 
 PCOD9352304
Probable space group: C M C 21
;
_chemical_formula_sum "Si O2"
_cell_formula_units_Z 64
_cell_length_a 24.189613
_cell_length_b 10.382196
_cell_length_c 12.765581
_cell_angle_alpha 90.000000
_cell_angle_beta 90.000000
_cell_angle_gamma 90.000000
_cell_volume 3205.964650
_symmetry_space_group_name_H-M "C M C 21"
_symmetry_group_IT_number 36
_symmetry_cell_setting 'orthorhombic'
loop_
_space_group_symop_operation_xyz
x,y,z
-x,-y,1/2+z
x,-y,1/2+z
-x,y,z
1/2+x,1/2+y,z
1/2-x,1/2-y,1/2+z
1/2+x,1/2-y,1/2+z
1/2-x,1/2+y,z
loop_
_atom_site_type_symbol
_atom_site_label
_atom_site_fract_x
_atom_site_fract_y
_atom_site_fract_z
Si Si1 0.348932 0.898306 0.305500
Si Si2 0.820852 0.844847 0.470046
Si Si3 0.150635 0.047625 0.624036
Si Si4 0.063981 0.752870 0.214935
Si Si5 0.271085 0.503523 0.297553
Si Si6 0.562713 0.036997 0.647566
Si Si7 0.288750 0.277729 0.964373
Si Si8 0.097250 0.368140 0.929628
O O1 0.392155 0.879066 0.211370
O O2 0.334306 0.788037 0.389415
O O3 0.288820 0.948931 0.267094
O O4 0.378656 0.009259 0.370935
O O5 0.757269 0.822918 0.503516
O O6 0.851505 0.711378 0.474074
O O7 0.858981 0.947451 0.529613
O O8 0.808214 0.893063 0.352851
O O9 0.101100 0.126971 0.676944
O O10 0.187168 0.155550 0.566269
O O11 0.189624 0.964051 0.701082
O O12 0.078659 0.615249 0.158682
O O13 0.070482 0.720418 0.338809
O O14 0.000000 0.779274 0.191682
O O15 0.263894 0.613912 0.385251
O O16 0.500000 0.047931 0.691134
O O17 0.562555 0.083663 0.528058
#
# Coordination Sequence:
#
# PCOD9352304 Si02
#       8
#     8   8   8   8   8   8   8   8
#     4  10  22  36  62  87 126 161 202 256 313 371
#     4  10  22  36  58  89 125 155 203 247 306 374
#     4  11  23  38  63  88 123 164 212 249 308 373
#     4  10  22  43  65  86 122 168 215 263 307 366
#     4  10  21  37  57  89 122 159 203 246 304 376
#     4  10  23  38  62  95 121 162 216 261 317 370
#     4  10  22  39  57  92 129 162 196 256 313 373
#     4  11  20  39  62  92 124 161 204 262 316 367
#
# _framework density 19.962789999999998
#
# number of rings (size 3 to 8) (size 9 to 14) (size 15 to 20)
#    0.000    1.750    2.500    1.125    3.500    3.500 
#    0.000    1.875    0.000    0.000    0.000    0.000 
#    0.000    0.000    0.000    0.000    0.000    0.000 
#
# Total GULP energy -178244.206827 kJ/mol
# GULP energy per Si atom -5570.131463 kJ/mol
# Density = 1.991735 g / cm^3
# Si number density = 19.962790 Si / 1000 Ang^3
#
#
#
# Elastic Constant Matrix: (Units=GPa)
#
#
# Indices 1 2 3 4 5 6 
#
# 1 77.1424 17.1521 44.7910 0.0000 0.0000 0.0000
# 2 17.1521 29.9314 13.7901 0.0000 0.0000 0.0000
# 3 44.7910 13.7901 60.8398 0.0000 0.0000 0.0000
# 4 0.0000 0.0000 0.0000 23.8420 0.0000 0.0000
# 5 0.0000 0.0000 0.0000 0.0000 17.4353 0.0000
# 6 0.0000 0.0000 0.0000 0.0000 0.0000 22.3029
#
#
#
# Elastic Compliance Matrix: (Units=1/GPa)
#
#
# Indices 1 2 3 4 5 6 
#
# 1 0.023619 -0.006167 -0.015991 0.000000 0.000000 0.000000
# 2 -0.006167 0.038916 -0.004280 0.000000 0.000000 0.000000
# 3 -0.015991 -0.004280 0.029179 0.000000 0.000000 0.000000
# 4 0.000000 0.000000 0.000000 0.041943 0.000000 0.000000
# 5 0.000000 0.000000 0.000000 0.000000 0.057355 0.000000
# 6 0.000000 0.000000 0.000000 0.000000 0.000000 0.044837
#
#
# Mechanical properties :
#
#
# Convention : Reuss Voigt Hill
#
# Bulk Modulus (GPa) = 25.74830 35.48666 30.61748
# Shear Modulus (GPa) = 16.57432 18.86140 17.71786
#
# Velocity S-wave (km/s) = 2.88455 3.07714 2.98240
# Velocity P-wave (km/s) = 4.90105 5.51725 5.21826
#
# Compressibility (1/GPa) = 0.03883752
#
# Stress axis : x y z
#
# Youngs Moduli (GPa) = 42.33894 25.69642 34.27090
#
# Poissons Ratio (x) = 0.15848 0.54801
# Poissons Ratio (y) = 0.26112 0.14669
# Poissons Ratio (z) = 0.67703 0.10999
#
# Static dielectric constant tensor:
#      x y z
#    x 1.735960 0.000000 0.000000 
#    y 0.000000 1.725960 0.000000 
#    z 0.000000 0.000000 1.774110 
# 
# From -- ./inp_files/9505.got.cif
#   From: 2010.05.17/outbox.cif.g08.bks.cpg/sg36_5_cif.got.tgz:9505.got - 2010.06.03 17:41:39.
