data_PCOD9352713
_publ_section_title
;
Structure prediction by ZEFSAII (Michael W. Deem and Ramdas Pophale) SiO2 
 PCOD9352713
Probable space group: C M C 21
;
_chemical_formula_sum "Si O2"
_cell_formula_units_Z 56
_cell_length_a 20.862152
_cell_length_b 14.624080
_cell_length_c 8.774626
_cell_angle_alpha 90.000000
_cell_angle_beta 90.000000
_cell_angle_gamma 90.000000
_cell_volume 2677.048714
_symmetry_space_group_name_H-M "C M C 21"
_symmetry_group_IT_number 36
_symmetry_cell_setting 'orthorhombic'
loop_
_space_group_symop_operation_xyz
x,y,z
-x,-y,1/2+z
x,-y,1/2+z
-x,y,z
1/2+x,1/2+y,z
1/2-x,1/2-y,1/2+z
1/2+x,1/2-y,1/2+z
1/2-x,1/2+y,z
loop_
_atom_site_type_symbol
_atom_site_label
_atom_site_fract_x
_atom_site_fract_y
_atom_site_fract_z
Si Si1 0.676459 0.075582 0.264730
Si Si2 0.428996 0.508044 0.642428
Si Si3 0.383015 0.373345 0.403144
Si Si4 0.777608 0.601926 0.597054
Si Si5 0.139067 0.849417 0.962914
Si Si6 0.424003 0.211361 0.177625
Si Si7 0.204527 0.811016 0.652233
O O1 0.682315 0.082050 0.445224
O O2 0.607321 0.113404 0.215152
O O3 0.727265 0.147646 0.195250
O O4 0.702865 0.977749 0.211629
O O5 0.500000 0.514856 0.707172
O O6 0.420566 0.414799 0.548315
O O7 0.382527 0.546170 0.776354
O O8 0.417925 0.583409 0.510415
O O9 0.410625 0.284642 0.315925
O O10 0.316707 0.345597 0.484835
O O11 0.703398 0.610032 0.543150
O O12 0.793792 0.702328 0.655398
O O13 0.115940 0.754634 0.036996
O O14 0.156785 0.841484 0.787142
O O15 0.500000 0.208009 0.150615
#
# Coordination Sequence:
#
# PCOD9352713 Si02
#       7
#     8   8   8   8   8   8   8
#     4  11  25  43  69  99 135 172 221 280 340 402
#     4  11  22  38  61  97 138 181 218 262 331 416
#     4  11  22  39  64  93 135 175 224 273 335 402
#     4  11  24  41  68 101 129 169 219 283 343 392
#     4  10  22  39  65  99 131 171 213 271 337 403
#     4  11  23  44  68  91 135 186 225 274 330 400
#     4  11  23  42  67 100 134 166 222 283 340 403
#
# _framework density 20.918558000000001
#
# number of rings (size 3 to 8) (size 9 to 14) (size 15 to 20)
#    0.000    1.143    2.857    4.286    2.000    6.857 
#    0.000    4.286    0.000    0.000    0.000    0.000 
#    0.000    0.000    0.000    0.000    0.000    0.000 
#
# Total GULP energy -156281.059170 kJ/mol
# GULP energy per Si atom -5581.466399 kJ/mol
# Density = 2.087095 g / cm^3
# Si number density = 20.918558 Si / 1000 Ang^3
#
#
#
# Elastic Constant Matrix: (Units=GPa)
#
#
# Indices 1 2 3 4 5 6 
#
# 1 52.6444 10.7343 32.9708 0.0000 0.0000 0.0000
# 2 10.7343 105.6507 34.6176 0.0000 0.0000 0.0000
# 3 32.9708 34.6176 86.5001 0.0000 0.0000 0.0000
# 4 0.0000 0.0000 0.0000 6.2222 0.0000 0.0000
# 5 0.0000 0.0000 0.0000 0.0000 -4.6313 0.0000
# 6 0.0000 0.0000 0.0000 0.0000 0.0000 19.8823
#
#
#
# Elastic Compliance Matrix: (Units=1/GPa)
#
#
# Indices 1 2 3 4 5 6 
#
# 1 0.024993 0.000670 -0.009795 0.000000 0.000000 0.000000
# 2 0.000670 0.010912 -0.004622 0.000000 0.000000 0.000000
# 3 -0.009795 -0.004622 0.017144 0.000000 0.000000 0.000000
# 4 0.000000 0.000000 0.000000 0.160716 0.000000 0.000000
# 5 0.000000 0.000000 0.000000 0.000000 -0.215921 0.000000
# 6 0.000000 0.000000 0.000000 0.000000 0.000000 0.050296
#
#
# Mechanical properties :
#
#
# Convention : Reuss Voigt Hill
#
# Bulk Modulus (GPa) = 39.13157 44.60451 41.86804
# Shear Modulus (GPa) = 59.41629 15.39279 37.40454
#
# Velocity S-wave (km/s) = 5.33529 2.71559 4.23318
# Velocity P-wave (km/s) = 7.53000 5.58585 6.62958
#
# Compressibility (1/GPa) = 0.02555482
#
# Stress axis : x y z
#
# Youngs Moduli (GPa) = 40.01114 91.64552 58.32990
#
# Poissons Ratio (x) = -0.06140 0.57132
# Poissons Ratio (y) = -0.02681 0.26961
# Poissons Ratio (z) = 0.39189 0.42361
#
# Static dielectric constant tensor:
#      x y z
#    x 1.915290 0.000000 0.000000 
#    y 0.000000 1.799970 0.000000 
#    z 0.000000 0.000000 1.793010 
# 
# From -- ./inp_files/5199.got.cif
#   From: 2010.05.17/outbox.cif.g08.bks.cpg/sg36_3_cif.got.tgz:5199.got - 2010.06.03 17:41:39.
