data_PCOD9352269
_publ_section_title
;
Structure prediction by ZEFSAII (Michael W. Deem and Ramdas Pophale) SiO2 
 PCOD9352269
Probable space group: C M C 21
;
_chemical_formula_sum "Si O2"
_cell_formula_units_Z 64
_cell_length_a 13.697835
_cell_length_b 17.833740
_cell_length_c 13.014081
_cell_angle_alpha 90.000000
_cell_angle_beta 90.000000
_cell_angle_gamma 90.000000
_cell_volume 3179.126921
_symmetry_space_group_name_H-M "C M C 21"
_symmetry_group_IT_number 36
_symmetry_cell_setting 'orthorhombic'
loop_
_space_group_symop_operation_xyz
x,y,z
-x,-y,1/2+z
x,-y,1/2+z
-x,y,z
1/2+x,1/2+y,z
1/2-x,1/2-y,1/2+z
1/2+x,1/2-y,1/2+z
1/2-x,1/2+y,z
loop_
_atom_site_type_symbol
_atom_site_label
_atom_site_fract_x
_atom_site_fract_y
_atom_site_fract_z
Si Si1 0.742740 0.174829 0.237420
Si Si2 0.386344 0.701423 0.424863
Si Si3 0.191201 0.165139 0.788258
Si Si4 0.888176 0.558016 0.339576
Si Si5 0.691903 0.989726 0.044227
Si Si6 0.608886 0.424061 0.103738
Si Si7 0.266098 0.843869 0.505508
Si Si8 0.394556 0.903955 0.230294
O O1 0.828349 0.176256 0.322445
O O2 0.676977 0.247729 0.263747
O O3 0.674006 0.103160 0.256491
O O4 0.774463 0.176566 0.118479
O O5 0.500000 0.713688 0.402366
O O6 0.380568 0.639568 0.515660
O O7 0.336677 0.776897 0.468556
O O8 0.125502 0.113923 0.715109
O O9 0.190666 0.148509 0.909908
O O10 0.302609 0.148404 0.750572
O O11 0.827685 0.560436 0.444198
O O12 0.892792 0.470353 0.312900
O O13 0.000000 0.585001 0.348316
O O14 0.678665 0.077046 0.019725
O O15 0.802609 0.980722 0.084315
O O16 0.621926 0.951645 0.127130
O O17 0.500000 0.455955 0.097002
O O18 0.500000 0.866016 0.230490
#
# Coordination Sequence:
#
# PCOD9352269 Si02
#       8
#     8   8   8   8   8   8   8   8
#     4  11  22  40  59  92 130 163 205 253 314 369
#     4  10  22  40  66  93 120 160 210 259 306 368
#     4  10  22  38  62  89 127 164 201 260 307 363
#     4  11  22  36  58  92 126 159 205 255 313 374
#     4  11  21  39  61  91 130 161 201 260 319 368
#     4  10  21  41  66  88 118 165 215 251 300 370
#     4  11  22  38  64  90 125 162 206 256 315 370
#     4  10  21  36  59  91 124 160 198 254 319 372
#
# _framework density 20.131312999999999
#
# number of rings (size 3 to 8) (size 9 to 14) (size 15 to 20)
#    0.000    1.500    5.000    0.375    0.000    4.000 
#    0.000    1.875    0.000    1.500    0.000    0.000 
#    0.000    0.000    0.000    0.000    0.000    0.000 
#
# Total GULP energy -178532.770599 kJ/mol
# GULP energy per Si atom -5579.149081 kJ/mol
# Density = 2.008549 g / cm^3
# Si number density = 20.131313 Si / 1000 Ang^3
#
#
#
# Elastic Constant Matrix: (Units=GPa)
#
#
# Indices 1 2 3 4 5 6 
#
# 1 93.1621 1.0784 15.8925 0.0000 0.0000 0.0000
# 2 1.0784 37.0812 3.1953 0.0000 0.0000 0.0000
# 3 15.8925 3.1953 154.8172 0.0000 0.0000 0.0000
# 4 0.0000 0.0000 0.0000 29.8562 0.0000 0.0000
# 5 0.0000 0.0000 0.0000 0.0000 11.3015 0.0000
# 6 0.0000 0.0000 0.0000 0.0000 0.0000 8.2292
#
#
#
# Elastic Compliance Matrix: (Units=1/GPa)
#
#
# Indices 1 2 3 4 5 6 
#
# 1 0.010927 -0.000222 -0.001117 0.000000 0.000000 0.000000
# 2 -0.000222 0.027020 -0.000535 0.000000 0.000000 0.000000
# 3 -0.001117 -0.000535 0.006585 0.000000 0.000000 0.000000
# 4 0.000000 0.000000 0.000000 0.033494 0.000000 0.000000
# 5 0.000000 0.000000 0.000000 0.000000 0.088484 0.000000
# 6 0.000000 0.000000 0.000000 0.000000 0.000000 0.121518
#
#
# Mechanical properties :
#
#
# Convention : Reuss Voigt Hill
#
# Bulk Modulus (GPa) = 24.51867 36.15476 30.33672
# Shear Modulus (GPa) = 16.37354 27.53699 21.95526
#
# Velocity S-wave (km/s) = 2.85500 3.70248 3.30601
# Velocity P-wave (km/s) = 4.80352 6.02298 5.44748
#
# Compressibility (1/GPa) = 0.04078524
#
# Stress axis : x y z
#
# Youngs Moduli (GPa) = 91.51542 37.00912 151.86144
#
# Poissons Ratio (x) = 0.00820 0.16965
# Poissons Ratio (y) = 0.02027 0.08124
# Poissons Ratio (z) = 0.10223 0.01980
#
# Static dielectric constant tensor:
#      x y z
#    x 1.692420 0.000000 0.000000 
#    y 0.000000 1.700710 0.000000 
#    z 0.000000 0.000000 1.766240 
# 
# From -- ./inp_files/8638.got.cif
#   From: 2010.05.17/outbox.cif.g08.bks.cpg/sg36_5_cif.got.tgz:8638.got - 2010.06.03 17:41:39.
