data_PCOD9352340
_publ_section_title
;
Structure prediction by ZEFSAII (Michael W. Deem and Ramdas Pophale) SiO2 
 PCOD9352340
Probable space group: C M C 21
;
_chemical_formula_sum "Si O2"
_cell_formula_units_Z 28
_cell_length_a 9.981903
_cell_length_b 21.415020
_cell_length_c 5.034224
_cell_angle_alpha 90.000000
_cell_angle_beta 90.000000
_cell_angle_gamma 90.000000
_cell_volume 1076.129075
_symmetry_space_group_name_H-M "C M C 21"
_symmetry_group_IT_number 36
_symmetry_cell_setting 'orthorhombic'
loop_
_space_group_symop_operation_xyz
x,y,z
-x,-y,1/2+z
x,-y,1/2+z
-x,y,z
1/2+x,1/2+y,z
1/2-x,1/2-y,1/2+z
1/2+x,1/2-y,1/2+z
1/2-x,1/2+y,z
loop_
_atom_site_type_symbol
_atom_site_label
_atom_site_fract_x
_atom_site_fract_y
_atom_site_fract_z
Si Si1 0.500000 0.040507 0.002571
Si Si2 0.500000 0.234748 0.885491
Si Si3 0.345217 0.545738 0.391382
Si Si4 0.000000 0.819242 0.400749
Si Si5 0.284287 0.868833 0.260533
O O1 0.625849 0.081762 0.916828
O O2 0.500000 0.018802 0.304978
O O3 0.500000 0.261684 0.185415
O O4 0.630116 0.194085 0.801352
O O5 0.500000 0.293241 0.694544
O O6 0.328385 0.503665 0.132237
O O7 0.500000 0.567375 0.393130
O O8 0.245426 0.602442 0.467784
O O9 0.865057 0.858202 0.364053
#
# Coordination Sequence:
#
# PCOD9352340 Si02
#       5
#     4   4   8   4   8
#     4  11  26  45  68 104 140 173 214 265 334 412
#     4  11  28  44  68  94 136 170 230 281 334 378
#     4  10  21  37  60  94 127 160 207 259 315 390
#     4  12  26  47  66 100 126 177 232 280 320 392
#     4  11  24  45  70  97 133 180 216 277 334 389
#
# _framework density 26.019183999999999
#
# number of rings (size 3 to 8) (size 9 to 14) (size 15 to 20)
#    0.000    1.143    1.429    3.429    0.000   11.429 
#    0.000    0.000    0.000    0.000    0.000    0.000 
#    0.000    0.000    0.000    0.000    0.000    0.000 
#
# Total GULP energy -78527.497943 kJ/mol
# GULP energy per Si atom -5609.106996 kJ/mol
# Density = 2.595996 g / cm^3
# Si number density = 26.019184 Si / 1000 Ang^3
#
#
#
# Elastic Constant Matrix: (Units=GPa)
#
#
# Indices 1 2 3 4 5 6 
#
# 1 205.7569 60.2585 12.7456 0.0000 0.0000 0.0000
# 2 60.2585 97.7503 16.7571 0.0000 0.0000 0.0000
# 3 12.7456 16.7571 114.5614 0.0000 0.0000 0.0000
# 4 0.0000 0.0000 0.0000 39.4633 0.0000 0.0000
# 5 0.0000 0.0000 0.0000 0.0000 32.2391 0.0000
# 6 0.0000 0.0000 0.0000 0.0000 0.0000 75.1913
#
#
#
# Elastic Compliance Matrix: (Units=1/GPa)
#
#
# Indices 1 2 3 4 5 6 
#
# 1 0.005933 -0.003635 -0.000128 0.000000 0.000000 0.000000
# 2 -0.003635 0.012721 -0.001456 0.000000 0.000000 0.000000
# 3 -0.000128 -0.001456 0.008956 0.000000 0.000000 0.000000
# 4 0.000000 0.000000 0.000000 0.025340 0.000000 0.000000
# 5 0.000000 0.000000 0.000000 0.000000 0.031018 0.000000
# 6 0.000000 0.000000 0.000000 0.000000 0.000000 0.013299
#
#
# Mechanical properties :
#
#
# Convention : Reuss Voigt Hill
#
# Bulk Modulus (GPa) = 58.24086 66.39899 62.31992
# Shear Modulus (GPa) = 44.07998 51.26591 47.67295
#
# Velocity S-wave (km/s) = 4.12045 4.44364 4.28509
# Velocity P-wave (km/s) = 6.71341 7.20434 6.96320
#
# Compressibility (1/GPa) = 0.01717008
#
# Stress axis : x y z
#
# Youngs Moduli (GPa) = 168.55819 78.61185 111.65421
#
# Poissons Ratio (x) = 0.28577 0.01433
# Poissons Ratio (y) = 0.61275 0.16260
# Poissons Ratio (z) = 0.02163 0.11448
#
# Static dielectric constant tensor:
#      x y z
#    x 2.134310 0.000000 0.000000 
#    y 0.000000 2.030020 0.000000 
#    z 0.000000 0.000000 2.035750 
# 
# From -- ./inp_files/394.got.cif
#   From: 2010.05.17/outbox.cif.g08.bks.cpg/sg36_1_cif.got.tgz:394.got - 2010.06.03 17:41:39.
