data_PCOD9352265
_publ_section_title
;
Structure prediction by ZEFSAII (Michael W. Deem and Ramdas Pophale) SiO2 
 PCOD9352265
Probable space group: C M C 21
;
_chemical_formula_sum "Si O2"
_cell_formula_units_Z 64
_cell_length_a 14.276757
_cell_length_b 24.326688
_cell_length_c 9.791680
_cell_angle_alpha 90.000000
_cell_angle_beta 90.000000
_cell_angle_gamma 90.000000
_cell_volume 3400.711302
_symmetry_space_group_name_H-M "C M C 21"
_symmetry_group_IT_number 36
_symmetry_cell_setting 'orthorhombic'
loop_
_space_group_symop_operation_xyz
x,y,z
-x,-y,1/2+z
x,-y,1/2+z
-x,y,z
1/2+x,1/2+y,z
1/2-x,1/2-y,1/2+z
1/2+x,1/2-y,1/2+z
1/2-x,1/2+y,z
loop_
_atom_site_type_symbol
_atom_site_label
_atom_site_fract_x
_atom_site_fract_y
_atom_site_fract_z
Si Si1 0.888040 0.715221 0.608620
Si Si2 0.390901 0.332943 0.506373
Si Si3 0.610756 0.899654 0.578578
Si Si4 0.726631 0.146625 0.820627
Si Si5 0.781058 0.970649 0.265398
Si Si6 0.389822 0.458534 0.545349
Si Si7 0.388669 0.132242 0.381631
Si Si8 0.892378 0.511370 0.435079
O O1 0.872341 0.780283 0.599672
O O2 0.834141 0.687590 0.732344
O O3 0.855190 0.683886 0.469854
O O4 0.000000 0.705796 0.621736
O O5 0.500000 0.330911 0.465534
O O6 0.322382 0.328463 0.378136
O O7 0.375400 0.393238 0.571243
O O8 0.500000 0.886356 0.566256
O O9 0.668141 0.873150 0.454030
O O10 0.645706 0.879737 0.727204
O O11 0.617003 0.965535 0.552774
O O12 0.755110 0.092439 0.735642
O O13 0.854510 0.968672 0.391463
O O14 0.686319 0.996294 0.325977
O O15 0.827355 0.004597 0.144524
O O16 0.500000 0.529330 0.059819
O O17 0.500000 0.140251 0.364845
O O18 0.377767 0.075491 0.467084
O O19 0.000000 0.506695 0.382718
#
# Coordination Sequence:
#
# PCOD9352265 Si02
#       8
#     8   8   8   8   8   8   8   8
#     4  10  21  39  61  87 118 155 197 240 289 350
#     4   9  21  41  61  81 113 157 199 238 291 349
#     4   9  18  33  52  81 120 158 192 232 285 347
#     4  10  21  36  58  88 116 150 190 244 297 346
#     4  10  22  35  58  87 115 149 190 237 298 352
#     4  10  21  41  63  84 111 148 197 252 299 342
#     4   9  19  32  52  78 112 156 195 229 275 340
#     4   9  19  31  48  80 123 157 185 222 277 352
#
# _framework density 18.819592
#
# number of rings (size 3 to 8) (size 9 to 14) (size 15 to 20)
#    0.000    2.500    0.000    0.750    7.000    3.000 
#    0.000    3.750    0.000    0.750    0.000    7.875 
#    0.000    0.000    0.000    0.000    0.000    0.000 
#
# Total GULP energy -178476.867299 kJ/mol
# GULP energy per Si atom -5577.402103 kJ/mol
# Density = 1.877676 g / cm^3
# Si number density = 18.819592 Si / 1000 Ang^3
#
#
#
# Elastic Constant Matrix: (Units=GPa)
#
#
# Indices 1 2 3 4 5 6 
#
# 1 85.0737 34.2690 31.4903 0.0000 0.0000 0.0000
# 2 34.2690 86.9424 42.9420 0.0000 0.0000 0.0000
# 3 31.4903 42.9420 83.9519 0.0000 0.0000 0.0000
# 4 0.0000 0.0000 0.0000 17.8564 0.0000 0.0000
# 5 0.0000 0.0000 0.0000 0.0000 29.1914 0.0000
# 6 0.0000 0.0000 0.0000 0.0000 0.0000 20.8251
#
#
#
# Elastic Compliance Matrix: (Units=1/GPa)
#
#
# Indices 1 2 3 4 5 6 
#
# 1 0.014666 -0.004099 -0.003404 0.000000 0.000000 0.000000
# 2 -0.004099 0.016536 -0.006921 0.000000 0.000000 0.000000
# 3 -0.003404 -0.006921 0.016728 0.000000 0.000000 0.000000
# 4 0.000000 0.000000 0.000000 0.056002 0.000000 0.000000
# 5 0.000000 0.000000 0.000000 0.000000 0.034257 0.000000
# 6 0.000000 0.000000 0.000000 0.000000 0.000000 0.048019
#
#
# Mechanical properties :
#
#
# Convention : Reuss Voigt Hill
#
# Bulk Modulus (GPa) = 52.40586 52.59673 52.50130
# Shear Modulus (GPa) = 22.58184 23.39237 22.98710
#
# Velocity S-wave (km/s) = 3.46773 3.52942 3.49871
# Velocity P-wave (km/s) = 6.62876 6.67964 6.65425
#
# Compressibility (1/GPa) = 0.01908183
#
# Stress axis : x y z
#
# Youngs Moduli (GPa) = 68.18550 60.47505 59.77827
#
# Poissons Ratio (x) = 0.24790 0.20351
# Poissons Ratio (y) = 0.27950 0.41370
# Poissons Ratio (z) = 0.23213 0.41852
#
# Static dielectric constant tensor:
#      x y z
#    x 1.659050 0.000000 0.000000 
#    y 0.000000 1.670550 0.000000 
#    z 0.000000 0.000000 1.655770 
# 
# From -- ./inp_files/4347.got.cif
#   From: 2010.05.17/outbox.cif.g08.bks.cpg/sg36_3_cif.got.tgz:4347.got - 2010.06.03 17:41:39.
