data_PCOD9352235
_publ_section_title
;
Structure prediction by ZEFSAII (Michael W. Deem and Ramdas Pophale) SiO2 
 PCOD9352235
Probable space group: C M C 21
;
_chemical_formula_sum "Si O2"
_cell_formula_units_Z 64
_cell_length_a 36.781623
_cell_length_b 5.239757
_cell_length_c 14.476964
_cell_angle_alpha 90.000000
_cell_angle_beta 90.000000
_cell_angle_gamma 90.000000
_cell_volume 2790.098462
_symmetry_space_group_name_H-M "C M C 21"
_symmetry_group_IT_number 36
_symmetry_cell_setting 'orthorhombic'
loop_
_space_group_symop_operation_xyz
x,y,z
-x,-y,1/2+z
x,-y,1/2+z
-x,y,z
1/2+x,1/2+y,z
1/2-x,1/2-y,1/2+z
1/2+x,1/2-y,1/2+z
1/2-x,1/2+y,z
loop_
_atom_site_type_symbol
_atom_site_label
_atom_site_fract_x
_atom_site_fract_y
_atom_site_fract_z
Si Si1 0.614852 0.712492 0.687670
Si Si2 0.346866 0.787828 0.180374
Si Si3 0.843321 0.682653 0.904080
Si Si4 0.039997 0.605283 0.112999
Si Si5 0.540178 0.604412 0.990260
Si Si6 0.765016 0.321521 0.142667
Si Si7 0.235436 0.440085 0.929387
Si Si8 0.382479 0.684368 0.906620
O O1 0.624969 0.432472 0.650606
O O2 0.574195 0.814345 0.673724
O O3 0.621552 0.693612 0.796496
O O4 0.640986 0.932164 0.648537
O O5 0.345658 0.799412 0.292271
O O6 0.306354 0.730785 0.147323
O O7 0.803454 0.576831 0.925930
O O8 0.870737 0.463907 0.939137
O O9 0.855962 0.957864 0.940530
O O10 0.043607 0.325009 0.068452
O O11 0.000000 0.618136 0.158617
O O12 0.040183 0.822727 0.034004
O O13 0.500000 0.644625 0.946858
O O14 0.575772 0.627815 0.928650
O O15 0.740209 0.101062 0.185913
O O16 0.754948 0.379095 0.036212
O O17 0.237488 0.154482 0.888290
#
# Coordination Sequence:
#
# PCOD9352235 Si02
#       8
#     8   8   8   8   8   8   8   8
#     4  10  21  37  56  81 112 144 182 226 272 326
#     4  10  21  36  55  80 108 140 181 226 271 324
#     4  10  21  36  55  80 108 140 181 226 271 324
#     4  10  21  37  57  83 113 144 182 225 268 321
#     4  10  21  37  57  83 113 144 182 225 268 321
#     4  10  21  36  53  76 106 139 178 223 270 323
#     4  10  21  36  53  76 106 139 178 223 270 323
#     4  10  21  37  56  81 112 144 182 226 272 326
#
# _framework density 22.938255999999999
#
# number of rings (size 3 to 8) (size 9 to 14) (size 15 to 20)
#    0.000    2.000    0.000    3.000    0.000    4.500 
#    0.000    0.000    0.000    9.000    0.000    0.000 
#    0.000    0.000    0.000    0.000    0.000    0.000 
#
# Total GULP energy -178754.424063 kJ/mol
# GULP energy per Si atom -5586.075752 kJ/mol
# Density = 2.288605 g / cm^3
# Si number density = 22.938256 Si / 1000 Ang^3
#
#
#
# Elastic Constant Matrix: (Units=GPa)
#
#
# Indices 1 2 3 4 5 6 
#
# 1 87.0835 8.1337 -15.1480 0.0000 0.0000 0.0000
# 2 8.1337 96.0014 16.1895 0.0000 0.0000 0.0000
# 3 -15.1480 16.1895 36.6790 0.0000 0.0000 0.0000
# 4 0.0000 0.0000 0.0000 59.5734 0.0000 0.0000
# 5 0.0000 0.0000 0.0000 0.0000 45.1451 0.0000
# 6 0.0000 0.0000 0.0000 0.0000 0.0000 34.8645
#
#
#
# Elastic Compliance Matrix: (Units=1/GPa)
#
#
# Indices 1 2 3 4 5 6 
#
# 1 0.012762 -0.002129 0.006210 0.000000 0.000000 0.000000
# 2 -0.002129 0.011609 -0.006003 0.000000 0.000000 0.000000
# 3 0.006210 -0.006003 0.032478 0.000000 0.000000 0.000000
# 4 0.000000 0.000000 0.000000 0.016786 0.000000 0.000000
# 5 0.000000 0.000000 0.000000 0.000000 0.022151 0.000000
# 6 0.000000 0.000000 0.000000 0.000000 0.000000 0.028682
#
#
# Mechanical properties :
#
#
# Convention : Reuss Voigt Hill
#
# Bulk Modulus (GPa) = 18.86563 26.45715 22.66139
# Shear Modulus (GPa) = 34.25111 41.95585 38.10348
#
# Velocity S-wave (km/s) = 3.86837 4.28141 4.08012
# Velocity P-wave (km/s) = 5.30987 5.99998 5.66544
#
# Compressibility (1/GPa) = 0.05300644
#
# Stress axis : x y z
#
# Youngs Moduli (GPa) = 78.35578 86.13845 30.79008
#
# Poissons Ratio (x) = 0.18335 -0.19121
# Poissons Ratio (y) = 0.16679 0.18484
# Poissons Ratio (z) = -0.48661 0.51710
#
# Static dielectric constant tensor:
#      x y z
#    x 1.838420 0.000000 0.000000 
#    y 0.000000 1.899430 0.000000 
#    z 0.000000 0.000000 1.865710 
# 
# From -- ./inp_files/15202.got.cif
#   From: 2010.05.17/outbox.cif.g08.bks.cpg/sg36_8_cif.got.tgz:15202.got - 2010.06.03 17:41:39.
