data_PCOD9352188
_publ_section_title
;
Structure prediction by ZEFSAII (Michael W. Deem and Ramdas Pophale) SiO2 
 PCOD9352188
Probable space group: C M C 21
;
_chemical_formula_sum "Si O2"
_cell_formula_units_Z 36
_cell_length_a 13.842462
_cell_length_b 23.088901
_cell_length_c 5.259952
_cell_angle_alpha 90.000000
_cell_angle_beta 90.000000
_cell_angle_gamma 90.000000
_cell_volume 1681.118713
_symmetry_space_group_name_H-M "C M C 21"
_symmetry_group_IT_number 36
_symmetry_cell_setting 'orthorhombic'
loop_
_space_group_symop_operation_xyz
x,y,z
-x,-y,1/2+z
x,-y,1/2+z
-x,y,z
1/2+x,1/2+y,z
1/2-x,1/2-y,1/2+z
1/2+x,1/2-y,1/2+z
1/2-x,1/2+y,z
loop_
_atom_site_type_symbol
_atom_site_label
_atom_site_fract_x
_atom_site_fract_y
_atom_site_fract_z
Si Si1 0.000000 0.761413 0.164120
Si Si2 0.210861 0.152513 0.159650
Si Si3 0.000000 0.157758 0.164623
Si Si4 0.835578 0.281322 0.980512
Si Si5 0.500000 0.037856 0.573349
Si Si6 0.605238 0.872006 0.356949
O O1 0.000000 0.808006 0.397191
O O2 0.094388 0.723793 0.236946
O O3 0.000000 0.796952 0.902529
O O4 0.199301 0.216593 0.032372
O O5 0.298088 0.120083 0.019557
O O6 0.249362 0.173584 0.432320
O O7 0.103873 0.126316 0.172720
O O8 0.891239 0.310691 0.211276
O O9 0.408770 0.079299 0.637218
O O10 0.500000 0.989990 0.797597
O O11 0.500000 0.876761 0.491929
#
# Coordination Sequence:
#
# PCOD9352188 Si02
#       6
#     4   8   4   8   4   8
#     4  10  21  33  52  72 114 168 214 256 278 356
#     4  11  22  34  54  83 131 175 209 252 305 391
#     4  10  24  36  50  78 118 168 211 239 290 356
#     4  11  20  32  54  85 130 172 216 248 319 378
#     4  10  25  47  68  94 126 158 223 291 338 378
#     4  10  24  38  61  94 124 171 213 272 331 385
#
# _framework density 21.414311999999999
#
# number of rings (size 3 to 8) (size 9 to 14) (size 15 to 20)
#    0.667    0.889    3.333    1.333   10.889    0.000 
#    0.000    0.000    0.000    0.000    0.000    1.556 
#    0.000    0.000    0.000    0.000    0.000    0.000 
#
# Total GULP energy -100335.444799 kJ/mol
# GULP energy per Si atom -5574.191378 kJ/mol
# Density = 2.136557 g / cm^3
# Si number density = 21.414312 Si / 1000 Ang^3
#
#
#
# Elastic Constant Matrix: (Units=GPa)
#
#
# Indices 1 2 3 4 5 6 
#
# 1 172.2454 7.2087 15.2999 0.0000 0.0000 0.0000
# 2 7.2087 36.3552 18.0258 0.0000 0.0000 0.0000
# 3 15.2999 18.0258 86.7107 0.0000 0.0000 0.0000
# 4 0.0000 0.0000 0.0000 32.7964 0.0000 0.0000
# 5 0.0000 0.0000 0.0000 0.0000 27.5491 0.0000
# 6 0.0000 0.0000 0.0000 0.0000 0.0000 13.0933
#
#
#
# Elastic Compliance Matrix: (Units=1/GPa)
#
#
# Indices 1 2 3 4 5 6 
#
# 1 0.005915 -0.000731 -0.000892 0.000000 0.000000 0.000000
# 2 -0.000731 0.030758 -0.006265 0.000000 0.000000 0.000000
# 3 -0.000892 -0.006265 0.012992 0.000000 0.000000 0.000000
# 4 0.000000 0.000000 0.000000 0.030491 0.000000 0.000000
# 5 0.000000 0.000000 0.000000 0.000000 0.036299 0.000000
# 6 0.000000 0.000000 0.000000 0.000000 0.000000 0.076375
#
#
# Mechanical properties :
#
#
# Convention : Reuss Voigt Hill
#
# Bulk Modulus (GPa) = 29.50710 41.82001 35.66356
# Shear Modulus (GPa) = 22.73733 31.67287 27.20510
#
# Velocity S-wave (km/s) = 3.26203 3.85002 3.56816
# Velocity P-wave (km/s) = 5.29121 6.27175 5.80223
#
# Compressibility (1/GPa) = 0.03389014
#
# Stress axis : x y z
#
# Youngs Moduli (GPa) = 169.04820 32.51217 76.96817
#
# Poissons Ratio (x) = 0.02376 0.06864
# Poissons Ratio (y) = 0.12353 0.48221
# Poissons Ratio (z) = 0.15077 0.20369
#
# Static dielectric constant tensor:
#      x y z
#    x 1.923260 0.000000 0.000000 
#    y 0.000000 1.769550 0.000000 
#    z 0.000000 0.000000 1.884210 
# 
# From -- ./inp_files/781.got.cif
#   From: 2010.05.17/outbox.cif.g08.bks.cpg/sg36_1_cif.got.tgz:781.got - 2010.06.03 17:41:39.
