data_PCOD9352678
_publ_section_title
;
Structure prediction by ZEFSAII (Michael W. Deem and Ramdas Pophale) SiO2 
 PCOD9352678
Probable space group: C M C 21
;
_chemical_formula_sum "Si O2"
_cell_formula_units_Z 44
_cell_length_a 13.038125
_cell_length_b 26.296813
_cell_length_c 5.379785
_cell_angle_alpha 90.000000
_cell_angle_beta 90.000000
_cell_angle_gamma 90.000000
_cell_volume 1844.519191
_symmetry_space_group_name_H-M "C M C 21"
_symmetry_group_IT_number 36
_symmetry_cell_setting 'orthorhombic'
loop_
_space_group_symop_operation_xyz
x,y,z
-x,-y,1/2+z
x,-y,1/2+z
-x,y,z
1/2+x,1/2+y,z
1/2-x,1/2-y,1/2+z
1/2+x,1/2-y,1/2+z
1/2-x,1/2+y,z
loop_
_atom_site_type_symbol
_atom_site_label
_atom_site_fract_x
_atom_site_fract_y
_atom_site_fract_z
Si Si1 0.383190 0.966009 0.587010
Si Si2 0.822410 0.097603 0.004395
Si Si3 0.289843 0.810170 0.265987
Si Si4 0.000000 0.863964 0.818313
Si Si5 0.500000 0.531493 0.782871
Si Si6 0.000000 0.199646 0.820127
Si Si7 0.334818 0.214671 0.260218
O O1 0.500000 0.943886 0.579470
O O2 0.285309 0.928820 0.566488
O O3 0.375313 0.002810 0.345349
O O4 0.795928 0.149927 0.858628
O O5 0.894134 0.107103 0.247475
O O6 0.897320 0.063928 0.833062
O O7 0.327595 0.822855 0.991601
O O8 0.269942 0.748451 0.237037
O O9 0.362586 0.811918 0.503838
O O10 0.000000 0.823454 0.593476
O O11 0.000000 0.839034 0.087856
O O12 0.500000 0.509149 0.507671
O O13 0.908409 0.238826 0.796620
#
# Coordination Sequence:
#
# PCOD9352678 Si02
#       7
#     8   8   8   4   4   4   8
#     4  10  23  45  71  96 129 180 229 282 356 426
#     4  11  24  43  70 102 142 176 233 295 347 436
#     4  10  22  38  61  91 124 178 228 274 335 390
#     4  11  26  36  66 103 134 180 228 271 358 423
#     4  11  26  45  68 108 146 182 222 288 374 438
#     4  12  22  43  62  91 138 188 226 279 344 421
#     4  10  22  39  60  86 130 179 224 277 329 402
#
# _framework density 23.854452999999999
#
# number of rings (size 3 to 8) (size 9 to 14) (size 15 to 20)
#    0.000    1.455    1.818    2.182    5.091    7.273 
#    3.273    0.000    0.000    0.000    0.000    0.000 
#    5.455    0.000    0.000    0.000    0.000    0.000 
#
# Total GULP energy -122744.891474 kJ/mol
# GULP energy per Si atom -5579.313249 kJ/mol
# Density = 2.380016 g / cm^3
# Si number density = 23.854453 Si / 1000 Ang^3
#
#
#
# Elastic Constant Matrix: (Units=GPa)
#
#
# Indices 1 2 3 4 5 6 
#
# 1 158.1263 62.7538 36.7055 0.0000 0.0000 0.0000
# 2 62.7538 70.7209 13.3301 0.0000 0.0000 0.0000
# 3 36.7055 13.3301 118.3799 0.0000 0.0000 0.0000
# 4 0.0000 0.0000 0.0000 36.0551 0.0000 0.0000
# 5 0.0000 0.0000 0.0000 0.0000 5.1803 0.0000
# 6 0.0000 0.0000 0.0000 0.0000 0.0000 47.6080
#
#
#
# Elastic Compliance Matrix: (Units=1/GPa)
#
#
# Indices 1 2 3 4 5 6 
#
# 1 0.010299 -0.008722 -0.002211 0.000000 0.000000 0.000000
# 2 -0.008722 0.021833 0.000246 0.000000 0.000000 0.000000
# 3 -0.002211 0.000246 0.009105 0.000000 0.000000 0.000000
# 4 0.000000 0.000000 0.000000 0.027735 0.000000 0.000000
# 5 0.000000 0.000000 0.000000 0.000000 0.193039 0.000000
# 6 0.000000 0.000000 0.000000 0.000000 0.000000 0.021005
#
#
# Mechanical properties :
#
#
# Convention : Reuss Voigt Hill
#
# Bulk Modulus (GPa) = 50.34537 63.64510 56.99523
# Shear Modulus (GPa) = 16.07660 33.39784 24.73722
#
# Velocity S-wave (km/s) = 2.59886 3.74581 3.22375
# Velocity P-wave (km/s) = 5.49149 6.74141 6.14830
#
# Compressibility (1/GPa) = 0.01986280
#
# Stress axis : x y z
#
# Youngs Moduli (GPa) = 97.10088 45.80264 109.82609
#
# Poissons Ratio (x) = 0.39947 0.24284
# Poissons Ratio (y) = 0.84687 -0.02700
# Poissons Ratio (z) = 0.21470 -0.01126
#
# Static dielectric constant tensor:
#      x y z
#    x 2.552490 0.000000 0.000000 
#    y 0.000000 1.957000 0.000000 
#    z 0.000000 0.000000 1.987550 
# 
# From -- ./inp_files/806.got.cif
#   From: 2010.05.17/outbox.cif.g08.bks.cpg/sg36_1_cif.got.tgz:806.got - 2010.06.03 17:41:39.
