data_PCOD9352406
_publ_section_title
;
Structure prediction by ZEFSAII (Michael W. Deem and Ramdas Pophale) SiO2 
 PCOD9352406
Probable space group: C M C 21
;
_chemical_formula_sum "Si O2"
_cell_formula_units_Z 32
_cell_length_a 18.133373
_cell_length_b 15.529261
_cell_length_c 5.202233
_cell_angle_alpha 90.000000
_cell_angle_beta 90.000000
_cell_angle_gamma 90.000000
_cell_volume 1464.937795
_symmetry_space_group_name_H-M "C M C 21"
_symmetry_group_IT_number 36
_symmetry_cell_setting 'orthorhombic'
loop_
_space_group_symop_operation_xyz
x,y,z
-x,-y,1/2+z
x,-y,1/2+z
-x,y,z
1/2+x,1/2+y,z
1/2-x,1/2-y,1/2+z
1/2+x,1/2-y,1/2+z
1/2-x,1/2+y,z
loop_
_atom_site_type_symbol
_atom_site_label
_atom_site_fract_x
_atom_site_fract_y
_atom_site_fract_z
Si Si1 0.729986 0.027589 0.406590
Si Si2 0.723978 0.706269 0.663268
Si Si3 0.583917 0.913255 0.332608
Si Si4 0.417985 0.791871 0.832284
O O1 0.592833 0.151680 0.590894
O O2 0.763271 0.964156 0.621847
O O3 0.649149 0.984449 0.344808
O O4 0.728163 0.766740 0.410659
O O5 0.642383 0.719182 0.778192
O O6 0.753387 0.617124 0.547920
O O7 0.500000 0.949645 0.310313
O O8 0.586332 0.857821 0.592937
O O9 0.500000 0.755462 0.843010
#
# Coordination Sequence:
#
# PCOD9352406 Si02
#       4
#     8   8   8   8
#     4  12  24  38  58  88 124 163 210 262 321 386
#     4  12  24  40  62  90 127 171 218 268 325 394
#     4  10  21  38  61  91 126 162 204 259 326 395
#     4  10  21  40  65  91 125 168 212 263 322 389
#
# _framework density 21.843931000000001
#
# number of rings (size 3 to 8) (size 9 to 14) (size 15 to 20)
#    0.000    1.000    0.000    9.000    0.000    1.000 
#    0.000    2.500    0.000    1.500    0.000    0.000 
#    0.000    0.000    0.000    0.000    0.000    0.000 
#
# Total GULP energy -89257.168974 kJ/mol
# GULP energy per Si atom -5578.573061 kJ/mol
# Density = 2.179421 g / cm^3
# Si number density = 21.843931 Si / 1000 Ang^3
#
#
#
# Elastic Constant Matrix: (Units=GPa)
#
#
# Indices 1 2 3 4 5 6 
#
# 1 139.9703 54.2233 33.1883 0.0000 0.0000 0.0000
# 2 54.2233 85.7675 30.9112 0.0000 0.0000 0.0000
# 3 33.1883 30.9112 195.9269 0.0000 0.0000 0.0000
# 4 0.0000 0.0000 0.0000 53.4707 0.0000 0.0000
# 5 0.0000 0.0000 0.0000 0.0000 28.8713 0.0000
# 6 0.0000 0.0000 0.0000 0.0000 0.0000 46.0224
#
#
#
# Elastic Compliance Matrix: (Units=1/GPa)
#
#
# Indices 1 2 3 4 5 6 
#
# 1 0.009553 -0.005785 -0.000705 0.000000 0.000000 0.000000
# 2 -0.005785 0.015866 -0.001523 0.000000 0.000000 0.000000
# 3 -0.000705 -0.001523 0.005464 0.000000 0.000000 0.000000
# 4 0.000000 0.000000 0.000000 0.018702 0.000000 0.000000
# 5 0.000000 0.000000 0.000000 0.000000 0.034636 0.000000
# 6 0.000000 0.000000 0.000000 0.000000 0.000000 0.021729
#
#
# Mechanical properties :
#
#
# Convention : Reuss Voigt Hill
#
# Bulk Modulus (GPa) = 67.31820 73.14560 70.23190
# Shear Modulus (GPa) = 39.39234 45.89570 42.64402
#
# Velocity S-wave (km/s) = 4.25120 4.58872 4.42318
# Velocity P-wave (km/s) = 7.41496 7.85069 7.63593
#
# Compressibility (1/GPa) = 0.01485482
#
# Stress axis : x y z
#
# Youngs Moduli (GPa) = 104.68196 63.02859 183.02448
#
# Poissons Ratio (x) = 0.36463 0.12911
# Poissons Ratio (y) = 0.60560 0.27878
# Poissons Ratio (z) = 0.07385 0.09600
#
# Static dielectric constant tensor:
#      x y z
#    x 1.895430 0.000000 0.000000 
#    y 0.000000 1.875260 0.000000 
#    z 0.000000 0.000000 1.976470 
# 
# From -- ./inp_files/546.got.cif
#   From: 2010.05.17/outbox.cif.g08.bks.cpg/sg36_1_cif.got.tgz:546.got - 2010.06.03 17:41:39.
