data_PCOD9352090
_publ_section_title
;
Structure prediction by ZEFSAII (Michael W. Deem and Ramdas Pophale) SiO2 
 PCOD9352090
Probable space group: C M C 21
;
_chemical_formula_sum "Si O2"
_cell_formula_units_Z 64
_cell_length_a 26.829770
_cell_length_b 11.403594
_cell_length_c 8.599428
_cell_angle_alpha 90.000000
_cell_angle_beta 90.000000
_cell_angle_gamma 90.000000
_cell_volume 2631.044909
_symmetry_space_group_name_H-M "C M C 21"
_symmetry_group_IT_number 36
_symmetry_cell_setting 'orthorhombic'
loop_
_space_group_symop_operation_xyz
x,y,z
-x,-y,1/2+z
x,-y,1/2+z
-x,y,z
1/2+x,1/2+y,z
1/2-x,1/2-y,1/2+z
1/2+x,1/2-y,1/2+z
1/2-x,1/2+y,z
loop_
_atom_site_type_symbol
_atom_site_label
_atom_site_fract_x
_atom_site_fract_y
_atom_site_fract_z
Si Si1 0.053311 0.100724 0.539950
Si Si2 0.929305 0.672121 0.211113
Si Si3 0.205963 0.079212 0.770917
Si Si4 0.056139 0.759117 0.712215
Si Si5 0.422383 0.036012 0.900244
Si Si6 0.360013 0.587547 0.071158
Si Si7 0.303966 0.991611 0.445238
Si Si8 0.311213 0.825670 0.726804
O O1 0.052132 0.198431 0.675325
O O2 0.057862 0.167256 0.375095
O O3 0.000000 0.037613 0.541640
O O4 0.099639 0.016761 0.560054
O O5 0.941744 0.593710 0.360239
O O6 0.870170 0.685345 0.213923
O O7 0.940963 0.592997 0.059613
O O8 0.259259 0.065799 0.849758
O O9 0.209021 0.200006 0.674177
O O10 0.183025 0.965490 0.684390
O O11 0.166320 0.106192 0.907316
O O12 0.062545 0.625128 0.764184
O O13 0.105100 0.803788 0.621277
O O14 0.000000 0.775471 0.647059
O O15 0.361727 0.034069 0.902188
O O16 0.298138 0.933820 0.613490
O O17 0.297730 0.128907 0.400199
#
# Coordination Sequence:
#
# PCOD9352090 Si02
#       8
#     8   8   8   8   8   8   8   8
#     4  10  20  39  65  89 122 170 217 278 345 398
#     4   9  18  37  61  87 123 165 206 270 331 399
#     4  12  26  41  69  97 139 183 235 279 347 409
#     4  10  22  41  66  95 130 176 223 279 347 408
#     4   9  20  37  63  89 130 165 214 270 336 397
#     4  12  24  43  63  95 133 175 228 284 336 404
#     4  10  23  41  65  98 132 182 225 281 338 411
#     4  10  22  43  63  94 135 172 227 279 339 406
#
# _framework density 24.324935
#
# number of rings (size 3 to 8) (size 9 to 14) (size 15 to 20)
#    0.000    1.750    2.500    1.125    0.000    8.500 
#    0.000    0.000    0.000    0.000    0.000    0.000 
#    0.000    0.000    0.000    0.000    0.000    0.000 
#
# Total GULP energy -178728.079421 kJ/mol
# GULP energy per Si atom -5585.252482 kJ/mol
# Density = 2.426957 g / cm^3
# Si number density = 24.324935 Si / 1000 Ang^3
#
#
#
# Elastic Constant Matrix: (Units=GPa)
#
#
# Indices 1 2 3 4 5 6 
#
# 1 122.2307 9.6895 24.2417 0.0000 0.0000 0.0000
# 2 9.6895 64.5882 12.3743 0.0000 0.0000 0.0000
# 3 24.2417 12.3743 57.4459 0.0000 0.0000 0.0000
# 4 0.0000 0.0000 0.0000 33.8170 0.0000 0.0000
# 5 0.0000 0.0000 0.0000 0.0000 -30.3787 0.0000
# 6 0.0000 0.0000 0.0000 0.0000 0.0000 195.4893
#
#
#
# Elastic Compliance Matrix: (Units=1/GPa)
#
#
# Indices 1 2 3 4 5 6 
#
# 1 0.008954 -0.000646 -0.003639 0.000000 0.000000 0.000000
# 2 -0.000646 0.016196 -0.003216 0.000000 0.000000 0.000000
# 3 -0.003639 -0.003216 0.019636 0.000000 0.000000 0.000000
# 4 0.000000 0.000000 0.000000 0.029571 0.000000 0.000000
# 5 0.000000 0.000000 0.000000 0.000000 -0.032918 0.000000
# 6 0.000000 0.000000 0.000000 0.000000 0.000000 0.005115
#
#
# Mechanical properties :
#
#
# Convention : Reuss Voigt Hill
#
# Bulk Modulus (GPa) = 33.57601 37.43064 35.50333
# Shear Modulus (GPa) = 69.94407 52.98280 61.46344
#
# Velocity S-wave (km/s) = 5.36810 4.67210 5.03215
# Velocity P-wave (km/s) = 7.22877 6.67277 6.95633
#
# Compressibility (1/GPa) = 0.02978317
#
# Stress axis : x y z
#
# Youngs Moduli (GPa) = 111.67855 61.74445 50.92619
#
# Poissons Ratio (x) = 0.03989 0.18534
# Poissons Ratio (y) = 0.07215 0.16378
# Poissons Ratio (z) = 0.40645 0.19857
#
# Static dielectric constant tensor:
#      x y z
#    x 1.929970 0.000000 0.000000 
#    y 0.000000 1.953000 0.000000 
#    z 0.000000 0.000000 2.001890 
# 
# From -- ./inp_files/6093.got.cif
#   From: 2010.05.17/outbox.cif.g08.bks.cpg/sg36_4_cif.got.tgz:6093.got - 2010.06.03 17:41:39.
