data_PCOD9352329
_publ_section_title
;
Structure prediction by ZEFSAII (Michael W. Deem and Ramdas Pophale) SiO2 
 PCOD9352329
Probable space group: C M C 21
;
_chemical_formula_sum "Si O2"
_cell_formula_units_Z 64
_cell_length_a 14.407942
_cell_length_b 23.360876
_cell_length_c 9.718216
_cell_angle_alpha 90.000000
_cell_angle_beta 90.000000
_cell_angle_gamma 90.000000
_cell_volume 3270.978001
_symmetry_space_group_name_H-M "C M C 21"
_symmetry_group_IT_number 36
_symmetry_cell_setting 'orthorhombic'
loop_
_space_group_symop_operation_xyz
x,y,z
-x,-y,1/2+z
x,-y,1/2+z
-x,y,z
1/2+x,1/2+y,z
1/2-x,1/2-y,1/2+z
1/2+x,1/2-y,1/2+z
1/2-x,1/2+y,z
loop_
_atom_site_type_symbol
_atom_site_label
_atom_site_fract_x
_atom_site_fract_y
_atom_site_fract_z
Si Si1 0.399657 0.556761 0.708880
Si Si2 0.819868 0.460875 0.532304
Si Si3 0.098942 0.470887 0.809916
Si Si4 0.889458 0.735093 0.221021
Si Si5 0.299902 0.136248 0.405386
Si Si6 0.658105 0.461276 0.906299
Si Si7 0.610466 0.841283 0.459904
Si Si8 0.256651 0.343586 0.218229
O O1 0.500000 0.580767 0.753285
O O2 0.399297 0.552313 0.543408
O O3 0.388849 0.495080 0.781918
O O4 0.313409 0.597741 0.746267
O O5 0.897451 0.481339 0.424948
O O6 0.830981 0.483346 0.686605
O O7 0.732053 0.492677 0.467717
O O8 0.835955 0.393367 0.537187
O O9 0.121178 0.411949 0.886690
O O10 0.000000 0.466350 0.740237
O O11 0.833998 0.689510 0.315893
O O12 0.833513 0.794033 0.231425
O O13 0.000000 0.738239 0.256639
O O14 0.884403 0.711954 0.064255
O O15 0.209594 0.097765 0.362809
O O16 0.281825 0.153083 0.562807
O O17 0.500000 0.852486 0.437456
O O18 0.670792 0.834325 0.321799
#
# Coordination Sequence:
#
# PCOD9352329 Si02
#       8
#     8   8   8   8   8   8   8   8
#     4  11  22  39  61  90 122 162 209 252 300 360
#     4  11  21  36  55  87 125 163 194 239 303 365
#     4  11  21  33  53  85 123 160 196 238 292 366
#     4  11  23  43  66  88 118 163 211 256 305 364
#     4  10  22  37  60  86 121 158 197 248 312 363
#     4  10  21  37  59  87 124 158 195 248 307 364
#     4  11  23  39  62  91 124 159 203 254 308 370
#     4  11  24  42  62  90 121 165 207 259 303 360
#
# _framework density 19.566013000000002
#
# number of rings (size 3 to 8) (size 9 to 14) (size 15 to 20)
#    0.000    1.250    2.500    4.500    3.500    1.000 
#    0.000    0.000    0.000    0.750    0.000    0.000 
#    0.000    0.000    0.000    0.000    0.000    0.000 
#
# Total GULP energy -178383.181866 kJ/mol
# GULP energy per Si atom -5574.474433 kJ/mol
# Density = 1.952148 g / cm^3
# Si number density = 19.566013 Si / 1000 Ang^3
#
#
#
# Elastic Constant Matrix: (Units=GPa)
#
#
# Indices 1 2 3 4 5 6 
#
# 1 102.3841 15.7847 36.2022 0.0000 0.0000 0.0000
# 2 15.7847 70.8768 28.0913 0.0000 0.0000 0.0000
# 3 36.2022 28.0913 102.6555 0.0000 0.0000 0.0000
# 4 0.0000 0.0000 0.0000 19.9968 0.0000 0.0000
# 5 0.0000 0.0000 0.0000 0.0000 15.6981 0.0000
# 6 0.0000 0.0000 0.0000 0.0000 0.0000 6.7225
#
#
#
# Elastic Compliance Matrix: (Units=1/GPa)
#
#
# Indices 1 2 3 4 5 6 
#
# 1 0.011227 -0.001044 -0.003674 0.000000 0.000000 0.000000
# 2 -0.001044 0.015923 -0.003989 0.000000 0.000000 0.000000
# 3 -0.003674 -0.003989 0.012128 0.000000 0.000000 0.000000
# 4 0.000000 0.000000 0.000000 0.050008 0.000000 0.000000
# 5 0.000000 0.000000 0.000000 0.000000 0.063702 0.000000
# 6 0.000000 0.000000 0.000000 0.000000 0.000000 0.148754
#
#
# Mechanical properties :
#
#
# Convention : Reuss Voigt Hill
#
# Bulk Modulus (GPa) = 45.73630 48.45255 47.09442
# Shear Modulus (GPa) = 15.31656 21.53935 18.42795
#
# Velocity S-wave (km/s) = 2.80092 3.32151 3.07226
# Velocity P-wave (km/s) = 5.82119 6.28708 6.05862
#
# Compressibility (1/GPa) = 0.02186447
#
# Stress axis : x y z
#
# Youngs Moduli (GPa) = 89.07033 62.80414 82.45143
#
# Poissons Ratio (x) = 0.06559 0.30289
# Poissons Ratio (y) = 0.09302 0.32889
# Poissons Ratio (z) = 0.32720 0.25052
#
# Static dielectric constant tensor:
#      x y z
#    x 1.748670 0.000000 0.000000 
#    y 0.000000 1.708350 0.000000 
#    z 0.000000 0.000000 1.681250 
# 
# From -- ./inp_files/4340.got.cif
#   From: 2010.05.17/outbox.cif.g08.bks.cpg/sg36_3_cif.got.tgz:4340.got - 2010.06.03 17:41:39.
