data_PCOD9352584
_publ_section_title
;
Structure prediction by ZEFSAII (Michael W. Deem and Ramdas Pophale) SiO2 
 PCOD9352584
Probable space group: C M C 21
;
_chemical_formula_sum "Si O2"
_cell_formula_units_Z 64
_cell_length_a 8.236702
_cell_length_b 24.855244
_cell_length_c 15.592340
_cell_angle_alpha 90.000000
_cell_angle_beta 90.000000
_cell_angle_gamma 90.000000
_cell_volume 3192.145517
_symmetry_space_group_name_H-M "C M C 21"
_symmetry_group_IT_number 36
_symmetry_cell_setting 'orthorhombic'
loop_
_space_group_symop_operation_xyz
x,y,z
-x,-y,1/2+z
x,-y,1/2+z
-x,y,z
1/2+x,1/2+y,z
1/2-x,1/2-y,1/2+z
1/2+x,1/2-y,1/2+z
1/2-x,1/2+y,z
loop_
_atom_site_type_symbol
_atom_site_label
_atom_site_fract_x
_atom_site_fract_y
_atom_site_fract_z
Si Si1 0.303308 0.314495 0.809800
Si Si2 0.315787 0.880477 0.235500
Si Si3 0.311454 0.123600 0.940320
Si Si4 0.194492 0.767311 0.166335
Si Si5 0.188167 0.985337 0.156773
Si Si6 0.301284 0.242849 0.972645
Si Si7 0.808481 0.506929 0.972259
Si Si8 0.195368 0.938357 0.809729
O O1 0.500000 0.314730 0.810760
O O2 0.248089 0.282733 0.725101
O O3 0.248553 0.280883 0.894009
O O4 0.247040 0.376505 0.811550
O O5 0.500000 0.893029 0.208690
O O6 0.310426 0.880755 0.337934
O O7 0.268548 0.821485 0.204727
O O8 0.202496 0.926797 0.199023
O O9 0.500000 0.125164 0.970288
O O10 0.240297 0.181585 0.963110
O O11 0.237929 0.067776 0.972855
O O12 0.000000 0.770698 0.169228
O O13 0.244360 0.762468 0.067068
O O14 0.000000 0.997959 0.139770
O O15 0.254168 0.028240 0.226485
O O16 0.278900 0.984424 0.066591
O O17 0.500000 0.241744 0.968098
O O18 0.738082 0.470422 0.896354
O O19 0.000000 0.511155 0.954405
O O20 0.000000 0.937234 0.804030
#
# Coordination Sequence:
#
# PCOD9352584 Si02
#       8
#     8   8   8   8   8   8   8   8
#     4  10  21  41  63  83 118 166 203 240 300 366
#     4  11  21  40  66  88 117 158 207 257 305 361
#     4   9  18  36  62  87 112 151 201 250 298 354
#     4  11  23  37  60  94 123 156 201 252 305 358
#     4  11  24  41  60  89 127 162 204 253 309 366
#     4   9  19  37  60  85 116 158 198 237 297 360
#     4  11  23  39  63  92 120 156 207 255 305 366
#     4  10  23  41  62  88 123 165 205 252 309 361
#
# _framework density 20.049212000000001
#
# number of rings (size 3 to 8) (size 9 to 14) (size 15 to 20)
#    0.000    1.750    2.500    1.500    3.500    1.000 
#    0.000    1.250    0.000    0.000    0.000    0.000 
#    0.000    0.000    0.000    0.000    0.000    0.000 
#
# Total GULP energy -178675.732337 kJ/mol
# GULP energy per Si atom -5583.616636 kJ/mol
# Density = 2.000358 g / cm^3
# Si number density = 20.049212 Si / 1000 Ang^3
#
#
#
# Elastic Constant Matrix: (Units=GPa)
#
#
# Indices 1 2 3 4 5 6 
#
# 1 16.9749 -0.9262 2.6454 0.0000 0.0000 0.0000
# 2 -0.9262 69.9772 -10.9795 0.0000 0.0000 0.0000
# 3 2.6454 -10.9795 54.8633 0.0000 0.0000 0.0000
# 4 0.0000 0.0000 0.0000 46.1128 0.0000 0.0000
# 5 0.0000 0.0000 0.0000 0.0000 16.9153 0.0000
# 6 0.0000 0.0000 0.0000 0.0000 0.0000 17.4923
#
#
#
# Elastic Compliance Matrix: (Units=1/GPa)
#
#
# Indices 1 2 3 4 5 6 
#
# 1 0.059365 0.000348 -0.002793 0.000000 0.000000 0.000000
# 2 0.000348 0.014756 0.002936 0.000000 0.000000 0.000000
# 3 -0.002793 0.002936 0.018949 0.000000 0.000000 0.000000
# 4 0.000000 0.000000 0.000000 0.021686 0.000000 0.000000
# 5 0.000000 0.000000 0.000000 0.000000 0.059118 0.000000
# 6 0.000000 0.000000 0.000000 0.000000 0.000000 0.057168
#
#
# Mechanical properties :
#
#
# Convention : Reuss Voigt Hill
#
# Bulk Modulus (GPa) = 10.63248 13.69943 12.16595
# Shear Modulus (GPa) = 19.12697 26.17577 22.65137
#
# Velocity S-wave (km/s) = 3.09204 3.61720 3.36488
# Velocity P-wave (km/s) = 4.24998 4.92881 4.60193
#
# Compressibility (1/GPa) = 0.09405143
#
# Stress axis : x y z
#
# Youngs Moduli (GPa) = 16.84500 67.77060 52.77209
#
# Poissons Ratio (x) = -0.02355 0.14739
# Poissons Ratio (y) = -0.00585 -0.15495
# Poissons Ratio (z) = 0.04705 -0.19899
#
# Static dielectric constant tensor:
#      x y z
#    x 1.719490 0.000000 0.000000 
#    y 0.000000 1.665760 0.000000 
#    z 0.000000 0.000000 1.663230 
# 
# From -- ./inp_files/10951.got.cif
#   From: 2010.05.17/outbox.cif.g08.bks.cpg/sg36_6_cif.got.tgz:10951.got - 2010.06.03 17:41:39.
