data_PCOD9352361
_publ_section_title
;
Structure prediction by ZEFSAII (Michael W. Deem and Ramdas Pophale) SiO2 
 PCOD9352361
Probable space group: C M C 21
;
_chemical_formula_sum "Si O2"
_cell_formula_units_Z 40
_cell_length_a 13.810630
_cell_length_b 28.298891
_cell_length_c 4.856428
_cell_angle_alpha 90.000000
_cell_angle_beta 90.000000
_cell_angle_gamma 90.000000
_cell_volume 1898.015965
_symmetry_space_group_name_H-M "C M C 21"
_symmetry_group_IT_number 36
_symmetry_cell_setting 'orthorhombic'
loop_
_space_group_symop_operation_xyz
x,y,z
-x,-y,1/2+z
x,-y,1/2+z
-x,y,z
1/2+x,1/2+y,z
1/2-x,1/2-y,1/2+z
1/2+x,1/2-y,1/2+z
1/2-x,1/2+y,z
loop_
_atom_site_type_symbol
_atom_site_label
_atom_site_fract_x
_atom_site_fract_y
_atom_site_fract_z
Si Si1 0.609233 0.239531 0.884570
Si Si2 0.799480 0.122990 0.514235
Si Si3 0.889304 0.673164 0.371728
Si Si4 0.112141 0.032275 0.763671
Si Si5 0.113715 0.171334 0.032720
O O1 0.500000 0.255617 0.952567
O O2 0.605907 0.196834 0.669669
O O3 0.648750 0.283288 0.708435
O O4 0.643106 0.215043 0.164096
O O5 0.692425 0.133355 0.397211
O O6 0.817944 0.073424 0.661631
O O7 0.869275 0.129384 0.251251
O O8 0.829115 0.161248 0.751187
O O9 0.000000 0.658920 0.294481
O O10 0.000000 0.048520 0.730768
O O11 0.125373 0.986395 0.570893
O O12 0.000000 0.176229 0.969402
#
# Coordination Sequence:
#
# PCOD9352361 Si02
#       5
#     8   8   8   8   8
#     4   9  19  36  55  77 113 156 191 234 285 330
#     4  12  23  36  60  88 114 153 199 244 292 347
#     4  10  21  38  57  80 113 154 200 238 275 332
#     4  10  21  38  59  83 115 150 184 232 299 369
#     4  11  22  36  56  86 121 151 191 244 294 348
#
# _framework density 21.074638
#
# number of rings (size 3 to 8) (size 9 to 14) (size 15 to 20)
#    0.000    1.600    0.000    5.400    0.000    8.000 
#    0.000    0.000    0.000    1.200    0.000    2.800 
#    0.000    0.000    0.000    0.000    0.000    0.000 
#
# Total GULP energy -111700.955171 kJ/mol
# GULP energy per Si atom -5585.047759 kJ/mol
# Density = 2.102667 g / cm^3
# Si number density = 21.074638 Si / 1000 Ang^3
#
#
#
# Elastic Constant Matrix: (Units=GPa)
#
#
# Indices 1 2 3 4 5 6 
#
# 1 133.6881 34.8881 17.5672 0.0000 0.0000 0.0000
# 2 34.8881 61.5232 -1.0022 0.0000 0.0000 0.0000
# 3 17.5672 -1.0022 104.2779 0.0000 0.0000 0.0000
# 4 0.0000 0.0000 0.0000 24.6492 0.0000 0.0000
# 5 0.0000 0.0000 0.0000 0.0000 18.3945 0.0000
# 6 0.0000 0.0000 0.0000 0.0000 0.0000 33.7995
#
#
#
# Elastic Compliance Matrix: (Units=1/GPa)
#
#
# Indices 1 2 3 4 5 6 
#
# 1 0.009029 -0.005146 -0.001571 0.000000 0.000000 0.000000
# 2 -0.005146 0.019189 0.001051 0.000000 0.000000 0.000000
# 3 -0.001571 0.001051 0.009864 0.000000 0.000000 0.000000
# 4 0.000000 0.000000 0.000000 0.040569 0.000000 0.000000
# 5 0.000000 0.000000 0.000000 0.000000 0.054364 0.000000
# 6 0.000000 0.000000 0.000000 0.000000 0.000000 0.029586
#
#
# Mechanical properties :
#
#
# Convention : Reuss Voigt Hill
#
# Bulk Modulus (GPa) = 37.37929 44.71058 41.04494
# Shear Modulus (GPa) = 27.34470 31.90437 29.62454
#
# Velocity S-wave (km/s) = 3.60601 3.89508 3.75333
# Velocity P-wave (km/s) = 5.92562 6.44129 6.18883
#
# Compressibility (1/GPa) = 0.02675278
#
# Stress axis : x y z
#
# Youngs Moduli (GPa) = 110.74952 52.11249 101.37413
#
# Poissons Ratio (x) = 0.26817 0.15922
# Poissons Ratio (y) = 0.56991 -0.10658
# Poissons Ratio (z) = 0.17394 -0.05479
#
# Static dielectric constant tensor:
#      x y z
#    x 1.817760 0.000000 0.000000 
#    y 0.000000 1.800730 0.000000 
#    z 0.000000 0.000000 1.757620 
# 
# From -- ./inp_files/787.got.cif
#   From: 2010.05.17/outbox.cif.g08.bks.cpg/sg36_1_cif.got.tgz:787.got - 2010.06.03 17:41:39.
