data_PCOD9352295
_publ_section_title
;
Structure prediction by ZEFSAII (Michael W. Deem and Ramdas Pophale) SiO2 
 PCOD9352295
Probable space group: C M C 21
;
_chemical_formula_sum "Si O2"
_cell_formula_units_Z 56
_cell_length_a 22.500310
_cell_length_b 14.133252
_cell_length_c 8.496805
_cell_angle_alpha 90.000000
_cell_angle_beta 90.000000
_cell_angle_gamma 90.000000
_cell_volume 2702.005668
_symmetry_space_group_name_H-M "C M C 21"
_symmetry_group_IT_number 36
_symmetry_cell_setting 'orthorhombic'
loop_
_space_group_symop_operation_xyz
x,y,z
-x,-y,1/2+z
x,-y,1/2+z
-x,y,z
1/2+x,1/2+y,z
1/2-x,1/2-y,1/2+z
1/2+x,1/2-y,1/2+z
1/2-x,1/2+y,z
loop_
_atom_site_type_symbol
_atom_site_label
_atom_site_fract_x
_atom_site_fract_y
_atom_site_fract_z
Si Si1 0.206445 0.640527 0.325170
Si Si2 0.773745 0.537701 0.020773
Si Si3 0.817224 0.719464 0.853887
Si Si4 0.863132 0.794141 0.192072
Si Si5 0.061759 0.902728 0.990338
Si Si6 0.143141 0.921380 0.463159
Si Si7 0.568378 0.282225 0.674632
O O1 0.218130 0.570996 0.470880
O O2 0.261988 0.713674 0.300116
O O3 0.149470 0.709177 0.313402
O O4 0.196600 0.568077 0.182483
O O5 0.797124 0.612847 0.891088
O O6 0.705334 0.566308 0.048574
O O7 0.874708 0.720278 0.738353
O O8 0.833221 0.764106 0.026593
O O9 0.926876 0.828309 0.130126
O O10 0.841434 0.885734 0.287963
O O11 0.000000 0.954466 0.019969
O O12 0.113248 0.977429 0.970750
O O13 0.060138 0.848220 0.827112
O O14 0.096974 0.847445 0.538944
O O15 0.500000 0.246396 0.639392
#
# Coordination Sequence:
#
# PCOD9352295 Si02
#       7
#     8   8   8   8   8   8   8
#     4  11  23  39  58  90 122 164 216 262 331 389
#     4  11  24  34  61  86 123 167 208 276 323 388
#     4  10  21  42  57  85 126 167 215 261 331 390
#     4  10  23  38  57  82 128 164 208 264 320 385
#     4  10  22  38  57  83 122 167 208 249 313 394
#     4  12  21  32  55  90 119 161 205 259 320 380
#     4  10  21  37  57  82 119 164 206 255 312 382
#
# _framework density 20.725345999999998
#
# number of rings (size 3 to 8) (size 9 to 14) (size 15 to 20)
#    0.000    1.429    2.857    3.000    4.000    3.429 
#    0.000    0.000    0.000    0.857    0.000    4.000 
#    0.000    0.000    0.000    0.000    0.000    0.000 
#
# Total GULP energy -155887.503243 kJ/mol
# GULP energy per Si atom -5567.410830 kJ/mol
# Density = 2.067817 g / cm^3
# Si number density = 20.725346 Si / 1000 Ang^3
#
#
#
# Elastic Constant Matrix: (Units=GPa)
#
#
# Indices 1 2 3 4 5 6 
#
# 1 70.2526 33.1453 0.5318 0.0000 0.0000 0.0000
# 2 33.1453 75.8911 15.2441 0.0000 0.0000 0.0000
# 3 0.5318 15.2441 40.9111 0.0000 0.0000 0.0000
# 4 0.0000 0.0000 0.0000 26.1075 0.0000 0.0000
# 5 0.0000 0.0000 0.0000 0.0000 -31.8112 0.0000
# 6 0.0000 0.0000 0.0000 0.0000 0.0000 13.9547
#
#
#
# Elastic Compliance Matrix: (Units=1/GPa)
#
#
# Indices 1 2 3 4 5 6 
#
# 1 0.018253 -0.008565 0.002954 0.000000 0.000000 0.000000
# 2 -0.008565 0.018262 -0.006693 0.000000 0.000000 0.000000
# 3 0.002954 -0.006693 0.026899 0.000000 0.000000 0.000000
# 4 0.000000 0.000000 0.000000 0.038303 0.000000 0.000000
# 5 0.000000 0.000000 0.000000 0.000000 -0.031435 0.000000
# 6 0.000000 0.000000 0.000000 0.000000 0.000000 0.071661
#
#
# Mechanical properties :
#
#
# Convention : Reuss Voigt Hill
#
# Bulk Modulus (GPa) = 25.76972 31.65523 28.71247
# Shear Modulus (GPa) = 27.85718 10.85909 19.35813
#
# Velocity S-wave (km/s) = 3.67019 2.29148 3.05951
# Velocity P-wave (km/s) = 5.51555 4.72314 5.13465
#
# Compressibility (1/GPa) = 0.03880524
#
# Stress axis : x y z
#
# Youngs Moduli (GPa) = 54.78497 54.75779 37.17615
#
# Poissons Ratio (x) = 0.46903 -0.10983
# Poissons Ratio (y) = 0.46926 0.24884
# Poissons Ratio (z) = -0.16186 0.36652
#
# Static dielectric constant tensor:
#      x y z
#    x 1.800760 0.000000 0.000000 
#    y 0.000000 1.747120 0.000000 
#    z 0.000000 0.000000 1.818660 
# 
# From -- ./inp_files/5203.got.cif
#   From: 2010.05.17/outbox.cif.g08.bks.cpg/sg36_3_cif.got.tgz:5203.got - 2010.06.03 17:41:39.
