data_PCOD9352945
_publ_section_title
;
Structure prediction by ZEFSAII (Michael W. Deem and Ramdas Pophale) SiO2 
 PCOD9352945
Probable space group: C M C 21
;
_chemical_formula_sum "Si O2"
_cell_formula_units_Z 36
_cell_length_a 7.505977
_cell_length_b 23.874067
_cell_length_c 7.976627
_cell_angle_alpha 90.000000
_cell_angle_beta 90.000000
_cell_angle_gamma 90.000000
_cell_volume 1429.397183
_symmetry_space_group_name_H-M "C M C 21"
_symmetry_group_IT_number 36
_symmetry_cell_setting 'orthorhombic'
loop_
_space_group_symop_operation_xyz
x,y,z
-x,-y,1/2+z
x,-y,1/2+z
-x,y,z
1/2+x,1/2+y,z
1/2-x,1/2-y,1/2+z
1/2+x,1/2-y,1/2+z
1/2-x,1/2+y,z
loop_
_atom_site_type_symbol
_atom_site_label
_atom_site_fract_x
_atom_site_fract_y
_atom_site_fract_z
Si Si1 0.207277 0.944843 0.535450
Si Si2 0.286316 0.773715 0.036344
Si Si3 0.196605 0.881866 0.179610
Si Si4 0.000000 0.544512 0.529903
Si Si5 0.290822 0.335767 0.691967
O O1 0.210419 0.911126 0.360214
O O2 0.277503 0.898980 0.670426
O O3 0.000000 0.961732 0.569717
O O4 0.342606 0.995794 0.521268
O O5 0.500000 0.771091 0.037803
O O6 0.222294 0.815156 0.183903
O O7 0.215774 0.711234 0.066266
O O8 0.226689 0.805813 0.869957
O O9 0.346605 0.908247 0.065489
O O10 0.000000 0.893384 0.111540
O O11 0.500000 0.342809 0.653365
#
# Coordination Sequence:
#
# PCOD9352945 Si02
#       5
#     8   8   8   4   8
#     4  10  24  45  69  99 138 181 228 286 345 405
#     4  11  23  41  67 100 137 178 228 281 342 411
#     4  11  24  45  70  99 139 181 228 287 344 404
#     4  12  24  42  70 102 136 182 234 284 338 418
#     4  10  23  42  65  98 138 178 226 283 344 408
#
# _framework density 25.185442999999999
#
# number of rings (size 3 to 8) (size 9 to 14) (size 15 to 20)
#    0.000    1.333    1.111    3.333    1.556    7.111 
#    0.000    2.222    0.000    0.000    0.000    0.000 
#    0.000    0.000    0.000    0.000    0.000    0.000 
#
# Total GULP energy -100270.445060 kJ/mol
# GULP energy per Si atom -5570.580281 kJ/mol
# Density = 2.512812 g / cm^3
# Si number density = 25.185443 Si / 1000 Ang^3
#
#
#
# Elastic Constant Matrix: (Units=GPa)
#
#
# Indices 1 2 3 4 5 6 
#
# 1 154.8669 11.1443 -0.8201 0.0000 0.0000 0.0000
# 2 11.1443 64.3862 -4.7460 0.0000 0.0000 0.0000
# 3 -0.8201 -4.7460 66.5195 0.0000 0.0000 0.0000
# 4 0.0000 0.0000 0.0000 -26.3535 0.0000 0.0000
# 5 0.0000 0.0000 0.0000 0.0000 -23.3268 0.0000
# 6 0.0000 0.0000 0.0000 0.0000 0.0000 -60.2288
#
#
#
# Elastic Compliance Matrix: (Units=1/GPa)
#
#
# Indices 1 2 3 4 5 6 
#
# 1 0.006539 -0.001132 0.000000 0.000000 0.000000 0.000000
# 2 -0.001132 0.015809 0.001114 0.000000 0.000000 0.000000
# 3 0.000000 0.001114 0.015113 0.000000 0.000000 0.000000
# 4 0.000000 0.000000 0.000000 -0.037946 0.000000 0.000000
# 5 0.000000 0.000000 0.000000 0.000000 -0.042869 0.000000
# 6 0.000000 0.000000 0.000000 0.000000 0.000000 -0.016603
#
#
# Mechanical properties :
#
#
# Convention : Reuss Voigt Hill
#
# Bulk Modulus (GPa) = 26.72024 32.99209 29.85617
# Shear Modulus (GPa) = -105.38093 -3.30219 -54.34156
#
# Velocity S-wave (km/s) = -6.47556 -1.14630 -4.65010
# Velocity P-wave (km/s) = 6.72889 3.37285 4.11715
#
# Compressibility (1/GPa) = 0.03742481
#
# Stress axis : x y z
#
# Youngs Moduli (GPa) = 152.93800 63.25400 66.16963
#
# Poissons Ratio (x) = 0.07159 0.00001
# Poissons Ratio (y) = 0.17309 -0.07371
# Poissons Ratio (z) = 0.00002 -0.07047
#
# Static dielectric constant tensor:
#      x y z
#    x 1.916930 0.000000 0.000000 
#    y 0.000000 2.031850 0.000000 
#    z 0.000000 0.000000 2.127420 
# 
# From -- ./inp_files/2342.got.cif
#   From: 2010.05.17/outbox.cif.g08.bks.cpg/sg36_2_cif.got.tgz:2342.got - 2010.06.03 17:41:39.
