data_PCOD9352882
_publ_section_title
;
Structure prediction by ZEFSAII (Michael W. Deem and Ramdas Pophale) SiO2 
 PCOD9352882
Probable space group: C M C 21
;
_chemical_formula_sum "Si O2"
_cell_formula_units_Z 40
_cell_length_a 23.967538
_cell_length_b 7.605925
_cell_length_c 8.815323
_cell_angle_alpha 90.000000
_cell_angle_beta 90.000000
_cell_angle_gamma 90.000000
_cell_volume 1606.991920
_symmetry_space_group_name_H-M "C M C 21"
_symmetry_group_IT_number 36
_symmetry_cell_setting 'orthorhombic'
loop_
_space_group_symop_operation_xyz
x,y,z
-x,-y,1/2+z
x,-y,1/2+z
-x,y,z
1/2+x,1/2+y,z
1/2-x,1/2-y,1/2+z
1/2+x,1/2-y,1/2+z
1/2-x,1/2+y,z
loop_
_atom_site_type_symbol
_atom_site_label
_atom_site_fract_x
_atom_site_fract_y
_atom_site_fract_z
Si Si1 0.830165 0.800685 0.151420
Si Si2 0.281276 0.385447 0.460746
Si Si3 0.063030 0.741916 0.701551
Si Si4 0.683860 0.098445 0.712570
Si Si5 0.937823 0.936488 0.010925
O O1 0.824528 0.870892 0.321264
O O2 0.795540 0.932861 0.044504
O O3 0.808200 0.601842 0.159188
O O4 0.892366 0.816059 0.091694
O O5 0.298692 0.239519 0.585118
O O6 0.223588 0.378114 0.360361
O O7 0.117285 0.623821 0.734522
O O8 0.063570 0.886280 0.835414
O O9 0.000000 0.663074 0.698962
O O10 0.071821 0.859193 0.551097
O O11 0.000000 0.895620 0.066783
#
# Coordination Sequence:
#
# PCOD9352882 Si02
#       5
#     8   8   8   8   8
#     4  12  30  51  82 115 163 221 274 344 417 499
#     4  12  33  51  77 121 165 215 282 342 424 492
#     4  10  23  48  81 119 163 216 275 341 415 491
#     4  12  32  52  84 120 166 220 277 346 414 506
#     4  10  22  44  78 117 163 214 272 341 412 482
#
# _framework density 24.891227000000001
#
# number of rings (size 3 to 8) (size 9 to 14) (size 15 to 20)
#    0.000    0.800    2.000    1.200   11.200    2.400 
#    0.000    0.000    0.000    0.000    0.000    0.000 
#    0.000    0.000    0.000    0.000    0.000    0.000 
#
# Total GULP energy -111950.639917 kJ/mol
# GULP energy per Si atom -5597.531996 kJ/mol
# Density = 2.483457 g / cm^3
# Si number density = 24.891227 Si / 1000 Ang^3
#
#
#
# Elastic Constant Matrix: (Units=GPa)
#
#
# Indices 1 2 3 4 5 6 
#
# 1 213.3227 61.4750 50.0895 0.0000 0.0000 0.0000
# 2 61.4750 146.9360 59.1367 0.0000 0.0000 0.0000
# 3 50.0895 59.1367 162.5275 0.0000 0.0000 0.0000
# 4 0.0000 0.0000 0.0000 45.8443 0.0000 0.0000
# 5 0.0000 0.0000 0.0000 0.0000 40.6692 0.0000
# 6 0.0000 0.0000 0.0000 0.0000 0.0000 43.9799
#
#
#
# Elastic Compliance Matrix: (Units=1/GPa)
#
#
# Indices 1 2 3 4 5 6 
#
# 1 0.005465 -0.001885 -0.000999 0.000000 0.000000 0.000000
# 2 -0.001885 0.008623 -0.002557 0.000000 0.000000 0.000000
# 3 -0.000999 -0.002557 0.007391 0.000000 0.000000 0.000000
# 4 0.000000 0.000000 0.000000 0.021813 0.000000 0.000000
# 5 0.000000 0.000000 0.000000 0.000000 0.024589 0.000000
# 6 0.000000 0.000000 0.000000 0.000000 0.000000 0.022738
#
#
# Mechanical properties :
#
#
# Convention : Reuss Voigt Hill
#
# Bulk Modulus (GPa) = 94.34597 96.02096 95.18347
# Shear Modulus (GPa) = 47.60457 49.57100 48.58779
#
# Velocity S-wave (km/s) = 4.37796 4.46747 4.42294
# Velocity P-wave (km/s) = 7.97126 8.07905 8.02534
#
# Compressibility (1/GPa) = 0.01059929
#
# Stress axis : x y z
#
# Youngs Moduli (GPa) = 182.97132 115.96613 135.30212
#
# Poissons Ratio (x) = 0.21856 0.13511
# Poissons Ratio (y) = 0.34484 0.34594
# Poissons Ratio (z) = 0.18272 0.29650
#
# Static dielectric constant tensor:
#      x y z
#    x 2.078320 0.000000 0.000000 
#    y 0.000000 1.963180 0.000000 
#    z 0.000000 0.000000 1.983020 
# 
# From -- ./inp_files/3890.got.cif
#   From: 2010.05.17/outbox.cif.g08.bks.cpg/sg36_2_cif.got.tgz:3890.got - 2010.06.03 17:41:39.
