data_PCOD9352485
_publ_section_title
;
Structure prediction by ZEFSAII (Michael W. Deem and Ramdas Pophale) SiO2 
 PCOD9352485
Probable space group: C M C 21
;
_chemical_formula_sum "Si O2"
_cell_formula_units_Z 56
_cell_length_a 25.478933
_cell_length_b 5.189413
_cell_length_c 17.927504
_cell_angle_alpha 90.000000
_cell_angle_beta 90.000000
_cell_angle_gamma 90.000000
_cell_volume 2370.387238
_symmetry_space_group_name_H-M "C M C 21"
_symmetry_group_IT_number 36
_symmetry_cell_setting 'orthorhombic'
loop_
_space_group_symop_operation_xyz
x,y,z
-x,-y,1/2+z
x,-y,1/2+z
-x,y,z
1/2+x,1/2+y,z
1/2-x,1/2-y,1/2+z
1/2+x,1/2-y,1/2+z
1/2-x,1/2+y,z
loop_
_atom_site_type_symbol
_atom_site_label
_atom_site_fract_x
_atom_site_fract_y
_atom_site_fract_z
Si Si1 0.563076 0.585694 0.280250
Si Si2 0.000000 0.498604 0.131380
Si Si3 0.896206 0.723308 0.167388
Si Si4 0.220576 0.724655 0.169570
Si Si5 0.779424 0.775347 0.987668
Si Si6 0.603794 0.723308 0.489850
Si Si7 0.436924 0.085694 0.376988
Si Si8 0.500000 0.501398 0.025858
O O1 0.500000 0.583499 0.268689
O O2 0.589837 0.498188 0.203558
O O3 0.577166 0.843105 0.323700
O O4 0.577166 0.343105 0.333537
O O5 0.946871 0.538349 0.178795
O O6 0.000000 0.250002 0.078619
O O7 0.000000 0.750002 0.078619
O O8 0.838233 0.647029 0.192960
O O9 0.891826 0.749999 0.078619
O O10 0.261011 0.505858 0.194861
O O11 0.221781 0.750001 0.078619
O O12 0.761011 0.494144 0.962378
O O13 0.838233 0.852972 0.964278
O O14 0.589837 0.998188 0.453680
O O15 0.553129 0.538350 0.478443
O O16 0.500000 0.083499 0.388549
#
# Coordination Sequence:
#
# PCOD9352485 Si02
#       8
#     8   4   8   8   8   8   8   4
#     4  10  22  39  58  84 121 161 195 235 299 369
#     4  10  22  34  52  88 120 142 181 242 299 334
#     4  10  21  39  63  90 121 156 200 253 298 351
#     4   9  19  34  55  83 115 152 196 243 294 348
#     4   9  19  34  55  83 115 152 196 243 294 348
#     4  10  21  39  63  90 121 156 200 253 298 351
#     4  10  22  39  58  84 121 161 195 235 299 369
#     4  10  22  34  52  88 120 142 181 242 299 334
#
# _framework density 23.624829999999999
#
# number of rings (size 3 to 8) (size 9 to 14) (size 15 to 20)
#    0.000    2.286    1.429    0.000    0.000   14.857 
#    0.000    0.000    0.000    5.143    0.000    0.000 
#    0.000    0.000    0.000    0.000    0.000    0.000 
#
# Total GULP energy -156497.391350 kJ/mol
# GULP energy per Si atom -5589.192548 kJ/mol
# Density = 2.357106 g / cm^3
# Si number density = 23.624830 Si / 1000 Ang^3
#
#
#
# Elastic Constant Matrix: (Units=GPa)
#
#
# Indices 1 2 3 4 5 6 
#
# 1 158.3541 39.3832 1.3224 0.0000 0.0000 0.0000
# 2 39.3832 124.2906 15.4880 0.0000 0.0000 0.0000
# 3 1.3224 15.4880 66.3219 0.0000 0.0000 0.0000
# 4 0.0000 0.0000 0.0000 30.4323 0.0000 0.0000
# 5 0.0000 0.0000 0.0000 0.0000 -4.8329 0.0000
# 6 0.0000 0.0000 0.0000 0.0000 0.0000 22.3053
#
#
#
# Elastic Compliance Matrix: (Units=1/GPa)
#
#
# Indices 1 2 3 4 5 6 
#
# 1 0.006865 -0.002223 0.000382 0.000000 0.000000 0.000000
# 2 -0.002223 0.009007 -0.002059 0.000000 0.000000 0.000000
# 3 0.000382 -0.002059 0.015551 0.000000 0.000000 0.000000
# 4 0.000000 0.000000 0.000000 0.032860 0.000000 0.000000
# 5 0.000000 0.000000 0.000000 0.000000 -0.206914 0.000000
# 6 0.000000 0.000000 0.000000 0.000000 0.000000 0.044832
#
#
# Mechanical properties :
#
#
# Convention : Reuss Voigt Hill
#
# Bulk Modulus (GPa) = 42.33115 51.26152 46.79634
# Shear Modulus (GPa) = -60.88159 29.09915 -15.89122
#
# Velocity S-wave (km/s) = -5.08194 3.51339 -2.59636
# Velocity P-wave (km/s) = 4.05929 6.18092 3.29591
#
# Compressibility (1/GPa) = 0.02362327
#
# Stress axis : x y z
#
# Youngs Moduli (GPa) = 145.67537 111.03042 64.30382
#
# Poissons Ratio (x) = 0.24679 -0.02458
# Poissons Ratio (y) = 0.32380 0.13240
# Poissons Ratio (z) = -0.05568 0.22861
#
# Static dielectric constant tensor:
#      x y z
#    x 1.911910 0.000000 0.000000 
#    y 0.000000 1.909830 0.000000 
#    z 0.000000 0.000000 2.039720 
# 
# From -- ./inp_files/16336.got.cif
#   From: 2010.05.17/outbox.cif.g08.bks.cpg/sg36_9_cif.got.tgz:16336.got - 2010.06.03 17:41:39.
