data_PCOD9352072
_publ_section_title
;
Structure prediction by ZEFSAII (Michael W. Deem and Ramdas Pophale) SiO2 
 PCOD9352072
Probable space group: C M C 21
;
_chemical_formula_sum "Si O2"
_cell_formula_units_Z 40
_cell_length_a 7.758823
_cell_length_b 28.038623
_cell_length_c 8.151141
_cell_angle_alpha 90.000000
_cell_angle_beta 90.000000
_cell_angle_gamma 90.000000
_cell_volume 1773.253932
_symmetry_space_group_name_H-M "C M C 21"
_symmetry_group_IT_number 36
_symmetry_cell_setting 'orthorhombic'
loop_
_space_group_symop_operation_xyz
x,y,z
-x,-y,1/2+z
x,-y,1/2+z
-x,y,z
1/2+x,1/2+y,z
1/2-x,1/2-y,1/2+z
1/2+x,1/2-y,1/2+z
1/2-x,1/2+y,z
loop_
_atom_site_type_symbol
_atom_site_label
_atom_site_fract_x
_atom_site_fract_y
_atom_site_fract_z
Si Si1 0.793101 0.726886 0.791760
Si Si2 0.690594 0.634511 0.646353
Si Si3 0.500000 0.978001 0.906439
Si Si4 0.300869 0.585527 0.288989
Si Si5 0.000000 0.425956 0.260182
Si Si6 0.705107 0.320680 0.635995
O O1 0.726453 0.690757 0.652225
O O2 0.727095 0.780224 0.760443
O O3 0.000000 0.727850 0.786685
O O4 0.735855 0.702177 0.959332
O O5 0.500000 0.625587 0.713476
O O6 0.697593 0.613758 0.463198
O O7 0.834008 0.607612 0.751535
O O8 0.329967 0.957742 0.815153
O O9 0.500000 0.034838 0.900839
O O10 0.500000 0.956186 0.089076
O O11 0.500000 0.571330 0.252626
O O12 0.231092 0.625765 0.164189
O O13 0.500000 0.324952 0.663286
#
# Coordination Sequence:
#
# PCOD9352072 Si02
#       6
#     8   8   4   8   4   8
#     4  11  22  36  56  85 119 155 198 240 285 347
#     4  10  20  39  62  83 117 155 191 243 294 342
#     4  10  22  38  62  86 118 152 194 248 293 346
#     4   9  20  39  60  84 115 153 195 239 293 348
#     4  10  22  40  58  90 116 150 200 240 295 356
#     4  10  22  37  54  83 119 155 197 239 288 348
#
# _framework density 22.557399
#
# number of rings (size 3 to 8) (size 9 to 14) (size 15 to 20)
#    0.000    2.000    1.000    1.800    1.400    5.600 
#    0.000    0.000    0.000    0.000    0.000    0.000 
#    0.000    0.000    0.000    0.000    0.000    0.000 
#
# Total GULP energy -111808.322935 kJ/mol
# GULP energy per Si atom -5590.416147 kJ/mol
# Density = 2.250606 g / cm^3
# Si number density = 22.557399 Si / 1000 Ang^3
#
#
#
# Elastic Constant Matrix: (Units=GPa)
#
#
# Indices 1 2 3 4 5 6 
#
# 1 92.5139 21.1698 -2.1332 0.0000 0.0000 0.0000
# 2 21.1698 61.8645 0.5432 0.0000 0.0000 0.0000
# 3 -2.1332 0.5432 45.5558 0.0000 0.0000 0.0000
# 4 0.0000 0.0000 0.0000 36.7577 0.0000 0.0000
# 5 0.0000 0.0000 0.0000 0.0000 19.0766 0.0000
# 6 0.0000 0.0000 0.0000 0.0000 0.0000 -38.2471
#
#
#
# Elastic Compliance Matrix: (Units=1/GPa)
#
#
# Indices 1 2 3 4 5 6 
#
# 1 0.011744 -0.004024 0.000598 0.000000 0.000000 0.000000
# 2 -0.004024 0.017545 -0.000398 0.000000 0.000000 0.000000
# 3 0.000598 -0.000398 0.021984 0.000000 0.000000 0.000000
# 4 0.000000 0.000000 0.000000 0.027205 0.000000 0.000000
# 5 0.000000 0.000000 0.000000 0.000000 0.052420 0.000000
# 6 0.000000 0.000000 0.000000 0.000000 0.000000 -0.026146
#
#
# Mechanical properties :
#
#
# Convention : Reuss Voigt Hill
#
# Bulk Modulus (GPa) = 22.92258 26.56598 24.74428
# Shear Modulus (GPa) = 39.38834 15.54106 27.46470
#
# Velocity S-wave (km/s) = 4.18322 2.62765 3.49312
# Velocity P-wave (km/s) = 5.78933 4.58352 5.22135
#
# Compressibility (1/GPa) = 0.04362510
#
# Stress axis : x y z
#
# Youngs Moduli (GPa) = 85.15165 56.99686 45.48797
#
# Poissons Ratio (x) = 0.22935 -0.02720
# Poissons Ratio (y) = 0.34264 0.01809
# Poissons Ratio (z) = -0.05091 0.02266
#
# Static dielectric constant tensor:
#      x y z
#    x 1.805900 0.000000 0.000000 
#    y 0.000000 1.847180 0.000000 
#    z 0.000000 0.000000 1.886920 
# 
# From -- ./inp_files/2438.got.cif
#   From: 2010.05.17/outbox.cif.g08.bks.cpg/sg36_2_cif.got.tgz:2438.got - 2010.06.03 17:41:39.
