data_PCOD9352047
_publ_section_title
;
Structure prediction by ZEFSAII (Michael W. Deem and Ramdas Pophale) SiO2 
 PCOD9352047
Probable space group: C M C 21
;
_chemical_formula_sum "Si O2"
_cell_formula_units_Z 36
_cell_length_a 12.310277
_cell_length_b 10.413098
_cell_length_c 13.638623
_cell_angle_alpha 90.000000
_cell_angle_beta 90.000000
_cell_angle_gamma 90.000000
_cell_volume 1748.309453
_symmetry_space_group_name_H-M "C M C 21"
_symmetry_group_IT_number 36
_symmetry_cell_setting 'orthorhombic'
loop_
_space_group_symop_operation_xyz
x,y,z
-x,-y,1/2+z
x,-y,1/2+z
-x,y,z
1/2+x,1/2+y,z
1/2-x,1/2-y,1/2+z
1/2+x,1/2-y,1/2+z
1/2-x,1/2+y,z
loop_
_atom_site_type_symbol
_atom_site_label
_atom_site_fract_x
_atom_site_fract_y
_atom_site_fract_z
Si Si1 0.778977 0.341190 0.751550
Si Si2 0.000000 0.383545 0.996091
Si Si3 0.375903 0.346421 0.566842
Si Si4 0.500000 0.916968 0.352944
Si Si5 0.259320 0.097552 0.880396
Si Si6 0.000000 0.439961 0.668778
O O1 0.683568 0.339309 0.670509
O O2 0.788389 0.209670 0.811992
O O3 0.758690 0.462132 0.823479
O O4 0.890480 0.366476 0.693764
O O5 0.102353 0.297353 0.025008
O O6 0.000000 0.511808 0.058622
O O7 0.000000 0.432218 0.885916
O O8 0.500000 0.399398 0.573989
O O9 0.302649 0.412423 0.483499
O O10 0.613543 0.862989 0.389828
O O11 0.500000 0.928767 0.235235
#
# Coordination Sequence:
#
# PCOD9352047 Si02
#       6
#     8   4   8   4   8   4
#     4  11  24  41  69  97 132 173 224 273 330 396
#     4  10  20  40  66  86 130 170 222 250 324 392
#     4  10  23  40  64  96 135 173 210 280 338 380
#     4  10  20  38  64  89 118 171 217 253 311 399
#     4  11  24  41  69  97 132 173 224 273 330 396
#     4  10  20  38  64  89 118 171 217 253 311 399
#
# _framework density 20.591321000000001
#
# number of rings (size 3 to 8) (size 9 to 14) (size 15 to 20)
#    0.667    0.889    0.000    6.667    3.111    2.667 
#    0.000    0.000    0.000    0.000    0.000    0.000 
#    0.000    0.000    0.000    0.000    0.000    0.000 
#
# Total GULP energy -100446.137664 kJ/mol
# GULP energy per Si atom -5580.340981 kJ/mol
# Density = 2.054445 g / cm^3
# Si number density = 20.591321 Si / 1000 Ang^3
#
#
#
# Elastic Constant Matrix: (Units=GPa)
#
#
# Indices 1 2 3 4 5 6 
#
# 1 100.2762 -17.4131 8.3558 0.0000 0.0000 0.0000
# 2 -17.4131 58.5107 -2.5872 0.0000 0.0000 0.0000
# 3 8.3558 -2.5872 77.3451 0.0000 0.0000 0.0000
# 4 0.0000 0.0000 0.0000 34.2191 0.0000 0.0000
# 5 0.0000 0.0000 0.0000 0.0000 43.2856 0.0000
# 6 0.0000 0.0000 0.0000 0.0000 0.0000 29.6241
#
#
#
# Elastic Compliance Matrix: (Units=1/GPa)
#
#
# Indices 1 2 3 4 5 6 
#
# 1 0.010599 0.003108 -0.001041 0.000000 0.000000 0.000000
# 2 0.003108 0.018028 0.000267 0.000000 0.000000 0.000000
# 3 -0.001041 0.000267 0.013050 0.000000 0.000000 0.000000
# 4 0.000000 0.000000 0.000000 0.029223 0.000000 0.000000
# 5 0.000000 0.000000 0.000000 0.000000 0.023102 0.000000
# 6 0.000000 0.000000 0.000000 0.000000 0.000000 0.033756
#
#
# Mechanical properties :
#
#
# Convention : Reuss Voigt Hill
#
# Bulk Modulus (GPa) = 21.57680 23.64923 22.61301
# Shear Modulus (GPa) = 36.09088 37.94419 37.01754
#
# Velocity S-wave (km/s) = 4.19110 4.29736 4.24456
# Velocity P-wave (km/s) = 5.82423 6.01107 5.91839
#
# Compressibility (1/GPa) = 0.04634608
#
# Stress axis : x y z
#
# Youngs Moduli (GPa) = 94.34885 55.47003 76.62560
#
# Poissons Ratio (x) = -0.17242 0.07977
# Poissons Ratio (y) = -0.29326 -0.02048
# Poissons Ratio (z) = 0.09822 -0.01482
#
# Static dielectric constant tensor:
#      x y z
#    x 1.775940 0.000000 0.000000 
#    y 0.000000 1.731580 0.000000 
#    z 0.000000 0.000000 1.707020 
# 
# From -- ./inp_files/7420.got.cif
#   From: 2010.05.17/outbox.cif.g08.bks.cpg/sg36_4_cif.got.tgz:7420.got - 2010.06.03 17:41:39.
