data_PCOD9352353
_publ_section_title
;
Structure prediction by ZEFSAII (Michael W. Deem and Ramdas Pophale) SiO2 
 PCOD9352353
Probable space group: C M C 21
;
_chemical_formula_sum "Si O2"
_cell_formula_units_Z 56
_cell_length_a 30.423754
_cell_length_b 4.989199
_cell_length_c 17.440303
_cell_angle_alpha 90.000000
_cell_angle_beta 90.000000
_cell_angle_gamma 90.000000
_cell_volume 2647.266436
_symmetry_space_group_name_H-M "C M C 21"
_symmetry_group_IT_number 36
_symmetry_cell_setting 'orthorhombic'
loop_
_space_group_symop_operation_xyz
x,y,z
-x,-y,1/2+z
x,-y,1/2+z
-x,y,z
1/2+x,1/2+y,z
1/2-x,1/2-y,1/2+z
1/2+x,1/2-y,1/2+z
1/2-x,1/2+y,z
loop_
_atom_site_type_symbol
_atom_site_label
_atom_site_fract_x
_atom_site_fract_y
_atom_site_fract_z
Si Si1 0.377066 0.403589 0.743230
Si Si2 0.093857 0.914764 0.074817
Si Si3 0.276694 0.293212 0.521360
Si Si4 0.409194 0.089247 0.330527
Si Si5 0.500000 0.241601 0.404572
Si Si6 0.000000 0.240920 0.513421
Si Si7 0.130499 0.575253 0.490323
Si Si8 0.221223 0.748378 0.705747
O O1 0.393617 0.500916 0.660283
O O2 0.405654 0.150039 0.770146
O O3 0.326263 0.313707 0.739556
O O4 0.383372 0.652493 0.799952
O O5 0.044161 0.814217 0.061586
O O6 0.125487 0.672358 0.048261
O O7 0.102237 0.174027 0.021673
O O8 0.263472 0.594791 0.502541
O O9 0.320478 0.184810 0.483360
O O10 0.284008 0.268573 0.613189
O O11 0.457618 0.183809 0.353119
O O12 0.387845 0.983777 0.409047
O O13 0.500000 0.536175 0.441307
O O14 0.500000 0.035221 0.476349
O O15 0.240970 0.461293 0.726367
#
# Coordination Sequence:
#
# PCOD9352353 Si02
#       8
#     8   8   8   8   4   4   8   8
#     4  12  26  44  65 106 137 176 222 279 343 398
#     4  12  24  41  72  97 134 169 230 287 320 391
#     4  10  21  37  65  99 129 168 225 284 323 380
#     4  12  26  44  69  96 142 181 214 274 347 410
#     4  12  24  46  70  98 132 178 230 262 344 420
#     4  12  22  44  70 104 126 172 236 280 324 394
#     4  12  23  44  67 100 129 181 224 276 331 402
#     4  10  21  39  66  95 130 176 222 273 330 398
#
# _framework density 21.153897000000001
#
# number of rings (size 3 to 8) (size 9 to 14) (size 15 to 20)
#    0.000    0.571    4.286    4.286    4.000    1.143 
#    0.000    4.286    0.000    0.000    0.000    0.000 
#    0.000    0.000    0.000    0.000    0.000    0.000 
#
# Total GULP energy -156757.812904 kJ/mol
# GULP energy per Si atom -5598.493318 kJ/mol
# Density = 2.110575 g / cm^3
# Si number density = 21.153897 Si / 1000 Ang^3
#
#
#
# Elastic Constant Matrix: (Units=GPa)
#
#
# Indices 1 2 3 4 5 6 
#
# 1 68.4041 -23.9806 28.2787 0.0000 0.0000 0.0000
# 2 -23.9806 63.1274 -4.4680 0.0000 0.0000 0.0000
# 3 28.2787 -4.4680 37.8115 0.0000 0.0000 0.0000
# 4 0.0000 0.0000 0.0000 35.2734 0.0000 0.0000
# 5 0.0000 0.0000 0.0000 0.0000 19.7756 0.0000
# 6 0.0000 0.0000 0.0000 0.0000 0.0000 24.5889
#
#
#
# Elastic Compliance Matrix: (Units=1/GPa)
#
#
# Indices 1 2 3 4 5 6 
#
# 1 0.024722 0.008151 -0.017526 0.000000 0.000000 0.000000
# 2 0.008151 0.018662 -0.003891 0.000000 0.000000 0.000000
# 3 -0.017526 -0.003891 0.039095 0.000000 0.000000 0.000000
# 4 0.000000 0.000000 0.000000 0.028350 0.000000 0.000000
# 5 0.000000 0.000000 0.000000 0.000000 0.050567 0.000000
# 6 0.000000 0.000000 0.000000 0.000000 0.000000 0.040669
#
#
# Mechanical properties :
#
#
# Convention : Reuss Voigt Hill
#
# Bulk Modulus (GPa) = 17.87417 18.77813 18.32615
# Shear Modulus (GPa) = 20.22285 27.22843 23.72564
#
# Velocity S-wave (km/s) = 3.09526 3.59159 3.35262
# Velocity P-wave (km/s) = 4.60891 5.10838 4.86506
#
# Compressibility (1/GPa) = 0.05594666
#
# Stress axis : x y z
#
# Youngs Moduli (GPa) = 40.45013 53.58514 25.57891
#
# Poissons Ratio (x) = -0.43676 0.44830
# Poissons Ratio (y) = -0.32970 0.09952
# Poissons Ratio (z) = 0.70893 0.20848
#
# Static dielectric constant tensor:
#      x y z
#    x 1.752010 0.000000 0.000000 
#    y 0.000000 1.743800 0.000000 
#    z 0.000000 0.000000 1.773540 
# 
# From -- ./inp_files/13203.got.cif
#   From: 2010.05.17/outbox.cif.g08.bks.cpg/sg36_7_cif.got.tgz:13203.got - 2010.06.03 17:41:39.
