data_PCOD9352764
_publ_section_title
;
Structure prediction by ZEFSAII (Michael W. Deem and Ramdas Pophale) SiO2 
 PCOD9352764
Probable space group: C M C 21
;
_chemical_formula_sum "Si O2"
_cell_formula_units_Z 64
_cell_length_a 13.264913
_cell_length_b 24.712052
_cell_length_c 8.814268
_cell_angle_alpha 90.000000
_cell_angle_beta 90.000000
_cell_angle_gamma 90.000000
_cell_volume 2889.345431
_symmetry_space_group_name_H-M "C M C 21"
_symmetry_group_IT_number 36
_symmetry_cell_setting 'orthorhombic'
loop_
_space_group_symop_operation_xyz
x,y,z
-x,-y,1/2+z
x,-y,1/2+z
-x,y,z
1/2+x,1/2+y,z
1/2-x,1/2-y,1/2+z
1/2+x,1/2-y,1/2+z
1/2-x,1/2+y,z
loop_
_atom_site_type_symbol
_atom_site_label
_atom_site_fract_x
_atom_site_fract_y
_atom_site_fract_z
Si Si1 0.879666 0.657597 0.787100
Si Si2 0.620836 0.271748 0.843237
Si Si3 0.196914 0.882432 0.862864
Si Si4 0.883638 0.535497 0.814514
Si Si5 0.377769 0.708812 0.988840
Si Si6 0.380337 0.171888 0.430450
Si Si7 0.881679 0.908637 0.533577
Si Si8 0.246482 0.513804 0.534174
O O1 0.842267 0.710738 0.877138
O O2 0.865318 0.598457 0.854256
O O3 0.852833 0.658537 0.607302
O O4 0.000000 0.665469 0.782106
O O5 0.500000 0.273345 0.856041
O O6 0.658696 0.325030 0.928519
O O7 0.648888 0.280366 0.665535
O O8 0.134394 0.896010 0.712764
O O9 0.198346 0.932939 0.974249
O O10 0.313731 0.867659 0.827975
O O11 0.860683 0.495887 0.951926
O O12 0.792090 0.520110 0.703630
O O13 0.000000 0.531129 0.762831
O O14 0.500000 0.707002 0.987314
O O15 0.354535 0.764742 0.901926
O O16 0.348178 0.647151 0.949374
O O17 0.500000 0.164612 0.412351
O O18 0.816257 0.961865 0.506633
O O19 0.000000 0.917991 0.503014
#
# Coordination Sequence:
#
# PCOD9352764 Si02
#       8
#     8   8   8   8   8   8   8   8
#     4   8  15  31  55  80 109 148 190 237 299 357
#     4   8  15  29  51  79 107 141 191 244 294 352
#     4  11  20  33  57  88 119 152 200 245 302 368
#     4  11  23  41  62  87 124 162 199 256 307 365
#     4   7  13  29  52  77 107 149 192 239 299 353
#     4   9  16  28  52  85 117 148 190 243 299 363
#     4  10  22  41  60  83 122 163 209 259 302 358
#     4  12  24  40  59  91 121 159 215 247 302 374
#
# _framework density 22.150345999999999
#
# number of rings (size 3 to 8) (size 9 to 14) (size 15 to 20)
#    0.000    2.500    2.500    3.000    0.000    2.500 
#    0.000    0.000    0.000    0.000    0.000   15.750 
#    0.000    0.000    0.000    0.000    0.000    0.000 
#
# Total GULP energy -178300.277171 kJ/mol
# GULP energy per Si atom -5571.883662 kJ/mol
# Density = 2.209993 g / cm^3
# Si number density = 22.150346 Si / 1000 Ang^3
#
#
#
# Elastic Constant Matrix: (Units=GPa)
#
#
# Indices 1 2 3 4 5 6 
#
# 1 63.9185 33.2257 1.3104 0.0000 0.0000 0.0000
# 2 33.2257 102.3343 3.9444 0.0000 0.0000 0.0000
# 3 1.3104 3.9444 9.6784 0.0000 0.0000 0.0000
# 4 0.0000 0.0000 0.0000 12.4101 0.0000 0.0000
# 5 0.0000 0.0000 0.0000 0.0000 17.0656 0.0000
# 6 0.0000 0.0000 0.0000 0.0000 0.0000 42.9991
#
#
#
# Elastic Compliance Matrix: (Units=1/GPa)
#
#
# Indices 1 2 3 4 5 6 
#
# 1 0.018822 -0.006109 -0.000059 0.000000 0.000000 0.000000
# 2 -0.006109 0.011910 -0.004027 0.000000 0.000000 0.000000
# 3 -0.000059 -0.004027 0.104972 0.000000 0.000000 0.000000
# 4 0.000000 0.000000 0.000000 0.080579 0.000000 0.000000
# 5 0.000000 0.000000 0.000000 0.000000 0.058598 0.000000
# 6 0.000000 0.000000 0.000000 0.000000 0.000000 0.023256
#
#
# Mechanical properties :
#
#
# Convention : Reuss Voigt Hill
#
# Bulk Modulus (GPa) = 8.67186 28.09912 18.38549
# Shear Modulus (GPa) = 14.00697 23.65832 18.83265
#
# Velocity S-wave (km/s) = 2.51740 3.27169 2.91901
# Velocity P-wave (km/s) = 3.51756 5.19472 4.43612
#
# Compressibility (1/GPa) = 0.11531555
#
# Stress axis : x y z
#
# Youngs Moduli (GPa) = 53.13072 83.95975 9.52631
#
# Poissons Ratio (x) = 0.51288 0.00056
# Poissons Ratio (y) = 0.32456 0.03836
# Poissons Ratio (z) = 0.00312 0.33811
#
# Static dielectric constant tensor:
#      x y z
#    x 1.835490 0.000000 0.000000 
#    y 0.000000 1.887080 0.000000 
#    z 0.000000 0.000000 1.778520 
# 
# From -- ./inp_files/8021.got.cif
#   From: 2010.05.17/outbox.cif.g08.bks.cpg/sg36_5_cif.got.tgz:8021.got - 2010.06.03 17:41:39.
