data_PCOD9352463
_publ_section_title
;
Structure prediction by ZEFSAII (Michael W. Deem and Ramdas Pophale) SiO2 
 PCOD9352463
Probable space group: C M C 21
;
_chemical_formula_sum "Si O2"
_cell_formula_units_Z 64
_cell_length_a 14.417500
_cell_length_b 19.741099
_cell_length_c 8.843767
_cell_angle_alpha 90.000000
_cell_angle_beta 90.000000
_cell_angle_gamma 90.000000
_cell_volume 2517.089040
_symmetry_space_group_name_H-M "C M C 21"
_symmetry_group_IT_number 36
_symmetry_cell_setting 'orthorhombic'
loop_
_space_group_symop_operation_xyz
x,y,z
-x,-y,1/2+z
x,-y,1/2+z
-x,y,z
1/2+x,1/2+y,z
1/2-x,1/2-y,1/2+z
1/2+x,1/2-y,1/2+z
1/2-x,1/2+y,z
loop_
_atom_site_type_symbol
_atom_site_label
_atom_site_fract_x
_atom_site_fract_y
_atom_site_fract_z
Si Si1 0.105814 0.112354 0.869390
Si Si2 0.698598 0.048535 0.122548
Si Si3 0.888687 0.649193 0.345110
Si Si4 0.109119 0.588449 0.673320
Si Si5 0.612947 0.210879 0.862721
Si Si6 0.386673 0.339982 0.047190
Si Si7 0.818726 0.975461 0.888337
Si Si8 0.611989 0.728437 0.044301
O O1 0.147590 0.138143 0.712888
O O2 0.148201 0.154040 0.007364
O O3 0.000000 0.135854 0.861921
O O4 0.104521 0.033058 0.891075
O O5 0.657461 0.117946 0.194394
O O6 0.791395 0.035719 0.217120
O O7 0.626414 0.991006 0.179184
O O8 0.733297 0.017929 0.963548
O O9 0.858925 0.612853 0.504674
O O10 0.868180 0.726019 0.396262
O O11 0.000000 0.642820 0.326798
O O12 0.140414 0.633164 0.820017
O O13 0.000000 0.601607 0.667645
O O14 0.500000 0.209427 0.880608
O O15 0.644369 0.245354 0.705006
O O16 0.643688 0.265199 0.990221
O O17 0.500000 0.341270 0.040674
O O18 0.349474 0.403166 0.950051
O O19 0.500000 0.731932 0.065203
#
# Coordination Sequence:
#
# PCOD9352463 Si02
#       8
#     8   8   8   8   8   8   8   8
#     4  10  21  39  61  87 117 154 200 255 306 357
#     4  12  23  40  59  83 125 164 201 243 302 363
#     4   9  18  37  63  90 118 156 201 249 299 356
#     4   9  18  37  63  90 118 154 202 250 296 356
#     4   8  16  33  61  89 113 146 194 247 295 349
#     4  10  21  39  61  87 117 154 202 253 303 360
#     4  12  25  40  57  83 125 162 201 248 303 360
#     4   8  16  33  61  89 113 144 193 247 296 349
#
# _framework density 25.426196000000001
#
# number of rings (size 3 to 8) (size 9 to 14) (size 15 to 20)
#    0.000    2.250    2.500    2.250    1.750    0.000 
#    2.250    1.250    0.000    0.000    0.000    0.000 
#    0.000    0.000    0.000    0.000    0.000    0.000 
#
# Total GULP energy -178342.118185 kJ/mol
# GULP energy per Si atom -5573.191193 kJ/mol
# Density = 2.536833 g / cm^3
# Si number density = 25.426196 Si / 1000 Ang^3
#
#
#
# Elastic Constant Matrix: (Units=GPa)
#
#
# Indices 1 2 3 4 5 6 
#
# 1 57.5164 12.5406 9.3084 0.0000 0.0000 0.0000
# 2 12.5406 106.6393 8.8218 0.0000 0.0000 0.0000
# 3 9.3084 8.8218 51.2345 0.0000 0.0000 0.0000
# 4 0.0000 0.0000 0.0000 35.4595 0.0000 0.0000
# 5 0.0000 0.0000 0.0000 0.0000 30.4892 0.0000
# 6 0.0000 0.0000 0.0000 0.0000 0.0000 5.8433
#
#
#
# Elastic Compliance Matrix: (Units=1/GPa)
#
#
# Indices 1 2 3 4 5 6 
#
# 1 0.018286 -0.001903 -0.002995 0.000000 0.000000 0.000000
# 2 -0.001903 0.009711 -0.001326 0.000000 0.000000 0.000000
# 3 -0.002995 -0.001326 0.020291 0.000000 0.000000 0.000000
# 4 0.000000 0.000000 0.000000 0.028201 0.000000 0.000000
# 5 0.000000 0.000000 0.000000 0.000000 0.032798 0.000000
# 6 0.000000 0.000000 0.000000 0.000000 0.000000 0.171137
#
#
# Mechanical properties :
#
#
# Convention : Reuss Voigt Hill
#
# Bulk Modulus (GPa) = 27.90182 30.74800 29.32491
# Shear Modulus (GPa) = 16.40325 26.67303 21.53814
#
# Velocity S-wave (km/s) = 2.54270 3.24240 2.91363
# Velocity P-wave (km/s) = 4.42921 5.11242 4.78303
#
# Compressibility (1/GPa) = 0.03583995
#
# Stress axis : x y z
#
# Youngs Moduli (GPa) = 54.68708 102.97730 49.28405
#
# Poissons Ratio (x) = 0.19593 0.14759
# Poissons Ratio (y) = 0.10405 0.06537
# Poissons Ratio (z) = 0.16377 0.13659
#
# Static dielectric constant tensor:
#      x y z
#    x 2.036090 0.000000 0.000000 
#    y 0.000000 2.061430 0.000000 
#    z 0.000000 0.000000 2.021150 
# 
# From -- ./inp_files/4939.got.cif
#   From: 2010.05.17/outbox.cif.g08.bks.cpg/sg36_3_cif.got.tgz:4939.got - 2010.06.03 17:41:39.
