data_PCOD9352299
_publ_section_title
;
Structure prediction by ZEFSAII (Michael W. Deem and Ramdas Pophale) SiO2 
 PCOD9352299
Probable space group: C M C 21
;
_chemical_formula_sum "Si O2"
_cell_formula_units_Z 64
_cell_length_a 8.058535
_cell_length_b 17.310615
_cell_length_c 20.289265
_cell_angle_alpha 90.000000
_cell_angle_beta 90.000000
_cell_angle_gamma 90.000000
_cell_volume 2830.315883
_symmetry_space_group_name_H-M "C M C 21"
_symmetry_group_IT_number 36
_symmetry_cell_setting 'orthorhombic'
loop_
_space_group_symop_operation_xyz
x,y,z
-x,-y,1/2+z
x,-y,1/2+z
-x,y,z
1/2+x,1/2+y,z
1/2-x,1/2-y,1/2+z
1/2+x,1/2-y,1/2+z
1/2-x,1/2+y,z
loop_
_atom_site_type_symbol
_atom_site_label
_atom_site_fract_x
_atom_site_fract_y
_atom_site_fract_z
Si Si1 0.816835 0.106146 0.343030
Si Si2 0.303095 0.102477 0.788155
Si Si3 0.193141 0.247739 0.996518
Si Si4 0.198513 0.915415 0.434872
Si Si5 0.814991 0.733438 0.274095
Si Si6 0.301629 0.826893 0.628085
Si Si7 0.300679 0.965237 0.705956
Si Si8 0.315529 0.077830 0.477296
O O1 0.806925 0.196532 0.327203
O O2 0.774495 0.072814 0.271728
O O3 0.686262 0.087909 0.398498
O O4 0.000000 0.082297 0.365109
O O5 0.500000 0.118080 0.786497
O O6 0.262413 0.068040 0.860409
O O7 0.192621 0.177035 0.783888
O O8 0.262907 0.053128 0.722374
O O9 0.207569 0.216503 0.070847
O O10 0.000000 0.256694 0.976165
O O11 0.259972 0.171101 0.956917
O O12 0.262694 0.336907 0.995743
O O13 0.000000 0.910840 0.434065
O O14 0.244514 0.989612 0.481349
O O15 0.773817 0.713692 0.198660
O O16 0.000000 0.702626 0.286537
O O17 0.500000 0.825067 0.613894
O O18 0.247802 0.915675 0.642948
O O19 0.500000 0.957460 0.708576
O O20 0.500000 0.075612 0.506541
#
# Coordination Sequence:
#
# PCOD9352299 Si02
#       8
#     8   8   8   8   8   8   8   8
#     4  11  20  32  56  87 114 149 193 236 295 363
#     4  11  21  35  59  91 124 156 196 245 304 372
#     4  10  24  43  62  85 119 162 207 258 308 361
#     4  11  23  40  62  93 128 162 203 254 311 370
#     4  10  21  37  57  84 120 156 193 247 305 357
#     4   9  20  40  62  82 112 156 202 248 299 358
#     4   9  19  36  57  83 118 153 187 238 300 353
#     4  11  22  39  61  87 121 162 201 250 310 366
#
# _framework density 22.612317000000001
#
# number of rings (size 3 to 8) (size 9 to 14) (size 15 to 20)
#    0.000    1.750    1.250    4.125    0.000    6.000 
#    2.250    0.000    0.000    0.000    0.000    0.000 
#    0.000    0.000    0.000    0.000    0.000    0.000 
#
# Total GULP energy -178162.221524 kJ/mol
# GULP energy per Si atom -5567.569423 kJ/mol
# Density = 2.256085 g / cm^3
# Si number density = 22.612317 Si / 1000 Ang^3
#
#
#
# Elastic Constant Matrix: (Units=GPa)
#
#
# Indices 1 2 3 4 5 6 
#
# 1 14.7950 1.2680 0.4400 0.0000 0.0000 0.0000
# 2 1.2680 88.8070 -0.3089 0.0000 0.0000 0.0000
# 3 0.4400 -0.3089 39.7105 0.0000 0.0000 0.0000
# 4 0.0000 0.0000 0.0000 29.6938 0.0000 0.0000
# 5 0.0000 0.0000 0.0000 0.0000 19.9421 0.0000
# 6 0.0000 0.0000 0.0000 0.0000 0.0000 8.7727
#
#
#
# Elastic Compliance Matrix: (Units=1/GPa)
#
#
# Indices 1 2 3 4 5 6 
#
# 1 0.067696 -0.000969 -0.000758 0.000000 0.000000 0.000000
# 2 -0.000969 0.011275 0.000098 0.000000 0.000000 0.000000
# 3 -0.000758 0.000098 0.025191 0.000000 0.000000 0.000000
# 4 0.000000 0.000000 0.000000 0.033677 0.000000 0.000000
# 5 0.000000 0.000000 0.000000 0.000000 0.050145 0.000000
# 6 0.000000 0.000000 0.000000 0.000000 0.000000 0.113990
#
#
# Mechanical properties :
#
#
# Convention : Reuss Voigt Hill
#
# Bulk Modulus (GPa) = 9.91027 16.23451 13.07239
# Shear Modulus (GPa) = 14.75507 21.14260 17.94884
#
# Velocity S-wave (km/s) = 2.55723 3.06110 2.82044
# Velocity P-wave (km/s) = 3.62097 4.43721 4.04971
#
# Compressibility (1/GPa) = 0.10090546
#
# Stress axis : x y z
#
# Youngs Moduli (GPa) = 14.77188 88.69530 39.69607
#
# Poissons Ratio (x) = 0.08596 0.03007
# Poissons Ratio (y) = 0.01432 -0.00391
# Poissons Ratio (z) = 0.01119 -0.00873
#
# Static dielectric constant tensor:
#      x y z
#    x 1.852210 0.000000 0.000000 
#    y 0.000000 2.036960 0.000000 
#    z 0.000000 0.000000 1.799220 
# 
# From -- ./inp_files/15596.got.cif
#   From: 2010.05.17/outbox.cif.g08.bks.cpg/sg36_8_cif.got.tgz:15596.got - 2010.06.03 17:41:39.
