data_PCOD9352104
_publ_section_title
;
Structure prediction by ZEFSAII (Michael W. Deem and Ramdas Pophale) SiO2 
 PCOD9352104
Probable space group: C M C 21
;
_chemical_formula_sum "Si O2"
_cell_formula_units_Z 48
_cell_length_a 29.820331
_cell_length_b 7.594682
_cell_length_c 8.797355
_cell_angle_alpha 90.000000
_cell_angle_beta 90.000000
_cell_angle_gamma 90.000000
_cell_volume 1992.389165
_symmetry_space_group_name_H-M "C M C 21"
_symmetry_group_IT_number 36
_symmetry_cell_setting 'orthorhombic'
loop_
_space_group_symop_operation_xyz
x,y,z
-x,-y,1/2+z
x,-y,1/2+z
-x,y,z
1/2+x,1/2+y,z
1/2-x,1/2-y,1/2+z
1/2+x,1/2-y,1/2+z
1/2-x,1/2+y,z
loop_
_atom_site_type_symbol
_atom_site_label
_atom_site_fract_x
_atom_site_fract_y
_atom_site_fract_z
Si Si1 0.400892 0.258142 0.677170
Si Si2 0.500000 0.928819 0.876944
Si Si3 0.500000 0.264340 0.699867
Si Si4 0.403405 0.082305 0.356440
Si Si5 0.224556 0.387987 0.417849
Si Si6 0.685293 0.796550 0.726321
Si Si7 0.197197 0.899240 0.666018
O O1 0.450078 0.349952 0.692549
O O2 0.402581 0.126357 0.533666
O O3 0.356283 0.371950 0.648073
O O4 0.395126 0.122397 0.817085
O O5 0.546498 0.868482 0.803578
O O6 0.500000 0.138852 0.848279
O O7 0.500000 0.862433 0.050315
O O8 0.365455 0.198394 0.279721
O O9 0.288241 0.069382 0.335300
O O10 0.189783 0.369588 0.557111
O O11 0.211653 0.240830 0.293473
O O12 0.270993 0.379003 0.517543
O O13 0.704047 0.599343 0.719008
#
# Coordination Sequence:
#
# PCOD9352104 Si02
#       7
#     8   4   4   8   8   8   8
#     4  10  21  42  71 110 151 199 253 310 387 453
#     4   8  16  32  61 104 144 195 244 300 383 445
#     4   8  16  34  67 104 148 193 246 310 369 461
#     4  10  20  39  70 105 151 197 250 314 375 458
#     4  12  33  51  75 108 155 196 264 321 388 465
#     4  12  30  50  78 108 149 202 259 321 386 460
#     4  12  32  51  79 111 152 206 256 323 388 465
#
# _framework density 24.091681000000001
#
# number of rings (size 3 to 8) (size 9 to 14) (size 15 to 20)
#    0.000    1.333    1.667    1.000    9.333    1.333 
#    0.000    0.833    0.000    0.000    0.000    0.000 
#    0.000    0.000    0.000    0.000    0.000    0.083 
#
# Total GULP energy -134104.837382 kJ/mol
# GULP energy per Si atom -5587.701558 kJ/mol
# Density = 2.403685 g / cm^3
# Si number density = 24.091681 Si / 1000 Ang^3
#
#
#
# Elastic Constant Matrix: (Units=GPa)
#
#
# Indices 1 2 3 4 5 6 
#
# 1 223.2090 50.9946 46.5935 0.0000 0.0000 0.0000
# 2 50.9946 120.8329 53.6833 0.0000 0.0000 0.0000
# 3 46.5935 53.6833 129.1256 0.0000 0.0000 0.0000
# 4 0.0000 0.0000 0.0000 34.7116 0.0000 0.0000
# 5 0.0000 0.0000 0.0000 0.0000 31.1823 0.0000
# 6 0.0000 0.0000 0.0000 0.0000 0.0000 29.0204
#
#
#
# Elastic Compliance Matrix: (Units=1/GPa)
#
#
# Indices 1 2 3 4 5 6 
#
# 1 0.005096 -0.001636 -0.001159 0.000000 0.000000 0.000000
# 2 -0.001636 0.010676 -0.003848 0.000000 0.000000 0.000000
# 3 -0.001159 -0.003848 0.009762 0.000000 0.000000 0.000000
# 4 0.000000 0.000000 0.000000 0.028809 0.000000 0.000000
# 5 0.000000 0.000000 0.000000 0.000000 0.032069 0.000000
# 6 0.000000 0.000000 0.000000 0.000000 0.000000 0.034459
#
#
# Mechanical properties :
#
#
# Convention : Reuss Voigt Hill
#
# Bulk Modulus (GPa) = 81.64130 86.19002 83.91566
# Shear Modulus (GPa) = 36.16929 40.44261 38.30595
#
# Velocity S-wave (km/s) = 3.87889 4.10163 3.99182
# Velocity P-wave (km/s) = 7.34999 7.63444 7.49357
#
# Compressibility (1/GPa) = 0.01224870
#
# Stress axis : x y z
#
# Youngs Moduli (GPa) = 196.24500 93.66910 102.43420
#
# Poissons Ratio (x) = 0.15322 0.11869
# Poissons Ratio (y) = 0.32100 0.39419
# Poissons Ratio (z) = 0.22738 0.36046
#
# Static dielectric constant tensor:
#      x y z
#    x 2.057010 0.000000 0.000000 
#    y 0.000000 1.901680 0.000000 
#    z 0.000000 0.000000 1.936830 
# 
# From -- ./inp_files/6003.got.cif
#   From: 2010.05.17/outbox.cif.g08.bks.cpg/sg36_4_cif.got.tgz:6003.got - 2010.06.03 17:41:39.
