data_PCOD9352393
_publ_section_title
;
Structure prediction by ZEFSAII (Michael W. Deem and Ramdas Pophale) SiO2 
 PCOD9352393
Probable space group: C M C 21
;
_chemical_formula_sum "Si O2"
_cell_formula_units_Z 64
_cell_length_a 8.580501
_cell_length_b 33.346606
_cell_length_c 10.644788
_cell_angle_alpha 90.000000
_cell_angle_beta 90.000000
_cell_angle_gamma 90.000000
_cell_volume 3045.799430
_symmetry_space_group_name_H-M "C M C 21"
_symmetry_group_IT_number 36
_symmetry_cell_setting 'orthorhombic'
loop_
_space_group_symop_operation_xyz
x,y,z
-x,-y,1/2+z
x,-y,1/2+z
-x,y,z
1/2+x,1/2+y,z
1/2-x,1/2-y,1/2+z
1/2+x,1/2-y,1/2+z
1/2-x,1/2+y,z
loop_
_atom_site_type_symbol
_atom_site_label
_atom_site_fract_x
_atom_site_fract_y
_atom_site_fract_z
Si Si1 0.189211 0.366971 0.208050
Si Si2 0.318365 0.799035 0.797606
Si Si3 0.184192 0.037678 0.346232
Si Si4 0.184415 0.596148 0.973580
Si Si5 0.824705 0.172557 0.051671
Si Si6 0.685943 0.117817 0.432768
Si Si7 0.816627 0.507967 0.084174
Si Si8 0.180783 0.285932 0.325498
O O1 0.231636 0.393308 0.329966
O O2 0.236713 0.320320 0.227754
O O3 0.000000 0.366140 0.204505
O O4 0.243366 0.384703 0.076521
O O5 0.203774 0.806697 0.682560
O O6 0.291234 0.836063 0.891432
O O7 0.280240 0.754166 0.839952
O O8 0.000000 0.821408 0.505090
O O9 0.236388 0.084266 0.346101
O O10 0.255720 0.013460 0.227106
O O11 0.000000 0.034421 0.337115
O O12 0.239483 0.021805 0.483198
O O13 0.000000 0.605369 0.986228
O O14 0.284435 0.625844 0.058966
O O15 0.205059 0.551058 0.017078
O O16 0.500000 0.198479 0.259734
O O17 0.700151 0.190610 0.955701
O O18 0.500000 0.110169 0.428839
O O19 0.000000 0.498232 0.091590
O O20 0.000000 0.276498 0.300226
#
# Coordination Sequence:
#
# PCOD9352393 Si02
#       8
#     8   8   8   8   8   8   8   8
#     4   8  17  36  62  91 122 160 207 264 319 381
#     4  11  23  37  58  88 122 162 209 262 315 378
#     4  12  27  45  66 101 142 176 219 282 343 395
#     4   9  19  38  65  93 120 156 211 267 317 378
#     4  11  22  37  58  83 117 160 204 251 310 378
#     4  10  22  41  65  91 127 173 220 265 324 402
#     4  11  24  44  72 101 131 178 228 271 327 407
#     4  10  21  38  60  88 121 159 206 262 319 381
#
# _framework density 21.012546
#
# number of rings (size 3 to 8) (size 9 to 14) (size 15 to 20)
#    0.000    1.750    0.000    4.875    3.500    5.000 
#    0.000    3.125    0.000    0.000    0.000    0.000 
#    0.000    0.000    0.000    0.000    0.000    0.000 
#
# Total GULP energy -178631.664571 kJ/mol
# GULP energy per Si atom -5582.239518 kJ/mol
# Density = 2.096472 g / cm^3
# Si number density = 21.012546 Si / 1000 Ang^3
#
#
#
# Elastic Constant Matrix: (Units=GPa)
#
#
# Indices 1 2 3 4 5 6 
#
# 1 56.2177 33.8017 20.2618 0.0000 0.0000 0.0000
# 2 33.8017 60.3717 31.9826 0.0000 0.0000 0.0000
# 3 20.2618 31.9826 86.4143 0.0000 0.0000 0.0000
# 4 0.0000 0.0000 0.0000 23.9355 0.0000 0.0000
# 5 0.0000 0.0000 0.0000 0.0000 23.0088 0.0000
# 6 0.0000 0.0000 0.0000 0.0000 0.0000 22.2794
#
#
#
# Elastic Compliance Matrix: (Units=1/GPa)
#
#
# Indices 1 2 3 4 5 6 
#
# 1 0.026873 -0.014563 -0.000911 0.000000 0.000000 0.000000
# 2 -0.014563 0.028496 -0.007132 0.000000 0.000000 0.000000
# 3 -0.000911 -0.007132 0.014425 0.000000 0.000000 0.000000
# 4 0.000000 0.000000 0.000000 0.041779 0.000000 0.000000
# 5 0.000000 0.000000 0.000000 0.000000 0.043462 0.000000
# 6 0.000000 0.000000 0.000000 0.000000 0.000000 0.044884
#
#
# Mechanical properties :
#
#
# Convention : Reuss Voigt Hill
#
# Bulk Modulus (GPa) = 40.68038 41.67733 41.17886
# Shear Modulus (GPa) = 19.73745 21.64192 20.68969
#
# Velocity S-wave (km/s) = 3.06815 3.21277 3.14129
# Velocity P-wave (km/s) = 5.65274 5.80001 5.72685
#
# Compressibility (1/GPa) = 0.02458187
#
# Stress axis : x y z
#
# Youngs Moduli (GPa) = 37.21248 35.09244 69.32245
#
# Poissons Ratio (x) = 0.51106 0.06315
# Poissons Ratio (y) = 0.54194 0.49440
# Poissons Ratio (z) = 0.03390 0.25028
#
# Static dielectric constant tensor:
#      x y z
#    x 1.706280 0.000000 0.000000 
#    y 0.000000 1.807690 0.000000 
#    z 0.000000 0.000000 1.777800 
# 
# From -- ./inp_files/7142.got.cif
#   From: 2010.05.17/outbox.cif.g08.bks.cpg/sg36_4_cif.got.tgz:7142.got - 2010.06.03 17:41:39.
