data_PCOD9352951
_publ_section_title
;
Structure prediction by ZEFSAII (Michael W. Deem and Ramdas Pophale) SiO2 
 PCOD9352951
Probable space group: C M C 21
;
_chemical_formula_sum "Si O2"
_cell_formula_units_Z 64
_cell_length_a 8.325481
_cell_length_b 24.587578
_cell_length_c 15.585048
_cell_angle_alpha 90.000000
_cell_angle_beta 90.000000
_cell_angle_gamma 90.000000
_cell_volume 3190.312525
_symmetry_space_group_name_H-M "C M C 21"
_symmetry_group_IT_number 36
_symmetry_cell_setting 'orthorhombic'
loop_
_space_group_symop_operation_xyz
x,y,z
-x,-y,1/2+z
x,-y,1/2+z
-x,y,z
1/2+x,1/2+y,z
1/2-x,1/2-y,1/2+z
1/2+x,1/2-y,1/2+z
1/2-x,1/2+y,z
loop_
_atom_site_type_symbol
_atom_site_label
_atom_site_fract_x
_atom_site_fract_y
_atom_site_fract_z
Si Si1 0.805871 0.017316 0.391150
Si Si2 0.314521 0.365598 0.850064
Si Si3 0.688814 0.252157 0.389928
Si Si4 0.690541 0.471223 0.575952
Si Si5 0.692473 0.048800 0.725292
Si Si6 0.192874 0.326105 0.233162
Si Si7 0.304408 0.257668 0.587438
Si Si8 0.185264 0.630870 0.168765
O O1 0.752786 0.080282 0.396310
O O2 0.000000 0.018381 0.380935
O O3 0.766303 0.988571 0.480052
O O4 0.734801 0.985652 0.310150
O O5 0.500000 0.355724 0.872982
O O6 0.219881 0.310189 0.864146
O O7 0.298102 0.379786 0.750012
O O8 0.500000 0.263429 0.390651
O O9 0.762211 0.292075 0.318390
O O10 0.748155 0.256615 0.488165
O O11 0.500000 0.460229 0.579088
O O12 0.731284 0.518441 0.643891
O O13 0.784931 0.417437 0.602728
O O14 0.500000 0.048745 0.714604
O O15 0.749643 0.111385 0.734202
O O16 0.245967 0.292906 0.147991
O O17 0.000000 0.327799 0.230155
O O18 0.500000 0.259770 0.589162
O O19 0.233935 0.311646 0.629685
O O20 0.000000 0.631199 0.196619
#
# Coordination Sequence:
#
# PCOD9352951 Si02
#       8
#     8   8   8   8   8   8   8   8
#     4  10  24  43  65  91 123 168 211 253 311 378
#     4  11  22  41  66  91 125 165 205 260 319 369
#     4  11  24  40  64  96 124 163 213 257 307 371
#     4  11  24  43  65  92 126 168 210 255 316 378
#     4  11  24  41  64  94 126 165 208 259 315 370
#     4  10  23  43  63  87 126 169 205 253 316 368
#     4  10  23  43  64  89 127 170 205 254 316 373
#     4  12  24  40  65  96 123 160 213 265 312 369
#
# _framework density 20.06073
#
# number of rings (size 3 to 8) (size 9 to 14) (size 15 to 20)
#    0.000    1.250    2.500    2.625    3.500    3.500 
#    0.000    0.000    0.000    0.000    0.000    0.000 
#    0.000    0.000    0.000    0.000    0.000    0.000 
#
# Total GULP energy -178839.091864 kJ/mol
# GULP energy per Si atom -5588.721621 kJ/mol
# Density = 2.001507 g / cm^3
# Si number density = 20.060730 Si / 1000 Ang^3
#
#
#
# Elastic Constant Matrix: (Units=GPa)
#
#
# Indices 1 2 3 4 5 6 
#
# 1 14.3918 2.5833 1.6837 0.0000 0.0000 0.0000
# 2 2.5833 85.4238 -9.9800 0.0000 0.0000 0.0000
# 3 1.6837 -9.9800 57.5824 0.0000 0.0000 0.0000
# 4 0.0000 0.0000 0.0000 25.1534 0.0000 0.0000
# 5 0.0000 0.0000 0.0000 0.0000 19.8599 0.0000
# 6 0.0000 0.0000 0.0000 0.0000 0.0000 29.9399
#
#
#
# Elastic Compliance Matrix: (Units=1/GPa)
#
#
# Indices 1 2 3 4 5 6 
#
# 1 0.070206 -0.002412 -0.002471 0.000000 0.000000 0.000000
# 2 -0.002412 0.012031 0.002156 0.000000 0.000000 0.000000
# 3 -0.002471 0.002156 0.017812 0.000000 0.000000 0.000000
# 4 0.000000 0.000000 0.000000 0.039756 0.000000 0.000000
# 5 0.000000 0.000000 0.000000 0.000000 0.050353 0.000000
# 6 0.000000 0.000000 0.000000 0.000000 0.000000 0.033400
#
#
# Mechanical properties :
#
#
# Convention : Reuss Voigt Hill
#
# Bulk Modulus (GPa) = 10.57129 16.21911 13.39520
# Shear Modulus (GPa) = 19.19060 25.86470 22.52765
#
# Velocity S-wave (km/s) = 3.09629 3.59461 3.35471
# Velocity P-wave (km/s) = 4.25015 5.03297 4.65804
#
# Compressibility (1/GPa) = 0.09459586
#
# Stress axis : x y z
#
# Youngs Moduli (GPa) = 14.24376 83.11776 56.14106
#
# Poissons Ratio (x) = 0.20046 0.13871
# Poissons Ratio (y) = 0.03435 -0.12102
# Poissons Ratio (z) = 0.03519 -0.17918
#
# Static dielectric constant tensor:
#      x y z
#    x 1.702490 0.000000 0.000000 
#    y 0.000000 1.712700 0.000000 
#    z 0.000000 0.000000 1.702450 
# 
# From -- ./inp_files/10958.got.cif
#   From: 2010.05.17/outbox.cif.g08.bks.cpg/sg36_6_cif.got.tgz:10958.got - 2010.06.03 17:41:39.
