data_PCOD9352184
_publ_section_title
;
Structure prediction by ZEFSAII (Michael W. Deem and Ramdas Pophale) SiO2 
 PCOD9352184
Probable space group: C M C 21
;
_chemical_formula_sum "Si O2"
_cell_formula_units_Z 64
_cell_length_a 26.909888
_cell_length_b 5.352865
_cell_length_c 19.616170
_cell_angle_alpha 90.000000
_cell_angle_beta 90.000000
_cell_angle_gamma 90.000000
_cell_volume 2825.611161
_symmetry_space_group_name_H-M "C M C 21"
_symmetry_group_IT_number 36
_symmetry_cell_setting 'orthorhombic'
loop_
_space_group_symop_operation_xyz
x,y,z
-x,-y,1/2+z
x,-y,1/2+z
-x,y,z
1/2+x,1/2+y,z
1/2-x,1/2-y,1/2+z
1/2+x,1/2-y,1/2+z
1/2-x,1/2+y,z
loop_
_atom_site_type_symbol
_atom_site_label
_atom_site_fract_x
_atom_site_fract_y
_atom_site_fract_z
Si Si1 0.055811 0.479463 0.867180
Si Si2 0.559845 0.900836 0.129264
Si Si3 0.227801 0.911420 0.285201
Si Si4 0.375549 0.362803 0.813213
Si Si5 0.226310 0.186964 0.948570
Si Si6 0.440260 0.594065 0.706313
Si Si7 0.119432 0.101742 0.951110
Si Si8 0.555196 0.235218 0.009610
O O1 0.096867 0.594858 0.816233
O O2 0.050639 0.678051 0.929573
O O3 0.000000 0.445823 0.838421
O O4 0.077249 0.252193 0.910896
O O5 0.500000 0.882454 0.132219
O O6 0.577814 0.641690 0.160752
O O7 0.574417 0.142825 0.173775
O O8 0.570637 0.991901 0.052277
O O9 0.265980 0.126086 0.258690
O O10 0.175052 0.053189 0.276354
O O11 0.233980 0.849352 0.366533
O O12 0.417132 0.541624 0.780011
O O13 0.362156 0.410514 0.892130
O O14 0.240509 0.913756 0.975649
O O15 0.169149 0.254885 0.964318
O O16 0.500000 0.586557 0.709973
O O17 0.095535 0.951155 0.012706
O O18 0.500000 0.313826 0.034592
#
# Coordination Sequence:
#
# PCOD9352184 Si02
#       8
#     8   8   8   8   8   8   8   8
#     4  10  21  33  50  78 115 150 178 213 267 327
#     4   9  20  36  55  76 103 141 187 228 260 297
#     4   9  19  32  52  76 103 137 177 222 264 309
#     4  10  22  34  52  78 114 143 178 214 272 334
#     4   9  19  32  51  74 106 137 175 221 266 317
#     4  10  21  36  54  78 107 144 181 219 263 317
#     4  10  21  32  54  79 108 146 180 216 273 331
#     4   9  19  35  52  77 108 142 184 227 262 310
#
# _framework density 22.649967
#
# number of rings (size 3 to 8) (size 9 to 14) (size 15 to 20)
#    0.000    2.500    0.000    0.750   14.000    1.500 
#    0.000    0.000    0.000    0.000    0.000    5.250 
#    0.000    0.000    0.000    0.000    0.000    0.000 
#
# Total GULP energy -178250.707289 kJ/mol
# GULP energy per Si atom -5570.334603 kJ/mol
# Density = 2.259841 g / cm^3
# Si number density = 22.649967 Si / 1000 Ang^3
#
#
#
# Elastic Constant Matrix: (Units=GPa)
#
#
# Indices 1 2 3 4 5 6 
#
# 1 44.0427 5.7245 -2.6559 0.0000 0.0000 0.0000
# 2 5.7245 102.1821 13.6390 0.0000 0.0000 0.0000
# 3 -2.6559 13.6390 55.6545 0.0000 0.0000 0.0000
# 4 0.0000 0.0000 0.0000 28.7392 0.0000 0.0000
# 5 0.0000 0.0000 0.0000 0.0000 5.5971 0.0000
# 6 0.0000 0.0000 0.0000 0.0000 0.0000 18.0914
#
#
#
# Elastic Compliance Matrix: (Units=1/GPa)
#
#
# Indices 1 2 3 4 5 6 
#
# 1 0.022986 -0.001483 0.001460 0.000000 0.000000 0.000000
# 2 -0.001483 0.010213 -0.002574 0.000000 0.000000 0.000000
# 3 0.001460 -0.002574 0.018668 0.000000 0.000000 0.000000
# 4 0.000000 0.000000 0.000000 0.034796 0.000000 0.000000
# 5 0.000000 0.000000 0.000000 0.000000 0.178664 0.000000
# 6 0.000000 0.000000 0.000000 0.000000 0.000000 0.055275
#
#
# Mechanical properties :
#
#
# Convention : Reuss Voigt Hill
#
# Bulk Modulus (GPa) = 21.42452 26.14382 23.78417
# Shear Modulus (GPa) = 14.64761 22.83032 18.73896
#
# Velocity S-wave (km/s) = 2.54578 3.17829 2.87945
# Velocity P-wave (km/s) = 4.25685 5.00363 4.64527
#
# Compressibility (1/GPa) = 0.04667549
#
# Stress axis : x y z
#
# Youngs Moduli (GPa) = 43.50472 97.91409 53.56643
#
# Poissons Ratio (x) = 0.14517 -0.07822
# Poissons Ratio (y) = 0.06450 0.13786
# Poissons Ratio (z) = -0.06353 0.25199
#
# Static dielectric constant tensor:
#      x y z
#    x 1.885070 0.000000 0.000000 
#    y 0.000000 1.939050 0.000000 
#    z 0.000000 0.000000 1.907510 
# 
# From -- ./inp_files/17064.got.cif
#   From: 2010.05.17/outbox.cif.g08.bks.cpg/sg36_9_cif.got.tgz:17064.got - 2010.06.03 17:41:39.
