data_PCOD9352728
_publ_section_title
;
Structure prediction by ZEFSAII (Michael W. Deem and Ramdas Pophale) SiO2 
 PCOD9352728
Probable space group: C M C 21
;
_chemical_formula_sum "Si O2"
_cell_formula_units_Z 64
_cell_length_a 13.100015
_cell_length_b 8.311947
_cell_length_c 25.310604
_cell_angle_alpha 90.000000
_cell_angle_beta 90.000000
_cell_angle_gamma 90.000000
_cell_volume 2755.986382
_symmetry_space_group_name_H-M "C M C 21"
_symmetry_group_IT_number 36
_symmetry_cell_setting 'orthorhombic'
loop_
_space_group_symop_operation_xyz
x,y,z
-x,-y,1/2+z
x,-y,1/2+z
-x,y,z
1/2+x,1/2+y,z
1/2-x,1/2-y,1/2+z
1/2+x,1/2-y,1/2+z
1/2-x,1/2+y,z
loop_
_atom_site_type_symbol
_atom_site_label
_atom_site_fract_x
_atom_site_fract_y
_atom_site_fract_z
Si Si1 0.723121 0.854125 0.169190
Si Si2 0.622839 0.444743 0.254232
Si Si3 0.198716 0.400359 0.591231
Si Si4 0.875485 0.630114 0.321496
Si Si5 0.377258 0.431809 0.510922
Si Si6 0.124446 0.376363 0.939532
Si Si7 0.619963 0.787665 0.276908
Si Si8 0.382663 0.782897 0.483193
O O1 0.809758 0.953660 0.201261
O O2 0.664938 0.938889 0.120646
O O3 0.786607 0.718171 0.139773
O O4 0.645682 0.807152 0.215079
O O5 0.500000 0.444737 0.244639
O O6 0.651229 0.274312 0.281393
O O7 0.647417 0.602642 0.289539
O O8 0.307851 0.433533 0.563170
O O9 0.129440 0.330687 0.544948
O O10 0.840411 0.667152 0.380783
O O11 0.843002 0.450076 0.305209
O O12 0.000000 0.631303 0.321989
O O13 0.500000 0.434678 0.520321
O O14 0.350309 0.265992 0.480627
O O15 0.349959 0.596647 0.479375
O O16 0.157837 0.558130 0.953726
O O17 0.000000 0.378475 0.939586
O O18 0.500000 0.792777 0.285541
O O19 0.500000 0.776571 0.467079
#
# Coordination Sequence:
#
# PCOD9352728 Si02
#       8
#     8   8   8   8   8   8   8   8
#     4  12  23  38  61  86 121 161 201 249 301 351
#     4  10  22  40  62  88 122 159 200 247 295 359
#     4  12  23  38  61  86 121 161 201 249 301 351
#     4   9  19  38  64  91 119 155 198 248 305 358
#     4  10  22  40  62  88 122 159 200 247 295 359
#     4   9  19  38  64  91 119 155 198 248 305 358
#     4  10  22  40  62  89 122 158 202 251 297 358
#     4  10  22  40  62  89 122 158 202 251 297 358
#
# _framework density 23.222175
#
# number of rings (size 3 to 8) (size 9 to 14) (size 15 to 20)
#    0.000    1.750    2.500    1.500    0.000    3.000 
#    0.000    6.250    0.000    0.000    0.000    0.000 
#    0.000    0.000    0.000    0.000    0.000    0.000 
#
# Total GULP energy -178580.563309 kJ/mol
# GULP energy per Si atom -5580.642603 kJ/mol
# Density = 2.316932 g / cm^3
# Si number density = 23.222175 Si / 1000 Ang^3
#
#
#
# Elastic Constant Matrix: (Units=GPa)
#
#
# Indices 1 2 3 4 5 6 
#
# 1 50.8695 37.1362 -20.3832 0.0000 0.0000 0.0000
# 2 37.1362 127.2524 27.4299 0.0000 0.0000 0.0000
# 3 -20.3832 27.4299 70.8215 0.0000 0.0000 0.0000
# 4 0.0000 0.0000 0.0000 29.7219 0.0000 0.0000
# 5 0.0000 0.0000 0.0000 0.0000 20.4612 0.0000
# 6 0.0000 0.0000 0.0000 0.0000 0.0000 40.6106
#
#
#
# Elastic Compliance Matrix: (Units=1/GPa)
#
#
# Indices 1 2 3 4 5 6 
#
# 1 0.036210 -0.013981 0.015837 0.000000 0.000000 0.000000
# 2 -0.013981 0.013972 -0.009436 0.000000 0.000000 0.000000
# 3 0.015837 -0.009436 0.022332 0.000000 0.000000 0.000000
# 4 0.000000 0.000000 0.000000 0.033645 0.000000 0.000000
# 5 0.000000 0.000000 0.000000 0.000000 0.048873 0.000000
# 6 0.000000 0.000000 0.000000 0.000000 0.000000 0.024624
#
#
# Mechanical properties :
#
#
# Convention : Reuss Voigt Hill
#
# Bulk Modulus (GPa) = 17.43506 37.47880 27.45693
# Shear Modulus (GPa) = 23.37148 31.80942 27.59045
#
# Velocity S-wave (km/s) = 3.17587 3.70508 3.45063
# Velocity P-wave (km/s) = 4.57957 5.87177 5.26546
#
# Compressibility (1/GPa) = 0.05735570
#
# Stress axis : x y z
#
# Youngs Moduli (GPa) = 27.61635 71.56983 44.77781
#
# Poissons Ratio (x) = 1.00062 -0.70914
# Poissons Ratio (y) = 0.38610 0.42250
# Poissons Ratio (z) = -0.43735 0.67530
#
# Static dielectric constant tensor:
#      x y z
#    x 1.914930 0.000000 0.000000 
#    y 0.000000 1.967600 0.000000 
#    z 0.000000 0.000000 1.819120 
# 
# From -- ./inp_files/16981.got.cif
#   From: 2010.05.17/outbox.cif.g08.bks.cpg/sg36_9_cif.got.tgz:16981.got - 2010.06.03 17:41:39.
