data_PCOD9352801
_publ_section_title
;
Structure prediction by ZEFSAII (Michael W. Deem and Ramdas Pophale) SiO2 
 PCOD9352801
Probable space group: C M C 21
;
_chemical_formula_sum "Si O2"
_cell_formula_units_Z 56
_cell_length_a 13.164519
_cell_length_b 12.739720
_cell_length_c 13.978540
_cell_angle_alpha 90.000000
_cell_angle_beta 90.000000
_cell_angle_gamma 90.000000
_cell_volume 2344.372898
_symmetry_space_group_name_H-M "C M C 21"
_symmetry_group_IT_number 36
_symmetry_cell_setting 'orthorhombic'
loop_
_space_group_symop_operation_xyz
x,y,z
-x,-y,1/2+z
x,-y,1/2+z
-x,y,z
1/2+x,1/2+y,z
1/2-x,1/2-y,1/2+z
1/2+x,1/2-y,1/2+z
1/2-x,1/2+y,z
loop_
_atom_site_type_symbol
_atom_site_label
_atom_site_fract_x
_atom_site_fract_y
_atom_site_fract_z
Si Si1 0.170984 0.486507 0.122020
Si Si2 0.889256 0.992446 0.836796
Si Si3 0.385629 0.777366 0.660797
Si Si4 0.889923 0.293480 0.002371
Si Si5 0.885764 0.923425 0.616553
Si Si6 0.728510 0.156018 0.795802
Si Si7 0.334099 0.707414 0.446923
O O1 0.123105 0.598067 0.146323
O O2 0.115268 0.407985 0.050719
O O3 0.285618 0.513219 0.084635
O O4 0.178309 0.419451 0.218145
O O5 0.879281 0.938770 0.731611
O O6 0.879405 0.900324 0.911902
O O7 0.000000 0.041780 0.841577
O O8 0.805057 0.079703 0.852157
O O9 0.500000 0.747747 0.690254
O O10 0.299980 0.734299 0.732931
O O11 0.364635 0.732037 0.554639
O O12 0.879027 0.196513 0.078390
O O13 0.000000 0.280240 0.955481
O O14 0.788731 0.292489 0.940328
O O15 0.000000 0.960592 0.589372
O O16 0.645472 0.205979 0.865739
#
# Coordination Sequence:
#
# PCOD9352801 Si02
#       7
#     8   8   8   8   8   8   8
#     4  11  20  43  66 101 130 180 224 281 343 412
#     4  10  22  41  67  99 132 172 225 277 340 406
#     4  12  26  46  71 103 143 183 231 290 352 412
#     4  11  23  40  64  93 131 178 223 272 339 410
#     4   9  19  39  66  94 127 170 220 274 332 401
#     4  11  24  44  73  96 140 181 227 290 347 410
#     4  12  25  43  68 102 139 182 229 292 340 413
#
# _framework density 23.886983000000001
#
# number of rings (size 3 to 8) (size 9 to 14) (size 15 to 20)
#    0.000    1.143    2.857    3.857    2.000    1.714 
#    0.000    3.571    0.000    0.000    0.000    0.000 
#    0.000    0.000    0.000    0.000    0.000    0.000 
#
# Total GULP energy -156678.204304 kJ/mol
# GULP energy per Si atom -5595.650154 kJ/mol
# Density = 2.383262 g / cm^3
# Si number density = 23.886983 Si / 1000 Ang^3
#
#
#
# Elastic Constant Matrix: (Units=GPa)
#
#
# Indices 1 2 3 4 5 6 
#
# 1 89.6721 -0.8240 6.6821 0.0000 0.0000 0.0000
# 2 -0.8240 111.1272 32.9506 0.0000 0.0000 0.0000
# 3 6.6821 32.9506 82.1393 0.0000 0.0000 0.0000
# 4 0.0000 0.0000 0.0000 21.5406 0.0000 0.0000
# 5 0.0000 0.0000 0.0000 0.0000 11.1696 0.0000
# 6 0.0000 0.0000 0.0000 0.0000 0.0000 -3.2495
#
#
#
# Elastic Compliance Matrix: (Units=1/GPa)
#
#
# Indices 1 2 3 4 5 6 
#
# 1 0.011236 0.000402 -0.001075 0.000000 0.000000 0.000000
# 2 0.000402 0.010228 -0.004136 0.000000 0.000000 0.000000
# 3 -0.001075 -0.004136 0.013921 0.000000 0.000000 0.000000
# 4 0.000000 0.000000 0.000000 0.046424 0.000000 0.000000
# 5 0.000000 0.000000 0.000000 0.000000 0.089529 0.000000
# 6 0.000000 0.000000 0.000000 0.000000 0.000000 -0.307740
#
#
# Mechanical properties :
#
#
# Convention : Reuss Voigt Hill
#
# Bulk Modulus (GPa) = 38.80974 40.06176 39.43575
# Shear Modulus (GPa) = -42.30247 22.16747 -10.06750
#
# Velocity S-wave (km/s) = -4.21282 3.04964 -2.05519
# Velocity P-wave (km/s) = 2.71686 5.40446 3.30355
#
# Compressibility (1/GPa) = 0.02576673
#
# Stress axis : x y z
#
# Youngs Moduli (GPa) = 89.00303 97.77117 71.83402
#
# Poissons Ratio (x) = -0.03932 0.07725
# Poissons Ratio (y) = -0.03579 0.29708
# Poissons Ratio (z) = 0.09571 0.40435
#
# Static dielectric constant tensor:
#      x y z
#    x 1.905950 0.000000 0.000000 
#    y 0.000000 1.896500 0.000000 
#    z 0.000000 0.000000 1.942620 
# 
# From -- ./inp_files/12147.got.cif
#   From: 2010.05.17/outbox.cif.g08.bks.cpg/sg36_7_cif.got.tgz:12147.got - 2010.06.03 17:41:39.
