data_PCOD9352924
_publ_section_title
;
Structure prediction by ZEFSAII (Michael W. Deem and Ramdas Pophale) SiO2 
 PCOD9352924
Probable space group: C M C 21
;
_chemical_formula_sum "Si O2"
_cell_formula_units_Z 40
_cell_length_a 13.447328
_cell_length_b 22.067669
_cell_length_c 5.453807
_cell_angle_alpha 90.000000
_cell_angle_beta 90.000000
_cell_angle_gamma 90.000000
_cell_volume 1618.423680
_symmetry_space_group_name_H-M "C M C 21"
_symmetry_group_IT_number 36
_symmetry_cell_setting 'orthorhombic'
loop_
_space_group_symop_operation_xyz
x,y,z
-x,-y,1/2+z
x,-y,1/2+z
-x,y,z
1/2+x,1/2+y,z
1/2-x,1/2-y,1/2+z
1/2+x,1/2-y,1/2+z
1/2-x,1/2+y,z
loop_
_atom_site_type_symbol
_atom_site_label
_atom_site_fract_x
_atom_site_fract_y
_atom_site_fract_z
Si Si1 0.269274 0.654089 0.406590
Si Si2 0.114240 0.258121 0.627664
Si Si3 0.882067 0.961600 0.747186
Si Si4 0.116622 0.525924 0.076325
Si Si5 0.891471 0.638089 0.778217
O O1 0.198503 0.705343 0.279520
O O2 0.350148 0.690731 0.568172
O O3 0.322875 0.602369 0.248568
O O4 0.194576 0.622590 0.595419
O O5 0.112571 0.293413 0.367682
O O6 0.000000 0.261442 0.724948
O O7 0.000000 0.947536 0.747723
O O8 0.863417 0.000782 0.500188
O O9 0.158937 0.495314 0.832117
O O10 0.117742 0.597001 0.020465
O O11 0.000000 0.508941 0.089147
O O12 0.000000 0.625568 0.668913
#
# Coordination Sequence:
#
# PCOD9352924 Si02
#       5
#     8   8   8   8   8
#     4  12  24  44  73 103 144 196 249 313 388 460
#     4  11  25  45  68 103 144 190 251 314 381 461
#     4  10  25  49  78 113 152 198 258 323 384 455
#     4   9  19  35  56  84 122 173 223 269 335 414
#     4  10  23  41  62  93 138 181 232 301 363 442
#
# _framework density 24.715405000000001
#
# number of rings (size 3 to 8) (size 9 to 14) (size 15 to 20)
#    0.000    1.600    2.000    1.200    5.600    1.600 
#    0.000    0.000    0.000    2.400    0.000    0.000 
#    0.000    0.000    0.000    0.000    0.000    0.000 
#
# Total GULP energy -111904.596805 kJ/mol
# GULP energy per Si atom -5595.229840 kJ/mol
# Density = 2.465915 g / cm^3
# Si number density = 24.715405 Si / 1000 Ang^3
#
#
#
# Elastic Constant Matrix: (Units=GPa)
#
#
# Indices 1 2 3 4 5 6 
#
# 1 180.0431 56.6456 61.1766 0.0000 0.0000 0.0000
# 2 56.6456 99.3070 21.7993 0.0000 0.0000 0.0000
# 3 61.1766 21.7993 87.1155 0.0000 0.0000 0.0000
# 4 0.0000 0.0000 0.0000 38.5687 0.0000 0.0000
# 5 0.0000 0.0000 0.0000 0.0000 41.2357 0.0000
# 6 0.0000 0.0000 0.0000 0.0000 0.0000 26.8199
#
#
#
# Elastic Compliance Matrix: (Units=1/GPa)
#
#
# Indices 1 2 3 4 5 6 
#
# 1 0.008412 -0.003705 -0.004980 0.000000 0.000000 0.000000
# 2 -0.003705 0.012287 -0.000473 0.000000 0.000000 0.000000
# 3 -0.004980 -0.000473 0.015095 0.000000 0.000000 0.000000
# 4 0.000000 0.000000 0.000000 0.025928 0.000000 0.000000
# 5 0.000000 0.000000 0.000000 0.000000 0.024251 0.000000
# 6 0.000000 0.000000 0.000000 0.000000 0.000000 0.037286
#
#
# Mechanical properties :
#
#
# Convention : Reuss Voigt Hill
#
# Bulk Modulus (GPa) = 57.21605 71.74542 64.48074
# Shear Modulus (GPa) = 33.92124 36.44781 35.18453
#
# Velocity S-wave (km/s) = 3.70871 3.84435 3.77714
# Velocity P-wave (km/s) = 6.44512 6.98549 6.72074
#
# Compressibility (1/GPa) = 0.01747761
#
# Stress axis : x y z
#
# Youngs Moduli (GPa) = 118.87505 81.38688 66.24849
#
# Poissons Ratio (x) = 0.30155 0.32994
# Poissons Ratio (y) = 0.44045 0.03132
# Poissons Ratio (z) = 0.59203 0.03847
#
# Static dielectric constant tensor:
#      x y z
#    x 1.991020 0.000000 0.000000 
#    y 0.000000 1.940870 0.000000 
#    z 0.000000 0.000000 1.966470 
# 
# From -- ./inp_files/739.got.cif
#   From: 2010.05.17/outbox.cif.g08.bks.cpg/sg36_1_cif.got.tgz:739.got - 2010.06.03 17:41:39.
