data_PCOD9352154
_publ_section_title
;
Structure prediction by ZEFSAII (Michael W. Deem and Ramdas Pophale) SiO2 
 PCOD9352154
Probable space group: C M C 21
;
_chemical_formula_sum "Si O2"
_cell_formula_units_Z 64
_cell_length_a 27.473106
_cell_length_b 12.109233
_cell_length_c 9.007362
_cell_angle_alpha 90.000000
_cell_angle_beta 90.000000
_cell_angle_gamma 90.000000
_cell_volume 2996.553353
_symmetry_space_group_name_H-M "C M C 21"
_symmetry_group_IT_number 36
_symmetry_cell_setting 'orthorhombic'
loop_
_space_group_symop_operation_xyz
x,y,z
-x,-y,1/2+z
x,-y,1/2+z
-x,y,z
1/2+x,1/2+y,z
1/2-x,1/2-y,1/2+z
1/2+x,1/2-y,1/2+z
1/2-x,1/2+y,z
loop_
_atom_site_type_symbol
_atom_site_label
_atom_site_fract_x
_atom_site_fract_y
_atom_site_fract_z
Si Si1 0.920586 0.756297 0.264870
Si Si2 0.108651 0.386865 0.527957
Si Si3 0.658666 0.980118 0.277864
Si Si4 0.287426 0.245316 0.688651
Si Si5 0.553149 0.706813 0.094399
Si Si6 0.190543 0.288634 0.850983
Si Si7 0.627597 0.681039 0.343528
Si Si8 0.945118 0.945787 0.038399
O O1 0.942620 0.744617 0.428805
O O2 0.862757 0.751589 0.300043
O O3 0.936328 0.869325 0.183414
O O4 0.931438 0.659481 0.143405
O O5 0.109634 0.452986 0.373261
O O6 0.142533 0.463566 0.626354
O O7 0.131580 0.271112 0.473679
O O8 0.689926 0.871155 0.245752
O O9 0.688031 0.078020 0.357658
O O10 0.231895 0.254338 0.735650
O O11 0.296112 0.254784 0.513842
O O12 0.319715 0.337981 0.774357
O O13 0.500000 0.735138 0.156253
O O14 0.595625 0.734071 0.209533
O O15 0.556875 0.574435 0.074914
O O16 0.595526 0.585246 0.416876
O O17 0.000000 0.921292 0.982497
#
# Coordination Sequence:
#
# PCOD9352154 Si02
#       8
#     8   8   8   8   8   8   8   8
#     4  10  21  39  57  92 129 162 215 263 312 382
#     4   9  20  34  65  85 114 151 208 256 298 386
#     4  10  20  42  62  90 117 166 211 244 322 384
#     4  11  24  40  62  91 126 163 216 265 322 379
#     4  11  21  38  65  94 128 170 215 261 328 398
#     4  11  24  40  62  91 126 163 216 265 322 379
#     4  10  21  39  57  92 129 162 215 263 312 382
#     4  10  21  38  63  93 130 175 217 257 323 400
#
# _framework density 21.357869000000001
#
# number of rings (size 3 to 8) (size 9 to 14) (size 15 to 20)
#    0.000    1.750    2.500    1.500    8.750    2.000 
#    4.500    0.000    0.000    0.000    0.000  269.500 
#    0.000    0.000    0.000    0.000    0.000    0.000 
#
# Total GULP energy -178319.585153 kJ/mol
# GULP energy per Si atom -5572.487036 kJ/mol
# Density = 2.130926 g / cm^3
# Si number density = 21.357869 Si / 1000 Ang^3
#
#
#
# Elastic Constant Matrix: (Units=GPa)
#
#
# Indices 1 2 3 4 5 6 
#
# 1 93.4767 14.9903 10.4270 0.0000 0.0000 0.0000
# 2 14.9903 56.8105 11.2904 0.0000 0.0000 0.0000
# 3 10.4270 11.2904 97.3904 0.0000 0.0000 0.0000
# 4 0.0000 0.0000 0.0000 25.1712 0.0000 0.0000
# 5 0.0000 0.0000 0.0000 0.0000 27.0550 0.0000
# 6 0.0000 0.0000 0.0000 0.0000 0.0000 16.3352
#
#
#
# Elastic Compliance Matrix: (Units=1/GPa)
#
#
# Indices 1 2 3 4 5 6 
#
# 1 0.011244 -0.002792 -0.000880 0.000000 0.000000 0.000000
# 2 -0.002792 0.018711 -0.001870 0.000000 0.000000 0.000000
# 3 -0.000880 -0.001870 0.010579 0.000000 0.000000 0.000000
# 4 0.000000 0.000000 0.000000 0.039728 0.000000 0.000000
# 5 0.000000 0.000000 0.000000 0.000000 0.036962 0.000000
# 6 0.000000 0.000000 0.000000 0.000000 0.000000 0.061217
#
#
# Mechanical properties :
#
#
# Convention : Reuss Voigt Hill
#
# Bulk Modulus (GPa) = 33.95703 35.67699 34.81701
# Shear Modulus (GPa) = 25.08261 27.77695 26.42978
#
# Velocity S-wave (km/s) = 3.43066 3.61022 3.52159
# Velocity P-wave (km/s) = 5.62372 5.84114 5.73346
#
# Compressibility (1/GPa) = 0.02944898
#
# Stress axis : x y z
#
# Youngs Moduli (GPa) = 88.93829 53.44520 94.52688
#
# Poissons Ratio (x) = 0.14921 0.08320
# Poissons Ratio (y) = 0.24831 0.17679
# Poissons Ratio (z) = 0.07828 0.09995
#
# Static dielectric constant tensor:
#      x y z
#    x 1.765540 0.000000 0.000000 
#    y 0.000000 1.785760 0.000000 
#    z 0.000000 0.000000 1.826210 
# 
# From -- ./inp_files/5674.got.cif
#   From: 2010.05.17/outbox.cif.g08.bks.cpg/sg36_3_cif.got.tgz:5674.got - 2010.06.03 17:41:39.
