data_PCOD9352117
_publ_section_title
;
Structure prediction by ZEFSAII (Michael W. Deem and Ramdas Pophale) SiO2 
 PCOD9352117
Probable space group: C M C 21
;
_chemical_formula_sum "Si O2"
_cell_formula_units_Z 52
_cell_length_a 7.189954
_cell_length_b 18.771921
_cell_length_c 14.115256
_cell_angle_alpha 90.000000
_cell_angle_beta 90.000000
_cell_angle_gamma 90.000000
_cell_volume 1905.125494
_symmetry_space_group_name_H-M "C M C 21"
_symmetry_group_IT_number 36
_symmetry_cell_setting 'orthorhombic'
loop_
_space_group_symop_operation_xyz
x,y,z
-x,-y,1/2+z
x,-y,1/2+z
-x,y,z
1/2+x,1/2+y,z
1/2-x,1/2-y,1/2+z
1/2+x,1/2-y,1/2+z
1/2-x,1/2+y,z
loop_
_atom_site_type_symbol
_atom_site_label
_atom_site_fract_x
_atom_site_fract_y
_atom_site_fract_z
Si Si1 0.223825 0.846779 0.699150
Si Si2 0.000000 0.377520 0.844518
Si Si3 0.220827 0.994467 0.389383
Si Si4 0.774904 0.153989 0.807668
Si Si5 0.778493 0.987672 0.601997
Si Si6 0.211427 0.781958 0.500293
Si Si7 0.775520 0.850285 0.102308
O O1 0.338457 0.827627 0.791472
O O2 0.285878 0.809219 0.601029
O O3 0.000000 0.842314 0.709134
O O4 0.284342 0.929410 0.677040
O O5 0.161273 0.434870 0.878909
O O6 0.252325 0.962195 0.494609
O O7 0.000000 0.010144 0.381037
O O8 0.268790 0.930251 0.318693
O O9 0.713184 0.179743 0.704538
O O10 0.000000 0.157279 0.806098
O O11 0.705459 0.192977 0.901787
O O12 0.711396 0.068363 0.602573
O O13 0.000000 0.991756 0.616710
O O14 0.205137 0.697027 0.515665
O O15 0.000000 0.809420 0.499115
O O16 0.000000 0.849483 0.096261
#
# Coordination Sequence:
#
# PCOD9352117 Si02
#       7
#     8   4   8   8   8   8   8
#     4  10  21  41  66  90 128 172 218 271 325 392
#     4  12  24  34  58 104 126 166 214 266 330 380
#     4  10  20  40  64  94 133 169 216 272 331 400
#     4   9  18  40  69  88 120 175 221 260 329 401
#     4   9  18  39  67  91 125 169 209 269 342 388
#     4  10  21  42  65  90 124 177 220 264 330 391
#     4  10  21  38  64  96 126 163 214 274 332 394
#
# _framework density 27.294791
#
# number of rings (size 3 to 8) (size 9 to 14) (size 15 to 20)
#    0.000    2.154    1.538    1.385    1.077    3.077 
#   11.077    0.000    0.000    0.000    0.000    0.000 
#    0.000    0.000    0.000    0.000    0.000    0.000 
#
# Total GULP energy -145143.462558 kJ/mol
# GULP energy per Si atom -5582.440868 kJ/mol
# Density = 2.723267 g / cm^3
# Si number density = 27.294791 Si / 1000 Ang^3
#
#
#
# Elastic Constant Matrix: (Units=GPa)
#
#
# Indices 1 2 3 4 5 6 
#
# 1 160.8086 -6.3379 6.1740 0.0000 0.0000 0.0000
# 2 -6.3379 108.5133 28.8646 0.0000 0.0000 0.0000
# 3 6.1740 28.8646 106.0559 0.0000 0.0000 0.0000
# 4 0.0000 0.0000 0.0000 57.3029 0.0000 0.0000
# 5 0.0000 0.0000 0.0000 0.0000 -18.8714 0.0000
# 6 0.0000 0.0000 0.0000 0.0000 0.0000 -329.6184
#
#
#
# Elastic Compliance Matrix: (Units=1/GPa)
#
#
# Indices 1 2 3 4 5 6 
#
# 1 0.006257 0.000498 -0.000500 0.000000 0.000000 0.000000
# 2 0.000498 0.009974 -0.002744 0.000000 0.000000 0.000000
# 3 -0.000500 -0.002744 0.010205 0.000000 0.000000 0.000000
# 4 0.000000 0.000000 0.000000 0.017451 0.000000 0.000000
# 5 0.000000 0.000000 0.000000 0.000000 -0.052990 0.000000
# 6 0.000000 0.000000 0.000000 0.000000 0.000000 -0.003034
#
#
# Mechanical properties :
#
#
# Convention : Reuss Voigt Hill
#
# Bulk Modulus (GPa) = 47.74115 48.08660 47.91387
# Shear Modulus (GPa) = 14869.19381 -35.12558 7417.03412
#
# Velocity S-wave (km/s) = 73.88814 -3.59123 52.18505
# Velocity P-wave (km/s) = 85.42134 0.67814 60.40391
#
# Compressibility (1/GPa) = 0.02094629
#
# Stress axis : x y z
#
# Youngs Moduli (GPa) = 159.81047 100.25672 97.99281
#
# Poissons Ratio (x) = -0.04997 0.04899
# Poissons Ratio (y) = -0.07966 0.26886
# Poissons Ratio (z) = 0.07989 0.27507
#
# Static dielectric constant tensor:
#      x y z
#    x 2.083960 0.000000 0.000000 
#    y 0.000000 2.197950 0.000000 
#    z 0.000000 0.000000 2.181070 
# 
# From -- ./inp_files/10552.got.cif
#   From: 2010.05.17/outbox.cif.g08.bks.cpg/sg36_6_cif.got.tgz:10552.got - 2010.06.03 17:41:39.
