data_PCOD9352027
_publ_section_title
;
Structure prediction by ZEFSAII (Michael W. Deem and Ramdas Pophale) SiO2 
 PCOD9352027
Probable space group: C M C 21
;
_chemical_formula_sum "Si O2"
_cell_formula_units_Z 48
_cell_length_a 7.915270
_cell_length_b 27.980814
_cell_length_c 10.334690
_cell_angle_alpha 90.000000
_cell_angle_beta 90.000000
_cell_angle_gamma 90.000000
_cell_volume 2288.882678
_symmetry_space_group_name_H-M "C M C 21"
_symmetry_group_IT_number 36
_symmetry_cell_setting 'orthorhombic'
loop_
_space_group_symop_operation_xyz
x,y,z
-x,-y,1/2+z
x,-y,1/2+z
-x,y,z
1/2+x,1/2+y,z
1/2-x,1/2-y,1/2+z
1/2+x,1/2-y,1/2+z
1/2-x,1/2+y,z
loop_
_atom_site_type_symbol
_atom_site_label
_atom_site_fract_x
_atom_site_fract_y
_atom_site_fract_z
Si Si1 0.792985 0.960034 0.474570
Si Si2 0.204004 0.643184 0.351938
Si Si3 0.296647 0.463283 0.765761
Si Si4 0.303173 0.647349 0.911406
Si Si5 0.696822 0.783555 0.631777
Si Si6 0.196141 0.676134 0.630637
O O1 0.737016 0.972393 0.619636
O O2 0.740310 0.906035 0.441522
O O3 0.000000 0.960410 0.472645
O O4 0.733391 0.998145 0.369083
O O5 0.252631 0.590449 0.306821
O O6 0.262315 0.682592 0.247680
O O7 0.265411 0.654660 0.496564
O O8 0.000000 0.646181 0.353559
O O9 0.500000 0.466826 0.763798
O O10 0.500000 0.649525 0.948446
O O11 0.285388 0.658557 0.760386
O O12 0.211796 0.686375 0.999891
O O13 0.500000 0.772748 0.657182
O O14 0.790150 0.733371 0.622528
O O15 0.000000 0.662359 0.642003
#
# Coordination Sequence:
#
# PCOD9352027 Si02
#       6
#     8   8   8   8   8   8
#     4   9  20  36  60  90 118 150 196 248 296 351
#     4  10  23  41  59  86 123 157 196 249 301 356
#     4  10  20  38  62  88 117 154 198 246 296 354
#     4  11  22  39  61  90 124 160 201 248 300 359
#     4  11  22  40  64  89 119 159 203 251 306 361
#     4  11  24  40  60  89 123 160 204 252 299 357
#
# _framework density 20.970931
#
# number of rings (size 3 to 8) (size 9 to 14) (size 15 to 20)
#    0.000    1.667    1.667    2.500    2.333    3.333 
#    0.000    2.500    0.000    0.000    0.000    0.000 
#    0.000    0.000    0.000    0.000    0.000    0.000 
#
# Total GULP energy -134189.260926 kJ/mol
# GULP energy per Si atom -5591.219205 kJ/mol
# Density = 2.092320 g / cm^3
# Si number density = 20.970931 Si / 1000 Ang^3
#
#
#
# Elastic Constant Matrix: (Units=GPa)
#
#
# Indices 1 2 3 4 5 6 
#
# 1 24.8799 -8.8742 -4.3292 0.0000 0.0000 0.0000
# 2 -8.8742 95.5582 65.4052 0.0000 0.0000 0.0000
# 3 -4.3292 65.4052 178.9079 0.0000 0.0000 0.0000
# 4 0.0000 0.0000 0.0000 44.8591 0.0000 0.0000
# 5 0.0000 0.0000 0.0000 0.0000 -142.1785 0.0000
# 6 0.0000 0.0000 0.0000 0.0000 0.0000 22.0494
#
#
#
# Elastic Compliance Matrix: (Units=1/GPa)
#
#
# Indices 1 2 3 4 5 6 
#
# 1 0.041609 0.004235 -0.000541 0.000000 0.000000 0.000000
# 2 0.004235 0.014388 -0.005158 0.000000 0.000000 0.000000
# 3 -0.000541 -0.005158 0.007462 0.000000 0.000000 0.000000
# 4 0.000000 0.000000 0.000000 0.022292 0.000000 0.000000
# 5 0.000000 0.000000 0.000000 0.000000 -0.007033 0.000000
# 6 0.000000 0.000000 0.000000 0.000000 0.000000 0.045353
#
#
# Mechanical properties :
#
#
# Convention : Reuss Voigt Hill
#
# Bulk Modulus (GPa) = 16.52047 44.86106 30.69077
# Shear Modulus (GPa) = 33.97287 1.42227 17.69757
#
# Velocity S-wave (km/s) = 4.02929 0.82443 2.90816
# Velocity P-wave (km/s) = 5.43523 4.72702 5.09345
#
# Compressibility (1/GPa) = 0.06053098
#
# Stress axis : x y z
#
# Youngs Moduli (GPa) = 24.03306 69.50136 134.01443
#
# Poissons Ratio (x) = -0.29431 0.07253
# Poissons Ratio (y) = -0.10177 0.69119
# Poissons Ratio (z) = 0.01301 0.35846
#
# Static dielectric constant tensor:
#      x y z
#    x 1.763020 0.000000 0.000000 
#    y 0.000000 1.698500 0.000000 
#    z 0.000000 0.000000 1.738720 
# 
# From -- ./inp_files/2719.got.cif
#   From: 2010.05.17/outbox.cif.g08.bks.cpg/sg36_2_cif.got.tgz:2719.got - 2010.06.03 17:41:39.
