data_PCOD9352364
_publ_section_title
;
Structure prediction by ZEFSAII (Michael W. Deem and Ramdas Pophale) SiO2 
 PCOD9352364
Probable space group: C M C 21
;
_chemical_formula_sum "Si O2"
_cell_formula_units_Z 64
_cell_length_a 10.513467
_cell_length_b 30.288024
_cell_length_c 10.612601
_cell_angle_alpha 90.000000
_cell_angle_beta 90.000000
_cell_angle_gamma 90.000000
_cell_volume 3379.393256
_symmetry_space_group_name_H-M "C M C 21"
_symmetry_group_IT_number 36
_symmetry_cell_setting 'orthorhombic'
loop_
_space_group_symop_operation_xyz
x,y,z
-x,-y,1/2+z
x,-y,1/2+z
-x,y,z
1/2+x,1/2+y,z
1/2-x,1/2-y,1/2+z
1/2+x,1/2-y,1/2+z
1/2-x,1/2+y,z
loop_
_atom_site_type_symbol
_atom_site_label
_atom_site_fract_x
_atom_site_fract_y
_atom_site_fract_z
Si Si1 0.648389 0.260704 0.100500
Si Si2 0.142828 0.585694 0.091356
Si Si3 0.638677 0.639225 0.513531
Si Si4 0.351450 0.729701 0.890173
Si Si5 0.140522 0.062347 0.723761
Si Si6 0.352650 0.986261 0.084266
Si Si7 0.358496 0.371111 0.452727
Si Si8 0.358856 0.092566 0.387989
O O1 0.500000 0.246366 0.078391
O O2 0.650181 0.313507 0.078652
O O3 0.678486 0.252500 0.248873
O O4 0.750825 0.242811 0.999111
O O5 0.172008 0.536346 0.043075
O O6 0.144258 0.581734 0.241664
O O7 0.000000 0.597924 0.050411
O O8 0.245460 0.621009 0.049029
O O9 0.500000 0.637306 0.450259
O O10 0.642323 0.600699 0.617783
O O11 0.753589 0.628411 0.421588
O O12 0.500000 0.741882 0.918937
O O13 0.348322 0.676282 0.886489
O O14 0.253478 0.029248 0.690230
O O15 0.153391 0.089478 0.852053
O O16 0.000000 0.041027 0.720394
O O17 0.500000 0.984310 0.127983
O O18 0.338865 0.951725 0.969795
O O19 0.500000 0.373540 0.509899
O O20 0.500000 0.109355 0.420771
#
# Coordination Sequence:
#
# PCOD9352364 Si02
#       8
#     8   8   8   8   8   8   8   8
#     4  10  21  39  62  88 118 152 193 244 295 353
#     4  10  22  36  53  78 112 149 185 230 282 335
#     4   9  17  34  59  80 102 138 180 222 274 330
#     4  10  22  41  62  86 120 156 194 243 300 355
#     4   9  17  33  57  80 103 135 179 225 267 318
#     4   9  19  34  54  78 106 144 183 224 274 327
#     4  10  21  38  58  80 110 148 186 229 280 335
#     4   9  19  35  51  76 111 142 180 229 278 331
#
# _framework density 18.938310999999999
#
# number of rings (size 3 to 8) (size 9 to 14) (size 15 to 20)
#    0.000    2.500    1.250    0.000    1.750    4.000 
#    0.000    5.000    0.000    0.000    0.000    0.000 
#    0.000    0.000    0.000    0.000    0.000    0.000 
#
# Total GULP energy -178338.112666 kJ/mol
# GULP energy per Si atom -5573.066021 kJ/mol
# Density = 1.889521 g / cm^3
# Si number density = 18.938311 Si / 1000 Ang^3
#
#
#
# Elastic Constant Matrix: (Units=GPa)
#
#
# Indices 1 2 3 4 5 6 
#
# 1 125.8887 41.6053 69.4743 0.0000 0.0000 0.0000
# 2 41.6053 26.6643 14.5866 0.0000 0.0000 0.0000
# 3 69.4743 14.5866 75.4837 0.0000 0.0000 0.0000
# 4 0.0000 0.0000 0.0000 18.4160 0.0000 0.0000
# 5 0.0000 0.0000 0.0000 0.0000 29.2145 0.0000
# 6 0.0000 0.0000 0.0000 0.0000 0.0000 20.6652
#
#
#
# Elastic Compliance Matrix: (Units=1/GPa)
#
#
# Indices 1 2 3 4 5 6 
#
# 1 0.034912 -0.041259 -0.024160 0.000000 0.000000 0.000000
# 2 -0.041259 0.090695 0.020448 0.000000 0.000000 0.000000
# 3 -0.024160 0.020448 0.031533 0.000000 0.000000 0.000000
# 4 0.000000 0.000000 0.000000 0.054300 0.000000 0.000000
# 5 0.000000 0.000000 0.000000 0.000000 0.034230 0.000000
# 6 0.000000 0.000000 0.000000 0.000000 0.000000 0.048391
#
#
# Mechanical properties :
#
#
# Convention : Reuss Voigt Hill
#
# Bulk Modulus (GPa) = 14.88123 53.26325 34.07224
# Shear Modulus (GPa) = 12.30308 20.48383 16.39345
#
# Velocity S-wave (km/s) = 2.55157 3.29235 2.94534
# Velocity P-wave (km/s) = 4.06884 6.52981 5.44031
#
# Compressibility (1/GPa) = 0.06719872
#
# Stress axis : x y z
#
# Youngs Moduli (GPa) = 28.64306 11.02600 31.71261
#
# Poissons Ratio (x) = 0.45492 0.76618
# Poissons Ratio (y) = 1.18177 -0.64845
# Poissons Ratio (z) = 0.69202 -0.22546
#
# Static dielectric constant tensor:
#      x y z
#    x 1.688640 0.000000 0.000000 
#    y 0.000000 1.641330 0.000000 
#    z 0.000000 0.000000 1.656900 
# 
# From -- ./inp_files/7068.got.cif
#   From: 2010.05.17/outbox.cif.g08.bks.cpg/sg36_4_cif.got.tgz:7068.got - 2010.06.03 17:41:39.
