data_PCOD9352281
_publ_section_title
;
Structure prediction by ZEFSAII (Michael W. Deem and Ramdas Pophale) SiO2 
 PCOD9352281
Probable space group: C M C 21
;
_chemical_formula_sum "Si O2"
_cell_formula_units_Z 56
_cell_length_a 14.186977
_cell_length_b 36.847000
_cell_length_c 5.155546
_cell_angle_alpha 90.000000
_cell_angle_beta 90.000000
_cell_angle_gamma 90.000000
_cell_volume 2695.048997
_symmetry_space_group_name_H-M "C M C 21"
_symmetry_group_IT_number 36
_symmetry_cell_setting 'orthorhombic'
loop_
_space_group_symop_operation_xyz
x,y,z
-x,-y,1/2+z
x,-y,1/2+z
-x,y,z
1/2+x,1/2+y,z
1/2-x,1/2-y,1/2+z
1/2+x,1/2-y,1/2+z
1/2-x,1/2+y,z
loop_
_atom_site_type_symbol
_atom_site_label
_atom_site_fract_x
_atom_site_fract_y
_atom_site_fract_z
Si Si1 0.611651 0.523956 0.877930
Si Si2 0.105946 0.751817 0.776202
Si Si3 0.730518 0.632878 0.219780
Si Si4 0.244644 0.413810 0.234134
Si Si5 0.758398 0.299879 0.028980
Si Si6 0.102323 0.822896 0.418093
Si Si7 0.887210 0.522040 0.581855
O O1 0.633021 0.494708 0.652533
O O2 0.500000 0.531647 0.867095
O O3 0.670834 0.559903 0.824422
O O4 0.145911 0.715635 0.645575
O O5 0.100664 0.784605 0.568444
O O6 0.000000 0.748111 0.887674
O O7 0.190523 0.765729 0.959632
O O8 0.729829 0.608114 0.474026
O O9 0.776173 0.671815 0.297242
O O10 0.627126 0.645420 0.120715
O O11 0.777130 0.611982 0.978973
O O12 0.159914 0.440431 0.158871
O O13 0.689511 0.321194 0.223913
O O14 0.000000 0.828155 0.293143
O O15 0.859335 0.507577 0.299200
O O16 0.000000 0.525317 0.588456
#
# Coordination Sequence:
#
# PCOD9352281 Si02
#       7
#     8   8   8   8   8   8   8
#     4  10  21  37  58  86 118 152 198 251 299 351
#     4  10  21  36  65  95 117 162 212 266 334 377
#     4  11  25  39  59  87 130 168 207 247 309 381
#     4  12  22  40  62  88 123 170 203 247 312 376
#     4  11  20  41  62  90 131 161 209 279 314 383
#     4  10  21  40  63  91 123 162 209 261 316 373
#     4  10  21  39  66  97 122 155 211 269 313 363
#
# _framework density 20.778841
#
# number of rings (size 3 to 8) (size 9 to 14) (size 15 to 20)
#    0.000    1.429    2.857    3.000    0.000    1.714 
#    0.000    1.429    0.000    0.857    0.000    0.000 
#    0.000    0.000    0.000    0.000    0.000    0.000 
#
# Total GULP energy -156367.268867 kJ/mol
# GULP energy per Si atom -5584.545317 kJ/mol
# Density = 2.073155 g / cm^3
# Si number density = 20.778841 Si / 1000 Ang^3
#
#
#
# Elastic Constant Matrix: (Units=GPa)
#
#
# Indices 1 2 3 4 5 6 
#
# 1 68.2588 26.9527 14.9084 0.0000 0.0000 0.0000
# 2 26.9527 69.4630 5.2384 0.0000 0.0000 0.0000
# 3 14.9084 5.2384 45.3168 0.0000 0.0000 0.0000
# 4 0.0000 0.0000 0.0000 26.2321 0.0000 0.0000
# 5 0.0000 0.0000 0.0000 0.0000 9.3544 0.0000
# 6 0.0000 0.0000 0.0000 0.0000 0.0000 151.9883
#
#
#
# Elastic Compliance Matrix: (Units=1/GPa)
#
#
# Indices 1 2 3 4 5 6 
#
# 1 0.018481 -0.006771 -0.005297 0.000000 0.000000 0.000000
# 2 -0.006771 0.017004 0.000262 0.000000 0.000000 0.000000
# 3 -0.005297 0.000262 0.023779 0.000000 0.000000 0.000000
# 4 0.000000 0.000000 0.000000 0.038121 0.000000 0.000000
# 5 0.000000 0.000000 0.000000 0.000000 0.106902 0.000000
# 6 0.000000 0.000000 0.000000 0.000000 0.000000 0.006579
#
#
# Mechanical properties :
#
#
# Convention : Reuss Voigt Hill
#
# Bulk Modulus (GPa) = 28.04964 30.80417 29.42691
# Shear Modulus (GPa) = 20.29524 46.57754 33.43639
#
# Velocity S-wave (km/s) = 3.12865 4.73967 4.01578
# Velocity P-wave (km/s) = 5.15555 6.69400 5.97450
#
# Compressibility (1/GPa) = 0.03565108
#
# Stress axis : x y z
#
# Youngs Moduli (GPa) = 54.11012 58.81037 42.05347
#
# Poissons Ratio (x) = 0.39823 0.22276
# Poissons Ratio (y) = 0.36640 -0.01102
# Poissons Ratio (z) = 0.28663 -0.01541
#
# Static dielectric constant tensor:
#      x y z
#    x 1.759130 0.000000 0.000000 
#    y 0.000000 1.750470 0.000000 
#    z 0.000000 0.000000 1.808920 
# 
# From -- ./inp_files/931.got.cif
#   From: 2010.05.17/outbox.cif.g08.bks.cpg/sg36_1_cif.got.tgz:931.got - 2010.06.03 17:41:39.
