data_PCOD9352492
_publ_section_title
;
Structure prediction by ZEFSAII (Michael W. Deem and Ramdas Pophale) SiO2 
 PCOD9352492
Probable space group: C M C 21
;
_chemical_formula_sum "Si O2"
_cell_formula_units_Z 40
_cell_length_a 18.746148
_cell_length_b 8.913400
_cell_length_c 10.634653
_cell_angle_alpha 90.000000
_cell_angle_beta 90.000000
_cell_angle_gamma 90.000000
_cell_volume 1776.964541
_symmetry_space_group_name_H-M "C M C 21"
_symmetry_group_IT_number 36
_symmetry_cell_setting 'orthorhombic'
loop_
_space_group_symop_operation_xyz
x,y,z
-x,-y,1/2+z
x,-y,1/2+z
-x,y,z
1/2+x,1/2+y,z
1/2-x,1/2-y,1/2+z
1/2+x,1/2-y,1/2+z
1/2-x,1/2+y,z
loop_
_atom_site_type_symbol
_atom_site_label
_atom_site_fract_x
_atom_site_fract_y
_atom_site_fract_z
Si Si1 0.414767 0.374931 0.977110
Si Si2 0.834106 0.712385 0.747160
Si Si3 0.293406 0.779916 0.579213
Si Si4 0.305641 0.065639 0.411324
Si Si5 0.916290 0.228309 0.992139
O O1 0.500000 0.352032 0.986707
O O2 0.381576 0.294589 0.854033
O O3 0.368492 0.305858 0.091651
O O4 0.400125 0.552660 0.972648
O O5 0.760494 0.786154 0.695922
O O6 0.885037 0.719277 0.625945
O O7 0.807752 0.551236 0.796545
O O8 0.252006 0.682908 0.469299
O O9 0.307796 0.943099 0.524098
O O10 0.375350 0.166870 0.395318
O O11 0.000000 0.248272 0.986914
#
# Coordination Sequence:
#
# PCOD9352492 Si02
#       5
#     8   8   8   8   8
#     4  10  22  42  68  96 130 172 217 265 321 388
#     4  10  22  42  67  92 127 176 215 264 331 385
#     4  10  21  39  63  95 126 164 218 268 315 382
#     4  10  22  38  63  91 125 168 215 270 319 381
#     4  10  22  41  64  96 134 170 217 271 321 384
#
# _framework density 22.510296
#
# number of rings (size 3 to 8) (size 9 to 14) (size 15 to 20)
#    0.000    2.000    0.000    3.000    0.000   13.600 
#    0.000   14.000    0.000    0.000    0.000    4.200 
#    0.000    0.000    0.000    0.000    0.000    0.000 
#
# Total GULP energy -111586.753781 kJ/mol
# GULP energy per Si atom -5579.337689 kJ/mol
# Density = 2.245906 g / cm^3
# Si number density = 22.510296 Si / 1000 Ang^3
#
#
#
# Elastic Constant Matrix: (Units=GPa)
#
#
# Indices 1 2 3 4 5 6 
#
# 1 121.9166 81.4957 14.5561 0.0000 0.0000 0.0000
# 2 81.4957 137.0628 13.7944 0.0000 0.0000 0.0000
# 3 14.5561 13.7944 57.5937 0.0000 0.0000 0.0000
# 4 0.0000 0.0000 0.0000 28.4159 0.0000 0.0000
# 5 0.0000 0.0000 0.0000 0.0000 28.1449 0.0000
# 6 0.0000 0.0000 0.0000 0.0000 0.0000 49.0392
#
#
#
# Elastic Compliance Matrix: (Units=1/GPa)
#
#
# Indices 1 2 3 4 5 6 
#
# 1 0.013747 -0.008018 -0.001554 0.000000 0.000000 0.000000
# 2 -0.008018 0.012152 -0.000884 0.000000 0.000000 0.000000
# 3 -0.001554 -0.000884 0.017968 0.000000 0.000000 0.000000
# 4 0.000000 0.000000 0.000000 0.035192 0.000000 0.000000
# 5 0.000000 0.000000 0.000000 0.000000 0.035530 0.000000
# 6 0.000000 0.000000 0.000000 0.000000 0.000000 0.020392
#
#
# Mechanical properties :
#
#
# Convention : Reuss Voigt Hill
#
# Bulk Modulus (GPa) = 43.56337 59.58505 51.57421
# Shear Modulus (GPa) = 30.57278 34.90179 32.73729
#
# Velocity S-wave (km/s) = 3.68933 3.94189 3.81770
# Velocity P-wave (km/s) = 6.12723 6.87354 6.51108
#
# Compressibility (1/GPa) = 0.02295506
#
# Stress axis : x y z
#
# Youngs Moduli (GPa) = 72.74194 82.29086 55.65576
#
# Poissons Ratio (x) = 0.65977 0.08650
# Poissons Ratio (y) = 0.58321 0.04921
# Poissons Ratio (z) = 0.11305 0.07276
#
# Static dielectric constant tensor:
#      x y z
#    x 1.840400 0.000000 0.000000 
#    y 0.000000 1.797160 0.000000 
#    z 0.000000 0.000000 1.969620 
# 
# From -- ./inp_files/8779.got.cif
#   From: 2010.05.17/outbox.cif.g08.bks.cpg/sg36_5_cif.got.tgz:8779.got - 2010.06.03 17:41:39.
