data_PCOD9352358
_publ_section_title
;
Structure prediction by ZEFSAII (Michael W. Deem and Ramdas Pophale) SiO2 
 PCOD9352358
Probable space group: C M C 21
;
_chemical_formula_sum "Si O2"
_cell_formula_units_Z 56
_cell_length_a 13.687368
_cell_length_b 34.966994
_cell_length_c 5.370733
_cell_angle_alpha 90.000000
_cell_angle_beta 90.000000
_cell_angle_gamma 90.000000
_cell_volume 2570.465654
_symmetry_space_group_name_H-M "C M C 21"
_symmetry_group_IT_number 36
_symmetry_cell_setting 'orthorhombic'
loop_
_space_group_symop_operation_xyz
x,y,z
-x,-y,1/2+z
x,-y,1/2+z
-x,y,z
1/2+x,1/2+y,z
1/2-x,1/2-y,1/2+z
1/2+x,1/2-y,1/2+z
1/2-x,1/2+y,z
loop_
_atom_site_type_symbol
_atom_site_label
_atom_site_fract_x
_atom_site_fract_y
_atom_site_fract_z
Si Si1 0.879709 0.094178 0.554000
Si Si2 0.135104 0.477820 0.664092
Si Si3 0.820616 0.294601 0.180034
Si Si4 0.349103 0.490224 0.157200
Si Si5 0.500000 0.905803 0.658192
Si Si6 0.111719 0.869780 0.553014
Si Si7 0.692338 0.292246 0.680211
Si Si8 0.500000 0.146182 0.657915
O O1 0.831409 0.054524 0.632181
O O2 0.843569 0.106757 0.282414
O O3 0.000000 0.090595 0.545548
O O4 0.850711 0.123278 0.774602
O O5 0.103978 0.500419 0.415503
O O6 0.252193 0.483406 0.663565
O O7 0.092033 0.435297 0.659812
O O8 0.767173 0.296993 0.447951
O O9 0.853474 0.250006 0.168134
O O10 0.905667 0.325820 0.160556
O O11 0.747406 0.297977 0.943634
O O12 0.401825 0.497311 0.411303
O O13 0.500000 0.880198 0.407249
O O14 0.500000 0.879747 0.907117
O O15 0.117144 0.826155 0.636207
O O16 0.000000 0.882562 0.540597
#
# Coordination Sequence:
#
# PCOD9352358 Si02
#       8
#     8   8   8   8   4   8   8   4
#     4  10  21  38  57  89 129 154 203 267 312 377
#     4  10  21  41  62  85 116 162 218 264 317 387
#     4  10  23  43  65  94 135 166 216 258 308 383
#     4  10  21  38  56  85 113 159 206 251 311 382
#     4  12  24  43  66  90 132 168 212 278 326 369
#     4  10  21  38  63  95 124 164 207 255 325 375
#     4  10  21  43  67  95 128 174 210 259 308 378
#     4  12  26  45  64 104 134 174 212 266 332 377
#
# _framework density 21.785936
#
# number of rings (size 3 to 8) (size 9 to 14) (size 15 to 20)
#    0.000    1.714    0.000    3.857    1.000    0.571 
#   30.857    0.000    0.000    0.000    0.000    0.000 
#    0.000    0.000    0.000    0.000    0.000    0.000 
#
# Total GULP energy -156234.214427 kJ/mol
# GULP energy per Si atom -5579.793372 kJ/mol
# Density = 2.173635 g / cm^3
# Si number density = 21.785936 Si / 1000 Ang^3
#
#
#
# Elastic Constant Matrix: (Units=GPa)
#
#
# Indices 1 2 3 4 5 6 
#
# 1 85.4605 37.1900 29.1128 0.0000 0.0000 0.0000
# 2 37.1900 123.3963 44.4173 0.0000 0.0000 0.0000
# 3 29.1128 44.4173 180.6560 0.0000 0.0000 0.0000
# 4 0.0000 0.0000 0.0000 47.6975 0.0000 0.0000
# 5 0.0000 0.0000 0.0000 0.0000 -15.5131 0.0000
# 6 0.0000 0.0000 0.0000 0.0000 0.0000 8.1129
#
#
#
# Elastic Compliance Matrix: (Units=1/GPa)
#
#
# Indices 1 2 3 4 5 6 
#
# 1 0.013746 -0.003670 -0.001313 0.000000 0.000000 0.000000
# 2 -0.003670 0.009871 -0.001835 0.000000 0.000000 0.000000
# 3 -0.001313 -0.001835 0.006198 0.000000 0.000000 0.000000
# 4 0.000000 0.000000 0.000000 0.020965 0.000000 0.000000
# 5 0.000000 0.000000 0.000000 0.000000 -0.064462 0.000000
# 6 0.000000 0.000000 0.000000 0.000000 0.000000 0.123261
#
#
# Mechanical properties :
#
#
# Convention : Reuss Voigt Hill
#
# Bulk Modulus (GPa) = 61.81281 67.88365 64.84823
# Shear Modulus (GPa) = 38.87763 26.64564 32.76164
#
# Velocity S-wave (km/s) = 4.22895 3.50103 3.88209
# Velocity P-wave (km/s) = 7.23048 6.89710 7.06575
#
# Compressibility (1/GPa) = 0.01617788
#
# Stress axis : x y z
#
# Youngs Moduli (GPa) = 72.75007 101.30882 161.33700
#
# Poissons Ratio (x) = 0.37183 0.21179
# Poissons Ratio (y) = 0.26701 0.29613
# Poissons Ratio (z) = 0.09550 0.18595
#
# Static dielectric constant tensor:
#      x y z
#    x 1.813580 0.000000 0.000000 
#    y 0.000000 1.786580 0.000000 
#    z 0.000000 0.000000 1.843220 
# 
# From -- ./inp_files/964.got.cif
#   From: 2010.05.17/outbox.cif.g08.bks.cpg/sg36_1_cif.got.tgz:964.got - 2010.06.03 17:41:39.
