data_PCOD9352613
_publ_section_title
;
Structure prediction by ZEFSAII (Michael W. Deem and Ramdas Pophale) SiO2 
 PCOD9352613
Probable space group: C M C 21
;
_chemical_formula_sum "Si O2"
_cell_formula_units_Z 64
_cell_length_a 25.920601
_cell_length_b 8.376544
_cell_length_c 12.688674
_cell_angle_alpha 90.000000
_cell_angle_beta 90.000000
_cell_angle_gamma 90.000000
_cell_volume 2755.029037
_symmetry_space_group_name_H-M "C M C 21"
_symmetry_group_IT_number 36
_symmetry_cell_setting 'orthorhombic'
loop_
_space_group_symop_operation_xyz
x,y,z
-x,-y,1/2+z
x,-y,1/2+z
-x,y,z
1/2+x,1/2+y,z
1/2-x,1/2-y,1/2+z
1/2+x,1/2-y,1/2+z
1/2-x,1/2+y,z
loop_
_atom_site_type_symbol
_atom_site_label
_atom_site_fract_x
_atom_site_fract_y
_atom_site_fract_z
Si Si1 0.797390 0.142640 0.169300
Si Si2 0.558914 0.761492 0.458736
Si Si3 0.871656 0.288063 0.840429
Si Si4 0.883619 0.353801 0.254725
Si Si5 0.234727 0.579187 0.365530
Si Si6 0.123240 0.870644 0.130142
Si Si7 0.791092 0.709490 0.008771
Si Si8 0.440064 0.131696 0.534031
O O1 0.827634 0.288292 0.222822
O O2 0.760299 0.052205 0.252456
O O3 0.759953 0.200102 0.078516
O O4 0.841677 0.026343 0.127943
O O5 0.500000 0.735674 0.427420
O O6 0.594610 0.758399 0.355380
O O7 0.576554 0.638652 0.548938
O O8 0.562486 0.941368 0.507321
O O9 0.882007 0.462268 0.789436
O O10 0.809576 0.284887 0.855278
O O11 0.889167 0.164028 0.751535
O O12 0.903082 0.283068 0.948743
O O13 0.919518 0.340092 0.151781
O O14 0.207227 0.440018 0.430956
O O15 0.282422 0.637529 0.436136
O O16 0.160753 0.730190 0.085061
O O17 0.500000 0.178802 0.522997
#
# Coordination Sequence:
#
# PCOD9352613 Si02
#       8
#     8   8   8   8   8   8   8   8
#     4  12  27  41  65  96 137 175 216 269 333 396
#     4  10  22  43  71 100 132 172 221 279 332 387
#     4  11  23  38  67  94 132 170 218 268 324 396
#     4  11  23  42  68 100 129 169 220 274 330 396
#     4  12  24  41  63  94 134 172 216 268 320 392
#     4  12  24  45  63  98 135 177 221 269 332 398
#     4  12  25  41  64  94 131 175 217 264 326 389
#     4  10  21  41  70 102 127 166 224 285 331 380
#
# _framework density 23.230246000000001
#
# number of rings (size 3 to 8) (size 9 to 14) (size 15 to 20)
#    0.000    0.750    3.750    4.875    3.500    1.000 
#    0.000    1.250    0.000    0.000    0.000    0.000 
#    0.000    0.000    0.000    0.000    0.000    0.000 
#
# Total GULP energy -179199.368832 kJ/mol
# GULP energy per Si atom -5599.980276 kJ/mol
# Density = 2.317737 g / cm^3
# Si number density = 23.230246 Si / 1000 Ang^3
#
#
#
# Elastic Constant Matrix: (Units=GPa)
#
#
# Indices 1 2 3 4 5 6 
#
# 1 93.1675 -1.5242 25.3083 0.0000 0.0000 0.0000
# 2 -1.5242 21.8697 4.1482 0.0000 0.0000 0.0000
# 3 25.3083 4.1482 116.8732 0.0000 0.0000 0.0000
# 4 0.0000 0.0000 0.0000 22.1797 0.0000 0.0000
# 5 0.0000 0.0000 0.0000 0.0000 41.6883 0.0000
# 6 0.0000 0.0000 0.0000 0.0000 0.0000 21.5960
#
#
#
# Elastic Compliance Matrix: (Units=1/GPa)
#
#
# Indices 1 2 3 4 5 6 
#
# 1 0.011439 0.001276 -0.002522 0.000000 0.000000 0.000000
# 2 0.001276 0.046178 -0.001915 0.000000 0.000000 0.000000
# 3 -0.002522 -0.001915 0.009170 0.000000 0.000000 0.000000
# 4 0.000000 0.000000 0.000000 0.045086 0.000000 0.000000
# 5 0.000000 0.000000 0.000000 0.000000 0.023988 0.000000
# 6 0.000000 0.000000 0.000000 0.000000 0.000000 0.046305
#
#
# Mechanical properties :
#
#
# Convention : Reuss Voigt Hill
#
# Bulk Modulus (GPa) = 16.53889 31.97500 24.25695
# Shear Modulus (GPa) = 23.96419 30.69133 27.32776
#
# Velocity S-wave (km/s) = 3.21533 3.63875 3.43357
# Velocity P-wave (km/s) = 4.57378 5.60787 5.11702
#
# Compressibility (1/GPa) = 0.06046355
#
# Stress axis : x y z
#
# Youngs Moduli (GPa) = 87.41696 21.65555 109.04557
#
# Poissons Ratio (x) = -0.02763 0.27506
# Poissons Ratio (y) = -0.11152 0.20885
# Poissons Ratio (z) = 0.22050 0.04148
#
# Static dielectric constant tensor:
#      x y z
#    x 1.849390 0.000000 0.000000 
#    y 0.000000 1.922010 0.000000 
#    z 0.000000 0.000000 1.858430 
# 
# From -- ./inp_files/9730.got.cif
#   From: 2010.05.17/outbox.cif.g08.bks.cpg/sg36_5_cif.got.tgz:9730.got - 2010.06.03 17:41:39.
