data_PCOD9352928
_publ_section_title
;
Structure prediction by ZEFSAII (Michael W. Deem and Ramdas Pophale) SiO2 
 PCOD9352928
Probable space group: C M C 21
;
_chemical_formula_sum "Si O2"
_cell_formula_units_Z 36
_cell_length_a 22.441849
_cell_length_b 12.867727
_cell_length_c 4.991509
_cell_angle_alpha 90.000000
_cell_angle_beta 90.000000
_cell_angle_gamma 90.000000
_cell_volume 1441.425938
_symmetry_space_group_name_H-M "C M C 21"
_symmetry_group_IT_number 36
_symmetry_cell_setting 'orthorhombic'
loop_
_space_group_symop_operation_xyz
x,y,z
-x,-y,1/2+z
x,-y,1/2+z
-x,y,z
1/2+x,1/2+y,z
1/2-x,1/2-y,1/2+z
1/2+x,1/2-y,1/2+z
1/2-x,1/2+y,z
loop_
_atom_site_type_symbol
_atom_site_label
_atom_site_fract_x
_atom_site_fract_y
_atom_site_fract_z
Si Si1 0.778926 0.203080 0.566710
Si Si2 0.316296 0.060038 0.700945
Si Si3 0.500000 0.077594 0.189816
Si Si4 0.928238 0.937945 0.630691
Si Si5 0.391752 0.223016 0.365314
O O1 0.761692 0.222163 0.259610
O O2 0.752066 0.092750 0.652032
O O3 0.845003 0.231429 0.650295
O O4 0.357807 0.147094 0.571495
O O5 0.327727 0.961595 0.509870
O O6 0.443838 0.154071 0.234134
O O7 0.500000 0.984940 0.410999
O O8 0.913700 0.823169 0.529987
O O9 0.000000 0.943318 0.641285
O O10 0.906176 0.976520 0.917172
#
# Coordination Sequence:
#
# PCOD9352928 Si02
#       5
#     8   8   4   8   8
#     4  10  23  41  65  94 131 182 236 283 344 402
#     4  11  23  41  66 101 141 180 228 285 347 422
#     4  12  28  46  70 108 146 192 236 284 362 446
#     4  10  23  42  65  96 131 177 234 289 340 402
#     4  11  24  46  71 103 144 191 233 296 357 431
#
# _framework density 24.975268
#
# number of rings (size 3 to 8) (size 9 to 14) (size 15 to 20)
#    0.000    1.333    1.111    4.000    0.000   12.444 
#    0.000    0.000    0.000    0.000    0.000    0.000 
#    0.000    0.000    0.000    0.000    0.000    0.000 
#
# Total GULP energy -100825.296372 kJ/mol
# GULP energy per Si atom -5601.405354 kJ/mol
# Density = 2.491842 g / cm^3
# Si number density = 24.975268 Si / 1000 Ang^3
#
#
#
# Elastic Constant Matrix: (Units=GPa)
#
#
# Indices 1 2 3 4 5 6 
#
# 1 119.8452 35.1732 18.7772 0.0000 0.0000 0.0000
# 2 35.1732 107.2763 18.1627 0.0000 0.0000 0.0000
# 3 18.7772 18.1627 87.7080 0.0000 0.0000 0.0000
# 4 0.0000 0.0000 0.0000 42.8105 0.0000 0.0000
# 5 0.0000 0.0000 0.0000 0.0000 26.7943 0.0000
# 6 0.0000 0.0000 0.0000 0.0000 0.0000 51.0888
#
#
#
# Elastic Compliance Matrix: (Units=1/GPa)
#
#
# Indices 1 2 3 4 5 6 
#
# 1 0.009401 -0.002841 -0.001424 0.000000 0.000000 0.000000
# 2 -0.002841 0.010519 -0.001570 0.000000 0.000000 0.000000
# 3 -0.001424 -0.001570 0.012032 0.000000 0.000000 0.000000
# 4 0.000000 0.000000 0.000000 0.023359 0.000000 0.000000
# 5 0.000000 0.000000 0.000000 0.000000 0.037321 0.000000
# 6 0.000000 0.000000 0.000000 0.000000 0.000000 0.019574
#
#
# Mechanical properties :
#
#
# Convention : Reuss Voigt Hill
#
# Bulk Modulus (GPa) = 49.30821 51.00619 50.15720
# Shear Modulus (GPa) = 38.27400 40.31981 39.29690
#
# Velocity S-wave (km/s) = 3.91893 4.02231 3.97096
# Velocity P-wave (km/s) = 6.34532 6.48374 6.41490
#
# Compressibility (1/GPa) = 0.02028060
#
# Stress axis : x y z
#
# Youngs Moduli (GPa) = 106.37025 95.06498 83.11498
#
# Poissons Ratio (x) = 0.27010 0.11838
# Poissons Ratio (y) = 0.30222 0.13049
# Poissons Ratio (z) = 0.15150 0.14926
#
# Static dielectric constant tensor:
#      x y z
#    x 2.009450 0.000000 0.000000 
#    y 0.000000 1.987610 0.000000 
#    z 0.000000 0.000000 1.939280 
# 
# From -- ./inp_files/1526.got.cif
#   From: 2010.05.17/outbox.cif.g08.bks.cpg/sg36_1_cif.got.tgz:1526.got - 2010.06.03 17:41:39.
