data_PCOD9352623
_publ_section_title
;
Structure prediction by ZEFSAII (Michael W. Deem and Ramdas Pophale) SiO2 
 PCOD9352623
Probable space group: C M C 21
;
_chemical_formula_sum "Si O2"
_cell_formula_units_Z 40
_cell_length_a 14.823925
_cell_length_b 7.457754
_cell_length_c 14.832983
_cell_angle_alpha 90.000000
_cell_angle_beta 90.000000
_cell_angle_gamma 90.000000
_cell_volume 1639.833528
_symmetry_space_group_name_H-M "C M C 21"
_symmetry_group_IT_number 36
_symmetry_cell_setting 'orthorhombic'
loop_
_space_group_symop_operation_xyz
x,y,z
-x,-y,1/2+z
x,-y,1/2+z
-x,y,z
1/2+x,1/2+y,z
1/2-x,1/2-y,1/2+z
1/2+x,1/2-y,1/2+z
1/2-x,1/2+y,z
loop_
_atom_site_type_symbol
_atom_site_label
_atom_site_fract_x
_atom_site_fract_y
_atom_site_fract_z
Si Si1 0.396638 0.396019 0.204120
Si Si2 0.366174 0.467373 0.998400
Si Si3 0.204670 0.273734 0.228836
Si Si4 0.159693 0.374608 0.027938
Si Si5 0.094539 0.354952 0.387945
O O1 0.500000 0.370638 0.237782
O O2 0.313568 0.260921 0.225520
O O3 0.349491 0.585821 0.230257
O O4 0.401850 0.406522 0.095606
O O5 0.407048 0.350257 0.919976
O O6 0.261477 0.412719 0.997718
O O7 0.373454 0.680993 0.994007
O O8 0.168622 0.365518 0.136291
O O9 0.175176 0.377477 0.318289
O O10 0.104810 0.528779 0.978440
O O11 0.000000 0.401291 0.342064
#
# Coordination Sequence:
#
# PCOD9352623 Si02
#       5
#     8   8   8   8   8
#     4  10  22  45  73 100 138 190 237 294 370 428
#     4  10  21  42  71 102 134 185 242 296 356 433
#     4  10  25  44  71 105 146 184 239 307 351 428
#     4  10  22  44  73  99 142 190 235 296 367 423
#     4  12  26  43  70 108 146 191 243 299 362 432
#
# _framework density 24.392721000000002
#
# number of rings (size 3 to 8) (size 9 to 14) (size 15 to 20)
#    0.000    1.600    2.000    1.200    5.600    4.800 
#    0.000    2.000    0.000    0.000    0.000    0.000 
#    0.000    0.000    0.000    0.000    0.000    0.000 
#
# Total GULP energy -111784.518409 kJ/mol
# GULP energy per Si atom -5589.225920 kJ/mol
# Density = 2.433720 g / cm^3
# Si number density = 24.392721 Si / 1000 Ang^3
#
#
#
# Elastic Constant Matrix: (Units=GPa)
#
#
# Indices 1 2 3 4 5 6 
#
# 1 178.7107 32.9906 47.1052 0.0000 0.0000 0.0000
# 2 32.9906 116.4121 62.1259 0.0000 0.0000 0.0000
# 3 47.1052 62.1259 93.5426 0.0000 0.0000 0.0000
# 4 0.0000 0.0000 0.0000 28.3353 0.0000 0.0000
# 5 0.0000 0.0000 0.0000 0.0000 -3.0551 0.0000
# 6 0.0000 0.0000 0.0000 0.0000 0.0000 -7.6044
#
#
#
# Elastic Compliance Matrix: (Units=1/GPa)
#
#
# Indices 1 2 3 4 5 6 
#
# 1 0.006454 -0.000146 -0.003153 0.000000 0.000000 0.000000
# 2 -0.000146 0.013310 -0.008766 0.000000 0.000000 0.000000
# 3 -0.003153 -0.008766 0.018100 0.000000 0.000000 0.000000
# 4 0.000000 0.000000 0.000000 0.035292 0.000000 0.000000
# 5 0.000000 0.000000 0.000000 0.000000 -0.327324 0.000000
# 6 0.000000 0.000000 0.000000 0.000000 0.000000 -0.131502
#
#
# Mechanical properties :
#
#
# Convention : Reuss Voigt Hill
#
# Bulk Modulus (GPa) = 72.81597 74.78984 73.80290
# Shear Modulus (GPa) = -14.00702 19.96474 2.97886
#
# Velocity S-wave (km/s) = -2.39891 2.86400 1.10628
# Velocity P-wave (km/s) = 4.71628 6.45476 5.65275
#
# Compressibility (1/GPa) = 0.01373325
#
# Stress axis : x y z
#
# Youngs Moduli (GPa) = 154.95129 75.13273 55.24966
#
# Poissons Ratio (x) = 0.01101 0.17418
# Poissons Ratio (y) = 0.02270 0.48431
# Poissons Ratio (z) = 0.48849 0.65860
#
# Static dielectric constant tensor:
#      x y z
#    x 1.913100 0.000000 0.000000 
#    y 0.000000 1.984260 0.000000 
#    z 0.000000 0.000000 1.908210 
# 
# From -- ./inp_files/11958.got.cif
#   From: 2010.05.17/outbox.cif.g08.bks.cpg/sg36_6_cif.got.tgz:11958.got - 2010.06.03 17:41:39.
