data_PCOD9352972
_publ_section_title
;
Structure prediction by ZEFSAII (Michael W. Deem and Ramdas Pophale) SiO2 
 PCOD9352972
Probable space group: C M C 21
;
_chemical_formula_sum "Si O2"
_cell_formula_units_Z 64
_cell_length_a 31.319136
_cell_length_b 8.852819
_cell_length_c 10.536895
_cell_angle_alpha 90.000000
_cell_angle_beta 90.000000
_cell_angle_gamma 90.000000
_cell_volume 2921.487349
_symmetry_space_group_name_H-M "C M C 21"
_symmetry_group_IT_number 36
_symmetry_cell_setting 'orthorhombic'
loop_
_space_group_symop_operation_xyz
x,y,z
-x,-y,1/2+z
x,-y,1/2+z
-x,y,z
1/2+x,1/2+y,z
1/2-x,1/2-y,1/2+z
1/2+x,1/2-y,1/2+z
1/2-x,1/2+y,z
loop_
_atom_site_type_symbol
_atom_site_label
_atom_site_fract_x
_atom_site_fract_y
_atom_site_fract_z
Si Si1 0.121587 0.138816 0.259100
Si Si2 0.951826 0.185426 0.926408
Si Si3 0.691341 0.235569 0.599672
Si Si4 0.309508 0.209194 0.314624
Si Si5 0.758519 0.990368 0.207104
Si Si6 0.897452 0.923459 0.026444
Si Si7 0.549555 0.851834 0.191097
Si Si8 0.399877 0.836027 0.703995
O O1 0.154754 0.261117 0.205810
O O2 0.131714 0.083980 0.400560
O O3 0.075313 0.218678 0.261977
O O4 0.121064 0.011376 0.149364
O O5 0.920309 0.235848 0.816200
O O6 0.000000 0.179468 0.877891
O O7 0.949505 0.301835 0.043444
O O8 0.937235 0.025139 0.982888
O O9 0.674145 0.219312 0.458433
O O10 0.725199 0.105889 0.626225
O O11 0.715917 0.393126 0.619895
O O12 0.290145 0.370436 0.272197
O O13 0.349123 0.157644 0.228092
O O14 0.270190 0.091783 0.301802
O O15 0.907269 0.755949 0.074299
O O16 0.500000 0.865605 0.229923
O O17 0.575560 0.006136 0.206389
#
# Coordination Sequence:
#
# PCOD9352972 Si02
#       8
#     8   8   8   8   8   8   8   8
#     4  11  24  45  71  97 134 179 224 281 340 407
#     4  10  23  44  67  97 139 180 228 285 338 403
#     4  11  23  43  69  96 138 173 227 282 337 405
#     4  11  23  43  68  97 136 173 229 281 340 405
#     4  10  24  43  64 103 128 182 219 278 347 407
#     4  11  24  44  67 100 129 180 231 278 335 402
#     4  10  24  44  66  98 137 177 223 279 343 408
#     4  12  24  42  70 100 133 180 231 280 346 407
#
# _framework density 21.906648000000001
#
# number of rings (size 3 to 8) (size 9 to 14) (size 15 to 20)
#    0.000    1.250    1.250    4.125    3.500    1.500 
#   13.500    0.000    0.000    0.000    0.000    0.000 
#    0.000    0.000    0.000    0.000    0.000    0.000 
#
# Total GULP energy -178947.654251 kJ/mol
# GULP energy per Si atom -5592.114195 kJ/mol
# Density = 2.185679 g / cm^3
# Si number density = 21.906648 Si / 1000 Ang^3
#
#
#
# Elastic Constant Matrix: (Units=GPa)
#
#
# Indices 1 2 3 4 5 6 
#
# 1 117.5066 42.9289 18.4052 0.0000 0.0000 0.0000
# 2 42.9289 98.9977 35.1737 0.0000 0.0000 0.0000
# 3 18.4052 35.1737 101.7766 0.0000 0.0000 0.0000
# 4 0.0000 0.0000 0.0000 15.6509 0.0000 0.0000
# 5 0.0000 0.0000 0.0000 0.0000 26.7832 0.0000
# 6 0.0000 0.0000 0.0000 0.0000 0.0000 29.4115
#
#
#
# Elastic Compliance Matrix: (Units=1/GPa)
#
#
# Indices 1 2 3 4 5 6 
#
# 1 0.010124 -0.004263 -0.000357 0.000000 0.000000 0.000000
# 2 -0.004263 0.013310 -0.003829 0.000000 0.000000 0.000000
# 3 -0.000357 -0.003829 0.011213 0.000000 0.000000 0.000000
# 4 0.000000 0.000000 0.000000 0.063894 0.000000 0.000000
# 5 0.000000 0.000000 0.000000 0.000000 0.037337 0.000000
# 6 0.000000 0.000000 0.000000 0.000000 0.000000 0.034000
#
#
# Mechanical properties :
#
#
# Convention : Reuss Voigt Hill
#
# Bulk Modulus (GPa) = 56.34359 56.81072 56.57716
# Shear Modulus (GPa) = 25.94795 29.15399 27.55097
#
# Velocity S-wave (km/s) = 3.44536 3.65201 3.55019
# Velocity P-wave (km/s) = 6.45004 6.61606 6.53358
#
# Compressibility (1/GPa) = 0.01774825
#
# Stress axis : x y z
#
# Youngs Moduli (GPa) = 98.77978 75.13007 89.17895
#
# Poissons Ratio (x) = 0.32027 0.03188
# Poissons Ratio (y) = 0.42109 0.34147
# Poissons Ratio (z) = 0.03531 0.28768
#
# Static dielectric constant tensor:
#      x y z
#    x 1.792880 0.000000 0.000000 
#    y 0.000000 1.820060 0.000000 
#    z 0.000000 0.000000 1.786610 
# 
# From -- ./inp_files/9748.got.cif
#   From: 2010.05.17/outbox.cif.g08.bks.cpg/sg36_5_cif.got.tgz:9748.got - 2010.06.03 17:41:39.
