data_PCOD9352950
_publ_section_title
;
Structure prediction by ZEFSAII (Michael W. Deem and Ramdas Pophale) SiO2 
 PCOD9352950
Probable space group: C M C 21
;
_chemical_formula_sum "Si O2"
_cell_formula_units_Z 32
_cell_length_a 15.232475
_cell_length_b 9.795270
_cell_length_c 10.154824
_cell_angle_alpha 90.000000
_cell_angle_beta 90.000000
_cell_angle_gamma 90.000000
_cell_volume 1515.162755
_symmetry_space_group_name_H-M "C M C 21"
_symmetry_group_IT_number 36
_symmetry_cell_setting 'orthorhombic'
loop_
_space_group_symop_operation_xyz
x,y,z
-x,-y,1/2+z
x,-y,1/2+z
-x,y,z
1/2+x,1/2+y,z
1/2-x,1/2-y,1/2+z
1/2+x,1/2-y,1/2+z
1/2-x,1/2+y,z
loop_
_atom_site_type_symbol
_atom_site_label
_atom_site_fract_x
_atom_site_fract_y
_atom_site_fract_z
Si Si1 0.500000 0.643782 0.581560
Si Si2 0.354701 0.862412 0.516879
Si Si3 0.500000 0.603332 0.881245
Si Si4 0.684358 0.982995 0.261119
Si Si5 0.310700 0.716742 0.876913
O O1 0.417066 0.744374 0.567631
O O2 0.500000 0.575889 0.724776
O O3 0.500000 0.532157 0.467847
O O4 0.353654 0.988591 0.617753
O O5 0.254525 0.810589 0.499108
O O6 0.377963 0.909257 0.368413
O O7 0.411128 0.686940 0.908259
O O8 0.702383 0.132760 0.320691
O O9 0.772605 0.893272 0.271134
#
# Coordination Sequence:
#
# PCOD9352950 Si02
#       5
#     4   8   4   8   8
#     4  12  26  51  67 113 141 197 245 312 364 448
#     4  10  25  43  70  99 149 181 247 288 366 428
#     4  12  26  43  77 103 149 183 255 300 368 430
#     4  10  23  42  71  99 142 189 231 292 360 426
#     4  10  24  42  71 103 143 186 236 295 359 427
#
# _framework density 21.119841999999998
#
# number of rings (size 3 to 8) (size 9 to 14) (size 15 to 20)
#    1.500    0.000    2.500    1.500    7.000    2.000 
#    4.500    0.000    0.000    0.000    0.000    0.000 
#    0.000    0.000    0.000    0.000    0.000    0.000 
#
# Total GULP energy -89248.951814 kJ/mol
# GULP energy per Si atom -5578.059488 kJ/mol
# Density = 2.107177 g / cm^3
# Si number density = 21.119842 Si / 1000 Ang^3
#
#
#
# Elastic Constant Matrix: (Units=GPa)
#
#
# Indices 1 2 3 4 5 6 
#
# 1 95.8429 36.9158 44.1399 0.0000 0.0000 0.0000
# 2 36.9158 87.0597 0.4308 0.0000 0.0000 0.0000
# 3 44.1399 0.4308 97.6223 0.0000 0.0000 0.0000
# 4 0.0000 0.0000 0.0000 43.2504 0.0000 0.0000
# 5 0.0000 0.0000 0.0000 0.0000 18.7174 0.0000
# 6 0.0000 0.0000 0.0000 0.0000 0.0000 14.4742
#
#
#
# Elastic Compliance Matrix: (Units=1/GPa)
#
#
# Indices 1 2 3 4 5 6 
#
# 1 0.016557 -0.006984 -0.007456 0.000000 0.000000 0.000000
# 2 -0.006984 0.014432 0.003094 0.000000 0.000000 0.000000
# 3 -0.007456 0.003094 0.013601 0.000000 0.000000 0.000000
# 4 0.000000 0.000000 0.000000 0.023121 0.000000 0.000000
# 5 0.000000 0.000000 0.000000 0.000000 0.053426 0.000000
# 6 0.000000 0.000000 0.000000 0.000000 0.000000 0.069088
#
#
# Mechanical properties :
#
#
# Convention : Reuss Voigt Hill
#
# Bulk Modulus (GPa) = 45.66224 49.27753 47.46989
# Shear Modulus (GPa) = 22.70484 28.55763 25.63123
#
# Velocity S-wave (km/s) = 3.28235 3.68118 3.48747
# Velocity P-wave (km/s) = 6.00271 6.43825 6.22429
#
# Compressibility (1/GPa) = 0.02189993
#
# Stress axis : x y z
#
# Youngs Moduli (GPa) = 60.39606 69.28840 73.52423
#
# Poissons Ratio (x) = 0.48390 0.54817
# Poissons Ratio (y) = 0.42180 -0.22749
# Poissons Ratio (z) = 0.45029 -0.21438
#
# Static dielectric constant tensor:
#      x y z
#    x 1.747730 0.000000 0.000000 
#    y 0.000000 1.717590 0.000000 
#    z 0.000000 0.000000 1.821650 
# 
# From -- ./inp_files/3696.got.cif
#   From: 2010.05.17/outbox.cif.g08.bks.cpg/sg36_2_cif.got.tgz:3696.got - 2010.06.03 17:41:39.
