data_PCOD9352553
_publ_section_title
;
Structure prediction by ZEFSAII (Michael W. Deem and Ramdas Pophale) SiO2 
 PCOD9352553
Probable space group: C M C 21
;
_chemical_formula_sum "Si O2"
_cell_formula_units_Z 64
_cell_length_a 7.945733
_cell_length_b 29.191438
_cell_length_c 12.791067
_cell_angle_alpha 90.000000
_cell_angle_beta 90.000000
_cell_angle_gamma 90.000000
_cell_volume 2966.854379
_symmetry_space_group_name_H-M "C M C 21"
_symmetry_group_IT_number 36
_symmetry_cell_setting 'orthorhombic'
loop_
_space_group_symop_operation_xyz
x,y,z
-x,-y,1/2+z
x,-y,1/2+z
-x,y,z
1/2+x,1/2+y,z
1/2-x,1/2-y,1/2+z
1/2+x,1/2-y,1/2+z
1/2-x,1/2+y,z
loop_
_atom_site_type_symbol
_atom_site_label
_atom_site_fract_x
_atom_site_fract_y
_atom_site_fract_z
Si Si1 0.807218 0.567427 0.881620
Si Si2 0.294167 0.726294 0.157018
Si Si3 0.306989 0.174102 0.591700
Si Si4 0.195697 0.027841 0.438134
Si Si5 0.296432 0.633766 0.046281
Si Si6 0.305461 0.575155 0.647376
Si Si7 0.807029 0.081142 0.244480
Si Si8 0.306659 0.321726 0.863585
O O1 0.703453 0.526582 0.934723
O O2 0.780897 0.566165 0.757684
O O3 0.000000 0.558577 0.906121
O O4 0.755763 0.615567 0.933481
O O5 0.500000 0.726260 0.153576
O O6 0.238043 0.777082 0.129392
O O7 0.239769 0.684620 0.080910
O O8 0.245670 0.712672 0.274419
O O9 0.500000 0.168722 0.628286
O O10 0.206873 0.129248 0.625226
O O11 0.301798 0.176393 0.466542
O O12 0.266748 0.049300 0.544949
O O13 0.271478 0.046162 0.328152
O O14 0.000000 0.043287 0.436484
O O15 0.500000 0.633901 0.053285
O O16 0.233099 0.596737 0.133167
O O17 0.500000 0.561003 0.659314
O O18 0.811689 0.128846 0.308230
O O19 0.000000 0.065550 0.223112
O O20 0.500000 0.310421 0.892567
#
# Coordination Sequence:
#
# PCOD9352553 Si02
#       8
#     8   8   8   8   8   8   8   8
#     4  12  27  42  58  89 131 163 193 247 318 367
#     4   8  18  35  59  87 119 160 207 253 300 356
#     4  11  21  35  57  91 128 156 190 252 319 359
#     4  10  21  40  65  90 112 149 207 253 291 355
#     4   9  18  38  64  87 116 160 209 249 290 356
#     4  11  24  44  67  89 117 161 213 249 287 360
#     4   8  15  32  61  87 106 138 197 256 289 335
#     4   9  16  34  57  80 109 153 204 247 292 354
#
# _framework density 21.571669
#
# number of rings (size 3 to 8) (size 9 to 14) (size 15 to 20)
#    0.000    2.250    1.250    3.375    1.750    2.000 
#    0.000    7.500    0.000    0.000    0.000    0.000 
#    0.000    0.000    0.000    0.000    0.000    0.000 
#
# Total GULP energy -178575.117004 kJ/mol
# GULP energy per Si atom -5580.472406 kJ/mol
# Density = 2.152257 g / cm^3
# Si number density = 21.571669 Si / 1000 Ang^3
#
#
#
# Elastic Constant Matrix: (Units=GPa)
#
#
# Indices 1 2 3 4 5 6 
#
# 1 29.0162 -6.6057 3.0721 0.0000 0.0000 0.0000
# 2 -6.6057 82.9994 40.0622 0.0000 0.0000 0.0000
# 3 3.0721 40.0622 74.9274 0.0000 0.0000 0.0000
# 4 0.0000 0.0000 0.0000 21.6601 0.0000 0.0000
# 5 0.0000 0.0000 0.0000 0.0000 5.6131 0.0000
# 6 0.0000 0.0000 0.0000 0.0000 0.0000 10.7719
#
#
#
# Elastic Compliance Matrix: (Units=1/GPa)
#
#
# Indices 1 2 3 4 5 6 
#
# 1 0.035990 0.004821 -0.004053 0.000000 0.000000 0.000000
# 2 0.004821 0.016885 -0.009226 0.000000 0.000000 0.000000
# 3 -0.004053 -0.009226 0.018445 0.000000 0.000000 0.000000
# 4 0.000000 0.000000 0.000000 0.046168 0.000000 0.000000
# 5 0.000000 0.000000 0.000000 0.000000 0.178153 0.000000
# 6 0.000000 0.000000 0.000000 0.000000 0.000000 0.092834
#
#
# Mechanical properties :
#
#
# Convention : Reuss Voigt Hill
#
# Bulk Modulus (GPa) = 18.38100 28.88890 23.63495
# Shear Modulus (GPa) = 11.80563 17.63665 14.72114
#
# Velocity S-wave (km/s) = 2.34193 2.86244 2.61517
# Velocity P-wave (km/s) = 3.98149 4.93416 4.48320
#
# Compressibility (1/GPa) = 0.05440400
#
# Stress axis : x y z
#
# Youngs Moduli (GPa) = 27.78545 59.22406 54.21449
#
# Poissons Ratio (x) = -0.28550 0.21974
# Poissons Ratio (y) = -0.13395 0.50017
# Poissons Ratio (z) = 0.11262 0.54639
#
# Static dielectric constant tensor:
#      x y z
#    x 1.787160 0.000000 0.000000 
#    y 0.000000 1.772880 0.000000 
#    z 0.000000 0.000000 1.800260 
# 
# From -- ./inp_files/7138.got.cif
#   From: 2010.05.17/outbox.cif.g08.bks.cpg/sg36_4_cif.got.tgz:7138.got - 2010.06.03 17:41:39.
