data_PCOD9352633
_publ_section_title
;
Structure prediction by ZEFSAII (Michael W. Deem and Ramdas Pophale) SiO2 
 PCOD9352633
Probable space group: C M C 21
;
_chemical_formula_sum "Si O2"
_cell_formula_units_Z 64
_cell_length_a 32.618545
_cell_length_b 8.171014
_cell_length_c 10.970716
_cell_angle_alpha 90.000000
_cell_angle_beta 90.000000
_cell_angle_gamma 90.000000
_cell_volume 2923.987502
_symmetry_space_group_name_H-M "C M C 21"
_symmetry_group_IT_number 36
_symmetry_cell_setting 'orthorhombic'
loop_
_space_group_symop_operation_xyz
x,y,z
-x,-y,1/2+z
x,-y,1/2+z
-x,y,z
1/2+x,1/2+y,z
1/2-x,1/2-y,1/2+z
1/2+x,1/2-y,1/2+z
1/2-x,1/2+y,z
loop_
_atom_site_type_symbol
_atom_site_label
_atom_site_fract_x
_atom_site_fract_y
_atom_site_fract_z
Si Si1 0.193778 0.125328 0.616700
Si Si2 0.181354 0.390965 0.285318
Si Si3 0.748670 0.354810 0.479126
Si Si4 0.047235 0.850394 0.646787
Si Si5 0.627552 0.168675 0.573395
Si Si6 0.376910 0.791755 0.493735
Si Si7 0.824613 0.749152 0.356700
Si Si8 0.046255 0.902347 0.921034
O O1 0.219785 0.288436 0.580349
O O2 0.147305 0.159568 0.575072
O O3 0.188145 0.109955 0.762018
O O4 0.219434 0.990706 0.542115
O O5 0.224770 0.381847 0.354732
O O6 0.168542 0.317364 0.156426
O O7 0.150949 0.297428 0.374647
O O8 0.168494 0.581294 0.284793
O O9 0.715877 0.219992 0.437078
O O10 0.085845 0.728392 0.636002
O O11 0.052397 0.944364 0.777147
O O12 0.000000 0.783562 0.649015
O O13 0.049815 0.957695 0.523588
O O14 0.637922 0.267955 0.449372
O O15 0.623412 0.976664 0.542844
O O16 0.421538 0.733755 0.459484
O O17 0.000000 0.839012 0.930087
#
# Coordination Sequence:
#
# PCOD9352633 Si02
#       8
#     8   8   8   8   8   8   8   8
#     4  11  25  43  62  94 132 171 233 283 341 409
#     4  10  21  44  64  91 129 174 226 283 345 401
#     4  11  25  41  64  90 127 179 226 285 338 406
#     4  10  23  45  74 105 142 184 226 283 357 433
#     4  11  23  44  70  98 137 176 232 293 348 421
#     4  10  22  41  67  93 129 178 220 284 344 407
#     4  11  25  40  63  96 127 175 222 289 348 396
#     4  10  22  44  69 103 143 181 226 280 347 425
#
# _framework density 21.887919
#
# number of rings (size 3 to 8) (size 9 to 14) (size 15 to 20)
#    0.000    1.500    3.750    0.000    5.250    1.500 
#    2.250    0.000    0.000    0.000    0.000    0.000 
#    0.000    0.000    0.000    0.000    0.000    0.000 
#
# Total GULP energy -178358.886316 kJ/mol
# GULP energy per Si atom -5573.715197 kJ/mol
# Density = 2.183810 g / cm^3
# Si number density = 21.887919 Si / 1000 Ang^3
#
#
#
# Elastic Constant Matrix: (Units=GPa)
#
#
# Indices 1 2 3 4 5 6 
#
# 1 127.2605 39.2763 66.1614 0.0000 0.0000 0.0000
# 2 39.2763 29.5308 29.1535 0.0000 0.0000 0.0000
# 3 66.1614 29.1535 141.5742 0.0000 0.0000 0.0000
# 4 0.0000 0.0000 0.0000 22.5674 0.0000 0.0000
# 5 0.0000 0.0000 0.0000 0.0000 29.9266 0.0000
# 6 0.0000 0.0000 0.0000 0.0000 0.0000 28.1161
#
#
#
# Elastic Compliance Matrix: (Units=1/GPa)
#
#
# Indices 1 2 3 4 5 6 
#
# 1 0.014626 -0.015946 -0.003551 0.000000 0.000000 0.000000
# 2 -0.015946 0.059890 -0.004881 0.000000 0.000000 0.000000
# 3 -0.003551 -0.004881 0.009728 0.000000 0.000000 0.000000
# 4 0.000000 0.000000 0.000000 0.044312 0.000000 0.000000
# 5 0.000000 0.000000 0.000000 0.000000 0.033415 0.000000
# 6 0.000000 0.000000 0.000000 0.000000 0.000000 0.035567
#
#
# Mechanical properties :
#
#
# Convention : Reuss Voigt Hill
#
# Bulk Modulus (GPa) = 28.17911 63.06087 45.61999
# Shear Modulus (GPa) = 19.37062 27.04030 23.20546
#
# Velocity S-wave (km/s) = 2.97811 3.51864 3.25960
# Velocity P-wave (km/s) = 4.97270 6.73655 5.92068
#
# Compressibility (1/GPa) = 0.03548728
#
# Stress axis : x y z
#
# Youngs Moduli (GPa) = 68.37295 16.69727 102.79567
#
# Poissons Ratio (x) = 0.26626 0.36505
# Poissons Ratio (y) = 1.09030 0.50170
# Poissons Ratio (z) = 0.24281 0.08149
#
# Static dielectric constant tensor:
#      x y z
#    x 1.787880 0.000000 0.000000 
#    y 0.000000 1.820650 0.000000 
#    z 0.000000 0.000000 1.912870 
# 
# From -- ./inp_files/9731.got.cif
#   From: 2010.05.17/outbox.cif.g08.bks.cpg/sg36_5_cif.got.tgz:9731.got - 2010.06.03 17:41:39.
