data_PCOD9352641
_publ_section_title
;
Structure prediction by ZEFSAII (Michael W. Deem and Ramdas Pophale) SiO2 
 PCOD9352641
Probable space group: C M C 21
;
_chemical_formula_sum "Si O2"
_cell_formula_units_Z 56
_cell_length_a 26.503993
_cell_length_b 12.300919
_cell_length_c 9.626588
_cell_angle_alpha 90.000000
_cell_angle_beta 90.000000
_cell_angle_gamma 90.000000
_cell_volume 3138.493634
_symmetry_space_group_name_H-M "C M C 21"
_symmetry_group_IT_number 36
_symmetry_cell_setting 'orthorhombic'
loop_
_space_group_symop_operation_xyz
x,y,z
-x,-y,1/2+z
x,-y,1/2+z
-x,y,z
1/2+x,1/2+y,z
1/2-x,1/2-y,1/2+z
1/2+x,1/2-y,1/2+z
1/2-x,1/2+y,z
loop_
_atom_site_type_symbol
_atom_site_label
_atom_site_fract_x
_atom_site_fract_y
_atom_site_fract_z
Si Si1 0.890907 0.684560 0.541100
Si Si2 0.500000 0.146305 0.492766
Si Si3 0.680163 0.171617 0.295293
Si Si4 0.108911 0.423591 0.569042
Si Si5 0.767951 0.115543 0.730494
Si Si6 0.661552 0.214171 0.827730
Si Si7 0.280888 0.571404 0.420623
Si Si8 0.500000 0.062177 0.178231
O O1 0.851850 0.718254 0.423040
O O2 0.889824 0.552060 0.538732
O O3 0.872358 0.724892 0.690105
O O4 0.948340 0.712827 0.503729
O O5 0.500000 0.080868 0.344844
O O6 0.500000 0.062812 0.624072
O O7 0.644681 0.099310 0.199820
O O8 0.702776 0.271677 0.210066
O O9 0.727452 0.106355 0.354195
O O10 0.130770 0.354861 0.441271
O O11 0.051874 0.392376 0.613133
O O12 0.712037 0.148497 0.781437
O O13 0.770325 0.056414 0.583078
O O14 0.794027 0.040533 0.845474
O O15 0.680755 0.330199 0.886637
#
# Coordination Sequence:
#
# PCOD9352641 Si02
#       8
#     8   4   8   8   8   8   8   4
#     4  11  21  35  57  82 113 150 182 227 274 333
#     4  10  22  34  52  82 113 146 189 225 279 330
#     4  11  22  37  55  80 113 149 186 220 275 334
#     4  11  21  37  55  80 116 148 187 223 278 330
#     4  11  24  38  56  81 113 146 186 233 271 324
#     4  11  24  37  55  84 113 150 188 221 277 334
#     4  11  24  38  56  82 112 146 187 231 272 324
#     4  10  22  34  52  80 113 148 185 231 277 332
#
# _framework density 17.842956000000001
#
# number of rings (size 3 to 8) (size 9 to 14) (size 15 to 20)
#    0.000    1.143    4.286    2.571   10.000    0.000 
#    0.000    0.000    0.000    0.000    0.000    6.000 
#    0.000    0.000    0.000    0.000    0.000    0.000 
#
# Total GULP energy -156374.514891 kJ/mol
# GULP energy per Si atom -5584.804103 kJ/mol
# Density = 1.780234 g / cm^3
# Si number density = 17.842956 Si / 1000 Ang^3
#
#
#
# Elastic Constant Matrix: (Units=GPa)
#
#
# Indices 1 2 3 4 5 6 
#
# 1 90.8751 6.8414 8.4659 0.0000 0.0000 0.0000
# 2 6.8414 29.5044 -8.1118 0.0000 0.0000 0.0000
# 3 8.4659 -8.1118 77.0009 0.0000 0.0000 0.0000
# 4 0.0000 0.0000 0.0000 28.2612 0.0000 0.0000
# 5 0.0000 0.0000 0.0000 0.0000 23.0108 0.0000
# 6 0.0000 0.0000 0.0000 0.0000 0.0000 3.3097
#
#
#
# Elastic Compliance Matrix: (Units=1/GPa)
#
#
# Indices 1 2 3 4 5 6 
#
# 1 0.011382 -0.003072 -0.001575 0.000000 0.000000 0.000000
# 2 -0.003072 0.035734 0.004102 0.000000 0.000000 0.000000
# 3 -0.001575 0.004102 0.013592 0.000000 0.000000 0.000000
# 4 0.000000 0.000000 0.000000 0.035384 0.000000 0.000000
# 5 0.000000 0.000000 0.000000 0.000000 0.043458 0.000000
# 6 0.000000 0.000000 0.000000 0.000000 0.000000 0.302139
#
#
# Mechanical properties :
#
#
# Convention : Reuss Voigt Hill
#
# Bulk Modulus (GPa) = 16.77359 23.53015 20.15187
# Shear Modulus (GPa) = 10.80725 23.59533 17.20129
#
# Velocity S-wave (km/s) = 2.46374 3.64041 3.10827
# Velocity P-wave (km/s) = 4.18503 5.55753 4.91938
#
# Compressibility (1/GPa) = 0.05961754
#
# Stress axis : x y z
#
# Youngs Moduli (GPa) = 87.85688 27.98490 73.57169
#
# Poissons Ratio (x) = 0.08598 0.11588
# Poissons Ratio (y) = 0.26993 -0.30181
# Poissons Ratio (z) = 0.13838 -0.11480
#
# Static dielectric constant tensor:
#      x y z
#    x 1.621480 0.000000 0.000000 
#    y 0.000000 1.608070 0.000000 
#    z 0.000000 0.000000 1.622460 
# 
# From -- ./inp_files/5647.got.cif
#   From: 2010.05.17/outbox.cif.g08.bks.cpg/sg36_3_cif.got.tgz:5647.got - 2010.06.03 17:41:39.
