data_PCOD9352901
_publ_section_title
;
Structure prediction by ZEFSAII (Michael W. Deem and Ramdas Pophale) SiO2 
 PCOD9352901
Probable space group: C M C 21
;
_chemical_formula_sum "Si O2"
_cell_formula_units_Z 44
_cell_length_a 19.279369
_cell_length_b 11.487402
_cell_length_c 8.095425
_cell_angle_alpha 90.000000
_cell_angle_beta 90.000000
_cell_angle_gamma 90.000000
_cell_volume 1792.892658
_symmetry_space_group_name_H-M "C M C 21"
_symmetry_group_IT_number 36
_symmetry_cell_setting 'orthorhombic'
loop_
_space_group_symop_operation_xyz
x,y,z
-x,-y,1/2+z
x,-y,1/2+z
-x,y,z
1/2+x,1/2+y,z
1/2-x,1/2-y,1/2+z
1/2+x,1/2-y,1/2+z
1/2-x,1/2+y,z
loop_
_atom_site_type_symbol
_atom_site_label
_atom_site_fract_x
_atom_site_fract_y
_atom_site_fract_z
Si Si1 0.384054 0.314891 0.706060
Si Si2 0.000000 0.476012 0.354946
Si Si3 0.000000 0.312235 0.027810
Si Si4 0.638957 0.352374 0.171193
Si Si5 0.287111 0.542199 0.986950
Si Si6 0.500000 0.495973 0.245927
Si Si7 0.861708 0.373689 0.481746
O O1 0.432128 0.267340 0.553732
O O2 0.317988 0.380695 0.635877
O O3 0.439091 0.405234 0.785799
O O4 0.361783 0.209397 0.820638
O O5 0.000000 0.398632 0.188907
O O6 0.067884 0.442959 0.459168
O O7 0.000000 0.615681 0.359705
O O8 0.684546 0.392356 0.326295
O O9 0.562047 0.404634 0.193320
O O10 0.638433 0.216068 0.133551
O O11 0.677838 0.417655 0.018502
O O12 0.204701 0.543933 0.988044
#
# Coordination Sequence:
#
# PCOD9352901 Si02
#       7
#     8   4   4   8   8   4   8
#     4   9  20  39  61  85 118 156 193 246 296 350
#     4  10  23  38  60  86 113 160 199 244 298 350
#     4   9  20  39  59  82 117 151 195 239 290 356
#     4  11  23  39  63  90 120 156 196 251 300 355
#     4  11  24  38  60  89 117 156 196 239 303 356
#     4   9  19  37  63  90 116 149 200 245 300 350
#     4  11  23  41  59  85 121 156 201 245 295 356
#
# _framework density 24.541346000000001
#
# number of rings (size 3 to 8) (size 9 to 14) (size 15 to 20)
#    0.000    1.818    0.000    4.364    0.000   12.364 
#    0.000    0.000    0.000    0.000    0.000    0.000 
#    0.000    0.000    0.000    0.000    0.000    0.000 
#
# Total GULP energy -122601.864790 kJ/mol
# GULP energy per Si atom -5572.812036 kJ/mol
# Density = 2.448549 g / cm^3
# Si number density = 24.541346 Si / 1000 Ang^3
#
#
#
# Elastic Constant Matrix: (Units=GPa)
#
#
# Indices 1 2 3 4 5 6 
#
# 1 215.3130 26.1249 15.1413 0.0000 0.0000 0.0000
# 2 26.1249 45.9744 -9.2260 0.0000 0.0000 0.0000
# 3 15.1413 -9.2260 61.5606 0.0000 0.0000 0.0000
# 4 0.0000 0.0000 0.0000 33.7927 0.0000 0.0000
# 5 0.0000 0.0000 0.0000 0.0000 20.5683 0.0000
# 6 0.0000 0.0000 0.0000 0.0000 0.0000 21.6937
#
#
#
# Elastic Compliance Matrix: (Units=1/GPa)
#
#
# Indices 1 2 3 4 5 6 
#
# 1 0.005168 -0.003291 -0.001764 0.000000 0.000000 0.000000
# 2 -0.003291 0.024521 0.004484 0.000000 0.000000 0.000000
# 3 -0.001764 0.004484 0.017350 0.000000 0.000000 0.000000
# 4 0.000000 0.000000 0.000000 0.029592 0.000000 0.000000
# 5 0.000000 0.000000 0.000000 0.000000 0.048618 0.000000
# 6 0.000000 0.000000 0.000000 0.000000 0.000000 0.046096
#
#
# Mechanical properties :
#
#
# Convention : Reuss Voigt Hill
#
# Bulk Modulus (GPa) = 21.78751 42.99205 32.38978
# Shear Modulus (GPa) = 26.62606 34.59815 30.61210
#
# Velocity S-wave (km/s) = 3.29743 3.75879 3.53564
# Velocity P-wave (km/s) = 4.83679 6.03276 5.46758
#
# Compressibility (1/GPa) = 0.04589785
#
# Stress axis : x y z
#
# Youngs Moduli (GPa) = 193.50871 40.78139 57.63645
#
# Poissons Ratio (x) = 0.13419 0.10168
# Poissons Ratio (y) = 0.63676 -0.25846
# Poissons Ratio (z) = 0.34139 -0.18288
#
# Static dielectric constant tensor:
#      x y z
#    x 1.865580 0.000000 0.000000 
#    y 0.000000 1.933150 0.000000 
#    z 0.000000 0.000000 2.075290 
# 
# From -- ./inp_files/4619.got.cif
#   From: 2010.05.17/outbox.cif.g08.bks.cpg/sg36_3_cif.got.tgz:4619.got - 2010.06.03 17:41:39.
