data_PCOD9352621
_publ_section_title
;
Structure prediction by ZEFSAII (Michael W. Deem and Ramdas Pophale) SiO2 
 PCOD9352621
Probable space group: C M C 21
;
_chemical_formula_sum "Si O2"
_cell_formula_units_Z 44
_cell_length_a 10.432872
_cell_length_b 8.575277
_cell_length_c 22.942757
_cell_angle_alpha 90.000000
_cell_angle_beta 90.000000
_cell_angle_gamma 90.000000
_cell_volume 2052.568416
_symmetry_space_group_name_H-M "C M C 21"
_symmetry_group_IT_number 36
_symmetry_cell_setting 'orthorhombic'
loop_
_space_group_symop_operation_xyz
x,y,z
-x,-y,1/2+z
x,-y,1/2+z
-x,y,z
1/2+x,1/2+y,z
1/2-x,1/2-y,1/2+z
1/2+x,1/2-y,1/2+z
1/2-x,1/2+y,z
loop_
_atom_site_type_symbol
_atom_site_label
_atom_site_fract_x
_atom_site_fract_y
_atom_site_fract_z
Si Si1 0.353926 0.288298 0.939160
Si Si2 0.000000 0.821813 0.284033
Si Si3 0.000000 0.153828 0.219950
Si Si4 0.500000 0.968999 0.297159
Si Si5 0.638560 0.768550 0.114819
Si Si6 0.354762 0.551703 0.562323
Si Si7 0.727750 0.438934 0.363176
O O1 0.500000 0.230349 0.942607
O O2 0.340147 0.403278 0.883875
O O3 0.256365 0.153694 0.922717
O O4 0.327153 0.377692 0.999051
O O5 0.000000 0.977715 0.243487
O O6 0.871581 0.846604 0.322720
O O7 0.000000 0.639087 0.264188
O O8 0.879345 0.182686 0.176640
O O9 0.000000 0.303863 0.262510
O O10 0.366550 0.966277 0.333650
O O11 0.500000 0.849284 0.105965
O O12 0.652016 0.634034 0.066604
O O13 0.755366 0.881661 0.108425
O O14 0.500000 0.595800 0.577882
#
# Coordination Sequence:
#
# PCOD9352621 Si02
#       7
#     8   4   4   4   8   8   8
#     4  11  22  38  67  98 140 175 210 280 339 404
#     4  12  26  46  71  96 136 189 228 282 345 401
#     4  10  26  50  67  97 141 177 230 300 340 386
#     4  12  26  46  68 101 135 180 236 282 337 411
#     4   9  22  46  63  93 135 167 223 290 330 401
#     4  10  21  42  68  97 130 176 223 268 347 408
#     4  12  23  43  64 100 137 174 229 272 336 415
#
# _framework density 21.436557000000001
#
# number of rings (size 3 to 8) (size 9 to 14) (size 15 to 20)
#    0.545    0.727    3.636    2.182    0.000    2.182 
#    6.545    0.000    0.000    0.000    0.000    0.000 
#    0.000    0.000    0.000    0.000    0.000    0.000 
#
# Total GULP energy -122651.507318 kJ/mol
# GULP energy per Si atom -5575.068514 kJ/mol
# Density = 2.138777 g / cm^3
# Si number density = 21.436557 Si / 1000 Ang^3
#
#
#
# Elastic Constant Matrix: (Units=GPa)
#
#
# Indices 1 2 3 4 5 6 
#
# 1 97.7778 32.7434 27.0832 0.0000 0.0000 0.0000
# 2 32.7434 78.3856 18.7780 0.0000 0.0000 0.0000
# 3 27.0832 18.7780 50.9190 0.0000 0.0000 0.0000
# 4 0.0000 0.0000 0.0000 38.6394 0.0000 0.0000
# 5 0.0000 0.0000 0.0000 0.0000 31.7272 0.0000
# 6 0.0000 0.0000 0.0000 0.0000 0.0000 28.9043
#
#
#
# Elastic Compliance Matrix: (Units=1/GPa)
#
#
# Indices 1 2 3 4 5 6 
#
# 1 0.013136 -0.004183 -0.005444 0.000000 0.000000 0.000000
# 2 -0.004183 0.015326 -0.003427 0.000000 0.000000 0.000000
# 3 -0.005444 -0.003427 0.023799 0.000000 0.000000 0.000000
# 4 0.000000 0.000000 0.000000 0.025880 0.000000 0.000000
# 5 0.000000 0.000000 0.000000 0.000000 0.031519 0.000000
# 6 0.000000 0.000000 0.000000 0.000000 0.000000 0.034597
#
#
# Mechanical properties :
#
#
# Convention : Reuss Voigt Hill
#
# Bulk Modulus (GPa) = 38.23817 42.69907 40.46862
# Shear Modulus (GPa) = 27.92014 29.75270 28.83642
#
# Velocity S-wave (km/s) = 3.61287 3.72955 3.67167
# Velocity P-wave (km/s) = 5.93972 6.20549 6.07406
#
# Compressibility (1/GPa) = 0.02615188
#
# Stress axis : x y z
#
# Youngs Moduli (GPa) = 76.12633 65.24974 42.01927
#
# Poissons Ratio (x) = 0.27294 0.22877
# Poissons Ratio (y) = 0.31844 0.14400
# Poissons Ratio (z) = 0.41446 0.22361
#
# Static dielectric constant tensor:
#      x y z
#    x 1.746240 0.000000 0.000000 
#    y 0.000000 1.802980 0.000000 
#    z 0.000000 0.000000 1.809150 
# 
# From -- ./inp_files/16791.got.cif
#   From: 2010.05.17/outbox.cif.g08.bks.cpg/sg36_9_cif.got.tgz:16791.got - 2010.06.03 17:41:39.
