data_PCOD9352245
_publ_section_title
;
Structure prediction by ZEFSAII (Michael W. Deem and Ramdas Pophale) SiO2 
 PCOD9352245
Probable space group: C M C 21
;
_chemical_formula_sum "Si O2"
_cell_formula_units_Z 64
_cell_length_a 9.147830
_cell_length_b 22.197207
_cell_length_c 14.382043
_cell_angle_alpha 90.000000
_cell_angle_beta 90.000000
_cell_angle_gamma 90.000000
_cell_volume 2920.364094
_symmetry_space_group_name_H-M "C M C 21"
_symmetry_group_IT_number 36
_symmetry_cell_setting 'orthorhombic'
loop_
_space_group_symop_operation_xyz
x,y,z
-x,-y,1/2+z
x,-y,1/2+z
-x,y,z
1/2+x,1/2+y,z
1/2-x,1/2-y,1/2+z
1/2+x,1/2-y,1/2+z
1/2-x,1/2+y,z
loop_
_atom_site_type_symbol
_atom_site_label
_atom_site_fract_x
_atom_site_fract_y
_atom_site_fract_z
Si Si1 0.674672 0.410508 0.708310
Si Si2 0.328644 0.032566 0.377975
Si Si3 0.833705 0.398459 0.383539
Si Si4 0.668827 0.222637 0.761426
Si Si5 0.675961 0.146227 0.594437
Si Si6 0.825008 0.164001 0.040401
Si Si7 0.174844 0.280545 0.923879
Si Si8 0.826471 0.027064 0.578098
O O1 0.500000 0.405838 0.724186
O O2 0.755038 0.422446 0.804950
O O3 0.724634 0.354593 0.643441
O O4 0.700625 0.469125 0.642579
O O5 0.500000 0.046885 0.388310
O O6 0.255109 0.026748 0.478913
O O7 0.314338 0.963943 0.339120
O O8 0.821136 0.342240 0.314021
O O9 0.722834 0.387406 0.467678
O O10 0.000000 0.397113 0.421445
O O11 0.500000 0.241539 0.758376
O O12 0.714546 0.203838 0.658187
O O13 0.754823 0.269893 0.824091
O O14 0.500000 0.137650 0.603929
O O15 0.709100 0.161897 0.487008
O O16 0.764062 0.087824 0.624266
O O17 0.774467 0.224340 0.988604
O O18 0.000000 0.167013 0.045209
O O19 0.000000 0.277368 0.914991
O O20 0.000000 0.031161 0.563518
#
# Coordination Sequence:
#
# PCOD9352245 Si02
#       8
#     8   8   8   8   8   8   8   8
#     4  10  21  36  55  82 116 150 188 232 283 345
#     4  11  22  35  55  83 117 154 189 230 286 345
#     4   9  17  30  51  78 106 140 183 230 274 324
#     4   9  18  34  57  84 112 146 191 237 282 334
#     4  10  21  39  59  82 117 154 191 237 290 345
#     4   9  17  33  55  77 105 141 181 228 279 331
#     4   9  19  36  59  83 110 146 188 236 288 338
#     4  11  23  39  59  85 117 155 195 238 288 342
#
# _framework density 21.915075999999999
#
# number of rings (size 3 to 8) (size 9 to 14) (size 15 to 20)
#    0.000    2.250    1.250    1.500    0.000    4.000 
#    2.250    2.500    0.000    0.000    0.000    0.000 
#    0.000    0.000    0.000    0.000    0.000    0.000 
#
# Total GULP energy -178695.312498 kJ/mol
# GULP energy per Si atom -5584.228516 kJ/mol
# Density = 2.186520 g / cm^3
# Si number density = 21.915076 Si / 1000 Ang^3
#
#
#
# Elastic Constant Matrix: (Units=GPa)
#
#
# Indices 1 2 3 4 5 6 
#
# 1 29.7134 15.0874 39.6185 0.0000 0.0000 0.0000
# 2 15.0874 56.5552 10.7141 0.0000 0.0000 0.0000
# 3 39.6185 10.7141 119.3034 0.0000 0.0000 0.0000
# 4 0.0000 0.0000 0.0000 40.1547 0.0000 0.0000
# 5 0.0000 0.0000 0.0000 0.0000 31.0462 0.0000
# 6 0.0000 0.0000 0.0000 0.0000 0.0000 9.8855
#
#
#
# Elastic Compliance Matrix: (Units=1/GPa)
#
#
# Indices 1 2 3 4 5 6 
#
# 1 0.070593 -0.014640 -0.022128 0.000000 0.000000 0.000000
# 2 -0.014640 0.021024 0.002974 0.000000 0.000000 0.000000
# 3 -0.022128 0.002974 0.015463 0.000000 0.000000 0.000000
# 4 0.000000 0.000000 0.000000 0.024904 0.000000 0.000000
# 5 0.000000 0.000000 0.000000 0.000000 0.032210 0.000000
# 6 0.000000 0.000000 0.000000 0.000000 0.000000 0.101159
#
#
# Mechanical properties :
#
#
# Convention : Reuss Voigt Hill
#
# Bulk Modulus (GPa) = 25.32202 37.37911 31.35057
# Shear Modulus (GPa) = 14.44648 25.56075 20.00361
#
# Velocity S-wave (km/s) = 2.57028 3.41890 3.02450
# Velocity P-wave (km/s) = 4.51532 5.71651 5.15105
#
# Compressibility (1/GPa) = 0.03949132
#
# Stress axis : x y z
#
# Youngs Moduli (GPa) = 14.16574 47.56444 64.66970
#
# Poissons Ratio (x) = 0.69636 1.43100
# Poissons Ratio (y) = 0.20739 -0.19231
# Poissons Ratio (z) = 0.31346 -0.14144
#
# Static dielectric constant tensor:
#      x y z
#    x 1.728450 0.000000 0.000000 
#    y 0.000000 1.878020 0.000000 
#    z 0.000000 0.000000 1.823340 
# 
# From -- ./inp_files/10926.got.cif
#   From: 2010.05.17/outbox.cif.g08.bks.cpg/sg36_6_cif.got.tgz:10926.got - 2010.06.03 17:41:39.
