data_PCOD9352302
_publ_section_title
;
Structure prediction by ZEFSAII (Michael W. Deem and Ramdas Pophale) SiO2 
 PCOD9352302
Probable space group: C M C 21
;
_chemical_formula_sum "Si O2"
_cell_formula_units_Z 64
_cell_length_a 9.488641
_cell_length_b 26.810180
_cell_length_c 13.424038
_cell_angle_alpha 90.000000
_cell_angle_beta 90.000000
_cell_angle_gamma 90.000000
_cell_volume 3414.970199
_symmetry_space_group_name_H-M "C M C 21"
_symmetry_group_IT_number 36
_symmetry_cell_setting 'orthorhombic'
loop_
_space_group_symop_operation_xyz
x,y,z
-x,-y,1/2+z
x,-y,1/2+z
-x,y,z
1/2+x,1/2+y,z
1/2-x,1/2-y,1/2+z
1/2+x,1/2-y,1/2+z
1/2-x,1/2+y,z
loop_
_atom_site_type_symbol
_atom_site_label
_atom_site_fract_x
_atom_site_fract_y
_atom_site_fract_z
Si Si1 0.340827 0.524880 0.658440
Si Si2 0.664680 0.668822 0.329118
Si Si3 0.166978 0.369262 0.438327
Si Si4 0.333534 0.805633 0.028730
Si Si5 0.655018 0.549971 0.336244
Si Si6 0.332480 0.307037 0.604457
Si Si7 0.169782 0.377573 0.214593
Si Si8 0.335736 0.986453 0.474465
O O1 0.500000 0.541936 0.636297
O O2 0.350135 0.478434 0.732482
O O3 0.253093 0.570816 0.703302
O O4 0.258703 0.503781 0.565168
O O5 0.500000 0.683676 0.339494
O O6 0.749165 0.686540 0.426315
O O7 0.671716 0.608784 0.327556
O O8 0.714348 0.686834 0.219743
O O9 0.252662 0.341685 0.524808
O O10 0.203409 0.354681 0.323845
O O11 0.190271 0.428921 0.446178
O O12 0.000000 0.359982 0.452461
O O13 0.500000 0.813184 0.009068
O O14 0.313771 0.749803 0.069495
O O15 0.294707 0.843320 0.119056
O O16 0.500000 0.540413 0.384831
O O17 0.785285 0.524267 0.390107
O O18 0.500000 0.318995 0.602584
O O19 0.000000 0.386088 0.214125
O O20 0.500000 0.991911 0.496724
#
# Coordination Sequence:
#
# PCOD9352302 Si02
#       8
#     8   8   8   8   8   8   8   8
#     4  11  22  36  58  88 122 160 201 244 294 351
#     4  10  22  41  63  87 120 159 201 249 301 361
#     4  10  22  39  62  92 123 160 203 248 300 362
#     4  10  23  41  63  90 119 157 201 251 306 361
#     4  10  21  37  57  85 118 156 198 239 290 349
#     4  10  23  42  64  89 119 158 200 250 310 361
#     4  10  21  40  62  89 126 162 202 247 302 363
#     4  11  22  36  57  86 121 160 200 242 291 350
#
# _framework density 18.741012000000001
#
# number of rings (size 3 to 8) (size 9 to 14) (size 15 to 20)
#    0.000    1.750    1.250    2.250    1.750    7.000 
#    0.000    0.000    0.000    0.000    0.000    0.000 
#    0.000    0.000    0.000    0.000    0.000    0.000 
#
# Total GULP energy -178555.579985 kJ/mol
# GULP energy per Si atom -5579.861875 kJ/mol
# Density = 1.869836 g / cm^3
# Si number density = 18.741012 Si / 1000 Ang^3
#
#
#
# Elastic Constant Matrix: (Units=GPa)
#
#
# Indices 1 2 3 4 5 6 
#
# 1 64.3477 38.9813 69.0368 0.0000 0.0000 0.0000
# 2 38.9813 56.6744 50.9984 0.0000 0.0000 0.0000
# 3 69.0368 50.9984 174.8821 0.0000 0.0000 0.0000
# 4 0.0000 0.0000 0.0000 27.5115 0.0000 0.0000
# 5 0.0000 0.0000 0.0000 0.0000 52.3211 0.0000
# 6 0.0000 0.0000 0.0000 0.0000 0.0000 -175.4532
#
#
#
# Elastic Compliance Matrix: (Units=1/GPa)
#
#
# Indices 1 2 3 4 5 6 
#
# 1 0.034971 -0.015769 -0.009207 0.000000 0.000000 0.000000
# 2 -0.015769 0.031032 -0.002825 0.000000 0.000000 0.000000
# 3 -0.009207 -0.002825 0.010176 0.000000 0.000000 0.000000
# 4 0.000000 0.000000 0.000000 0.036348 0.000000 0.000000
# 5 0.000000 0.000000 0.000000 0.000000 0.019113 0.000000
# 6 0.000000 0.000000 0.000000 0.000000 0.000000 -0.005700
#
#
# Mechanical properties :
#
#
# Convention : Reuss Voigt Hill
#
# Bulk Modulus (GPa) = 48.59249 68.21524 58.40387
# Shear Modulus (GPa) = 26.53920 -9.99828 8.27046
#
# Velocity S-wave (km/s) = 3.76720 -2.31226 2.10300
# Velocity P-wave (km/s) = 6.70127 5.41749 6.09329
#
# Compressibility (1/GPa) = 0.02057931
#
# Stress axis : x y z
#
# Youngs Moduli (GPa) = 28.59539 32.22460 98.26735
#
# Poissons Ratio (x) = 0.50813 0.90472
# Poissons Ratio (y) = 0.45091 0.27757
# Poissons Ratio (z) = 0.26327 0.09102
#
# Static dielectric constant tensor:
#      x y z
#    x 1.582680 0.000000 0.000000 
#    y 0.000000 1.629600 0.000000 
#    z 0.000000 0.000000 1.654130 
# 
# From -- ./inp_files/7144.got.cif
#   From: 2010.05.17/outbox.cif.g08.bks.cpg/sg36_4_cif.got.tgz:7144.got - 2010.06.03 17:41:39.
