data_PCOD9352362
_publ_section_title
;
Structure prediction by ZEFSAII (Michael W. Deem and Ramdas Pophale) SiO2 
 PCOD9352362
Probable space group: C M C 21
;
_chemical_formula_sum "Si O2"
_cell_formula_units_Z 48
_cell_length_a 22.321694
_cell_length_b 9.564189
_cell_length_c 8.416098
_cell_angle_alpha 90.000000
_cell_angle_beta 90.000000
_cell_angle_gamma 90.000000
_cell_volume 1796.743506
_symmetry_space_group_name_H-M "C M C 21"
_symmetry_group_IT_number 36
_symmetry_cell_setting 'orthorhombic'
loop_
_space_group_symop_operation_xyz
x,y,z
-x,-y,1/2+z
x,-y,1/2+z
-x,y,z
1/2+x,1/2+y,z
1/2-x,1/2-y,1/2+z
1/2+x,1/2-y,1/2+z
1/2-x,1/2+y,z
loop_
_atom_site_type_symbol
_atom_site_label
_atom_site_fract_x
_atom_site_fract_y
_atom_site_fract_z
Si Si1 0.397201 0.471148 0.111610
Si Si2 0.722400 0.200182 0.738109
Si Si3 0.258484 0.543234 0.051280
Si Si4 0.911658 0.213341 0.313539
Si Si5 0.067877 0.475080 0.503774
Si Si6 0.073406 0.288281 0.793458
O O1 0.427881 0.616327 0.163750
O O2 0.401428 0.364935 0.261660
O O3 0.327889 0.500757 0.073489
O O4 0.424906 0.383336 0.967207
O O5 0.757498 0.335190 0.676964
O O6 0.749911 0.110903 0.880141
O O7 0.659016 0.257824 0.796516
O O8 0.720323 0.093430 0.590476
O O9 0.934976 0.366986 0.354673
O O10 0.095065 0.384361 0.644849
O O11 0.093058 0.622376 0.445716
O O12 0.000000 0.504151 0.551229
O O13 0.000000 0.279984 0.790539
#
# Coordination Sequence:
#
# PCOD9352362 Si02
#       6
#     8   8   8   8   8   8
#     4  10  21  38  57  81 113 148 188 233 281 337
#     4  11  23  38  59  84 114 151 191 237 287 342
#     4  11  22  40  60  84 116 152 194 238 287 343
#     4  10  22  37  56  82 111 148 189 233 284 338
#     4   9  19  36  57  84 115 145 184 232 280 334
#     4   9  19  37  59  83 113 148 186 231 281 334
#
# _framework density 26.714998000000001
#
# number of rings (size 3 to 8) (size 9 to 14) (size 15 to 20)
#    0.000    2.000    0.000    4.000    0.000    6.000 
#    0.000    1.667    0.000    0.000    0.000    0.000 
#    0.000    0.000    0.000    0.000    0.000    0.000 
#
# Total GULP energy -134403.062790 kJ/mol
# GULP energy per Si atom -5600.127616 kJ/mol
# Density = 2.665419 g / cm^3
# Si number density = 26.714998 Si / 1000 Ang^3
#
#
#
# Elastic Constant Matrix: (Units=GPa)
#
#
# Indices 1 2 3 4 5 6 
#
# 1 91.9770 13.3704 21.9379 0.0000 0.0000 0.0000
# 2 13.3704 171.4271 45.0071 0.0000 0.0000 0.0000
# 3 21.9379 45.0071 52.2885 0.0000 0.0000 0.0000
# 4 0.0000 0.0000 0.0000 78.5152 0.0000 0.0000
# 5 0.0000 0.0000 0.0000 0.0000 25.4077 0.0000
# 6 0.0000 0.0000 0.0000 0.0000 0.0000 66.7665
#
#
#
# Elastic Compliance Matrix: (Units=1/GPa)
#
#
# Indices 1 2 3 4 5 6 
#
# 1 0.012115 0.000503 -0.005516 0.000000 0.000000 0.000000
# 2 0.000503 0.007557 -0.006716 0.000000 0.000000 0.000000
# 3 -0.005516 -0.006716 0.027220 0.000000 0.000000 0.000000
# 4 0.000000 0.000000 0.000000 0.012736 0.000000 0.000000
# 5 0.000000 0.000000 0.000000 0.000000 0.039358 0.000000
# 6 0.000000 0.000000 0.000000 0.000000 0.000000 0.014978
#
#
# Mechanical properties :
#
#
# Convention : Reuss Voigt Hill
#
# Bulk Modulus (GPa) = 42.67256 52.92481 47.79869
# Shear Modulus (GPa) = 34.42733 49.82969 42.12851
#
# Velocity S-wave (km/s) = 3.59373 4.32352 3.97541
# Velocity P-wave (km/s) = 5.76435 6.69161 6.24522
#
# Compressibility (1/GPa) = 0.02343426
#
# Stress axis : x y z
#
# Youngs Moduli (GPa) = 82.54380 132.32021 36.73784
#
# Poissons Ratio (x) = -0.06660 0.20265
# Poissons Ratio (y) = -0.04155 0.24674
# Poissons Ratio (z) = 0.45531 0.88869
#
# Static dielectric constant tensor:
#      x y z
#    x 2.021640 0.000000 0.000000 
#    y 0.000000 2.035850 0.000000 
#    z 0.000000 0.000000 2.165090 
# 
# From -- ./inp_files/5972.got.cif
#   From: 2010.05.17/outbox.cif.g08.bks.cpg/sg36_3_cif.got.tgz:5972.got - 2010.06.03 17:41:39.
