data_PCOD9352996
_publ_section_title
;
Structure prediction by ZEFSAII (Michael W. Deem and Ramdas Pophale) SiO2 
 PCOD9352996
Probable space group: C M C 21
;
_chemical_formula_sum "Si O2"
_cell_formula_units_Z 64
_cell_length_a 15.669620
_cell_length_b 24.900663
_cell_length_c 7.871322
_cell_angle_alpha 90.000000
_cell_angle_beta 90.000000
_cell_angle_gamma 90.000000
_cell_volume 3071.263328
_symmetry_space_group_name_H-M "C M C 21"
_symmetry_group_IT_number 36
_symmetry_cell_setting 'orthorhombic'
loop_
_space_group_symop_operation_xyz
x,y,z
-x,-y,1/2+z
x,-y,1/2+z
-x,y,z
1/2+x,1/2+y,z
1/2-x,1/2-y,1/2+z
1/2+x,1/2-y,1/2+z
1/2-x,1/2+y,z
loop_
_atom_site_type_symbol
_atom_site_label
_atom_site_fract_x
_atom_site_fract_y
_atom_site_fract_z
Si Si1 0.240814 0.917522 0.369430
Si Si2 0.847044 0.818028 0.828061
Si Si3 0.601544 0.668418 0.727016
Si Si4 0.841967 0.713477 0.332985
Si Si5 0.400651 0.146983 0.013173
Si Si6 0.407203 0.217790 0.686281
Si Si7 0.904267 0.926609 0.814684
Si Si8 0.824553 0.014763 0.602205
O O1 0.167287 0.872977 0.322237
O O2 0.326239 0.893198 0.451123
O O3 0.249467 0.951150 0.193281
O O4 0.210410 0.966082 0.490055
O O5 0.758396 0.787763 0.800903
O O6 0.907924 0.781296 0.716284
O O7 0.843186 0.878506 0.758407
O O8 0.875297 0.823876 0.025128
O O9 0.500000 0.654702 0.742781
O O10 0.617909 0.727898 0.804343
O O11 0.848473 0.699536 0.532392
O O12 0.882999 0.672097 0.198805
O O13 0.500000 0.128352 0.005251
O O14 0.390732 0.193854 0.872008
O O15 0.500000 0.198684 0.631282
O O16 0.000000 0.907619 0.794098
O O17 0.887922 0.982651 0.724261
O O18 0.880803 0.941693 0.005349
#
# Coordination Sequence:
#
# PCOD9352996 Si02
#       8
#     8   8   8   8   8   8   8   8
#     4  11  24  46  67  98 131 183 232 294 366 428
#     4  12  23  39  63  93 135 183 228 282 339 417
#     4  12  25  42  66 100 143 189 235 285 349 433
#     4  12  25  42  64 100 140 183 228 279 344 421
#     4  11  24  46  72 100 138 180 230 292 358 425
#     4  11  24  40  62  95 133 176 223 274 335 410
#     4  11  22  38  59  90 125 171 224 278 342 412
#     4  10  24  41  64  88 129 171 224 294 357 416
#
# _framework density 20.838332000000001
#
# number of rings (size 3 to 8) (size 9 to 14) (size 15 to 20)
#    0.000    0.750    2.500    5.625    3.500    2.500 
#    0.000    0.625    0.000    0.000    0.000    0.000 
#    0.000    0.000    0.000    0.000    0.000    0.000 
#
# Total GULP energy -178444.023758 kJ/mol
# GULP energy per Si atom -5576.375742 kJ/mol
# Density = 2.079090 g / cm^3
# Si number density = 20.838332 Si / 1000 Ang^3
#
#
#
# Elastic Constant Matrix: (Units=GPa)
#
#
# Indices 1 2 3 4 5 6 
#
# 1 127.9536 35.2743 27.5606 0.0000 0.0000 0.0000
# 2 35.2743 72.2042 18.1273 0.0000 0.0000 0.0000
# 3 27.5606 18.1273 77.1007 0.0000 0.0000 0.0000
# 4 0.0000 0.0000 0.0000 34.9210 0.0000 0.0000
# 5 0.0000 0.0000 0.0000 0.0000 26.0447 0.0000
# 6 0.0000 0.0000 0.0000 0.0000 0.0000 22.0081
#
#
#
# Elastic Compliance Matrix: (Units=1/GPa)
#
#
# Indices 1 2 3 4 5 6 
#
# 1 0.009443 -0.004002 -0.002435 0.000000 0.000000 0.000000
# 2 -0.004002 0.016414 -0.002429 0.000000 0.000000 0.000000
# 3 -0.002435 -0.002429 0.014411 0.000000 0.000000 0.000000
# 4 0.000000 0.000000 0.000000 0.028636 0.000000 0.000000
# 5 0.000000 0.000000 0.000000 0.000000 0.038396 0.000000
# 6 0.000000 0.000000 0.000000 0.000000 0.000000 0.045438
#
#
# Mechanical properties :
#
#
# Convention : Reuss Voigt Hill
#
# Bulk Modulus (GPa) = 44.36905 48.79811 46.58358
# Shear Modulus (GPa) = 28.09280 29.68118 28.88699
#
# Velocity S-wave (km/s) = 3.67567 3.77816 3.72727
# Velocity P-wave (km/s) = 6.27315 6.51927 6.39739
#
# Compressibility (1/GPa) = 0.02253823
#
# Stress axis : x y z
#
# Youngs Moduli (GPa) = 105.89847 60.92189 69.38982
#
# Poissons Ratio (x) = 0.24381 0.16894
# Poissons Ratio (y) = 0.42381 0.16853
# Poissons Ratio (z) = 0.25782 0.14796
#
# Static dielectric constant tensor:
#      x y z
#    x 1.728140 0.000000 0.000000 
#    y 0.000000 1.740190 0.000000 
#    z 0.000000 0.000000 1.841480 
# 
# From -- ./inp_files/4321.got.cif
#   From: 2010.05.17/outbox.cif.g08.bks.cpg/sg36_3_cif.got.tgz:4321.got - 2010.06.03 17:41:39.
