data_PCOD9352949
_publ_section_title
;
Structure prediction by ZEFSAII (Michael W. Deem and Ramdas Pophale) SiO2 
 PCOD9352949
Probable space group: C M C 21
;
_chemical_formula_sum "Si O2"
_cell_formula_units_Z 48
_cell_length_a 29.995475
_cell_length_b 8.493304
_cell_length_c 7.331328
_cell_angle_alpha 90.000000
_cell_angle_beta 90.000000
_cell_angle_gamma 90.000000
_cell_volume 1867.734164
_symmetry_space_group_name_H-M "C M C 21"
_symmetry_group_IT_number 36
_symmetry_cell_setting 'orthorhombic'
loop_
_space_group_symop_operation_xyz
x,y,z
-x,-y,1/2+z
x,-y,1/2+z
-x,y,z
1/2+x,1/2+y,z
1/2-x,1/2-y,1/2+z
1/2+x,1/2-y,1/2+z
1/2-x,1/2+y,z
loop_
_atom_site_type_symbol
_atom_site_label
_atom_site_fract_x
_atom_site_fract_y
_atom_site_fract_z
Si Si1 0.315681 0.848664 0.307870
Si Si2 0.086798 0.456397 0.375306
Si Si3 0.500000 0.225890 0.746896
Si Si4 0.000000 0.044558 0.598301
Si Si5 0.582340 0.729774 0.730458
Si Si6 0.173032 0.877077 0.122729
Si Si7 0.221194 0.180698 0.974142
O O1 0.361924 0.944844 0.299119
O O2 0.332793 0.698577 0.424172
O O3 0.271428 0.876233 0.431811
O O4 0.294536 0.819008 0.109293
O O5 0.044092 0.382516 0.267812
O O6 0.085137 0.352974 0.560056
O O7 0.079617 0.644505 0.393154
O O8 0.500000 0.355387 0.585906
O O9 0.500000 0.350087 0.915515
O O10 0.957169 0.109524 0.704097
O O11 0.626071 0.623258 0.723254
O O12 0.202626 0.784758 0.272099
O O13 0.197133 0.037468 0.075513
#
# Coordination Sequence:
#
# PCOD9352949 Si02
#       7
#     8   8   4   4   8   8   8
#     4  11  25  43  68 103 137 194 243 296 365 438
#     4  10  24  44  68 100 145 184 242 287 363 439
#     4  10  23  44  70 106 140 182 233 304 352 445
#     4  10  23  42  70 104 142 178 237 294 370 423
#     4  10  24  43  66 103 140 186 236 298 357 440
#     4  11  25  42  67 102 141 186 243 302 358 428
#     4  12  24  43  69  97 146 186 242 306 362 432
#
# _framework density 25.699591000000002
#
# number of rings (size 3 to 8) (size 9 to 14) (size 15 to 20)
#    0.000    1.333    3.333    0.500    4.667    6.667 
#    0.000    0.000    0.000    0.000    0.000    0.000 
#    0.000    0.000    0.000    0.000    0.000    0.000 
#
# Total GULP energy -133926.155681 kJ/mol
# GULP energy per Si atom -5580.256487 kJ/mol
# Density = 2.564110 g / cm^3
# Si number density = 25.699591 Si / 1000 Ang^3
#
#
#
# Elastic Constant Matrix: (Units=GPa)
#
#
# Indices 1 2 3 4 5 6 
#
# 1 209.8232 59.6937 25.7161 0.0000 0.0000 0.0000
# 2 59.6937 64.0896 -0.0722 0.0000 0.0000 0.0000
# 3 25.7161 -0.0722 106.6091 0.0000 0.0000 0.0000
# 4 0.0000 0.0000 0.0000 33.7130 0.0000 0.0000
# 5 0.0000 0.0000 0.0000 0.0000 22.9356 0.0000
# 6 0.0000 0.0000 0.0000 0.0000 0.0000 42.7693
#
#
#
# Elastic Compliance Matrix: (Units=1/GPa)
#
#
# Indices 1 2 3 4 5 6 
#
# 1 0.006757 -0.006296 -0.001634 0.000000 0.000000 0.000000
# 2 -0.006296 0.021469 0.001533 0.000000 0.000000 0.000000
# 3 -0.001634 0.001533 0.009775 0.000000 0.000000 0.000000
# 4 0.000000 0.000000 0.000000 0.029662 0.000000 0.000000
# 5 0.000000 0.000000 0.000000 0.000000 0.043600 0.000000
# 6 0.000000 0.000000 0.000000 0.000000 0.000000 0.023381
#
#
# Mechanical properties :
#
#
# Convention : Reuss Voigt Hill
#
# Bulk Modulus (GPa) = 39.67017 61.24412 50.45714
# Shear Modulus (GPa) = 32.08393 39.56253 35.82323
#
# Velocity S-wave (km/s) = 3.53713 3.92780 3.73758
# Velocity P-wave (km/s) = 5.67022 6.66729 6.18886
#
# Compressibility (1/GPa) = 0.02520786
#
# Stress axis : x y z
#
# Youngs Moduli (GPa) = 147.98815 46.57937 102.29855
#
# Poissons Ratio (x) = 0.29325 0.16718
# Poissons Ratio (y) = 0.93168 -0.15684
# Poissons Ratio (z) = 0.24185 -0.07141
#
# Static dielectric constant tensor:
#      x y z
#    x 2.018220 0.000000 0.000000 
#    y 0.000000 2.084450 0.000000 
#    z 0.000000 0.000000 2.099490 
# 
# From -- ./inp_files/5992.got.cif
#   From: 2010.05.17/outbox.cif.g08.bks.cpg/sg36_3_cif.got.tgz:5992.got - 2010.06.03 17:41:39.
