data_PCOD9352770
_publ_section_title
;
Structure prediction by ZEFSAII (Michael W. Deem and Ramdas Pophale) SiO2 
 PCOD9352770
Probable space group: C M C 21
;
_chemical_formula_sum "Si O2"
_cell_formula_units_Z 44
_cell_length_a 9.843018
_cell_length_b 10.228325
_cell_length_c 24.970449
_cell_angle_alpha 90.000000
_cell_angle_beta 90.000000
_cell_angle_gamma 90.000000
_cell_volume 2513.964554
_symmetry_space_group_name_H-M "C M C 21"
_symmetry_group_IT_number 36
_symmetry_cell_setting 'orthorhombic'
loop_
_space_group_symop_operation_xyz
x,y,z
-x,-y,1/2+z
x,-y,1/2+z
-x,y,z
1/2+x,1/2+y,z
1/2-x,1/2-y,1/2+z
1/2+x,1/2-y,1/2+z
1/2-x,1/2+y,z
loop_
_atom_site_type_symbol
_atom_site_label
_atom_site_fract_x
_atom_site_fract_y
_atom_site_fract_z
Si Si1 0.837869 0.873434 0.872140
Si Si2 0.347614 0.341478 0.320104
Si Si3 0.662567 0.872252 0.980650
Si Si4 0.000000 0.736055 0.106392
Si Si5 0.000000 0.859397 0.215886
Si Si6 0.241332 0.878873 0.549466
Si Si7 0.000000 0.029380 0.117830
O O1 0.767384 0.759567 0.837202
O O2 0.752369 0.875884 0.926948
O O3 0.000000 0.850879 0.880329
O O4 0.822940 0.014530 0.843736
O O5 0.500000 0.299292 0.340412
O O6 0.372884 0.351253 0.256224
O O7 0.500000 0.888664 0.971656
O O8 0.689176 0.732848 0.009039
O O9 0.718574 0.989480 0.017962
O O10 0.000000 0.746695 0.170946
O O11 0.871581 0.669582 0.080990
O O12 0.000000 0.887482 0.089619
O O13 0.000000 0.991302 0.180326
O O14 0.129984 0.899704 0.595171
#
# Coordination Sequence:
#
# PCOD9352770 Si02
#       7
#     8   8   8   4   4   8   4
#     4  11  24  39  64  92 127 160 214 254 314 370
#     4   9  21  43  62  89 123 162 204 262 305 369
#     4  12  25  38  61  94 126 174 203 249 310 379
#     4  10  22  41  61  95 123 157 208 261 301 363
#     4   8  20  44  67  85 123 169 203 259 321 357
#     4  12  23  40  64  93 131 163 207 253 308 370
#     4  10  22  41  64  90 128 162 203 260 304 372
#
# _framework density 17.502236
#
# number of rings (size 3 to 8) (size 9 to 14) (size 15 to 20)
#    1.091    0.364    3.636    1.636    2.545    5.818 
#    0.000    0.000    2.000    0.000    0.000    0.000 
#    0.000    0.000    0.000    0.000    0.000    0.000 
#
# Total GULP energy -122561.133793 kJ/mol
# GULP energy per Si atom -5570.960627 kJ/mol
# Density = 1.746240 g / cm^3
# Si number density = 17.502236 Si / 1000 Ang^3
#
#
#
# Elastic Constant Matrix: (Units=GPa)
#
#
# Indices 1 2 3 4 5 6 
#
# 1 115.7498 12.2112 17.4425 0.0000 0.0000 0.0000
# 2 12.2112 38.4453 -12.4546 0.0000 0.0000 0.0000
# 3 17.4425 -12.4546 69.5049 0.0000 0.0000 0.0000
# 4 0.0000 0.0000 0.0000 23.6300 0.0000 0.0000
# 5 0.0000 0.0000 0.0000 0.0000 84.2538 0.0000
# 6 0.0000 0.0000 0.0000 0.0000 0.0000 41.3521
#
#
#
# Elastic Compliance Matrix: (Units=1/GPa)
#
#
# Indices 1 2 3 4 5 6 
#
# 1 0.009535 -0.004038 -0.003116 0.000000 0.000000 0.000000
# 2 -0.004038 0.029324 0.006268 0.000000 0.000000 0.000000
# 3 -0.003116 0.006268 0.016293 0.000000 0.000000 0.000000
# 4 0.000000 0.000000 0.000000 0.042319 0.000000 0.000000
# 5 0.000000 0.000000 0.000000 0.000000 0.011869 0.000000
# 6 0.000000 0.000000 0.000000 0.000000 0.000000 0.024183
#
#
# Mechanical properties :
#
#
# Convention : Reuss Voigt Hill
#
# Bulk Modulus (GPa) = 18.73404 28.67756 23.70580
# Shear Modulus (GPa) = 32.66083 43.61389 38.13736
#
# Velocity S-wave (km/s) = 4.32452 4.99731 4.67304
# Velocity P-wave (km/s) = 5.97179 7.05111 6.53378
#
# Compressibility (1/GPa) = 0.05337878
#
# Stress axis : x y z
#
# Youngs Moduli (GPa) = 104.87724 34.10152 61.37709
#
# Poissons Ratio (x) = 0.13771 0.19128
# Poissons Ratio (y) = 0.42351 -0.38471
# Poissons Ratio (z) = 0.32684 -0.21375
#
# Static dielectric constant tensor:
#      x y z
#    x 1.556400 0.000000 0.000000 
#    y 0.000000 1.598390 0.000000 
#    z 0.000000 0.000000 1.587870 
# 
# From -- ./inp_files/17274.got.cif
#   From: 2010.05.17/outbox.cif.g08.bks.cpg/sg36_9_cif.got.tgz:17274.got - 2010.06.03 17:41:39.
