data_PCOD9352677
_publ_section_title
;
Structure prediction by ZEFSAII (Michael W. Deem and Ramdas Pophale) SiO2 
 PCOD9352677
Probable space group: C M C 21
;
_chemical_formula_sum "Si O2"
_cell_formula_units_Z 40
_cell_length_a 8.449776
_cell_length_b 19.240669
_cell_length_c 9.577086
_cell_angle_alpha 90.000000
_cell_angle_beta 90.000000
_cell_angle_gamma 90.000000
_cell_volume 1557.036351
_symmetry_space_group_name_H-M "C M C 21"
_symmetry_group_IT_number 36
_symmetry_cell_setting 'orthorhombic'
loop_
_space_group_symop_operation_xyz
x,y,z
-x,-y,1/2+z
x,-y,1/2+z
-x,y,z
1/2+x,1/2+y,z
1/2-x,1/2-y,1/2+z
1/2+x,1/2-y,1/2+z
1/2-x,1/2+y,z
loop_
_atom_site_type_symbol
_atom_site_label
_atom_site_fract_x
_atom_site_fract_y
_atom_site_fract_z
Si Si1 0.817741 0.246831 0.168620
Si Si2 0.330566 0.629823 0.936188
Si Si3 0.000000 0.407259 0.419902
Si Si4 0.320372 0.529289 0.533002
Si Si5 0.000000 0.503639 0.180839
Si Si6 0.184875 0.829408 0.925655
O O1 0.823302 0.176568 0.074741
O O2 0.737762 0.221040 0.311953
O O3 0.000000 0.269571 0.175298
O O4 0.724791 0.303213 0.079186
O O5 0.500000 0.645176 0.866265
O O6 0.331971 0.548049 0.973620
O O7 0.154913 0.635451 0.874808
O O8 0.000000 0.424688 0.587723
O O9 0.000000 0.483032 0.344595
O O10 0.500000 0.544910 0.588998
O O11 0.168416 0.529393 0.633059
O O12 0.284720 0.588697 0.418226
O O13 0.000000 0.820870 0.898249
#
# Coordination Sequence:
#
# PCOD9352677 Si02
#       6
#     8   8   4   8   4   8
#     4  10  23  43  66  95 132 173 218 271 331 396
#     4   9  20  40  65  93 127 167 214 268 326 385
#     4  10  22  38  60  94 130 166 211 262 321 390
#     4   9  20  40  65  93 127 167 214 268 326 385
#     4  10  22  38  60  94 130 166 211 262 321 390
#     4  10  23  43  66  95 132 173 218 271 331 396
#
# _framework density 25.689830000000001
#
# number of rings (size 3 to 8) (size 9 to 14) (size 15 to 20)
#    0.000    2.400    0.000    0.000    2.800    9.600 
#    0.000   12.000    0.000    0.000    0.000    0.000 
#    0.000    0.000    0.000    0.000    0.000    0.000 
#
# Total GULP energy -111614.394664 kJ/mol
# GULP energy per Si atom -5580.719733 kJ/mol
# Density = 2.563136 g / cm^3
# Si number density = 25.689830 Si / 1000 Ang^3
#
#
#
# Elastic Constant Matrix: (Units=GPa)
#
#
# Indices 1 2 3 4 5 6 
#
# 1 174.2720 10.4126 17.2789 0.0000 0.0000 0.0000
# 2 10.4126 95.9857 11.0681 0.0000 0.0000 0.0000
# 3 17.2789 11.0681 58.5811 0.0000 0.0000 0.0000
# 4 0.0000 0.0000 0.0000 31.1381 0.0000 0.0000
# 5 0.0000 0.0000 0.0000 0.0000 20.9815 0.0000
# 6 0.0000 0.0000 0.0000 0.0000 0.0000 26.5561
#
#
#
# Elastic Compliance Matrix: (Units=1/GPa)
#
#
# Indices 1 2 3 4 5 6 
#
# 1 0.005930 -0.000451 -0.001664 0.000000 0.000000 0.000000
# 2 -0.000451 0.010685 -0.001886 0.000000 0.000000 0.000000
# 3 -0.001664 -0.001886 0.017917 0.000000 0.000000 0.000000
# 4 0.000000 0.000000 0.000000 0.032115 0.000000 0.000000
# 5 0.000000 0.000000 0.000000 0.000000 0.047661 0.000000
# 6 0.000000 0.000000 0.000000 0.000000 0.000000 0.037656
#
#
# Mechanical properties :
#
#
# Convention : Reuss Voigt Hill
#
# Bulk Modulus (GPa) = 37.69259 45.15089 41.42174
# Shear Modulus (GPa) = 29.61922 35.07376 32.34649
#
# Velocity S-wave (km/s) = 3.39920 3.69898 3.55225
# Velocity P-wave (km/s) = 5.48727 5.98805 5.74312
#
# Compressibility (1/GPa) = 0.02653041
#
# Stress axis : x y z
#
# Youngs Moduli (GPa) = 168.63132 93.59248 55.81181
#
# Poissons Ratio (x) = 0.04225 0.09286
# Poissons Ratio (y) = 0.07613 0.10524
# Poissons Ratio (z) = 0.28057 0.17647
#
# Static dielectric constant tensor:
#      x y z
#    x 2.051360 0.000000 0.000000 
#    y 0.000000 2.001330 0.000000 
#    z 0.000000 0.000000 2.017990 
# 
# From -- ./inp_files/2468.got.cif
#   From: 2010.05.17/outbox.cif.g08.bks.cpg/sg36_2_cif.got.tgz:2468.got - 2010.06.03 17:41:39.
