data_PCOD9352236
_publ_section_title
;
Structure prediction by ZEFSAII (Michael W. Deem and Ramdas Pophale) SiO2 
 PCOD9352236
Probable space group: C M C 21
;
_chemical_formula_sum "Si O2"
_cell_formula_units_Z 64
_cell_length_a 9.516730
_cell_length_b 10.733737
_cell_length_c 29.024997
_cell_angle_alpha 90.000000
_cell_angle_beta 90.000000
_cell_angle_gamma 90.000000
_cell_volume 2964.905676
_symmetry_space_group_name_H-M "C M C 21"
_symmetry_group_IT_number 36
_symmetry_cell_setting 'orthorhombic'
loop_
_space_group_symop_operation_xyz
x,y,z
-x,-y,1/2+z
x,-y,1/2+z
-x,y,z
1/2+x,1/2+y,z
1/2-x,1/2-y,1/2+z
1/2+x,1/2-y,1/2+z
1/2-x,1/2+y,z
loop_
_atom_site_type_symbol
_atom_site_label
_atom_site_fract_x
_atom_site_fract_y
_atom_site_fract_z
Si Si1 0.341710 0.887483 0.865130
Si Si2 0.669422 0.597965 0.746590
Si Si3 0.347704 0.771020 0.962597
Si Si4 0.166663 0.568628 0.545511
Si Si5 0.156038 0.602817 0.920172
Si Si6 0.344212 0.785796 0.320943
Si Si7 0.668084 0.660538 0.090072
Si Si8 0.831530 0.829054 0.697935
O O1 0.500000 0.927709 0.850443
O O2 0.363225 0.793452 0.908002
O O3 0.256604 0.833206 0.822948
O O4 0.262002 0.993344 0.894154
O O5 0.500000 0.615156 0.752360
O O6 0.756191 0.609614 0.794444
O O7 0.740271 0.714606 0.718771
O O8 0.691009 0.463416 0.722615
O O9 0.500000 0.728744 0.980314
O O10 0.228031 0.668563 0.962667
O O11 0.309301 0.891919 0.992094
O O12 0.253730 0.452065 0.564055
O O13 0.200906 0.700401 0.571082
O O14 0.000000 0.544527 0.551707
O O15 0.136854 0.689733 0.875241
O O16 0.000000 0.558200 0.933403
O O17 0.500000 0.767742 0.301350
O O18 0.500000 0.643094 0.086004
O O19 0.704712 0.656339 0.144117
O O20 0.000000 0.801390 0.700419
#
# Coordination Sequence:
#
# PCOD9352236 Si02
#       8
#     8   8   8   8   8   8   8   8
#     4   9  18  34  54  76 109 151 194 240 290 346
#     4  11  24  40  63  92 120 154 199 245 297 361
#     4   9  19  34  51  78 114 150 192 242 293 347
#     4  10  22  38  60  92 124 158 203 249 299 361
#     4   9  19  34  54  78 108 148 194 240 289 347
#     4  10  21  36  53  81 114 148 193 240 292 349
#     4  10  22  41  63  89 123 158 198 250 303 361
#     4  10  23  43  64  90 122 157 199 248 303 362
#
# _framework density 21.585846
#
# number of rings (size 3 to 8) (size 9 to 14) (size 15 to 20)
#    0.000    2.250    0.000    1.500    3.500    3.500 
#    0.000    0.000    0.000    0.000    0.000    0.000 
#    0.000    0.000    0.000    0.000    0.000    0.000 
#
# Total GULP energy -178184.569626 kJ/mol
# GULP energy per Si atom -5568.267801 kJ/mol
# Density = 2.153672 g / cm^3
# Si number density = 21.585846 Si / 1000 Ang^3
#
#
#
# Elastic Constant Matrix: (Units=GPa)
#
#
# Indices 1 2 3 4 5 6 
#
# 1 80.3130 43.1223 30.7463 0.0000 0.0000 0.0000
# 2 43.1223 100.9113 28.8773 0.0000 0.0000 0.0000
# 3 30.7463 28.8773 91.4680 0.0000 0.0000 0.0000
# 4 0.0000 0.0000 0.0000 42.5332 0.0000 0.0000
# 5 0.0000 0.0000 0.0000 0.0000 -72.4057 0.0000
# 6 0.0000 0.0000 0.0000 0.0000 0.0000 24.7043
#
#
#
# Elastic Compliance Matrix: (Units=1/GPa)
#
#
# Indices 1 2 3 4 5 6 
#
# 1 0.017297 -0.006296 -0.003826 0.000000 0.000000 0.000000
# 2 -0.006296 0.013186 -0.002046 0.000000 0.000000 0.000000
# 3 -0.003826 -0.002046 0.012865 0.000000 0.000000 0.000000
# 4 0.000000 0.000000 0.000000 0.023511 0.000000 0.000000
# 5 0.000000 0.000000 0.000000 0.000000 -0.013811 0.000000
# 6 0.000000 0.000000 0.000000 0.000000 0.000000 0.040479
#
#
# Mechanical properties :
#
#
# Convention : Reuss Voigt Hill
#
# Bulk Modulus (GPa) = 52.60557 53.13157 52.86857
# Shear Modulus (GPa) = 40.25714 10.29615 25.27664
#
# Velocity S-wave (km/s) = 4.32322 2.18637 3.42567
# Velocity P-wave (km/s) = 7.02450 5.57146 6.33975
#
# Compressibility (1/GPa) = 0.01900940
#
# Stress axis : x y z
#
# Youngs Moduli (GPa) = 57.81389 75.83821 77.72987
#
# Poissons Ratio (x) = 0.47751 0.29742
# Poissons Ratio (y) = 0.36402 0.15907
# Poissons Ratio (z) = 0.22122 0.15520
#
# Static dielectric constant tensor:
#      x y z
#    x 1.879620 0.000000 0.000000 
#    y 0.000000 1.850890 0.000000 
#    z 0.000000 0.000000 1.847270 
# 
# From -- ./inp_files/17317.got.cif
#   From: 2010.05.17/outbox.cif.g08.bks.cpg/sg36_9_cif.got.tgz:17317.got - 2010.06.03 17:41:39.
