data_PCOD9352367
_publ_section_title
;
Structure prediction by ZEFSAII (Michael W. Deem and Ramdas Pophale) SiO2 
 PCOD9352367
Probable space group: C M C 21
;
_chemical_formula_sum "Si O2"
_cell_formula_units_Z 64
_cell_length_a 9.350522
_cell_length_b 32.044917
_cell_length_c 10.973711
_cell_angle_alpha 90.000000
_cell_angle_beta 90.000000
_cell_angle_gamma 90.000000
_cell_volume 3288.126566
_symmetry_space_group_name_H-M "C M C 21"
_symmetry_group_IT_number 36
_symmetry_cell_setting 'orthorhombic'
loop_
_space_group_symop_operation_xyz
x,y,z
-x,-y,1/2+z
x,-y,1/2+z
-x,y,z
1/2+x,1/2+y,z
1/2-x,1/2-y,1/2+z
1/2+x,1/2-y,1/2+z
1/2-x,1/2+y,z
loop_
_atom_site_type_symbol
_atom_site_label
_atom_site_fract_x
_atom_site_fract_y
_atom_site_fract_z
Si Si1 0.340885 0.860235 0.121530
Si Si2 0.835336 0.075438 0.488624
Si Si3 0.333101 0.366022 0.507409
Si Si4 0.660887 0.925028 0.346380
Si Si5 0.831146 0.490747 0.149979
Si Si6 0.164030 0.071984 0.199868
Si Si7 0.830291 0.264765 0.198278
Si Si8 0.327694 0.780270 0.474197
O O1 0.500000 0.860951 0.065510
O O2 0.226326 0.880126 0.031837
O O3 0.344356 0.891675 0.235846
O O4 0.312541 0.813904 0.168375
O O5 0.745586 0.039084 0.553209
O O6 0.824277 0.072255 0.344425
O O7 0.000000 0.071553 0.526389
O O8 0.500000 0.356595 0.486436
O O9 0.281571 0.406486 0.432316
O O10 0.311165 0.382041 0.645100
O O11 0.235685 0.327048 0.472910
O O12 0.500000 0.926295 0.400716
O O13 0.693414 0.968986 0.282282
O O14 0.768755 0.536813 0.149259
O O15 0.000000 0.490151 0.128526
O O16 0.000000 0.060898 0.166490
O O17 0.741265 0.240975 0.094014
O O18 0.791322 0.259425 0.341928
O O19 0.000000 0.254594 0.185856
O O20 0.500000 0.781114 0.482160
#
# Coordination Sequence:
#
# PCOD9352367 Si02
#       8
#     8   8   8   8   8   8   8   8
#     4   9  18  37  62  85 115 151 192 242 299 356
#     4  10  21  38  58  83 118 154 198 248 300 364
#     4  11  23  39  61  88 120 160 204 249 303 366
#     4   9  18  36  59  85 115 148 192 242 293 350
#     4  10  22  38  59  86 116 153 199 249 300 357
#     4  10  24  41  56  82 121 160 199 250 305 360
#     4  10  22  42  65  93 129 165 207 262 315 377
#     4  11  24  43  66  94 130 167 211 264 319 380
#
# _framework density 19.46397
#
# number of rings (size 3 to 8) (size 9 to 14) (size 15 to 20)
#    0.000    2.000    1.250    2.250    1.750    7.000 
#    0.000    3.750    0.000    0.000    0.000    0.000 
#    0.000    0.000    0.000    0.000    0.000    0.000 
#
# Total GULP energy -178567.202893 kJ/mol
# GULP energy per Si atom -5580.225090 kJ/mol
# Density = 1.941967 g / cm^3
# Si number density = 19.463970 Si / 1000 Ang^3
#
#
#
# Elastic Constant Matrix: (Units=GPa)
#
#
# Indices 1 2 3 4 5 6 
#
# 1 90.7049 37.1191 67.6141 0.0000 0.0000 0.0000
# 2 37.1191 52.9268 35.2924 0.0000 0.0000 0.0000
# 3 67.6141 35.2924 89.8794 0.0000 0.0000 0.0000
# 4 0.0000 0.0000 0.0000 24.5766 0.0000 0.0000
# 5 0.0000 0.0000 0.0000 0.0000 16.6440 0.0000
# 6 0.0000 0.0000 0.0000 0.0000 0.0000 31.6989
#
#
#
# Elastic Compliance Matrix: (Units=1/GPa)
#
#
# Indices 1 2 3 4 5 6 
#
# 1 0.027041 -0.007316 -0.017470 0.000000 0.000000 0.000000
# 2 -0.007316 0.027575 -0.005324 0.000000 0.000000 0.000000
# 3 -0.017470 -0.005324 0.026359 0.000000 0.000000 0.000000
# 4 0.000000 0.000000 0.000000 0.040689 0.000000 0.000000
# 5 0.000000 0.000000 0.000000 0.000000 0.060082 0.000000
# 6 0.000000 0.000000 0.000000 0.000000 0.000000 0.031547
#
#
# Mechanical properties :
#
#
# Convention : Reuss Voigt Hill
#
# Bulk Modulus (GPa) = 48.18017 57.06246 52.62131
# Shear Modulus (GPa) = 17.82976 20.81625 19.32300
#
# Velocity S-wave (km/s) = 3.02990 3.27383 3.15422
# Velocity P-wave (km/s) = 6.08668 6.60842 6.35291
#
# Compressibility (1/GPa) = 0.02075543
#
# Stress axis : x y z
#
# Youngs Moduli (GPa) = 36.98105 36.26467 37.93810
#
# Poissons Ratio (x) = 0.26530 0.66277
# Poissons Ratio (y) = 0.27054 0.20200
# Poissons Ratio (z) = 0.64605 0.19309
#
# Static dielectric constant tensor:
#      x y z
#    x 1.668980 0.000000 0.000000 
#    y 0.000000 1.667660 0.000000 
#    z 0.000000 0.000000 1.716170 
# 
# From -- ./inp_files/7194.got.cif
#   From: 2010.05.17/outbox.cif.g08.bks.cpg/sg36_4_cif.got.tgz:7194.got - 2010.06.03 17:41:39.
