data_PCOD9352663
_publ_section_title
;
Structure prediction by ZEFSAII (Michael W. Deem and Ramdas Pophale) SiO2 
 PCOD9352663
Probable space group: C M C 21
;
_chemical_formula_sum "Si O2"
_cell_formula_units_Z 48
_cell_length_a 12.517271
_cell_length_b 20.685341
_cell_length_c 8.330680
_cell_angle_alpha 90.000000
_cell_angle_beta 90.000000
_cell_angle_gamma 90.000000
_cell_volume 2157.013147
_symmetry_space_group_name_H-M "C M C 21"
_symmetry_group_IT_number 36
_symmetry_cell_setting 'orthorhombic'
loop_
_space_group_symop_operation_xyz
x,y,z
-x,-y,1/2+z
x,-y,1/2+z
-x,y,z
1/2+x,1/2+y,z
1/2-x,1/2-y,1/2+z
1/2+x,1/2-y,1/2+z
1/2-x,1/2+y,z
loop_
_atom_site_type_symbol
_atom_site_label
_atom_site_fract_x
_atom_site_fract_y
_atom_site_fract_z
Si Si1 0.798864 0.317241 0.769440
Si Si2 0.871028 0.284355 0.123546
Si Si3 0.000000 0.605903 0.157530
Si Si4 0.887988 0.090562 0.254200
Si Si5 0.318287 0.512638 0.973517
Si Si6 0.307191 0.927229 0.203302
Si Si7 0.500000 0.979794 0.989910
O O1 0.714684 0.268671 0.685409
O O2 0.894777 0.349021 0.666661
O O3 0.718251 0.374912 0.813970
O O4 0.852348 0.290296 0.931514
O O5 0.829991 0.351378 0.203371
O O6 0.000000 0.275810 0.152542
O O7 0.000000 0.557863 0.005085
O O8 0.000000 0.559667 0.320460
O O9 0.000000 0.126254 0.276770
O O10 0.891432 0.023510 0.348025
O O11 0.869324 0.071854 0.069395
O O12 0.216935 0.540840 0.875415
O O13 0.290236 0.456101 0.099480
O O14 0.402584 0.956247 0.099593
#
# Coordination Sequence:
#
# PCOD9352663 Si02
#       7
#     8   8   4   8   8   8   4
#     4  12  26  48  70  99 144 194 242 300 356 433
#     4  12  26  51  72 100 147 196 244 303 355 435
#     4  12  24  48  74 110 148 178 238 311 371 437
#     4  11  22  42  65  97 137 180 234 290 358 440
#     4  10  22  37  65  99 137 177 226 302 368 430
#     4  11  20  40  65 102 138 176 233 296 370 428
#     4  12  20  38  76 108 142 176 220 315 389 413
#
# _framework density 22.252993
#
# number of rings (size 3 to 8) (size 9 to 14) (size 15 to 20)
#    0.000    0.667    5.000    4.000    2.333    0.000 
#    3.000    0.000    1.833    0.000    0.000    0.000 
#    0.000    0.000    0.000    0.000    0.000    0.000 
#
# Total GULP energy -133827.895339 kJ/mol
# GULP energy per Si atom -5576.162306 kJ/mol
# Density = 2.220234 g / cm^3
# Si number density = 22.252993 Si / 1000 Ang^3
#
#
#
# Elastic Constant Matrix: (Units=GPa)
#
#
# Indices 1 2 3 4 5 6 
#
# 1 162.4308 54.4006 22.5984 0.0000 0.0000 0.0000
# 2 54.4006 103.8301 25.9888 0.0000 0.0000 0.0000
# 3 22.5984 25.9888 63.6331 0.0000 0.0000 0.0000
# 4 0.0000 0.0000 0.0000 36.8786 0.0000 0.0000
# 5 0.0000 0.0000 0.0000 0.0000 -6.9093 0.0000
# 6 0.0000 0.0000 0.0000 0.0000 0.0000 -47.6530
#
#
#
# Elastic Compliance Matrix: (Units=1/GPa)
#
#
# Indices 1 2 3 4 5 6 
#
# 1 0.007546 -0.003657 -0.001186 0.000000 0.000000 0.000000
# 2 -0.003657 0.012500 -0.003806 0.000000 0.000000 0.000000
# 3 -0.001186 -0.003806 0.017691 0.000000 0.000000 0.000000
# 4 0.000000 0.000000 0.000000 0.027116 0.000000 0.000000
# 5 0.000000 0.000000 0.000000 0.000000 -0.144731 0.000000
# 6 0.000000 0.000000 0.000000 0.000000 0.000000 -0.020985
#
#
# Mechanical properties :
#
#
# Convention : Reuss Voigt Hill
#
# Bulk Modulus (GPa) = 48.92920 59.54108 54.23514
# Shear Modulus (GPa) = -65.14543 11.59032 -26.77756
#
# Velocity S-wave (km/s) = -5.41650 2.28467 -3.47266
# Velocity P-wave (km/s) = 4.13310 5.81156 2.88891
#
# Compressibility (1/GPa) = 0.02043769
#
# Stress axis : x y z
#
# Youngs Moduli (GPa) = 132.51603 80.00113 56.52571
#
# Poissons Ratio (x) = 0.29255 0.06706
# Poissons Ratio (y) = 0.48459 0.21516
# Poissons Ratio (z) = 0.15722 0.30452
#
# Static dielectric constant tensor:
#      x y z
#    x 1.886770 0.000000 0.000000 
#    y 0.000000 1.891920 0.000000 
#    z 0.000000 0.000000 1.854390 
# 
# From -- ./inp_files/3329.got.cif
#   From: 2010.05.17/outbox.cif.g08.bks.cpg/sg36_2_cif.got.tgz:3329.got - 2010.06.03 17:41:39.
