data_PCOD9352461
_publ_section_title
;
Structure prediction by ZEFSAII (Michael W. Deem and Ramdas Pophale) SiO2 
 PCOD9352461
Probable space group: C M C 21
;
_chemical_formula_sum "Si O2"
_cell_formula_units_Z 48
_cell_length_a 8.649581
_cell_length_b 15.448523
_cell_length_c 19.450608
_cell_angle_alpha 90.000000
_cell_angle_beta 90.000000
_cell_angle_gamma 90.000000
_cell_volume 2599.053475
_symmetry_space_group_name_H-M "C M C 21"
_symmetry_group_IT_number 36
_symmetry_cell_setting 'orthorhombic'
loop_
_space_group_symop_operation_xyz
x,y,z
-x,-y,1/2+z
x,-y,1/2+z
-x,y,z
1/2+x,1/2+y,z
1/2-x,1/2-y,1/2+z
1/2+x,1/2-y,1/2+z
1/2-x,1/2+y,z
loop_
_atom_site_type_symbol
_atom_site_label
_atom_site_fract_x
_atom_site_fract_y
_atom_site_fract_z
Si Si1 0.812927 0.144643 0.956080
Si Si2 0.813972 0.996072 0.218392
Si Si3 0.315535 0.160020 0.805465
Si Si4 0.685886 0.148338 0.313386
Si Si5 0.814047 0.004639 0.560639
Si Si6 0.814674 0.343473 0.971271
O O1 0.738170 0.130635 0.881602
O O2 0.773973 0.242343 0.979294
O O3 0.000000 0.140793 0.948125
O O4 0.762265 0.073821 0.011397
O O5 0.751898 0.907416 0.251045
O O6 0.762123 0.004392 0.139236
O O7 0.000000 0.996181 0.220705
O O8 0.751531 0.075209 0.263852
O O9 0.500000 0.161331 0.801989
O O10 0.249609 0.256603 0.795344
O O11 0.500000 0.149890 0.310243
O O12 0.730354 0.131051 0.393143
O O13 0.760399 0.093649 0.526255
O O14 0.000000 0.002561 0.561139
O O15 0.000000 0.350691 0.976303
#
# Coordination Sequence:
#
# PCOD9352461 Si02
#       6
#     8   8   8   8   8   8
#     4   9  19  38  59  80 109 145 183 231 281 329
#     4  11  23  38  55  82 118 154 188 228 277 333
#     4  11  22  37  59  86 112 147 190 232 279 333
#     4  10  21  39  61  86 112 144 187 236 283 331
#     4  10  22  37  55  80 112 148 185 224 275 331
#     4   9  19  35  57  82 109 140 179 227 279 329
#
# _framework density 18.468261999999999
#
# number of rings (size 3 to 8) (size 9 to 14) (size 15 to 20)
#    0.000    2.000    0.000    4.500    0.000    9.333 
#    0.000    1.667    0.000    0.000    0.000    0.000 
#    0.000    0.000    0.000    0.000    0.000    0.000 
#
# Total GULP energy -134076.438378 kJ/mol
# GULP energy per Si atom -5586.518266 kJ/mol
# Density = 1.842623 g / cm^3
# Si number density = 18.468262 Si / 1000 Ang^3
#
#
#
# Elastic Constant Matrix: (Units=GPa)
#
#
# Indices 1 2 3 4 5 6 
#
# 1 46.3250 12.0674 18.0158 0.0000 0.0000 0.0000
# 2 12.0674 44.6626 29.4746 0.0000 0.0000 0.0000
# 3 18.0158 29.4746 61.0715 0.0000 0.0000 0.0000
# 4 0.0000 0.0000 0.0000 -7.1271 0.0000 0.0000
# 5 0.0000 0.0000 0.0000 0.0000 14.1394 0.0000
# 6 0.0000 0.0000 0.0000 0.0000 0.0000 33.6069
#
#
#
# Elastic Compliance Matrix: (Units=1/GPa)
#
#
# Indices 1 2 3 4 5 6 
#
# 1 0.024608 -0.002727 -0.005943 0.000000 0.000000 0.000000
# 2 -0.002727 0.033156 -0.015198 0.000000 0.000000 0.000000
# 3 -0.005943 -0.015198 0.025462 0.000000 0.000000 0.000000
# 4 0.000000 0.000000 0.000000 -0.140309 0.000000 0.000000
# 5 0.000000 0.000000 0.000000 0.000000 0.070724 0.000000
# 6 0.000000 0.000000 0.000000 0.000000 0.000000 0.029756
#
#
# Mechanical properties :
#
#
# Convention : Reuss Voigt Hill
#
# Bulk Modulus (GPa) = 28.17580 30.13054 29.15317
# Shear Modulus (GPa) = 48.56041 14.29058 31.42550
#
# Velocity S-wave (km/s) = 5.13333 2.78473 4.12951
# Velocity P-wave (km/s) = 7.10100 5.16622 6.20943
#
# Compressibility (1/GPa) = 0.03549145
#
# Stress axis : x y z
#
# Youngs Moduli (GPa) = 40.63668 30.16006 39.27370
#
# Poissons Ratio (x) = 0.08224 0.23342
# Poissons Ratio (y) = 0.11080 0.59687
# Poissons Ratio (z) = 0.24152 0.45837
#
# Static dielectric constant tensor:
#      x y z
#    x 1.623330 0.000000 0.000000 
#    y 0.000000 1.616110 0.000000 
#    z 0.000000 0.000000 1.619350 
# 
# From -- ./inp_files/10374.got.cif
#   From: 2010.05.17/outbox.cif.g08.bks.cpg/sg36_6_cif.got.tgz:10374.got - 2010.06.03 17:41:39.
