data_PCOD9352938
_publ_section_title
;
Structure prediction by ZEFSAII (Michael W. Deem and Ramdas Pophale) SiO2 
 PCOD9352938
Probable space group: C M C 21
;
_chemical_formula_sum "Si O2"
_cell_formula_units_Z 56
_cell_length_a 20.390209
_cell_length_b 9.206176
_cell_length_c 15.514300
_cell_angle_alpha 90.000000
_cell_angle_beta 90.000000
_cell_angle_gamma 90.000000
_cell_volume 2912.280054
_symmetry_space_group_name_H-M "C M C 21"
_symmetry_group_IT_number 36
_symmetry_cell_setting 'orthorhombic'
loop_
_space_group_symop_operation_xyz
x,y,z
-x,-y,1/2+z
x,-y,1/2+z
-x,y,z
1/2+x,1/2+y,z
1/2-x,1/2-y,1/2+z
1/2+x,1/2-y,1/2+z
1/2-x,1/2+y,z
loop_
_atom_site_type_symbol
_atom_site_label
_atom_site_fract_x
_atom_site_fract_y
_atom_site_fract_z
Si Si1 0.621955 0.594664 0.893570
Si Si2 0.574758 0.637870 0.534986
Si Si3 0.295420 0.328329 0.687527
Si Si4 0.690739 0.124131 0.434167
Si Si5 0.242797 0.436528 0.298123
Si Si6 0.205957 0.682136 0.021456
Si Si7 0.572278 0.529106 0.213980
O O1 0.631285 0.758825 0.930368
O O2 0.696069 0.558689 0.863383
O O3 0.585161 0.558637 0.803366
O O4 0.594505 0.490105 0.967797
O O5 0.500000 0.686657 0.514849
O O6 0.633421 0.753394 0.531126
O O7 0.574542 0.577557 0.632230
O O8 0.268011 0.485096 0.712877
O O9 0.278614 0.218506 0.764333
O O10 0.256258 0.293501 0.600856
O O11 0.373184 0.350695 0.690814
O O12 0.756140 0.221633 0.449539
O O13 0.689330 0.037179 0.343681
O O14 0.696281 0.988734 0.500448
O O15 0.500000 0.594414 0.220011
#
# Coordination Sequence:
#
# PCOD9352938 Si02
#       7
#     8   8   8   8   8   8   8
#     4  11  21  40  62  93 123 169 209 263 325 376
#     4  11  24  43  65  89 127 174 218 264 323 390
#     4  11  22  36  63  93 124 163 210 268 320 373
#     4  12  21  35  61  91 128 153 204 275 316 371
#     4  11  20  35  56  92 125 153 202 265 318 366
#     4  12  22  39  61  98 126 163 215 269 323 378
#     4  10  23  42  64  90 126 169 218 260 318 396
#
# _framework density 19.228919000000001
#
# number of rings (size 3 to 8) (size 9 to 14) (size 15 to 20)
#    0.000    0.857    4.286    4.714    2.000    0.000 
#    0.000    1.429    0.000    5.143    0.000    0.000 
#    0.000    0.000    0.000    0.000    0.000    0.000 
#
# Total GULP energy -155892.996742 kJ/mol
# GULP energy per Si atom -5567.607027 kJ/mol
# Density = 1.918515 g / cm^3
# Si number density = 19.228919 Si / 1000 Ang^3
#
#
#
# Elastic Constant Matrix: (Units=GPa)
#
#
# Indices 1 2 3 4 5 6 
#
# 1 139.0882 54.6555 48.1849 0.0000 0.0000 0.0000
# 2 54.6555 94.5169 46.0909 0.0000 0.0000 0.0000
# 3 48.1849 46.0909 108.7195 0.0000 0.0000 0.0000
# 4 0.0000 0.0000 0.0000 34.7255 0.0000 0.0000
# 5 0.0000 0.0000 0.0000 0.0000 20.2564 0.0000
# 6 0.0000 0.0000 0.0000 0.0000 0.0000 27.4384
#
#
#
# Elastic Compliance Matrix: (Units=1/GPa)
#
#
# Indices 1 2 3 4 5 6 
#
# 1 0.009794 -0.004471 -0.002445 0.000000 0.000000 0.000000
# 2 -0.004471 0.015378 -0.004538 0.000000 0.000000 0.000000
# 3 -0.002445 -0.004538 0.012206 0.000000 0.000000 0.000000
# 4 0.000000 0.000000 0.000000 0.028797 0.000000 0.000000
# 5 0.000000 0.000000 0.000000 0.000000 0.049367 0.000000
# 6 0.000000 0.000000 0.000000 0.000000 0.000000 0.036445
#
#
# Mechanical properties :
#
#
# Convention : Reuss Voigt Hill
#
# Bulk Modulus (GPa) = 69.11147 71.13191 70.12169
# Shear Modulus (GPa) = 27.82124 29.37695 28.59910
#
# Velocity S-wave (km/s) = 3.80787 3.91288 3.86073
# Velocity P-wave (km/s) = 7.43993 7.58200 7.51130
#
# Compressibility (1/GPa) = 0.01446938
#
# Stress axis : x y z
#
# Youngs Moduli (GPa) = 102.10713 65.02607 81.92977
#
# Poissons Ratio (x) = 0.29073 0.20033
# Poissons Ratio (y) = 0.45651 0.37180
# Poissons Ratio (z) = 0.24967 0.29509
#
# Static dielectric constant tensor:
#      x y z
#    x 1.687130 0.000000 0.000000 
#    y 0.000000 1.682310 0.000000 
#    z 0.000000 0.000000 1.774770 
# 
# From -- ./inp_files/12831.got.cif
#   From: 2010.05.17/outbox.cif.g08.bks.cpg/sg36_7_cif.got.tgz:12831.got - 2010.06.03 17:41:39.
