data_PCOD9352341
_publ_section_title
;
Structure prediction by ZEFSAII (Michael W. Deem and Ramdas Pophale) SiO2 
 PCOD9352341
Probable space group: C M C 21
;
_chemical_formula_sum "Si O2"
_cell_formula_units_Z 64
_cell_length_a 7.982857
_cell_length_b 31.506723
_cell_length_c 12.360209
_cell_angle_alpha 90.000000
_cell_angle_beta 90.000000
_cell_angle_gamma 90.000000
_cell_volume 3108.761456
_symmetry_space_group_name_H-M "C M C 21"
_symmetry_group_IT_number 36
_symmetry_cell_setting 'orthorhombic'
loop_
_space_group_symop_operation_xyz
x,y,z
-x,-y,1/2+z
x,-y,1/2+z
-x,y,z
1/2+x,1/2+y,z
1/2-x,1/2-y,1/2+z
1/2+x,1/2-y,1/2+z
1/2-x,1/2+y,z
loop_
_atom_site_type_symbol
_atom_site_label
_atom_site_fract_x
_atom_site_fract_y
_atom_site_fract_z
Si Si1 0.798114 0.870446 0.288370
Si Si2 0.797216 0.553322 0.945835
Si Si3 0.806605 0.206972 0.938442
Si Si4 0.296517 0.080883 0.182264
Si Si5 0.701688 0.374710 0.039922
Si Si6 0.203039 0.457428 0.904324
Si Si7 0.194711 0.202084 0.386877
Si Si8 0.694524 0.823520 0.664666
O O1 0.753991 0.913096 0.354254
O O2 0.739081 0.829211 0.356545
O O3 0.737021 0.871576 0.164147
O O4 0.000000 0.867876 0.286017
O O5 0.740002 0.504947 0.930545
O O6 0.000000 0.553174 0.946744
O O7 0.736830 0.568315 0.063638
O O8 0.712205 0.251580 0.937817
O O9 0.000000 0.215176 0.909917
O O10 0.795934 0.189389 0.059782
O O11 0.500000 0.077561 0.180929
O O12 0.236911 0.053908 0.283636
O O13 0.253457 0.129622 0.201867
O O14 0.500000 0.371311 0.043911
O O15 0.744867 0.419786 0.985278
O O16 0.762370 0.335531 0.964483
O O17 0.000000 0.457617 0.904640
O O18 0.283435 0.204416 0.270812
O O19 0.000000 0.192731 0.366583
O O20 0.500000 0.824814 0.631893
#
# Coordination Sequence:
#
# PCOD9352341 Si02
#       8
#     8   8   8   8   8   8   8   8
#     4  10  23  42  60  83 121 161 197 244 300 356
#     4  10  21  37  61  90 119 154 199 248 298 353
#     4  11  24  41  63  91 121 158 205 252 305 364
#     4   9  18  35  57  86 119 152 193 246 301 348
#     4  10  23  42  60  83 121 161 197 244 300 356
#     4  10  21  37  61  90 119 154 199 248 298 353
#     4  11  24  41  63  91 121 158 205 252 305 364
#     4  11  21  39  65  88 121 160 199 252 307 358
#
# _framework density 20.586977000000001
#
# number of rings (size 3 to 8) (size 9 to 14) (size 15 to 20)
#    0.000    1.750    2.500    1.125    3.500    2.000 
#    0.000    0.625    0.000    0.000    0.000    0.000 
#    0.000    0.000    0.000    0.000    0.000    0.000 
#
# Total GULP energy -178693.797605 kJ/mol
# GULP energy per Si atom -5584.181175 kJ/mol
# Density = 2.054012 g / cm^3
# Si number density = 20.586977 Si / 1000 Ang^3
#
#
#
# Elastic Constant Matrix: (Units=GPa)
#
#
# Indices 1 2 3 4 5 6 
#
# 1 23.3642 5.7125 4.6988 0.0000 0.0000 0.0000
# 2 5.7125 101.8260 33.2479 0.0000 0.0000 0.0000
# 3 4.6988 33.2479 129.6129 0.0000 0.0000 0.0000
# 4 0.0000 0.0000 0.0000 30.8010 0.0000 0.0000
# 5 0.0000 0.0000 0.0000 0.0000 4.5229 0.0000
# 6 0.0000 0.0000 0.0000 0.0000 0.0000 24.8573
#
#
#
# Elastic Compliance Matrix: (Units=1/GPa)
#
#
# Indices 1 2 3 4 5 6 
#
# 1 0.043523 -0.002103 -0.001038 0.000000 0.000000 0.000000
# 2 -0.002103 0.010820 -0.002699 0.000000 0.000000 0.000000
# 3 -0.001038 -0.002699 0.008445 0.000000 0.000000 0.000000
# 4 0.000000 0.000000 0.000000 0.032466 0.000000 0.000000
# 5 0.000000 0.000000 0.000000 0.000000 0.221095 0.000000
# 6 0.000000 0.000000 0.000000 0.000000 0.000000 0.040230
#
#
# Mechanical properties :
#
#
# Convention : Reuss Voigt Hill
#
# Bulk Modulus (GPa) = 19.56640 38.01351 28.78996
# Shear Modulus (GPa) = 12.97702 26.11250 19.54476
#
# Velocity S-wave (km/s) = 2.51340 3.56532 3.08454
# Velocity P-wave (km/s) = 4.23649 5.95429 5.16727
#
# Compressibility (1/GPa) = 0.05110802
#
# Stress axis : x y z
#
# Youngs Moduli (GPa) = 22.97614 92.42152 118.40847
#
# Poissons Ratio (x) = 0.19432 0.12297
# Poissons Ratio (y) = 0.04831 0.31962
# Poissons Ratio (z) = 0.02386 0.24947
#
# Static dielectric constant tensor:
#      x y z
#    x 1.746710 0.000000 0.000000 
#    y 0.000000 1.713800 0.000000 
#    z 0.000000 0.000000 1.707420 
# 
# From -- ./inp_files/7192.got.cif
#   From: 2010.05.17/outbox.cif.g08.bks.cpg/sg36_4_cif.got.tgz:7192.got - 2010.06.03 17:41:39.
