data_PCOD9352710
_publ_section_title
;
Structure prediction by ZEFSAII (Michael W. Deem and Ramdas Pophale) SiO2 
 PCOD9352710
Probable space group: C M C 21
;
_chemical_formula_sum "Si O2"
_cell_formula_units_Z 32
_cell_length_a 20.865656
_cell_length_b 4.863254
_cell_length_c 12.444106
_cell_angle_alpha 90.000000
_cell_angle_beta 90.000000
_cell_angle_gamma 90.000000
_cell_volume 1262.765470
_symmetry_space_group_name_H-M "C M C 21"
_symmetry_group_IT_number 36
_symmetry_cell_setting 'orthorhombic'
loop_
_space_group_symop_operation_xyz
x,y,z
-x,-y,1/2+z
x,-y,1/2+z
-x,y,z
1/2+x,1/2+y,z
1/2-x,1/2-y,1/2+z
1/2+x,1/2-y,1/2+z
1/2-x,1/2+y,z
loop_
_atom_site_type_symbol
_atom_site_label
_atom_site_fract_x
_atom_site_fract_y
_atom_site_fract_z
Si Si1 0.898764 0.325648 0.429880
Si Si2 0.500000 0.951401 0.613872
Si Si3 0.700079 0.217498 0.319837
Si Si4 0.206366 0.757639 0.077909
Si Si5 0.500000 0.441213 0.769433
O O1 0.941476 0.414586 0.531275
O O2 0.861873 0.584174 0.377144
O O3 0.843630 0.152715 0.488877
O O4 0.939596 0.152300 0.343736
O O5 0.500000 0.744857 0.717224
O O6 0.500000 0.250704 0.664617
O O7 0.745492 0.482364 0.334000
O O8 0.678079 0.269514 0.196771
O O9 0.230936 0.445840 0.068661
#
# Coordination Sequence:
#
# PCOD9352710 Si02
#       5
#     8   4   8   8   4
#     4  11  24  44  72  94 132 181 222 272 340 403
#     4  11  28  47  66  96 130 173 230 285 330 388
#     4  10  22  39  64 100 135 168 211 265 326 397
#     4  10  22  39  64 100 135 168 211 265 326 397
#     4  11  28  47  66  96 130 173 230 285 330 388
#
# _framework density 25.341204999999999
#
# number of rings (size 3 to 8) (size 9 to 14) (size 15 to 20)
#    0.000    1.500    0.000    3.000    0.000   18.000 
#    0.000    0.000    0.000    0.000    0.000    0.000 
#    0.000    0.000    0.000    0.000    0.000    0.000 
#
# Total GULP energy -89455.118331 kJ/mol
# GULP energy per Si atom -5590.944896 kJ/mol
# Density = 2.528353 g / cm^3
# Si number density = 25.341205 Si / 1000 Ang^3
#
#
#
# Elastic Constant Matrix: (Units=GPa)
#
#
# Indices 1 2 3 4 5 6 
#
# 1 100.6523 -0.9896 58.2503 0.0000 0.0000 0.0000
# 2 -0.9896 92.7917 -4.9562 0.0000 0.0000 0.0000
# 3 58.2503 -4.9562 128.7055 0.0000 0.0000 0.0000
# 4 0.0000 0.0000 0.0000 13.5126 0.0000 0.0000
# 5 0.0000 0.0000 0.0000 0.0000 45.1156 0.0000
# 6 0.0000 0.0000 0.0000 0.0000 0.0000 20.5678
#
#
#
# Elastic Compliance Matrix: (Units=1/GPa)
#
#
# Indices 1 2 3 4 5 6 
#
# 1 0.013464 -0.000182 -0.006101 0.000000 0.000000 0.000000
# 2 -0.000182 0.010802 0.000498 0.000000 0.000000 0.000000
# 3 -0.006101 0.000498 0.010550 0.000000 0.000000 0.000000
# 4 0.000000 0.000000 0.000000 0.074005 0.000000 0.000000
# 5 0.000000 0.000000 0.000000 0.000000 0.022165 0.000000
# 6 0.000000 0.000000 0.000000 0.000000 0.000000 0.048620
#
#
# Mechanical properties :
#
#
# Convention : Reuss Voigt Hill
#
# Bulk Modulus (GPa) = 43.01719 47.41761 45.21740
# Shear Modulus (GPa) = 25.13535 33.82887 29.48211
#
# Velocity S-wave (km/s) = 3.15282 3.65764 3.41457
# Velocity P-wave (km/s) = 5.50143 6.04897 5.78169
#
# Compressibility (1/GPa) = 0.02324652
#
# Stress axis : x y z
#
# Youngs Moduli (GPa) = 74.27207 92.57966 94.78727
#
# Poissons Ratio (x) = 0.01687 0.57826
# Poissons Ratio (y) = 0.01354 -0.04725
# Poissons Ratio (z) = 0.45311 -0.04615
#
# Static dielectric constant tensor:
#      x y z
#    x 2.071810 0.000000 0.000000 
#    y 0.000000 2.004680 0.000000 
#    z 0.000000 0.000000 2.082680 
# 
# From -- ./inp_files/12733.got.cif
#   From: 2010.05.17/outbox.cif.g08.bks.cpg/sg36_7_cif.got.tgz:12733.got - 2010.06.03 17:41:39.
