data_PCOD9352829
_publ_section_title
;
Structure prediction by ZEFSAII (Michael W. Deem and Ramdas Pophale) SiO2 
 PCOD9352829
Probable space group: C M C 21
;
_chemical_formula_sum "Si O2"
_cell_formula_units_Z 64
_cell_length_a 8.838916
_cell_length_b 24.153331
_cell_length_c 15.335455
_cell_angle_alpha 90.000000
_cell_angle_beta 90.000000
_cell_angle_gamma 90.000000
_cell_volume 3273.954998
_symmetry_space_group_name_H-M "C M C 21"
_symmetry_group_IT_number 36
_symmetry_cell_setting 'orthorhombic'
loop_
_space_group_symop_operation_xyz
x,y,z
-x,-y,1/2+z
x,-y,1/2+z
-x,y,z
1/2+x,1/2+y,z
1/2-x,1/2-y,1/2+z
1/2+x,1/2-y,1/2+z
1/2-x,1/2+y,z
loop_
_atom_site_type_symbol
_atom_site_label
_atom_site_fract_x
_atom_site_fract_y
_atom_site_fract_z
Si Si1 0.318157 0.302480 0.045340
Si Si2 0.682206 0.432463 0.044097
Si Si3 0.318526 0.493820 0.376458
Si Si4 0.820227 0.241090 0.877437
Si Si5 0.322667 0.730668 0.197761
Si Si6 0.673961 0.873975 0.405539
Si Si7 0.829514 0.369765 0.613375
Si Si8 0.821750 0.509023 0.190388
O O1 0.500000 0.296908 0.046989
O O2 0.249614 0.275892 0.132795
O O3 0.279274 0.367542 0.037953
O O4 0.254206 0.268899 0.962588
O O5 0.500000 0.436493 0.051359
O O6 0.728018 0.466368 0.956908
O O7 0.754532 0.461353 0.128560
O O8 0.500000 0.490750 0.376848
O O9 0.248637 0.432950 0.387727
O O10 0.260371 0.513996 0.282938
O O11 0.759330 0.269881 0.790533
O O12 0.767167 0.177459 0.868865
O O13 0.000000 0.244411 0.884673
O O14 0.500000 0.741024 0.208719
O O15 0.291188 0.671687 0.153103
O O16 0.500000 0.872862 0.374372
O O17 0.673126 0.866017 0.509580
O O18 0.803401 0.432791 0.640690
O O19 0.000000 0.353578 0.642791
O O20 0.000000 0.499203 0.204187
#
# Coordination Sequence:
#
# PCOD9352829 Si02
#       8
#     8   8   8   8   8   8   8   8
#     4  11  24  45  67  94 132 171 215 268 322 384
#     4  10  24  44  66  92 128 171 213 262 320 382
#     4  11  24  42  65  96 131 170 214 262 320 383
#     4  12  26  44  67  97 130 171 216 266 324 385
#     4  12  26  43  67  97 129 172 217 265 323 386
#     4  11  22  42  69  95 127 167 214 268 321 379
#     4  10  22  42  67  95 128 166 211 269 325 380
#     4  11  24  42  66  96 129 168 214 264 321 379
#
# _framework density 19.548224000000001
#
# number of rings (size 3 to 8) (size 9 to 14) (size 15 to 20)
#    0.000    1.000    2.500    3.750    3.500    3.000 
#    0.000    0.000    0.000    0.000    0.000    0.000 
#    0.000    0.000    0.000    0.000    0.000    0.000 
#
# Total GULP energy -178976.498828 kJ/mol
# GULP energy per Si atom -5593.015588 kJ/mol
# Density = 1.950373 g / cm^3
# Si number density = 19.548224 Si / 1000 Ang^3
#
#
#
# Elastic Constant Matrix: (Units=GPa)
#
#
# Indices 1 2 3 4 5 6 
#
# 1 82.2426 21.5101 7.5830 0.0000 0.0000 0.0000
# 2 21.5101 56.2445 -19.5411 0.0000 0.0000 0.0000
# 3 7.5830 -19.5411 48.7116 0.0000 0.0000 0.0000
# 4 0.0000 0.0000 0.0000 14.9756 0.0000 0.0000
# 5 0.0000 0.0000 0.0000 0.0000 20.7467 0.0000
# 6 0.0000 0.0000 0.0000 0.0000 0.0000 21.6059
#
#
#
# Elastic Compliance Matrix: (Units=1/GPa)
#
#
# Indices 1 2 3 4 5 6 
#
# 1 0.014575 -0.007393 -0.005235 0.000000 0.000000 0.000000
# 2 -0.007393 0.024409 0.010943 0.000000 0.000000 0.000000
# 3 -0.005235 0.010943 0.025734 0.000000 0.000000 0.000000
# 4 0.000000 0.000000 0.000000 0.066775 0.000000 0.000000
# 5 0.000000 0.000000 0.000000 0.000000 0.048200 0.000000
# 6 0.000000 0.000000 0.000000 0.000000 0.000000 0.046284
#
#
# Mechanical properties :
#
#
# Convention : Reuss Voigt Hill
#
# Bulk Modulus (GPa) = 16.30051 22.92250 19.61151
# Shear Modulus (GPa) = 20.01633 23.30876 21.66255
#
# Velocity S-wave (km/s) = 3.20339 3.45682 3.33251
# Velocity P-wave (km/s) = 4.69457 5.26160 4.98615
#
# Compressibility (1/GPa) = 0.06134776
#
# Stress axis : x y z
#
# Youngs Moduli (GPa) = 68.60891 40.96907 38.85966
#
# Poissons Ratio (x) = 0.30288 0.20342
# Poissons Ratio (y) = 0.50722 -0.42523
# Poissons Ratio (z) = 0.35915 -0.44831
#
# Static dielectric constant tensor:
#      x y z
#    x 1.664380 0.000000 0.000000 
#    y 0.000000 1.675350 0.000000 
#    z 0.000000 0.000000 1.660930 
# 
# From -- ./inp_files/11072.got.cif
#   From: 2010.05.17/outbox.cif.g08.bks.cpg/sg36_6_cif.got.tgz:11072.got - 2010.06.03 17:41:39.
