data_PCOD9352549
_publ_section_title
;
Structure prediction by ZEFSAII (Michael W. Deem and Ramdas Pophale) SiO2 
 PCOD9352549
Probable space group: C M C 21
;
_chemical_formula_sum "Si O2"
_cell_formula_units_Z 64
_cell_length_a 8.853595
_cell_length_b 20.087481
_cell_length_c 18.375646
_cell_angle_alpha 90.000000
_cell_angle_beta 90.000000
_cell_angle_gamma 90.000000
_cell_volume 3268.042881
_symmetry_space_group_name_H-M "C M C 21"
_symmetry_group_IT_number 36
_symmetry_cell_setting 'orthorhombic'
loop_
_space_group_symop_operation_xyz
x,y,z
-x,-y,1/2+z
x,-y,1/2+z
-x,y,z
1/2+x,1/2+y,z
1/2-x,1/2-y,1/2+z
1/2+x,1/2-y,1/2+z
1/2-x,1/2+y,z
loop_
_atom_site_type_symbol
_atom_site_label
_atom_site_fract_x
_atom_site_fract_y
_atom_site_fract_z
Si Si1 0.818278 0.636075 0.757340
Si Si2 0.319231 0.553310 0.484942
Si Si3 0.181386 0.078123 0.904657
Si Si4 0.818423 0.529150 0.640409
Si Si5 0.820636 0.382383 0.688875
Si Si6 0.318611 0.673617 0.041259
Si Si7 0.680792 0.802932 0.954564
Si Si8 0.319318 0.718554 0.298150
O O1 0.756261 0.604143 0.831382
O O2 0.770099 0.592357 0.688415
O O3 0.775389 0.713681 0.755920
O O4 0.000000 0.632941 0.759547
O O5 0.500000 0.559138 0.483533
O O6 0.274731 0.496967 0.426388
O O7 0.265221 0.528394 0.563713
O O8 0.245182 0.624444 0.470722
O O9 0.219359 0.125534 0.973252
O O10 0.000000 0.080801 0.896345
O O11 0.787002 0.460928 0.683420
O O12 0.000000 0.532551 0.627939
O O13 0.764867 0.349775 0.613469
O O14 0.739187 0.345091 0.754590
O O15 0.000000 0.374323 0.696410
O O16 0.500000 0.669356 0.053138
O O17 0.281147 0.748524 0.016191
O O18 0.500000 0.805424 0.949396
O O19 0.747791 0.778929 0.877941
O O20 0.500000 0.716276 0.304195
#
# Coordination Sequence:
#
# PCOD9352549 Si02
#       8
#     8   8   8   8   8   8   8   8
#     4  10  23  41  63  89 121 161 206 252 303 362
#     4  11  24  41  63  94 126 160 203 255 310 365
#     4  10  21  40  64  90 120 156 201 249 305 364
#     4  10  23  43  62  89 124 163 207 250 302 364
#     4  11  24  40  63  92 125 164 207 253 304 368
#     4  10  21  41  65  88 119 160 203 252 306 360
#     4  11  24  42  65  90 123 163 205 256 309 366
#     4  11  24  42  63  90 126 163 204 255 307 365
#
# _framework density 19.583587000000001
#
# number of rings (size 3 to 8) (size 9 to 14) (size 15 to 20)
#    0.000    1.500    2.500    1.500    3.500    4.000 
#    0.000    0.000    0.000    0.000    0.000    0.000 
#    0.000    0.000    0.000    0.000    0.000    0.000 
#
# Total GULP energy -178905.837166 kJ/mol
# GULP energy per Si atom -5590.807411 kJ/mol
# Density = 1.953901 g / cm^3
# Si number density = 19.583587 Si / 1000 Ang^3
#
#
#
# Elastic Constant Matrix: (Units=GPa)
#
#
# Indices 1 2 3 4 5 6 
#
# 1 27.0739 27.0739 1.3801 0.0000 0.0000 0.0000
# 2 27.0739 96.0537 -16.5450 0.0000 0.0000 0.0000
# 3 1.3801 -16.5450 15.5895 0.0000 0.0000 0.0000
# 4 0.0000 0.0000 0.0000 38.3073 0.0000 0.0000
# 5 0.0000 0.0000 0.0000 0.0000 36.7609 0.0000
# 6 0.0000 0.0000 0.0000 0.0000 0.0000 29.4816
#
#
#
# Elastic Compliance Matrix: (Units=1/GPa)
#
#
# Indices 1 2 3 4 5 6 
#
# 1 0.060329 -0.021934 -0.028619 0.000000 0.000000 0.000000
# 2 -0.021934 0.020714 0.023926 0.000000 0.000000 0.000000
# 3 -0.028619 0.023926 0.092072 0.000000 0.000000 0.000000
# 4 0.000000 0.000000 0.000000 0.026105 0.000000 0.000000
# 5 0.000000 0.000000 0.000000 0.000000 0.027203 0.000000
# 6 0.000000 0.000000 0.000000 0.000000 0.000000 0.033919
#
#
# Mechanical properties :
#
#
# Convention : Reuss Voigt Hill
#
# Bulk Modulus (GPa) = 8.34307 18.05946 13.20127
# Shear Modulus (GPa) = 14.14229 29.36383 21.75306
#
# Velocity S-wave (km/s) = 2.69020 3.87642 3.33645
# Velocity P-wave (km/s) = 3.73082 5.41085 4.64738
#
# Compressibility (1/GPa) = 0.11985996
#
# Stress axis : x y z
#
# Youngs Moduli (GPa) = 16.57585 48.27573 10.86112
#
# Poissons Ratio (x) = 1.05888 0.31084
# Poissons Ratio (y) = 0.36357 -0.25986
# Poissons Ratio (z) = 0.47439 -1.15503
#
# Static dielectric constant tensor:
#      x y z
#    x 1.652820 0.000000 0.000000 
#    y 0.000000 1.699770 0.000000 
#    z 0.000000 0.000000 1.649630 
# 
# From -- ./inp_files/13966.got.cif
#   From: 2010.05.17/outbox.cif.g08.bks.cpg/sg36_7_cif.got.tgz:13966.got - 2010.06.03 17:41:39.
