data_PCOD9352505
_publ_section_title
;
Structure prediction by ZEFSAII (Michael W. Deem and Ramdas Pophale) SiO2 
 PCOD9352505
Probable space group: C M C 21
;
_chemical_formula_sum "Si O2"
_cell_formula_units_Z 52
_cell_length_a 15.158820
_cell_length_b 7.984301
_cell_length_c 17.770329
_cell_angle_alpha 90.000000
_cell_angle_beta 90.000000
_cell_angle_gamma 90.000000
_cell_volume 2150.788796
_symmetry_space_group_name_H-M "C M C 21"
_symmetry_group_IT_number 36
_symmetry_cell_setting 'orthorhombic'
loop_
_space_group_symop_operation_xyz
x,y,z
-x,-y,1/2+z
x,-y,1/2+z
-x,y,z
1/2+x,1/2+y,z
1/2-x,1/2-y,1/2+z
1/2+x,1/2-y,1/2+z
1/2-x,1/2+y,z
loop_
_atom_site_type_symbol
_atom_site_label
_atom_site_fract_x
_atom_site_fract_y
_atom_site_fract_z
Si Si1 0.398334 0.628587 0.581600
Si Si2 0.178321 0.011722 0.432602
Si Si3 0.341385 0.957023 0.532451
Si Si4 0.865923 0.402511 0.276767
Si Si5 0.500000 0.110501 0.913874
Si Si6 0.100946 0.232584 0.121402
Si Si7 0.695036 0.237319 0.327271
O O1 0.500000 0.653373 0.601499
O O2 0.389959 0.592357 0.490916
O O3 0.350723 0.805073 0.591554
O O4 0.366122 0.459394 0.621762
O O5 0.252016 0.933601 0.487073
O O6 0.140894 0.866569 0.379149
O O7 0.238362 0.133328 0.381738
O O8 0.422780 0.944040 0.474923
O O9 0.345328 0.137984 0.570559
O O10 0.902160 0.316299 0.202808
O O11 0.763828 0.344692 0.279453
O O12 0.863233 0.604478 0.282581
O O13 0.922758 0.350191 0.349415
O O14 0.000000 0.222574 0.091511
#
# Coordination Sequence:
#
# PCOD9352505 Si02
#       7
#     8   8   8   8   4   8   8
#     4  11  24  40  67  98 132 170 223 274 334 397
#     4  11  20  40  63 101 130 167 217 288 325 382
#     4  12  23  42  73 100 134 176 227 278 338 394
#     4  11  24  43  66  92 134 178 218 273 345 400
#     4  12  20  40  76  94 124 186 218 272 344 388
#     4  11  25  44  65  97 140 177 220 277 337 408
#     4  10  21  39  65  91 129 165 221 272 327 392
#
# _framework density 24.177175999999999
#
# number of rings (size 3 to 8) (size 9 to 14) (size 15 to 20)
#    0.000    0.923    6.923    0.923    0.000    1.231 
#    5.538    0.000    0.000    0.000    0.000    0.000 
#    0.000    0.000    0.000    0.000    0.000    0.000 
#
# Total GULP energy -144859.466431 kJ/mol
# GULP energy per Si atom -5571.517940 kJ/mol
# Density = 2.412215 g / cm^3
# Si number density = 24.177176 Si / 1000 Ang^3
#
#
#
# Elastic Constant Matrix: (Units=GPa)
#
#
# Indices 1 2 3 4 5 6 
#
# 1 55.6813 1.0128 -6.7668 0.0000 0.0000 0.0000
# 2 1.0128 84.8693 -12.1664 0.0000 0.0000 0.0000
# 3 -6.7668 -12.1664 53.4807 0.0000 0.0000 0.0000
# 4 0.0000 0.0000 0.0000 24.5048 0.0000 0.0000
# 5 0.0000 0.0000 0.0000 0.0000 22.8293 0.0000
# 6 0.0000 0.0000 0.0000 0.0000 0.0000 -4.2646
#
#
#
# Elastic Compliance Matrix: (Units=1/GPa)
#
#
# Indices 1 2 3 4 5 6 
#
# 1 0.018241 0.000117 0.002335 0.000000 0.000000 0.000000
# 2 0.000117 0.012181 0.002786 0.000000 0.000000 0.000000
# 3 0.002335 0.002786 0.019627 0.000000 0.000000 0.000000
# 4 0.000000 0.000000 0.000000 0.040808 0.000000 0.000000
# 5 0.000000 0.000000 0.000000 0.000000 0.043803 0.000000
# 6 0.000000 0.000000 0.000000 0.000000 0.000000 -0.234490
#
#
# Mechanical properties :
#
#
# Convention : Reuss Voigt Hill
#
# Bulk Modulus (GPa) = 16.52235 17.57672 17.04953
# Shear Modulus (GPa) = -55.47615 22.74402 -16.36607
#
# Velocity S-wave (km/s) = -4.79536 3.07045 -2.60460
# Velocity P-wave (km/s) = 4.87975 4.45600 1.40641
#
# Compressibility (1/GPa) = 0.06052409
#
# Stress axis : x y z
#
# Youngs Moduli (GPa) = 54.82175 82.09652 50.94896
#
# Poissons Ratio (x) = -0.00961 -0.11895
# Poissons Ratio (y) = -0.00641 -0.14194
# Poissons Ratio (z) = -0.12799 -0.22871
#
# Static dielectric constant tensor:
#      x y z
#    x 1.890260 0.000000 0.000000 
#    y 0.000000 2.006580 0.000000 
#    z 0.000000 0.000000 1.938520 
# 
# From -- ./inp_files/14855.got.cif
#   From: 2010.05.17/outbox.cif.g08.bks.cpg/sg36_8_cif.got.tgz:14855.got - 2010.06.03 17:41:39.
