data_PCOD9352522
_publ_section_title
;
Structure prediction by ZEFSAII (Michael W. Deem and Ramdas Pophale) SiO2 
 PCOD9352522
Probable space group: C M C 21
;
_chemical_formula_sum "Si O2"
_cell_formula_units_Z 64
_cell_length_a 9.105703
_cell_length_b 24.386043
_cell_length_c 15.502658
_cell_angle_alpha 90.000000
_cell_angle_beta 90.000000
_cell_angle_gamma 90.000000
_cell_volume 3442.397220
_symmetry_space_group_name_H-M "C M C 21"
_symmetry_group_IT_number 36
_symmetry_cell_setting 'orthorhombic'
loop_
_space_group_symop_operation_xyz
x,y,z
-x,-y,1/2+z
x,-y,1/2+z
-x,y,z
1/2+x,1/2+y,z
1/2-x,1/2-y,1/2+z
1/2+x,1/2-y,1/2+z
1/2-x,1/2+y,z
loop_
_atom_site_type_symbol
_atom_site_label
_atom_site_fract_x
_atom_site_fract_y
_atom_site_fract_z
Si Si1 0.328270 0.734824 0.489130
Si Si2 0.324536 0.739741 0.815455
Si Si3 0.676243 0.003953 0.822513
Si Si4 0.322327 0.936860 0.649661
Si Si5 0.334319 0.375153 0.099214
Si Si6 0.678512 0.809263 0.647637
Si Si7 0.327675 0.871474 0.273610
Si Si8 0.171007 0.008939 0.503523
O O1 0.500000 0.746102 0.468941
O O2 0.236247 0.733679 0.402309
O O3 0.320987 0.676675 0.537028
O O4 0.275753 0.780294 0.558430
O O5 0.500000 0.739253 0.814861
O O6 0.274198 0.773075 0.730060
O O7 0.262869 0.678184 0.813587
O O8 0.500000 0.998085 0.831693
O O9 0.719580 0.969274 0.737449
O O10 0.754950 0.986925 0.910169
O O11 0.709313 0.068171 0.808127
O O12 0.500000 0.939610 0.642545
O O13 0.278628 0.872887 0.654236
O O14 0.252267 0.966395 0.566916
O O15 0.500000 0.627519 0.638170
O O16 0.214179 0.372119 0.173188
O O17 0.321097 0.431740 0.048552
O O18 0.500000 0.807673 0.647672
O O19 0.500000 0.862079 0.286983
O O20 0.000000 0.993724 0.494999
#
# Coordination Sequence:
#
# PCOD9352522 Si02
#       8
#     8   8   8   8   8   8   8   8
#     4  10  21  40  61  86 119 159 198 237 291 355
#     4  11  23  40  61  90 121 155 196 245 300 350
#     4  10  23  40  61  87 118 158 202 245 290 348
#     4  10  21  41  63  86 117 158 203 245 288 349
#     4  10  21  40  63  86 120 157 194 246 304 351
#     4   9  20  39  62  83 116 159 194 235 295 351
#     4  11  22  39  63  89 115 154 204 248 294 351
#     4  11  24  39  60  91 122 156 195 245 306 355
#
# _framework density 18.591694
#
# number of rings (size 3 to 8) (size 9 to 14) (size 15 to 20)
#    0.000    1.750    2.500    1.125    3.500    2.500 
#    0.000    1.250    0.000    0.000    0.000    0.000 
#    0.000    0.000    0.000    0.000    0.000    0.000 
#
# Total GULP energy -178700.378176 kJ/mol
# GULP energy per Si atom -5584.386818 kJ/mol
# Density = 1.854938 g / cm^3
# Si number density = 18.591694 Si / 1000 Ang^3
#
#
#
# Elastic Constant Matrix: (Units=GPa)
#
#
# Indices 1 2 3 4 5 6 
#
# 1 19.6290 13.4753 5.1096 0.0000 0.0000 0.0000
# 2 13.4753 66.7394 -13.0370 0.0000 0.0000 0.0000
# 3 5.1096 -13.0370 47.0069 0.0000 0.0000 0.0000
# 4 0.0000 0.0000 0.0000 -125.9567 0.0000 0.0000
# 5 0.0000 0.0000 0.0000 0.0000 34.1139 0.0000
# 6 0.0000 0.0000 0.0000 0.0000 0.0000 18.9502
#
#
#
# Elastic Compliance Matrix: (Units=1/GPa)
#
#
# Indices 1 2 3 4 5 6 
#
# 1 0.064267 -0.015162 -0.011191 0.000000 0.000000 0.000000
# 2 -0.015162 0.019419 0.007034 0.000000 0.000000 0.000000
# 3 -0.011191 0.007034 0.024441 0.000000 0.000000 0.000000
# 4 0.000000 0.000000 0.000000 -0.007939 0.000000 0.000000
# 5 0.000000 0.000000 0.000000 0.000000 0.029314 0.000000
# 6 0.000000 0.000000 0.000000 0.000000 0.000000 0.052770
#
#
# Mechanical properties :
#
#
# Convention : Reuss Voigt Hill
#
# Bulk Modulus (GPa) = 14.39093 16.05236 15.22165
# Shear Modulus (GPa) = 20.48577 -6.05671 7.21453
#
# Velocity S-wave (km/s) = 3.32306 -1.80688 1.97204
# Velocity P-wave (km/s) = 4.74140 2.07360 3.65928
#
# Compressibility (1/GPa) = 0.06948823
#
# Stress axis : x y z
#
# Youngs Moduli (GPa) = 15.56014 51.49596 40.91536
#
# Poissons Ratio (x) = 0.78079 0.45788
# Poissons Ratio (y) = 0.23592 -0.28779
# Poissons Ratio (z) = 0.17413 -0.36221
#
# Static dielectric constant tensor:
#      x y z
#    x 1.630520 0.000000 0.000000 
#    y 0.000000 1.924370 0.000000 
#    z 0.000000 0.000000 1.620120 
# 
# From -- ./inp_files/10968.got.cif
#   From: 2010.05.17/outbox.cif.g08.bks.cpg/sg36_6_cif.got.tgz:10968.got - 2010.06.03 17:41:39.
