data_PCOD9352853
_publ_section_title
;
Structure prediction by ZEFSAII (Michael W. Deem and Ramdas Pophale) SiO2 
 PCOD9352853
Probable space group: C M C 21
;
_chemical_formula_sum "Si O2"
_cell_formula_units_Z 32
_cell_length_a 27.281678
_cell_length_b 4.903935
_cell_length_c 8.690912
_cell_angle_alpha 90.000000
_cell_angle_beta 90.000000
_cell_angle_gamma 90.000000
_cell_volume 1162.736046
_symmetry_space_group_name_H-M "C M C 21"
_symmetry_group_IT_number 36
_symmetry_cell_setting 'orthorhombic'
loop_
_space_group_symop_operation_xyz
x,y,z
-x,-y,1/2+z
x,-y,1/2+z
-x,y,z
1/2+x,1/2+y,z
1/2-x,1/2-y,1/2+z
1/2+x,1/2-y,1/2+z
1/2-x,1/2+y,z
loop_
_atom_site_type_symbol
_atom_site_label
_atom_site_fract_x
_atom_site_fract_y
_atom_site_fract_z
Si Si1 0.344985 0.595699 0.795490
Si Si2 0.088037 0.213843 0.540504
Si Si3 0.000000 0.521823 0.379442
Si Si4 0.283130 0.787718 0.076166
Si Si5 0.000000 0.878003 0.615694
O O1 0.372230 0.790106 0.670720
O O2 0.318422 0.352545 0.701704
O O3 0.383341 0.457323 0.912895
O O4 0.307528 0.745720 0.909281
O O5 0.051466 0.421344 0.455303
O O6 0.050049 0.032683 0.638357
O O7 0.000000 0.398738 0.211585
O O8 0.000000 0.834047 0.429571
O O9 0.234510 0.597656 0.087697
#
# Coordination Sequence:
#
# PCOD9352853 Si02
#       5
#     8   8   4   8   4
#     4  10  22  43  66  96 128 176 226 287 336 420
#     4  10  22  45  60  94 138 172 226 275 336 402
#     4  11  24  40  65  93 137 181 223 277 344 406
#     4  11  24  47  70  99 136 179 226 285 358 409
#     4  11  24  40  65  93 137 181 223 277 344 406
#
# _framework density 27.521291999999999
#
# number of rings (size 3 to 8) (size 9 to 14) (size 15 to 20)
#    0.000    1.500    2.500    1.500    3.500    0.000 
#   27.000    0.000    0.000    0.000    0.000    0.000 
#    0.000    0.000    0.000    0.000    0.000    0.000 
#
# Total GULP energy -89674.618304 kJ/mol
# GULP energy per Si atom -5604.663644 kJ/mol
# Density = 2.745865 g / cm^3
# Si number density = 27.521292 Si / 1000 Ang^3
#
#
#
# Elastic Constant Matrix: (Units=GPa)
#
#
# Indices 1 2 3 4 5 6 
#
# 1 146.8605 11.8181 55.9418 0.0000 0.0000 0.0000
# 2 11.8181 55.0492 -0.6550 0.0000 0.0000 0.0000
# 3 55.9418 -0.6550 145.8289 0.0000 0.0000 0.0000
# 4 0.0000 0.0000 0.0000 32.5918 0.0000 0.0000
# 5 0.0000 0.0000 0.0000 0.0000 71.0264 0.0000
# 6 0.0000 0.0000 0.0000 0.0000 0.0000 26.4384
#
#
#
# Elastic Compliance Matrix: (Units=1/GPa)
#
#
# Indices 1 2 3 4 5 6 
#
# 1 0.008146 -0.001786 -0.003133 0.000000 0.000000 0.000000
# 2 -0.001786 0.018558 0.000769 0.000000 0.000000 0.000000
# 3 -0.003133 0.000769 0.008063 0.000000 0.000000 0.000000
# 4 0.000000 0.000000 0.000000 0.030683 0.000000 0.000000
# 5 0.000000 0.000000 0.000000 0.000000 0.014079 0.000000
# 6 0.000000 0.000000 0.000000 0.000000 0.000000 0.037824
#
#
# Mechanical properties :
#
#
# Convention : Reuss Voigt Hill
#
# Bulk Modulus (GPa) = 37.78455 53.54984 45.66719
# Shear Modulus (GPa) = 37.18129 44.72022 40.95076
#
# Velocity S-wave (km/s) = 3.67958 4.03542 3.86160
# Velocity P-wave (km/s) = 5.64017 6.41971 6.04252
#
# Compressibility (1/GPa) = 0.02646585
#
# Stress axis : x y z
#
# Youngs Moduli (GPa) = 122.75422 53.88464 124.02811
#
# Poissons Ratio (x) = 0.09625 0.38859
# Poissons Ratio (y) = 0.21926 -0.09532
# Poissons Ratio (z) = 0.38460 -0.04141
#
# Static dielectric constant tensor:
#      x y z
#    x 2.103920 0.000000 0.000000 
#    y 0.000000 2.120870 0.000000 
#    z 0.000000 0.000000 2.101910 
# 
# From -- ./inp_files/5889.got.cif
#   From: 2010.05.17/outbox.cif.g08.bks.cpg/sg36_3_cif.got.tgz:5889.got - 2010.06.03 17:41:39.
