data_PCOD9352410
_publ_section_title
;
Structure prediction by ZEFSAII (Michael W. Deem and Ramdas Pophale) SiO2 
 PCOD9352410
Probable space group: C M C 21
;
_chemical_formula_sum "Si O2"
_cell_formula_units_Z 48
_cell_length_a 8.692237
_cell_length_b 24.537611
_cell_length_c 12.251428
_cell_angle_alpha 90.000000
_cell_angle_beta 90.000000
_cell_angle_gamma 90.000000
_cell_volume 2613.067019
_symmetry_space_group_name_H-M "C M C 21"
_symmetry_group_IT_number 36
_symmetry_cell_setting 'orthorhombic'
loop_
_space_group_symop_operation_xyz
x,y,z
-x,-y,1/2+z
x,-y,1/2+z
-x,y,z
1/2+x,1/2+y,z
1/2-x,1/2-y,1/2+z
1/2+x,1/2-y,1/2+z
1/2-x,1/2+y,z
loop_
_atom_site_type_symbol
_atom_site_label
_atom_site_fract_x
_atom_site_fract_y
_atom_site_fract_z
Si Si1 0.684539 0.608157 0.318970
Si Si2 0.184875 0.358796 0.477467
Si Si3 0.684463 0.961129 0.623361
Si Si4 0.186016 0.708484 0.189017
Si Si5 0.685563 0.331126 0.241549
Si Si6 0.186142 0.920966 0.065415
O O1 0.500000 0.608149 0.313252
O O2 0.749444 0.562967 0.235899
O O3 0.746394 0.666021 0.275984
O O4 0.731554 0.595731 0.442835
O O5 0.227826 0.417247 0.529559
O O6 0.229045 0.314127 0.569152
O O7 0.258453 0.347350 0.361334
O O8 0.000000 0.357493 0.466528
O O9 0.500000 0.961860 0.630306
O O10 0.747507 0.020440 0.596699
O O11 0.236839 0.770067 0.210657
O O12 0.000000 0.705934 0.195485
O O13 0.500000 0.330779 0.240689
O O14 0.736658 0.375295 0.152144
O O15 0.000000 0.923887 0.068361
#
# Coordination Sequence:
#
# PCOD9352410 Si02
#       6
#     8   8   8   8   8   8
#     4  10  21  38  62  87 114 150 193 238 285 341
#     4   9  20  38  59  83 112 149 190 234 284 337
#     4  10  22  40  61  84 116 153 190 237 288 342
#     4   9  20  39  60  83 116 153 189 233 286 340
#     4  10  22  38  58  85 117 150 188 235 284 336
#     4  10  23  39  58  86 117 151 190 237 287 336
#
# _framework density 18.369219999999999
#
# number of rings (size 3 to 8) (size 9 to 14) (size 15 to 20)
#    0.000    2.333    0.000    2.000    4.667    6.000 
#    0.000    0.000    0.000    0.000    0.000    0.000 
#    0.000    0.000    0.000    0.000    0.000    0.000 
#
# Total GULP energy -134006.396753 kJ/mol
# GULP energy per Si atom -5583.599865 kJ/mol
# Density = 1.832741 g / cm^3
# Si number density = 18.369220 Si / 1000 Ang^3
#
#
#
# Elastic Constant Matrix: (Units=GPa)
#
#
# Indices 1 2 3 4 5 6 
#
# 1 18.7832 41.4430 41.1721 0.0000 0.0000 0.0000
# 2 41.4430 199.8247 137.7604 0.0000 0.0000 0.0000
# 3 41.1721 137.7604 192.6375 0.0000 0.0000 0.0000
# 4 0.0000 0.0000 0.0000 12.5482 0.0000 0.0000
# 5 0.0000 0.0000 0.0000 0.0000 26.3060 0.0000
# 6 0.0000 0.0000 0.0000 0.0000 0.0000 31.2733
#
#
#
# Elastic Compliance Matrix: (Units=1/GPa)
#
#
# Indices 1 2 3 4 5 6 
#
# 1 0.116792 -0.013834 -0.015069 0.000000 0.000000 0.000000
# 2 -0.013834 0.011509 -0.005274 0.000000 0.000000 0.000000
# 3 -0.015069 -0.005274 0.012183 0.000000 0.000000 0.000000
# 4 0.000000 0.000000 0.000000 0.079693 0.000000 0.000000
# 5 0.000000 0.000000 0.000000 0.000000 0.038014 0.000000
# 6 0.000000 0.000000 0.000000 0.000000 0.000000 0.031976
#
#
# Mechanical properties :
#
#
# Convention : Reuss Voigt Hill
#
# Bulk Modulus (GPa) = 13.86357 94.66625 54.26491
# Shear Modulus (GPa) = 13.06968 26.75015 19.90992
#
# Velocity S-wave (km/s) = 2.67029 3.82022 3.29580
# Velocity P-wave (km/s) = 4.13168 8.43243 6.63991
#
# Compressibility (1/GPa) = 0.07213148
#
# Stress axis : x y z
#
# Youngs Moduli (GPa) = 8.56223 86.88551 82.07909
#
# Poissons Ratio (x) = 1.20194 1.23684
# Poissons Ratio (y) = 0.11845 0.43289
# Poissons Ratio (z) = 0.12902 0.45824
#
# Static dielectric constant tensor:
#      x y z
#    x 1.625140 0.000000 0.000000 
#    y 0.000000 1.613420 0.000000 
#    z 0.000000 0.000000 1.604190 
# 
# From -- ./inp_files/6704.got.cif
#   From: 2010.05.17/outbox.cif.g08.bks.cpg/sg36_4_cif.got.tgz:6704.got - 2010.06.03 17:41:39.
