data_PCOD9352930
_publ_section_title
;
Structure prediction by ZEFSAII (Michael W. Deem and Ramdas Pophale) SiO2 
 PCOD9352930
Probable space group: C M C 21
;
_chemical_formula_sum "Si O2"
_cell_formula_units_Z 40
_cell_length_a 22.882145
_cell_length_b 7.864317
_cell_length_c 8.804103
_cell_angle_alpha 90.000000
_cell_angle_beta 90.000000
_cell_angle_gamma 90.000000
_cell_volume 1584.319834
_symmetry_space_group_name_H-M "C M C 21"
_symmetry_group_IT_number 36
_symmetry_cell_setting 'orthorhombic'
loop_
_space_group_symop_operation_xyz
x,y,z
-x,-y,1/2+z
x,-y,1/2+z
-x,y,z
1/2+x,1/2+y,z
1/2-x,1/2-y,1/2+z
1/2+x,1/2-y,1/2+z
1/2-x,1/2+y,z
loop_
_atom_site_type_symbol
_atom_site_label
_atom_site_fract_x
_atom_site_fract_y
_atom_site_fract_z
Si Si1 0.932833 0.778231 0.958000
Si Si2 0.138154 0.431449 0.938722
Si Si3 0.932270 0.134982 0.105925
Si Si4 0.192972 0.231022 0.706876
Si Si5 0.272330 0.574963 0.400536
O O1 0.897674 0.602676 0.954065
O O2 0.929637 0.847664 0.786368
O O3 0.000000 0.735168 0.995480
O O4 0.917569 0.940831 0.062264
O O5 0.144148 0.363168 0.763969
O O6 0.108858 0.279554 0.033551
O O7 0.207486 0.463758 0.969344
O O8 0.000000 0.164113 0.056348
O O9 0.195957 0.167761 0.536925
O O10 0.255739 0.313768 0.752967
O O11 0.192390 0.079889 0.830907
#
# Coordination Sequence:
#
# PCOD9352930 Si02
#       5
#     8   8   8   8   8
#     4  10  23  46  75 111 149 188 239 301 368 445
#     4  10  25  40  75 102 147 192 249 289 377 424
#     4  10  23  45  74 109 148 189 240 300 368 442
#     4  10  23  41  66 100 142 194 247 303 366 432
#     4  10  23  42  66  98 144 189 246 305 355 433
#
# _framework density 25.247429
#
# number of rings (size 3 to 8) (size 9 to 14) (size 15 to 20)
#    1.200    0.800    0.000    1.800    2.800    4.800 
#    0.000    4.000    0.000    0.000    0.000    0.000 
#    0.000    0.000    0.000    0.000    0.000    0.000 
#
# Total GULP energy -111918.961660 kJ/mol
# GULP energy per Si atom -5595.948083 kJ/mol
# Density = 2.518997 g / cm^3
# Si number density = 25.247429 Si / 1000 Ang^3
#
#
#
# Elastic Constant Matrix: (Units=GPa)
#
#
# Indices 1 2 3 4 5 6 
#
# 1 91.6881 41.1252 -4.0133 0.0000 0.0000 0.0000
# 2 41.1252 167.2379 36.0201 0.0000 0.0000 0.0000
# 3 -4.0133 36.0201 58.9600 0.0000 0.0000 0.0000
# 4 0.0000 0.0000 0.0000 29.2571 0.0000 0.0000
# 5 0.0000 0.0000 0.0000 0.0000 26.7548 0.0000
# 6 0.0000 0.0000 0.0000 0.0000 0.0000 52.4173
#
#
#
# Elastic Compliance Matrix: (Units=1/GPa)
#
#
# Indices 1 2 3 4 5 6 
#
# 1 0.012765 -0.003830 0.003209 0.000000 0.000000 0.000000
# 2 -0.003830 0.008035 -0.005169 0.000000 0.000000 0.000000
# 3 0.003209 -0.005169 0.020337 0.000000 0.000000 0.000000
# 4 0.000000 0.000000 0.000000 0.034180 0.000000 0.000000
# 5 0.000000 0.000000 0.000000 0.000000 0.037377 0.000000
# 6 0.000000 0.000000 0.000000 0.000000 0.000000 0.019078
#
#
# Mechanical properties :
#
#
# Convention : Reuss Voigt Hill
#
# Bulk Modulus (GPa) = 33.83467 51.57225 42.70346
# Shear Modulus (GPa) = 32.63625 38.00276 35.31951
#
# Velocity S-wave (km/s) = 3.59925 3.88392 3.74429
# Velocity P-wave (km/s) = 5.54104 6.37057 5.97023
#
# Compressibility (1/GPa) = 0.02955548
#
# Stress axis : x y z
#
# Youngs Moduli (GPa) = 78.33961 124.45939 49.17116
#
# Poissons Ratio (x) = 0.47669 -0.15778
# Poissons Ratio (y) = 0.30005 0.25418
# Poissons Ratio (z) = -0.25138 0.64337
#
# Static dielectric constant tensor:
#      x y z
#    x 2.087670 0.000000 0.000000 
#    y 0.000000 2.068740 0.000000 
#    z 0.000000 0.000000 1.988340 
# 
# From -- ./inp_files/5749.got.cif
#   From: 2010.05.17/outbox.cif.g08.bks.cpg/sg36_3_cif.got.tgz:5749.got - 2010.06.03 17:41:39.
