data_PCOD9352319
_publ_section_title
;
Structure prediction by ZEFSAII (Michael W. Deem and Ramdas Pophale) SiO2 
 PCOD9352319
Probable space group: C M C 21
;
_chemical_formula_sum "Si O2"
_cell_formula_units_Z 64
_cell_length_a 7.791924
_cell_length_b 15.805618
_cell_length_c 24.407528
_cell_angle_alpha 90.000000
_cell_angle_beta 90.000000
_cell_angle_gamma 90.000000
_cell_volume 3005.937771
_symmetry_space_group_name_H-M "C M C 21"
_symmetry_group_IT_number 36
_symmetry_cell_setting 'orthorhombic'
loop_
_space_group_symop_operation_xyz
x,y,z
-x,-y,1/2+z
x,-y,1/2+z
-x,y,z
1/2+x,1/2+y,z
1/2-x,1/2-y,1/2+z
1/2+x,1/2-y,1/2+z
1/2-x,1/2+y,z
loop_
_atom_site_type_symbol
_atom_site_label
_atom_site_fract_x
_atom_site_fract_y
_atom_site_fract_z
Si Si1 0.208897 0.337948 0.980850
Si Si2 0.796942 0.089954 0.595299
Si Si3 0.696678 0.346538 0.461166
Si Si4 0.206365 0.836852 0.211560
Si Si5 0.700470 0.986152 0.902140
Si Si6 0.206675 0.498972 0.279620
Si Si7 0.289767 0.851084 0.700253
Si Si8 0.198748 0.601291 0.079415
O O1 0.271940 0.416528 0.944181
O O2 0.000000 0.337530 0.982281
O O3 0.268401 0.350470 0.043110
O O4 0.266203 0.248391 0.956221
O O5 0.733172 0.130352 0.651977
O O6 0.000000 0.073621 0.600866
O O7 0.708905 0.000244 0.583692
O O8 0.500000 0.346865 0.442423
O O9 0.787472 0.421419 0.428792
O O10 0.704370 0.368676 0.525591
O O11 0.265415 0.740933 0.221338
O O12 0.000000 0.833286 0.208818
O O13 0.253374 0.906430 0.256286
O O14 0.500000 0.964226 0.896678
O O15 0.774352 0.987033 0.840990
O O16 0.269675 0.570949 0.237551
O O17 0.000000 0.505841 0.281182
O O18 0.500000 0.853945 0.699798
O O19 0.236037 0.862946 0.637174
O O20 0.000000 0.626809 0.072695
#
# Coordination Sequence:
#
# PCOD9352319 Si02
#       8
#     8   8   8   8   8   8   8   8
#     4  10  22  39  59  85 116 154 192 232 288 348
#     4  11  21  34  57  89 121 151 187 236 288 341
#     4  11  23  38  59  89 118 148 191 239 289 344
#     4  10  21  37  58  86 118 149 185 232 290 343
#     4  10  22  40  60  81 111 153 195 239 288 339
#     4  10  21  39  60  82 110 149 199 240 278 333
#     4   9  19  36  59  84 113 153 191 225 279 348
#     4  11  20  35  60  86 117 155 190 229 288 350
#
# _framework density 21.291191999999999
#
# number of rings (size 3 to 8) (size 9 to 14) (size 15 to 20)
#    0.000    1.750    2.500    1.875    0.000    4.000 
#    0.000    4.375    0.000    0.000    0.000    0.000 
#    0.000    0.000    0.000    0.000    0.000    0.000 
#
# Total GULP energy -178828.574283 kJ/mol
# GULP energy per Si atom -5588.392946 kJ/mol
# Density = 2.124273 g / cm^3
# Si number density = 21.291192 Si / 1000 Ang^3
#
#
#
# Elastic Constant Matrix: (Units=GPa)
#
#
# Indices 1 2 3 4 5 6 
#
# 1 29.4560 -7.1403 -3.6903 0.0000 0.0000 0.0000
# 2 -7.1403 88.3823 3.2894 0.0000 0.0000 0.0000
# 3 -3.6903 3.2894 85.2027 0.0000 0.0000 0.0000
# 4 0.0000 0.0000 0.0000 4.5757 0.0000 0.0000
# 5 0.0000 0.0000 0.0000 0.0000 -3.9060 0.0000
# 6 0.0000 0.0000 0.0000 0.0000 0.0000 22.4006
#
#
#
# Elastic Compliance Matrix: (Units=1/GPa)
#
#
# Indices 1 2 3 4 5 6 
#
# 1 0.034793 0.002759 0.001400 0.000000 0.000000 0.000000
# 2 0.002759 0.011550 -0.000326 0.000000 0.000000 0.000000
# 3 0.001400 -0.000326 0.011810 0.000000 0.000000 0.000000
# 4 0.000000 0.000000 0.000000 0.218547 0.000000 0.000000
# 5 0.000000 0.000000 0.000000 0.000000 -0.256018 0.000000
# 6 0.000000 0.000000 0.000000 0.000000 0.000000 0.044642
#
#
# Mechanical properties :
#
#
# Convention : Reuss Voigt Hill
#
# Bulk Modulus (GPa) = 15.19332 20.88426 18.03879
# Shear Modulus (GPa) = 62.81643 18.65288 40.73465
#
# Velocity S-wave (km/s) = 5.43760 2.96308 4.37878
# Velocity P-wave (km/s) = 6.82458 4.64076 5.83573
#
# Compressibility (1/GPa) = 0.06581841
#
# Stress axis : x y z
#
# Youngs Moduli (GPa) = 28.74125 86.58372 84.67415
#
# Poissons Ratio (x) = -0.23887 -0.11858
# Poissons Ratio (y) = -0.07929 0.02764
# Poissons Ratio (z) = -0.04025 0.02826
#
# Static dielectric constant tensor:
#      x y z
#    x 1.790950 0.000000 0.000000 
#    y 0.000000 1.758270 0.000000 
#    z 0.000000 0.000000 1.743510 
# 
# From -- ./inp_files/16551.got.cif
#   From: 2010.05.17/outbox.cif.g08.bks.cpg/sg36_9_cif.got.tgz:16551.got - 2010.06.03 17:41:39.
