data_PCOD9352884
_publ_section_title
;
Structure prediction by ZEFSAII (Michael W. Deem and Ramdas Pophale) SiO2 
 PCOD9352884
Probable space group: C M C 21
;
_chemical_formula_sum "Si O2"
_cell_formula_units_Z 40
_cell_length_a 9.457333
_cell_length_b 18.779896
_cell_length_c 10.418145
_cell_angle_alpha 90.000000
_cell_angle_beta 90.000000
_cell_angle_gamma 90.000000
_cell_volume 1850.343086
_symmetry_space_group_name_H-M "C M C 21"
_symmetry_group_IT_number 36
_symmetry_cell_setting 'orthorhombic'
loop_
_space_group_symop_operation_xyz
x,y,z
-x,-y,1/2+z
x,-y,1/2+z
-x,y,z
1/2+x,1/2+y,z
1/2-x,1/2-y,1/2+z
1/2+x,1/2-y,1/2+z
1/2-x,1/2+y,z
loop_
_atom_site_type_symbol
_atom_site_label
_atom_site_fract_x
_atom_site_fract_y
_atom_site_fract_z
Si Si1 0.851490 0.128555 0.836030
Si Si2 0.765985 0.268588 0.719431
Si Si3 0.659444 0.097680 0.053995
Si Si4 0.836974 0.956335 0.090315
Si Si5 0.334325 0.178967 0.487089
O O1 0.856656 0.198124 0.747414
O O2 0.842396 0.062150 0.741356
O O3 0.000000 0.126314 0.911049
O O4 0.712941 0.131074 0.921020
O O5 0.829618 0.339470 0.657153
O O6 0.667598 0.235182 0.606559
O O7 0.739942 0.292696 0.867257
O O8 0.500000 0.071002 0.047510
O O9 0.766772 0.032979 0.075279
O O10 0.736273 0.895757 0.028802
O O11 0.000000 0.953050 0.042996
O O12 0.500000 0.170815 0.448870
#
# Coordination Sequence:
#
# PCOD9352884 Si02
#       5
#     8   8   8   8   8
#     4  10  22  45  68  93 135 178 224 282 340 405
#     4  11  24  44  71 103 137 178 224 284 345 404
#     4  12  25  41  68 101 135 177 228 281 339 406
#     4  10  25  46  68  97 137 181 227 281 344 410
#     4  11  24  46  73 104 140 182 233 286 342 411
#
# _framework density 21.617614
#
# number of rings (size 3 to 8) (size 9 to 14) (size 15 to 20)
#    0.000    1.200    2.000    3.000    2.800    7.200 
#    0.000    0.000    0.000    0.000    0.000    0.000 
#    0.000    0.000    0.000    0.000    0.000    0.000 
#
# Total GULP energy -111391.334317 kJ/mol
# GULP energy per Si atom -5569.566716 kJ/mol
# Density = 2.156841 g / cm^3
# Si number density = 21.617614 Si / 1000 Ang^3
#
#
#
# Elastic Constant Matrix: (Units=GPa)
#
#
# Indices 1 2 3 4 5 6 
#
# 1 97.2267 50.3478 30.5438 0.0000 0.0000 0.0000
# 2 50.3478 122.3197 30.9329 0.0000 0.0000 0.0000
# 3 30.5438 30.9329 89.9482 0.0000 0.0000 0.0000
# 4 0.0000 0.0000 0.0000 30.0067 0.0000 0.0000
# 5 0.0000 0.0000 0.0000 0.0000 13.1143 0.0000
# 6 0.0000 0.0000 0.0000 0.0000 0.0000 -25.2177
#
#
#
# Elastic Compliance Matrix: (Units=1/GPa)
#
#
# Indices 1 2 3 4 5 6 
#
# 1 0.013766 -0.004911 -0.002986 0.000000 0.000000 0.000000
# 2 -0.004911 0.010706 -0.002014 0.000000 0.000000 0.000000
# 3 -0.002986 -0.002014 0.012824 0.000000 0.000000 0.000000
# 4 0.000000 0.000000 0.000000 0.033326 0.000000 0.000000
# 5 0.000000 0.000000 0.000000 0.000000 0.076253 0.000000
# 6 0.000000 0.000000 0.000000 0.000000 0.000000 -0.039655
#
#
# Mechanical properties :
#
#
# Convention : Reuss Voigt Hill
#
# Bulk Modulus (GPa) = 57.22652 59.23820 58.23236
# Shear Modulus (GPa) = 37.63140 16.75867 27.19503
#
# Velocity S-wave (km/s) = 4.17679 2.78732 3.55068
# Velocity P-wave (km/s) = 7.05623 6.14989 6.61859
#
# Compressibility (1/GPa) = 0.01747442
#
# Stress axis : x y z
#
# Youngs Moduli (GPa) = 72.64015 93.40396 77.97886
#
# Poissons Ratio (x) = 0.45874 0.23282
# Poissons Ratio (y) = 0.35676 0.15705
# Poissons Ratio (z) = 0.21688 0.18812
#
# Static dielectric constant tensor:
#      x y z
#    x 1.776960 0.000000 0.000000 
#    y 0.000000 1.787470 0.000000 
#    z 0.000000 0.000000 1.849940 
# 
# From -- ./inp_files/6517.got.cif
#   From: 2010.05.17/outbox.cif.g08.bks.cpg/sg36_4_cif.got.tgz:6517.got - 2010.06.03 17:41:39.
