data_PCOD9352338
_publ_section_title
;
Structure prediction by ZEFSAII (Michael W. Deem and Ramdas Pophale) SiO2 
 PCOD9352338
Probable space group: C M C 21
;
_chemical_formula_sum "Si O2"
_cell_formula_units_Z 44
_cell_length_a 14.064382
_cell_length_b 13.539321
_cell_length_c 8.197534
_cell_angle_alpha 90.000000
_cell_angle_beta 90.000000
_cell_angle_gamma 90.000000
_cell_volume 1560.992316
_symmetry_space_group_name_H-M "C M C 21"
_symmetry_group_IT_number 36
_symmetry_cell_setting 'orthorhombic'
loop_
_space_group_symop_operation_xyz
x,y,z
-x,-y,1/2+z
x,-y,1/2+z
-x,y,z
1/2+x,1/2+y,z
1/2-x,1/2-y,1/2+z
1/2+x,1/2-y,1/2+z
1/2-x,1/2+y,z
loop_
_atom_site_type_symbol
_atom_site_label
_atom_site_fract_x
_atom_site_fract_y
_atom_site_fract_z
Si Si1 0.000000 0.926622 0.269040
Si Si2 0.107480 0.502706 0.697153
Si Si3 0.796350 0.104751 0.834355
Si Si4 0.000000 0.201362 0.439195
Si Si5 0.000000 0.778075 0.573741
Si Si6 0.849486 0.634560 0.430457
Si Si7 0.306342 0.239810 0.056096
O O1 0.890541 0.962127 0.303250
O O2 0.000000 0.848325 0.418275
O O3 0.000000 0.882014 0.083846
O O4 0.203396 0.554925 0.760315
O O5 0.119157 0.387448 0.745757
O O6 0.118505 0.529440 0.507026
O O7 0.000000 0.533802 0.738791
O O8 0.763894 0.148336 0.010572
O O9 0.814154 0.205996 0.731262
O O10 0.000000 0.170430 0.248987
O O11 0.092818 0.266911 0.468499
O O12 0.910261 0.708044 0.541818
O O13 0.742428 0.665428 0.457925
#
# Coordination Sequence:
#
# PCOD9352338 Si02
#       7
#     4   8   8   4   4   8   8
#     4  10  22  42  61 100 123 163 209 266 319 377
#     4  11  22  40  59  88 127 168 209 262 324 387
#     4  10  22  37  60  89 123 163 210 263 323 378
#     4  10  22  38  63  94 129 162 203 268 322 370
#     4  12  20  42  64  90 128 159 206 266 311 379
#     4  11  23  40  58  88 128 165 211 260 319 386
#     4  10  21  37  60  91 120 163 211 263 321 382
#
# _framework density 28.187196
#
# number of rings (size 3 to 8) (size 9 to 14) (size 15 to 20)
#    0.000    1.455    3.636    2.182    1.273    1.455 
#    3.273    0.909    0.000    0.000    0.000    0.000 
#    0.000    0.000    0.000    0.000    0.000    0.000 
#
# Total GULP energy -122788.970944 kJ/mol
# GULP energy per Si atom -5581.316861 kJ/mol
# Density = 2.812304 g / cm^3
# Si number density = 28.187196 Si / 1000 Ang^3
#
#
#
# Elastic Constant Matrix: (Units=GPa)
#
#
# Indices 1 2 3 4 5 6 
#
# 1 232.9296 35.7429 22.1531 0.0000 0.0000 0.0000
# 2 35.7429 40.1267 -15.9754 0.0000 0.0000 0.0000
# 3 22.1531 -15.9754 104.6600 0.0000 0.0000 0.0000
# 4 0.0000 0.0000 0.0000 28.2930 0.0000 0.0000
# 5 0.0000 0.0000 0.0000 0.0000 39.5488 0.0000
# 6 0.0000 0.0000 0.0000 0.0000 0.0000 -9.2714
#
#
#
# Elastic Compliance Matrix: (Units=1/GPa)
#
#
# Indices 1 2 3 4 5 6 
#
# 1 0.005330 -0.005533 -0.001973 0.000000 0.000000 0.000000
# 2 -0.005533 0.032277 0.006098 0.000000 0.000000 0.000000
# 3 -0.001973 0.006098 0.010903 0.000000 0.000000 0.000000
# 4 0.000000 0.000000 0.000000 0.035344 0.000000 0.000000
# 5 0.000000 0.000000 0.000000 0.000000 0.025285 0.000000
# 6 0.000000 0.000000 0.000000 0.000000 0.000000 -0.107858
#
#
# Mechanical properties :
#
#
# Convention : Reuss Voigt Hill
#
# Bulk Modulus (GPa) = 21.88429 51.28415 36.58422
# Shear Modulus (GPa) = 258.68904 34.10047 146.39475
#
# Velocity S-wave (km/s) = 9.59034 3.48197 7.21452
# Velocity P-wave (km/s) = 11.41988 5.86508 9.07779
#
# Compressibility (1/GPa) = 0.04569488
#
# Stress axis : x y z
#
# Youngs Moduli (GPa) = 187.62526 30.98163 91.71700
#
# Poissons Ratio (x) = 0.17142 0.18093
# Poissons Ratio (y) = 1.03811 -0.55929
# Poissons Ratio (z) = 0.37012 -0.18892
#
# Static dielectric constant tensor:
#      x y z
#    x 2.233600 0.000000 0.000000 
#    y 0.000000 2.467110 0.000000 
#    z 0.000000 0.000000 2.337570 
# 
# From -- ./inp_files/3966.got.cif
#   From: 2010.05.17/outbox.cif.g08.bks.cpg/sg36_2_cif.got.tgz:3966.got - 2010.06.03 17:41:39.
