data_PCOD9352033
_publ_section_title
;
Structure prediction by ZEFSAII (Michael W. Deem and Ramdas Pophale) SiO2 
 PCOD9352033
Probable space group: C M C 21
;
_chemical_formula_sum "Si O2"
_cell_formula_units_Z 64
_cell_length_a 8.433595
_cell_length_b 31.474353
_cell_length_c 12.401683
_cell_angle_alpha 90.000000
_cell_angle_beta 90.000000
_cell_angle_gamma 90.000000
_cell_volume 3291.926870
_symmetry_space_group_name_H-M "C M C 21"
_symmetry_group_IT_number 36
_symmetry_cell_setting 'orthorhombic'
loop_
_space_group_symop_operation_xyz
x,y,z
-x,-y,1/2+z
x,-y,1/2+z
-x,y,z
1/2+x,1/2+y,z
1/2-x,1/2-y,1/2+z
1/2+x,1/2-y,1/2+z
1/2-x,1/2+y,z
loop_
_atom_site_type_symbol
_atom_site_label
_atom_site_fract_x
_atom_site_fract_y
_atom_site_fract_z
Si Si1 0.688638 0.045551 0.923630
Si Si2 0.191784 0.124367 0.064370
Si Si3 0.816013 0.325718 0.206033
Si Si4 0.313046 0.547208 0.466761
Si Si5 0.808312 0.124037 0.313700
Si Si6 0.311812 0.294657 0.427132
Si Si7 0.307527 0.199142 0.466114
Si Si8 0.815214 0.573830 0.693347
O O1 0.500000 0.051759 0.921594
O O2 0.746401 0.050940 0.800400
O O3 0.729954 0.998219 0.959239
O O4 0.758122 0.082131 0.000209
O O5 0.244927 0.123699 0.189134
O O6 0.000000 0.125544 0.064527
O O7 0.250603 0.166626 0.001320
O O8 0.720549 0.305310 0.303028
O O9 0.811249 0.376285 0.218378
O O10 0.000000 0.311871 0.214685
O O11 0.759138 0.315010 0.086130
O O12 0.500000 0.541142 0.449347
O O13 0.254539 0.582253 0.380228
O O14 0.281361 0.564885 0.585964
O O15 0.753486 0.165845 0.377866
O O16 0.000000 0.123645 0.314220
O O17 0.500000 0.293161 0.446493
O O18 0.250374 0.247364 0.449804
O O19 0.500000 0.198066 0.461716
O O20 0.000000 0.561943 0.673787
#
# Coordination Sequence:
#
# PCOD9352033 Si02
#       8
#     8   8   8   8   8   8   8   8
#     4  11  24  41  62  90 120 154 200 246 297 355
#     4  10  22  41  61  85 121 160 198 243 297 353
#     4  10  20  38  63  86 116 154 196 246 298 348
#     4  11  24  40  61  90 121 155 199 245 297 356
#     4  10  23  41  61  87 119 158 199 242 295 352
#     4  10  22  38  59  88 120 156 199 244 294 350
#     4  10  22  39  60  88 120 157 198 243 296 350
#     4  10  21  40  63  88 117 154 199 247 298 352
#
# _framework density 19.441500999999999
#
# number of rings (size 3 to 8) (size 9 to 14) (size 15 to 20)
#    0.000    1.750    2.500    0.750    3.500    3.500 
#    0.000    0.000    0.000    0.000    0.000    0.000 
#    0.000    0.000    0.000    0.000    0.000    0.000 
#
# Total GULP energy -178692.041295 kJ/mol
# GULP energy per Si atom -5584.126290 kJ/mol
# Density = 1.939725 g / cm^3
# Si number density = 19.441501 Si / 1000 Ang^3
#
#
#
# Elastic Constant Matrix: (Units=GPa)
#
#
# Indices 1 2 3 4 5 6 
#
# 1 6.4481 9.7018 9.5691 0.0000 0.0000 0.0000
# 2 9.7018 107.9400 29.9701 0.0000 0.0000 0.0000
# 3 9.5691 29.9701 93.4357 0.0000 0.0000 0.0000
# 4 0.0000 0.0000 0.0000 25.8899 0.0000 0.0000
# 5 0.0000 0.0000 0.0000 0.0000 23.8901 0.0000
# 6 0.0000 0.0000 0.0000 0.0000 0.0000 25.0162
#
#
#
# Elastic Compliance Matrix: (Units=1/GPa)
#
#
# Indices 1 2 3 4 5 6 
#
# 1 0.199176 -0.013435 -0.016089 0.000000 0.000000 0.000000
# 2 -0.013435 0.011076 -0.002177 0.000000 0.000000 0.000000
# 3 -0.016089 -0.002177 0.013049 0.000000 0.000000 0.000000
# 4 0.000000 0.000000 0.000000 0.038625 0.000000 0.000000
# 5 0.000000 0.000000 0.000000 0.000000 0.041858 0.000000
# 6 0.000000 0.000000 0.000000 0.000000 0.000000 0.039974
#
#
# Mechanical properties :
#
#
# Convention : Reuss Voigt Hill
#
# Bulk Modulus (GPa) = 6.25395 34.03399 20.14397
# Shear Modulus (GPa) = 10.85871 25.53141 18.19506
#
# Velocity S-wave (km/s) = 2.36589 3.62780 3.06255
# Velocity P-wave (km/s) = 3.26911 5.92383 4.78429
#
# Compressibility (1/GPa) = 0.15989900
#
# Stress axis : x y z
#
# Youngs Moduli (GPa) = 5.02069 90.28211 76.63692
#
# Poissons Ratio (x) = 1.21294 1.23301
# Poissons Ratio (y) = 0.06745 0.16683
# Poissons Ratio (z) = 0.08078 0.19653
#
# Static dielectric constant tensor:
#      x y z
#    x 1.693790 0.000000 0.000000 
#    y 0.000000 1.662620 0.000000 
#    z 0.000000 0.000000 1.663290 
# 
# From -- ./inp_files/7103.got.cif
#   From: 2010.05.17/outbox.cif.g08.bks.cpg/sg36_4_cif.got.tgz:7103.got - 2010.06.03 17:41:39.
