data_PCOD9352453
_publ_section_title
;
Structure prediction by ZEFSAII (Michael W. Deem and Ramdas Pophale) SiO2 
 PCOD9352453
Probable space group: C M C 21
;
_chemical_formula_sum "Si O2"
_cell_formula_units_Z 48
_cell_length_a 11.447422
_cell_length_b 23.311650
_cell_length_c 8.787013
_cell_angle_alpha 90.000000
_cell_angle_beta 90.000000
_cell_angle_gamma 90.000000
_cell_volume 2344.887308
_symmetry_space_group_name_H-M "C M C 21"
_symmetry_group_IT_number 36
_symmetry_cell_setting 'orthorhombic'
loop_
_space_group_symop_operation_xyz
x,y,z
-x,-y,1/2+z
x,-y,1/2+z
-x,y,z
1/2+x,1/2+y,z
1/2-x,1/2-y,1/2+z
1/2+x,1/2-y,1/2+z
1/2-x,1/2+y,z
loop_
_atom_site_type_symbol
_atom_site_label
_atom_site_fract_x
_atom_site_fract_y
_atom_site_fract_z
Si Si1 0.135656 0.170542 0.320760
Si Si2 0.680052 0.642086 0.977688
Si Si3 0.373676 0.521303 0.832476
Si Si4 0.792219 0.068971 0.524875
Si Si5 0.130149 0.728572 0.444611
Si Si6 0.366075 0.851872 0.222086
O O1 0.139397 0.121907 0.450731
O O2 0.250081 0.209238 0.361343
O O3 0.000000 0.193078 0.313800
O O4 0.169671 0.142154 0.159332
O O5 0.629393 0.582660 0.915723
O O6 0.623096 0.703054 0.935699
O O7 0.800210 0.647237 0.882640
O O8 0.500000 0.493477 0.857586
O O9 0.358991 0.535160 0.656439
O O10 0.275226 0.478462 0.894762
O O11 0.684679 0.098497 0.611861
O O12 0.146067 0.705575 0.618236
O O13 0.000000 0.706024 0.395068
O O14 0.500000 0.861231 0.250845
#
# Coordination Sequence:
#
# PCOD9352453 Si02
#       6
#     8   8   8   8   8   8
#     4  11  22  38  60  89 124 161 203 254 307 364
#     4  11  22  35  58  89 119 156 201 248 302 358
#     4  11  20  34  56  84 118 151 188 241 301 362
#     4  10  22  38  59  88 117 153 197 244 304 363
#     4  10  21  39  60  86 122 164 207 254 305 362
#     4   9  21  42  63  84 120 163 205 251 299 359
#
# _framework density 20.470065999999999
#
# number of rings (size 3 to 8) (size 9 to 14) (size 15 to 20)
#    0.000    1.667    0.000    5.000    0.000    2.667 
#    0.000   10.000    0.000    4.000    0.000    0.000 
#    0.000    0.000    0.000    0.000    0.000    0.000 
#
# Total GULP energy -133656.883381 kJ/mol
# GULP energy per Si atom -5569.036808 kJ/mol
# Density = 2.042348 g / cm^3
# Si number density = 20.470066 Si / 1000 Ang^3
#
#
#
# Elastic Constant Matrix: (Units=GPa)
#
#
# Indices 1 2 3 4 5 6 
#
# 1 160.4925 25.1563 55.9309 0.0000 0.0000 0.0000
# 2 25.1563 71.6511 0.7144 0.0000 0.0000 0.0000
# 3 55.9309 0.7144 83.8340 0.0000 0.0000 0.0000
# 4 0.0000 0.0000 0.0000 35.9994 0.0000 0.0000
# 5 0.0000 0.0000 0.0000 0.0000 8.9961 0.0000
# 6 0.0000 0.0000 0.0000 0.0000 0.0000 -1.4838
#
#
#
# Elastic Compliance Matrix: (Units=1/GPa)
#
#
# Indices 1 2 3 4 5 6 
#
# 1 0.008720 -0.003004 -0.005792 0.000000 0.000000 0.000000
# 2 -0.003004 0.014992 0.001876 0.000000 0.000000 0.000000
# 3 -0.005792 0.001876 0.015777 0.000000 0.000000 0.000000
# 4 0.000000 0.000000 0.000000 0.027778 0.000000 0.000000
# 5 0.000000 0.000000 0.000000 0.000000 0.111160 0.000000
# 6 0.000000 0.000000 0.000000 0.000000 0.000000 -0.673926
#
#
# Mechanical properties :
#
#
# Convention : Reuss Voigt Hill
#
# Bulk Modulus (GPa) = 38.98660 53.28673 46.13666
# Shear Modulus (GPa) = -10.56838 24.31407 6.87284
#
# Velocity S-wave (km/s) = -2.27465 3.45017 1.83434
# Velocity P-wave (km/s) = 3.49117 6.47762 5.20326
#
# Compressibility (1/GPa) = 0.02564984
#
# Stress axis : x y z
#
# Youngs Moduli (GPa) = 114.67608 66.70025 63.38464
#
# Poissons Ratio (x) = 0.20036 0.36714
# Poissons Ratio (y) = 0.34447 -0.11893
# Poissons Ratio (z) = 0.66423 -0.12515
#
# Static dielectric constant tensor:
#      x y z
#    x 1.734500 0.000000 0.000000 
#    y 0.000000 1.766650 0.000000 
#    z 0.000000 0.000000 1.760070 
# 
# From -- ./inp_files/3311.got.cif
#   From: 2010.05.17/outbox.cif.g08.bks.cpg/sg36_2_cif.got.tgz:3311.got - 2010.06.03 17:41:39.
