data_PCOD9352827
_publ_section_title
;
Structure prediction by ZEFSAII (Michael W. Deem and Ramdas Pophale) SiO2 
 PCOD9352827
Probable space group: C M C 21
;
_chemical_formula_sum "Si O2"
_cell_formula_units_Z 48
_cell_length_a 13.959155
_cell_length_b 17.663706
_cell_length_c 9.251012
_cell_angle_alpha 90.000000
_cell_angle_beta 90.000000
_cell_angle_gamma 90.000000
_cell_volume 2281.025821
_symmetry_space_group_name_H-M "C M C 21"
_symmetry_group_IT_number 36
_symmetry_cell_setting 'orthorhombic'
loop_
_space_group_symop_operation_xyz
x,y,z
-x,-y,1/2+z
x,-y,1/2+z
-x,y,z
1/2+x,1/2+y,z
1/2-x,1/2-y,1/2+z
1/2+x,1/2-y,1/2+z
1/2-x,1/2+y,z
loop_
_atom_site_type_symbol
_atom_site_label
_atom_site_fract_x
_atom_site_fract_y
_atom_site_fract_z
Si Si1 0.603041 0.470307 0.888320
Si Si2 0.344815 0.840486 0.540899
Si Si3 0.287272 0.546692 0.118306
Si Si4 0.000000 0.569720 0.222670
Si Si5 0.690598 0.895219 0.218785
Si Si6 0.500000 0.908072 0.067256
Si Si7 0.109896 0.168840 0.602454
O O1 0.500000 0.505295 0.913722
O O2 0.622098 0.461774 0.720749
O O3 0.685155 0.519907 0.959542
O O4 0.608468 0.390677 0.970749
O O5 0.243810 0.866723 0.607672
O O6 0.413403 0.885118 0.649511
O O7 0.346526 0.875494 0.379713
O O8 0.370585 0.753207 0.546296
O O9 0.212923 0.483600 0.179465
O O10 0.000000 0.574161 0.396311
O O11 0.000000 0.484538 0.163608
O O12 0.602250 0.870697 0.112891
O O13 0.795025 0.855308 0.193424
O O14 0.000000 0.165770 0.665899
#
# Coordination Sequence:
#
# PCOD9352827 Si02
#       7
#     8   8   8   4   8   4   8
#     4  10  22  42  66  92 132 172 228 275 336 399
#     4  12  24  43  68  98 136 178 221 280 343 399
#     4  11  22  39  66  99 126 174 224 281 329 398
#     4  12  26  40  72  98 136 173 222 287 345 413
#     4  11  25  44  69 101 138 176 227 281 332 416
#     4  12  26  42  70 108 132 173 226 287 347 399
#     4  10  25  45  68  97 136 182 221 275 342 405
#
# _framework density 21.043164000000001
#
# number of rings (size 3 to 8) (size 9 to 14) (size 15 to 20)
#    0.000    1.000    4.167    2.000    7.000    0.667 
#    0.000    0.000    1.833    0.000    0.000    0.000 
#    0.000    0.000    0.000    0.000    0.000    0.000 
#
# Total GULP energy -133739.890412 kJ/mol
# GULP energy per Si atom -5572.495434 kJ/mol
# Density = 2.099527 g / cm^3
# Si number density = 21.043164 Si / 1000 Ang^3
#
#
#
# Elastic Constant Matrix: (Units=GPa)
#
#
# Indices 1 2 3 4 5 6 
#
# 1 120.0179 33.7909 48.2661 0.0000 0.0000 0.0000
# 2 33.7909 69.1458 -6.3697 0.0000 0.0000 0.0000
# 3 48.2661 -6.3697 129.6137 0.0000 0.0000 0.0000
# 4 0.0000 0.0000 0.0000 13.5343 0.0000 0.0000
# 5 0.0000 0.0000 0.0000 0.0000 28.1274 0.0000
# 6 0.0000 0.0000 0.0000 0.0000 0.0000 15.5446
#
#
#
# Elastic Compliance Matrix: (Units=1/GPa)
#
#
# Indices 1 2 3 4 5 6 
#
# 1 0.012042 -0.006326 -0.004795 0.000000 0.000000 0.000000
# 2 -0.006326 0.017852 0.003233 0.000000 0.000000 0.000000
# 3 -0.004795 0.003233 0.009660 0.000000 0.000000 0.000000
# 4 0.000000 0.000000 0.000000 0.073887 0.000000 0.000000
# 5 0.000000 0.000000 0.000000 0.000000 0.035552 0.000000
# 6 0.000000 0.000000 0.000000 0.000000 0.000000 0.064331
#
#
# Mechanical properties :
#
#
# Convention : Reuss Voigt Hill
#
# Bulk Modulus (GPa) = 42.05826 52.23912 47.14869
# Shear Modulus (GPa) = 21.09481 27.64726 24.37104
#
# Velocity S-wave (km/s) = 3.16959 3.62862 3.40684
# Velocity P-wave (km/s) = 5.78145 6.51418 6.15872
#
# Compressibility (1/GPa) = 0.02377654
#
# Stress axis : x y z
#
# Youngs Moduli (GPa) = 83.04533 56.01717 103.52278
#
# Poissons Ratio (x) = 0.35438 0.49639
# Poissons Ratio (y) = 0.52537 -0.33470
# Poissons Ratio (z) = 0.39820 -0.18111
#
# Static dielectric constant tensor:
#      x y z
#    x 1.894260 0.000000 0.000000 
#    y 0.000000 1.733550 0.000000 
#    z 0.000000 0.000000 1.712310 
# 
# From -- ./inp_files/4019.got.cif
#   From: 2010.05.17/outbox.cif.g08.bks.cpg/sg36_3_cif.got.tgz:4019.got - 2010.06.03 17:41:39.
