data_PCOD9352037
_publ_section_title
;
Structure prediction by ZEFSAII (Michael W. Deem and Ramdas Pophale) SiO2 
 PCOD9352037
Probable space group: C M C 21
;
_chemical_formula_sum "Si O2"
_cell_formula_units_Z 32
_cell_length_a 5.358686
_cell_length_b 36.682595
_cell_length_c 7.082952
_cell_angle_alpha 90.000000
_cell_angle_beta 90.000000
_cell_angle_gamma 90.000000
_cell_volume 1392.299475
_symmetry_space_group_name_H-M "C M C 21"
_symmetry_group_IT_number 36
_symmetry_cell_setting 'orthorhombic'
loop_
_space_group_symop_operation_xyz
x,y,z
-x,-y,1/2+z
x,-y,1/2+z
-x,y,z
1/2+x,1/2+y,z
1/2-x,1/2-y,1/2+z
1/2+x,1/2-y,1/2+z
1/2-x,1/2+y,z
loop_
_atom_site_type_symbol
_atom_site_label
_atom_site_fract_x
_atom_site_fract_y
_atom_site_fract_z
Si Si1 0.500000 0.075066 0.576210
Si Si2 0.000000 0.188409 0.878739
Si Si3 0.000000 0.212358 0.289400
Si Si4 0.500000 0.534459 0.528598
Si Si5 0.500000 0.908840 0.626745
Si Si6 0.500000 0.550624 0.088699
Si Si7 0.500000 0.146866 0.831189
Si Si8 0.500000 0.230602 0.472865
O O1 0.253178 0.050875 0.614683
O O2 0.500000 0.086225 0.353014
O O3 0.500000 0.111864 0.696000
O O4 0.750536 0.169772 0.804635
O O5 0.000000 0.231794 0.849370
O O6 0.000000 0.185602 0.109528
O O7 0.249342 0.210047 0.412579
O O8 0.000000 0.251915 0.181643
O O9 0.500000 0.547610 0.314390
O O10 0.500000 0.490854 0.520431
O O11 0.747392 0.928040 0.544304
O O12 0.500000 0.868256 0.546047
#
# Coordination Sequence:
#
# PCOD9352037 Si02
#       8
#     4   4   4   4   4   4   4   4
#     4  10  23  39  57  84 117 160 198 251 305 360
#     4  10  24  38  64  92 124 158 209 240 293 380
#     4  10  20  38  63  90 129 160 197 254 315 351
#     4  10  21  36  57  84 117 146 200 258 306 370
#     4  10  23  39  57  84 117 160 198 251 305 360
#     4  10  21  36  57  84 117 146 200 258 306 370
#     4  12  22  42  64  84 126 168 203 248 299 370
#     4  10  20  38  63  90 129 160 197 254 315 351
#
# _framework density 22.983560000000001
#
# number of rings (size 3 to 8) (size 9 to 14) (size 15 to 20)
#    0.750    1.000    0.000    4.500    3.500    0.000 
#    0.000    7.500    0.000    0.000    0.000    0.000 
#    0.000    0.000    0.000    0.000    0.000    0.000 
#
# Total GULP energy -89456.111774 kJ/mol
# GULP energy per Si atom -5591.006986 kJ/mol
# Density = 2.293125 g / cm^3
# Si number density = 22.983560 Si / 1000 Ang^3
#
#
#
# Elastic Constant Matrix: (Units=GPa)
#
#
# Indices 1 2 3 4 5 6 
#
# 1 236.4553 58.0236 26.1179 0.0000 0.0000 0.0000
# 2 58.0236 83.0760 -1.7297 0.0000 0.0000 0.0000
# 3 26.1179 -1.7297 80.4091 0.0000 0.0000 0.0000
# 4 0.0000 0.0000 0.0000 48.5195 0.0000 0.0000
# 5 0.0000 0.0000 0.0000 0.0000 -30.7738 0.0000
# 6 0.0000 0.0000 0.0000 0.0000 0.0000 23.3661
#
#
#
# Elastic Compliance Matrix: (Units=1/GPa)
#
#
# Indices 1 2 3 4 5 6 
#
# 1 0.005358 -0.003780 -0.001822 0.000000 0.000000 0.000000
# 2 -0.003780 0.014710 0.001544 0.000000 0.000000 0.000000
# 3 -0.001822 0.001544 0.013061 0.000000 0.000000 0.000000
# 4 0.000000 0.000000 0.000000 0.020610 0.000000 0.000000
# 5 0.000000 0.000000 0.000000 0.000000 -0.032495 0.000000
# 6 0.000000 0.000000 0.000000 0.000000 0.000000 0.042797
#
#
# Mechanical properties :
#
#
# Convention : Reuss Voigt Hill
#
# Bulk Modulus (GPa) = 39.97803 62.75156 51.36480
# Shear Modulus (GPa) = 62.11664 29.39096 45.75380
#
# Velocity S-wave (km/s) = 5.20435 3.57989 4.46659
# Velocity P-wave (km/s) = 7.31748 6.66705 6.99982
#
# Compressibility (1/GPa) = 0.02501374
#
# Stress axis : x y z
#
# Youngs Moduli (GPa) = 186.63884 67.98325 76.56198
#
# Poissons Ratio (x) = 0.25699 0.13947
# Poissons Ratio (y) = 0.70552 -0.11823
# Poissons Ratio (z) = 0.33999 -0.10498
#
# Static dielectric constant tensor:
#      x y z
#    x 1.839370 0.000000 0.000000 
#    y 0.000000 1.855230 0.000000 
#    z 0.000000 0.000000 1.876910 
# 
# From -- ./inp_files/2045.got.cif
#   From: 2010.05.17/outbox.cif.g08.bks.cpg/sg36_2_cif.got.tgz:2045.got - 2010.06.03 17:41:39.
