data_PCOD9352963
_publ_section_title
;
Structure prediction by ZEFSAII (Michael W. Deem and Ramdas Pophale) SiO2 
 PCOD9352963
Probable space group: C M C 21
;
_chemical_formula_sum "Si O2"
_cell_formula_units_Z 56
_cell_length_a 19.928164
_cell_length_b 14.219311
_cell_length_c 8.326987
_cell_angle_alpha 90.000000
_cell_angle_beta 90.000000
_cell_angle_gamma 90.000000
_cell_volume 2359.574686
_symmetry_space_group_name_H-M "C M C 21"
_symmetry_group_IT_number 36
_symmetry_cell_setting 'orthorhombic'
loop_
_space_group_symop_operation_xyz
x,y,z
-x,-y,1/2+z
x,-y,1/2+z
-x,y,z
1/2+x,1/2+y,z
1/2-x,1/2-y,1/2+z
1/2+x,1/2-y,1/2+z
1/2-x,1/2+y,z
loop_
_atom_site_type_symbol
_atom_site_label
_atom_site_fract_x
_atom_site_fract_y
_atom_site_fract_z
Si Si1 0.703951 0.197736 0.891310
Si Si2 0.397483 0.144833 0.650529
Si Si3 0.925469 0.826437 0.446204
Si Si4 0.395103 0.963504 0.822388
Si Si5 0.753957 0.898496 0.880007
Si Si6 0.195452 0.056659 0.058123
Si Si7 0.075340 0.287945 0.614646
O O1 0.677348 0.168566 0.715438
O O2 0.752775 0.287180 0.886841
O O3 0.743165 0.116123 0.981855
O O4 0.636464 0.224711 0.990761
O O5 0.422366 0.245570 0.586078
O O6 0.410326 0.079473 0.495933
O O7 0.418088 0.070322 0.790711
O O8 0.870639 0.905587 0.474193
O O9 0.914516 0.775479 0.274507
O O10 0.000000 0.866209 0.446657
O O11 0.314298 0.948479 0.821807
O O12 0.422035 0.893454 0.686770
O O13 0.808257 0.918188 0.743036
O O14 0.784156 0.949174 0.034088
O O15 0.000000 0.269535 0.550062
#
# Coordination Sequence:
#
# PCOD9352963 Si02
#       7
#     8   8   8   8   8   8   8
#     4  12  24  42  69 102 138 179 227 284 345 411
#     4  11  22  40  66  98 137 180 220 283 345 411
#     4  10  24  46  68  93 135 183 228 282 345 409
#     4  11  21  39  65 100 137 173 228 278 345 410
#     4  12  26  40  70 102 133 180 228 286 347 408
#     4  12  26  44  69 102 138 174 230 290 344 405
#     4  10  23  43  67  97 136 183 225 273 339 416
#
# _framework density 23.733091000000002
#
# number of rings (size 3 to 8) (size 9 to 14) (size 15 to 20)
#    0.000    0.857    4.286    3.429    2.000    1.143 
#    0.000    4.286    0.000    0.000    0.000    0.000 
#    0.000    0.000    0.000    0.000    0.000    0.000 
#
# Total GULP energy -156458.265082 kJ/mol
# GULP energy per Si atom -5587.795182 kJ/mol
# Density = 2.367907 g / cm^3
# Si number density = 23.733091 Si / 1000 Ang^3
#
#
#
# Elastic Constant Matrix: (Units=GPa)
#
#
# Indices 1 2 3 4 5 6 
#
# 1 125.5333 4.1985 7.6700 0.0000 0.0000 0.0000
# 2 4.1985 59.0776 -10.4033 0.0000 0.0000 0.0000
# 3 7.6700 -10.4033 47.4768 0.0000 0.0000 0.0000
# 4 0.0000 0.0000 0.0000 25.7133 0.0000 0.0000
# 5 0.0000 0.0000 0.0000 0.0000 23.6568 0.0000
# 6 0.0000 0.0000 0.0000 0.0000 0.0000 7.1078
#
#
#
# Elastic Compliance Matrix: (Units=1/GPa)
#
#
# Indices 1 2 3 4 5 6 
#
# 1 0.008085 -0.000837 -0.001490 0.000000 0.000000 0.000000
# 2 -0.000837 0.017693 0.004012 0.000000 0.000000 0.000000
# 3 -0.001490 0.004012 0.022183 0.000000 0.000000 0.000000
# 4 0.000000 0.000000 0.000000 0.038890 0.000000 0.000000
# 5 0.000000 0.000000 0.000000 0.000000 0.042271 0.000000
# 6 0.000000 0.000000 0.000000 0.000000 0.000000 0.140691
#
#
# Mechanical properties :
#
#
# Convention : Reuss Voigt Hill
#
# Bulk Modulus (GPa) = 19.48102 26.11312 22.79707
# Shear Modulus (GPa) = 17.63341 26.67040 22.15191
#
# Velocity S-wave (km/s) = 2.72874 3.35590 3.05844
# Velocity P-wave (km/s) = 4.26078 5.10321 4.70090
#
# Compressibility (1/GPa) = 0.05133202
#
# Stress axis : x y z
#
# Youngs Moduli (GPa) = 123.68564 56.51992 45.08019
#
# Poissons Ratio (x) = 0.04730 0.06715
# Poissons Ratio (y) = 0.10351 -0.18087
# Poissons Ratio (z) = 0.18423 -0.22677
#
# Static dielectric constant tensor:
#      x y z
#    x 1.892030 0.000000 0.000000 
#    y 0.000000 1.870790 0.000000 
#    z 0.000000 0.000000 1.945990 
# 
# From -- ./inp_files/5204.got.cif
#   From: 2010.05.17/outbox.cif.g08.bks.cpg/sg36_3_cif.got.tgz:5204.got - 2010.06.03 17:41:39.
