data_PCOD9352579
_publ_section_title
;
Structure prediction by ZEFSAII (Michael W. Deem and Ramdas Pophale) SiO2 
 PCOD9352579
Probable space group: C M C 21
;
_chemical_formula_sum "Si O2"
_cell_formula_units_Z 56
_cell_length_a 18.111119
_cell_length_b 15.123570
_cell_length_c 9.705335
_cell_angle_alpha 90.000000
_cell_angle_beta 90.000000
_cell_angle_gamma 90.000000
_cell_volume 2658.337609
_symmetry_space_group_name_H-M "C M C 21"
_symmetry_group_IT_number 36
_symmetry_cell_setting 'orthorhombic'
loop_
_space_group_symop_operation_xyz
x,y,z
-x,-y,1/2+z
x,-y,1/2+z
-x,y,z
1/2+x,1/2+y,z
1/2-x,1/2-y,1/2+z
1/2+x,1/2-y,1/2+z
1/2-x,1/2+y,z
loop_
_atom_site_type_symbol
_atom_site_label
_atom_site_fract_x
_atom_site_fract_y
_atom_site_fract_z
Si Si1 0.357374 0.813338 0.774300
Si Si2 0.581414 0.076747 0.047027
Si Si3 0.304363 0.664245 0.223541
Si Si4 0.088033 0.155632 0.963928
Si Si5 0.810744 0.581778 0.545981
Si Si6 0.809347 0.989760 0.396637
Si Si7 0.814310 0.659012 0.833706
O O1 0.416468 0.853939 0.671515
O O2 0.281227 0.815398 0.684694
O O3 0.383344 0.722734 0.844681
O O4 0.339567 0.877969 0.902747
O O5 0.500000 0.042166 0.022328
O O6 0.614969 0.121211 0.910980
O O7 0.636538 0.998642 0.086905
O O8 0.310525 0.564036 0.278736
O O9 0.311930 0.735173 0.349241
O O10 0.364294 0.674167 0.102699
O O11 0.112865 0.056392 0.922931
O O12 0.000000 0.165189 0.982601
O O13 0.729221 0.543504 0.520993
O O14 0.815728 0.649475 0.669270
O O15 0.752935 0.906594 0.374472
#
# Coordination Sequence:
#
# PCOD9352579 Si02
#       7
#     8   8   8   8   8   8   8
#     4  11  23  42  70  95 127 179 230 274 332 406
#     4  11  24  39  58  94 140 174 210 274 345 406
#     4  11  23  43  73  95 128 176 229 285 329 399
#     4  12  25  43  67  99 140 179 225 283 343 405
#     4  10  21  40  69  97 125 168 227 282 331 399
#     4  10  22  42  66 100 129 171 224 281 335 399
#     4  11  21  41  68  98 127 169 231 277 328 400
#
# _framework density 21.065797
#
# number of rings (size 3 to 8) (size 9 to 14) (size 15 to 20)
#    0.000    1.143    2.857    5.571    0.000    4.000 
#    2.571    0.000    0.000    0.000    0.000    0.000 
#    0.000    0.000    0.000    0.000    0.000    0.000 
#
# Total GULP energy -156256.093213 kJ/mol
# GULP energy per Si atom -5580.574758 kJ/mol
# Density = 2.101785 g / cm^3
# Si number density = 21.065797 Si / 1000 Ang^3
#
#
#
# Elastic Constant Matrix: (Units=GPa)
#
#
# Indices 1 2 3 4 5 6 
#
# 1 127.0947 34.2686 26.4822 0.0000 0.0000 0.0000
# 2 34.2686 106.8046 26.0575 0.0000 0.0000 0.0000
# 3 26.4822 26.0575 80.1045 0.0000 0.0000 0.0000
# 4 0.0000 0.0000 0.0000 23.0857 0.0000 0.0000
# 5 0.0000 0.0000 0.0000 0.0000 17.7036 0.0000
# 6 0.0000 0.0000 0.0000 0.0000 0.0000 10.9861
#
#
#
# Elastic Compliance Matrix: (Units=1/GPa)
#
#
# Indices 1 2 3 4 5 6 
#
# 1 0.008957 -0.002337 -0.002201 0.000000 0.000000 0.000000
# 2 -0.002337 0.010780 -0.002734 0.000000 0.000000 0.000000
# 3 -0.002201 -0.002734 0.014101 0.000000 0.000000 0.000000
# 4 0.000000 0.000000 0.000000 0.043317 0.000000 0.000000
# 5 0.000000 0.000000 0.000000 0.000000 0.056486 0.000000
# 6 0.000000 0.000000 0.000000 0.000000 0.000000 0.091024
#
#
# Mechanical properties :
#
#
# Convention : Reuss Voigt Hill
#
# Bulk Modulus (GPa) = 51.83063 54.18005 53.00534
# Shear Modulus (GPa) = 20.35509 25.50145 22.92827
#
# Velocity S-wave (km/s) = 3.11185 3.48309 3.30269
# Velocity P-wave (km/s) = 6.12936 6.47697 6.30556
#
# Compressibility (1/GPa) = 0.01929361
#
# Stress axis : x y z
#
# Youngs Moduli (GPa) = 111.64655 92.76687 70.91859
#
# Poissons Ratio (x) = 0.21678 0.15609
# Poissons Ratio (y) = 0.26090 0.19389
# Poissons Ratio (z) = 0.24573 0.25363
#
# Static dielectric constant tensor:
#      x y z
#    x 1.751650 0.000000 0.000000 
#    y 0.000000 1.848020 0.000000 
#    z 0.000000 0.000000 1.802330 
# 
# From -- ./inp_files/5217.got.cif
#   From: 2010.05.17/outbox.cif.g08.bks.cpg/sg36_3_cif.got.tgz:5217.got - 2010.06.03 17:41:39.
