data_PCOD9352015
_publ_section_title
;
Structure prediction by ZEFSAII (Michael W. Deem and Ramdas Pophale) SiO2 
 PCOD9352015
Probable space group: C M C 21
;
_chemical_formula_sum "Si O2"
_cell_formula_units_Z 48
_cell_length_a 8.543330
_cell_length_b 15.360671
_cell_length_c 19.264760
_cell_angle_alpha 90.000000
_cell_angle_beta 90.000000
_cell_angle_gamma 90.000000
_cell_volume 2528.139140
_symmetry_space_group_name_H-M "C M C 21"
_symmetry_group_IT_number 36
_symmetry_cell_setting 'orthorhombic'
loop_
_space_group_symop_operation_xyz
x,y,z
-x,-y,1/2+z
x,-y,1/2+z
-x,y,z
1/2+x,1/2+y,z
1/2-x,1/2-y,1/2+z
1/2+x,1/2-y,1/2+z
1/2-x,1/2+y,z
loop_
_atom_site_type_symbol
_atom_site_label
_atom_site_fract_x
_atom_site_fract_y
_atom_site_fract_z
Si Si1 0.187863 0.656350 0.244750
Si Si2 0.187712 0.996607 0.835341
Si Si3 0.186001 0.493606 0.989498
Si Si4 0.813262 0.141414 0.091409
Si Si5 0.811416 0.833348 0.071452
Si Si6 0.810201 0.144955 0.728987
O O1 0.263773 0.595074 0.301977
O O2 0.241635 0.627291 0.167982
O O3 0.235610 0.757609 0.251414
O O4 0.000000 0.651385 0.248981
O O5 0.243863 0.070901 0.781433
O O6 0.000000 0.001748 0.840931
O O7 0.261118 0.008312 0.910702
O O8 0.000000 0.498560 0.995122
O O9 0.261771 0.565709 0.039557
O O10 0.244347 0.399365 0.015338
O O11 0.750887 0.235097 0.065548
O O12 0.000000 0.143426 0.097114
O O13 0.762896 0.866292 0.148687
O O14 0.000000 0.832310 0.068407
O O15 0.000000 0.142537 0.729015
#
# Coordination Sequence:
#
# PCOD9352015 Si02
#       6
#     8   8   8   8   8   8
#     4  10  20  38  61  87 116 150 193 244 292 345
#     4  11  22  38  58  84 117 156 196 241 294 350
#     4  12  25  40  57  84 120 160 200 244 295 351
#     4  11  22  39  62  89 118 154 197 244 293 349
#     4  10  20  39  64  90 116 149 194 247 298 351
#     4   8  18  36  60  84 111 145 186 234 288 342
#
# _framework density 18.986295999999999
#
# number of rings (size 3 to 8) (size 9 to 14) (size 15 to 20)
#    0.000    1.667    0.000    6.500    0.000    2.667 
#    0.000   14.167    0.000    0.000    0.000    0.000 
#    0.000    0.000    0.000    0.000    0.000    0.000 
#
# Total GULP energy -134150.902889 kJ/mol
# GULP energy per Si atom -5589.620954 kJ/mol
# Density = 1.894308 g / cm^3
# Si number density = 18.986296 Si / 1000 Ang^3
#
#
#
# Elastic Constant Matrix: (Units=GPa)
#
#
# Indices 1 2 3 4 5 6 
#
# 1 54.9560 6.0297 -3.5823 0.0000 0.0000 0.0000
# 2 6.0297 32.9307 10.1348 0.0000 0.0000 0.0000
# 3 -3.5823 10.1348 25.4494 0.0000 0.0000 0.0000
# 4 0.0000 0.0000 0.0000 -0.1955 0.0000 0.0000
# 5 0.0000 0.0000 0.0000 0.0000 30.0221 0.0000
# 6 0.0000 0.0000 0.0000 0.0000 0.0000 31.6961
#
#
#
# Elastic Compliance Matrix: (Units=1/GPa)
#
#
# Indices 1 2 3 4 5 6 
#
# 1 0.019038 -0.004913 0.004636 0.000000 0.000000 0.000000
# 2 -0.004913 0.035876 -0.014979 0.000000 0.000000 0.000000
# 3 0.004636 -0.014979 0.045911 0.000000 0.000000 0.000000
# 4 0.000000 0.000000 0.000000 -5.115047 0.000000 0.000000
# 5 0.000000 0.000000 0.000000 0.000000 0.033309 0.000000
# 6 0.000000 0.000000 0.000000 0.000000 0.000000 0.031550
#
#
# Mechanical properties :
#
#
# Convention : Reuss Voigt Hill
#
# Bulk Modulus (GPa) = 14.22179 15.38896 14.80538
# Shear Modulus (GPa) = -1.02136 19.02148 9.00006
#
# Velocity S-wave (km/s) = -0.73424 3.16864 2.17958
# Velocity P-wave (km/s) = 2.60538 4.63788 3.76151
#
# Compressibility (1/GPa) = 0.07031466
#
# Stress axis : x y z
#
# Youngs Moduli (GPa) = 52.52764 27.87370 21.78121
#
# Poissons Ratio (x) = 0.13693 -0.10098
# Poissons Ratio (y) = 0.25805 0.32625
# Poissons Ratio (z) = -0.24353 0.41751
#
# Static dielectric constant tensor:
#      x y z
#    x 1.636250 0.000000 0.000000 
#    y 0.000000 1.646750 0.000000 
#    z 0.000000 0.000000 1.630630 
# 
# From -- ./inp_files/13483.got.cif
#   From: 2010.05.17/outbox.cif.g08.bks.cpg/sg36_7_cif.got.tgz:13483.got - 2010.06.03 17:41:39.
