data_PCOD9352666
_publ_section_title
;
Structure prediction by ZEFSAII (Michael W. Deem and Ramdas Pophale) SiO2 
 PCOD9352666
Probable space group: C M C 21
;
_chemical_formula_sum "Si O2"
_cell_formula_units_Z 64
_cell_length_a 8.284131
_cell_length_b 31.391665
_cell_length_c 10.108704
_cell_angle_alpha 90.000000
_cell_angle_beta 90.000000
_cell_angle_gamma 90.000000
_cell_volume 2628.795417
_symmetry_space_group_name_H-M "C M C 21"
_symmetry_group_IT_number 36
_symmetry_cell_setting 'orthorhombic'
loop_
_space_group_symop_operation_xyz
x,y,z
-x,-y,1/2+z
x,-y,1/2+z
-x,y,z
1/2+x,1/2+y,z
1/2-x,1/2-y,1/2+z
1/2+x,1/2-y,1/2+z
1/2-x,1/2+y,z
loop_
_atom_site_type_symbol
_atom_site_label
_atom_site_fract_x
_atom_site_fract_y
_atom_site_fract_z
Si Si1 0.806301 0.715027 0.400080
Si Si2 0.314683 0.619187 0.441911
Si Si3 0.692446 0.537552 0.092063
Si Si4 0.310283 0.281426 0.572678
Si Si5 0.694853 0.526732 0.377897
Si Si6 0.309153 0.875093 0.514652
Si Si7 0.184933 0.626578 0.723541
Si Si8 0.691626 0.281643 0.228082
O O1 0.749958 0.665405 0.400888
O O2 0.734947 0.729385 0.557609
O O3 0.804287 0.772500 0.400168
O O4 0.000000 0.710270 0.407882
O O5 0.500000 0.619561 0.399766
O O6 0.239961 0.574701 0.393668
O O7 0.295348 0.615648 0.600289
O O8 0.500000 0.544158 0.075481
O O9 0.718248 0.513061 0.228208
O O10 0.769089 0.584014 0.099762
O O11 0.760502 0.508381 0.976427
O O12 0.500000 0.276535 0.603444
O O13 0.265097 0.331195 0.563897
O O14 0.234459 0.272002 0.734842
O O15 0.500000 0.529315 0.402712
O O16 0.500000 0.867612 0.505867
O O17 0.252078 0.887203 0.366471
O O18 0.190740 0.677936 0.732264
O O19 0.000000 0.612813 0.701773
O O20 0.500000 0.291180 0.213187
#
# Coordination Sequence:
#
# PCOD9352666 Si02
#       8
#     8   8   8   8   8   8   8   8
#     4  10  22  38  56  84 123 167 212 258 315 376
#     4  11  23  38  62  94 127 164 216 266 323 388
#     4  10  22  45  73  99 130 166 211 267 333 397
#     4  11  22  38  59  86 123 167 215 264 318 379
#     4   9  22  43  70 103 130 162 210 267 326 398
#     4  11  25  42  62  93 129 167 219 271 326 391
#     4  11  23  39  59  87 126 171 218 268 324 384
#     4  11  22  37  57  84 122 168 221 271 319 377
#
# _framework density 24.345752999999998
#
# number of rings (size 3 to 8) (size 9 to 14) (size 15 to 20)
#    0.000    1.500    2.500    1.875    3.500    3.000 
#    0.000    2.500    0.000    0.000    0.000    0.000 
#    0.000    0.000    0.000    0.000    0.000    0.000 
#
# Total GULP energy -178585.913771 kJ/mol
# GULP energy per Si atom -5580.809805 kJ/mol
# Density = 2.429034 g / cm^3
# Si number density = 24.345753 Si / 1000 Ang^3
#
#
#
# Elastic Constant Matrix: (Units=GPa)
#
#
# Indices 1 2 3 4 5 6 
#
# 1 48.4788 17.1932 25.9288 0.0000 0.0000 0.0000
# 2 17.1932 125.9349 42.9360 0.0000 0.0000 0.0000
# 3 25.9288 42.9360 99.6944 0.0000 0.0000 0.0000
# 4 0.0000 0.0000 0.0000 43.2253 0.0000 0.0000
# 5 0.0000 0.0000 0.0000 0.0000 30.1439 0.0000
# 6 0.0000 0.0000 0.0000 0.0000 0.0000 19.6999
#
#
#
# Elastic Compliance Matrix: (Units=1/GPa)
#
#
# Indices 1 2 3 4 5 6 
#
# 1 0.024156 -0.001355 -0.005699 0.000000 0.000000 0.000000
# 2 -0.001355 0.009383 -0.003689 0.000000 0.000000 0.000000
# 3 -0.005699 -0.003689 0.013102 0.000000 0.000000 0.000000
# 4 0.000000 0.000000 0.000000 0.023135 0.000000 0.000000
# 5 0.000000 0.000000 0.000000 0.000000 0.033174 0.000000
# 6 0.000000 0.000000 0.000000 0.000000 0.000000 0.050762
#
#
# Mechanical properties :
#
#
# Convention : Reuss Voigt Hill
#
# Bulk Modulus (GPa) = 39.75266 49.58045 44.66656
# Shear Modulus (GPa) = 27.23578 31.15051 29.19314
#
# Velocity S-wave (km/s) = 3.34834 3.58090 3.46657
# Velocity P-wave (km/s) = 5.59574 6.12425 5.86595
#
# Compressibility (1/GPa) = 0.02515555
#
# Stress axis : x y z
#
# Youngs Moduli (GPa) = 41.39718 106.57327 76.32691
#
# Poissons Ratio (x) = 0.14439 0.43499
# Poissons Ratio (y) = 0.05609 0.28155
# Poissons Ratio (z) = 0.23593 0.39312
#
# Static dielectric constant tensor:
#      x y z
#    x 1.815920 0.000000 0.000000 
#    y 0.000000 1.889590 0.000000 
#    z 0.000000 0.000000 2.241190 
# 
# From -- ./inp_files/7141.got.cif
#   From: 2010.05.17/outbox.cif.g08.bks.cpg/sg36_4_cif.got.tgz:7141.got - 2010.06.03 17:41:39.
