data_PCOD9352025
_publ_section_title
;
Structure prediction by ZEFSAII (Michael W. Deem and Ramdas Pophale) SiO2 
 PCOD9352025
Probable space group: C M C 21
;
_chemical_formula_sum "Si O2"
_cell_formula_units_Z 64
_cell_length_a 8.459652
_cell_length_b 23.440453
_cell_length_c 16.625120
_cell_angle_alpha 90.000000
_cell_angle_beta 90.000000
_cell_angle_gamma 90.000000
_cell_volume 3296.729294
_symmetry_space_group_name_H-M "C M C 21"
_symmetry_group_IT_number 36
_symmetry_cell_setting 'orthorhombic'
loop_
_space_group_symop_operation_xyz
x,y,z
-x,-y,1/2+z
x,-y,1/2+z
-x,y,z
1/2+x,1/2+y,z
1/2-x,1/2-y,1/2+z
1/2+x,1/2-y,1/2+z
1/2-x,1/2+y,z
loop_
_atom_site_type_symbol
_atom_site_label
_atom_site_fract_x
_atom_site_fract_y
_atom_site_fract_z
Si Si1 0.808767 0.866819 0.912410
Si Si2 0.680998 0.033362 0.303042
Si Si3 0.813471 0.890794 0.667767
Si Si4 0.813696 0.465415 0.537050
Si Si5 0.810485 0.344781 0.244910
Si Si6 0.809189 0.216496 0.270407
Si Si7 0.689214 0.591030 0.585685
Si Si8 0.318531 0.569666 0.868438
O O1 0.728770 0.921962 0.872162
O O2 0.760429 0.813540 0.855135
O O3 0.000000 0.872445 0.905010
O O4 0.770262 0.870027 0.006948
O O5 0.500000 0.014491 0.310356
O O6 0.708604 0.067673 0.221915
O O7 0.799361 0.980662 0.303483
O O8 0.775217 0.912544 0.579551
O O9 0.772335 0.827521 0.698177
O O10 0.000000 0.898743 0.685153
O O11 0.754673 0.527123 0.568917
O O12 0.774656 0.456253 0.443648
O O13 0.000000 0.461849 0.550604
O O14 0.750445 0.279604 0.250919
O O15 0.749327 0.378998 0.166831
O O16 0.756650 0.375909 0.326427
O O17 0.000000 0.344932 0.240712
O O18 0.000000 0.220301 0.274921
O O19 0.500000 0.586350 0.589514
O O20 0.500000 0.578934 0.889603
#
# Coordination Sequence:
#
# PCOD9352025 Si02
#       8
#     8   8   8   8   8   8   8   8
#     4   9  18  36  62  87 115 156 202 246 298 359
#     4  11  20  33  57  89 120 150 192 244 296 349
#     4  10  20  38  62  87 118 158 197 238 293 357
#     4  12  24  39  60  92 125 153 195 249 306 360
#     4  11  23  41  62  87 123 162 205 255 303 349
#     4   8  18  39  64  86 115 157 204 250 296 351
#     4  11  22  38  62  91 124 159 201 249 305 369
#     4  12  24  40  59  83 120 161 198 241 301 366
#
# _framework density 19.413179
#
# number of rings (size 3 to 8) (size 9 to 14) (size 15 to 20)
#    0.000    1.500    1.250    6.000    0.000    0.500 
#    2.250    6.250    0.000    0.000    0.000    0.000 
#    0.000    0.000    0.000    0.000    0.000    0.000 
#
# Total GULP energy -178576.675605 kJ/mol
# GULP energy per Si atom -5580.521113 kJ/mol
# Density = 1.936899 g / cm^3
# Si number density = 19.413179 Si / 1000 Ang^3
#
#
#
# Elastic Constant Matrix: (Units=GPa)
#
#
# Indices 1 2 3 4 5 6 
#
# 1 65.6825 21.3234 23.9574 0.0000 0.0000 0.0000
# 2 21.3234 135.5138 55.7218 0.0000 0.0000 0.0000
# 3 23.9574 55.7218 67.6897 0.0000 0.0000 0.0000
# 4 0.0000 0.0000 0.0000 24.7560 0.0000 0.0000
# 5 0.0000 0.0000 0.0000 0.0000 30.7864 0.0000
# 6 0.0000 0.0000 0.0000 0.0000 0.0000 17.9811
#
#
#
# Elastic Compliance Matrix: (Units=1/GPa)
#
#
# Indices 1 2 3 4 5 6 
#
# 1 0.017490 -0.000313 -0.005933 0.000000 0.000000 0.000000
# 2 -0.000313 0.011161 -0.009077 0.000000 0.000000 0.000000
# 3 -0.005933 -0.009077 0.024345 0.000000 0.000000 0.000000
# 4 0.000000 0.000000 0.000000 0.040394 0.000000 0.000000
# 5 0.000000 0.000000 0.000000 0.000000 0.032482 0.000000
# 6 0.000000 0.000000 0.000000 0.000000 0.000000 0.055614
#
#
# Mechanical properties :
#
#
# Convention : Reuss Voigt Hill
#
# Bulk Modulus (GPa) = 44.74002 52.32123 48.53063
# Shear Modulus (GPa) = 22.77057 25.89694 24.33375
#
# Velocity S-wave (km/s) = 3.42854 3.65634 3.54427
# Velocity P-wave (km/s) = 6.22651 6.69590 6.46546
#
# Compressibility (1/GPa) = 0.02235135
#
# Stress axis : x y z
#
# Youngs Moduli (GPa) = 57.17466 89.59912 41.07584
#
# Poissons Ratio (x) = 0.02800 0.24370
# Poissons Ratio (y) = 0.01787 0.37284
# Poissons Ratio (z) = 0.33922 0.81328
#
# Static dielectric constant tensor:
#      x y z
#    x 1.650470 0.000000 0.000000 
#    y 0.000000 1.694100 0.000000 
#    z 0.000000 0.000000 1.737310 
# 
# From -- ./inp_files/11058.got.cif
#   From: 2010.05.17/outbox.cif.g08.bks.cpg/sg36_6_cif.got.tgz:11058.got - 2010.06.03 17:41:39.
