data_PCOD9352695
_publ_section_title
;
Structure prediction by ZEFSAII (Michael W. Deem and Ramdas Pophale) SiO2 
 PCOD9352695
Probable space group: C M C 21
;
_chemical_formula_sum "Si O2"
_cell_formula_units_Z 52
_cell_length_a 7.454284
_cell_length_b 15.339289
_cell_length_c 18.006182
_cell_angle_alpha 90.000000
_cell_angle_beta 90.000000
_cell_angle_gamma 90.000000
_cell_volume 2058.888369
_symmetry_space_group_name_H-M "C M C 21"
_symmetry_group_IT_number 36
_symmetry_cell_setting 'orthorhombic'
loop_
_space_group_symop_operation_xyz
x,y,z
-x,-y,1/2+z
x,-y,1/2+z
-x,y,z
1/2+x,1/2+y,z
1/2-x,1/2-y,1/2+z
1/2+x,1/2-y,1/2+z
1/2-x,1/2+y,z
loop_
_atom_site_type_symbol
_atom_site_label
_atom_site_fract_x
_atom_site_fract_y
_atom_site_fract_z
Si Si1 0.793237 0.840682 0.488600
Si Si2 0.500000 0.380088 0.897566
Si Si3 0.707155 0.100793 0.829760
Si Si4 0.282045 0.819032 0.178723
Si Si5 0.792441 0.366818 0.021668
Si Si6 0.782568 0.120862 0.144548
Si Si7 0.796330 0.416078 0.803707
O O1 0.708804 0.853750 0.408815
O O2 0.787953 0.738798 0.509976
O O3 0.720870 0.893597 0.559910
O O4 0.000000 0.865715 0.479191
O O5 0.657313 0.348058 0.836775
O O6 0.657410 0.400430 0.960341
O O7 0.500000 0.081538 0.811165
O O8 0.783255 0.149710 0.758632
O O9 0.790179 0.004983 0.836517
O O10 0.500000 0.817659 0.177680
O O11 0.232091 0.877705 0.107415
O O12 0.226102 0.719808 0.164710
O O13 0.000000 0.395002 0.012534
O O14 0.712424 0.069131 0.215202
O O15 0.000000 0.116233 0.144240
O O16 0.000000 0.397312 0.825843
#
# Coordination Sequence:
#
# PCOD9352695 Si02
#       7
#     8   4   8   8   8   8   8
#     4   9  20  37  63  95 129 159 202 262 312 372
#     4  12  24  40  66  86 126 166 206 260 310 368
#     4  10  22  39  61  89 126 168 211 256 309 371
#     4   8  17  38  66  90 124 161 202 261 314 368
#     4   9  20  40  63  98 129 155 203 263 316 368
#     4   9  18  39  65  91 124 164 204 256 318 371
#     4  11  25  42  59  91 127 164 215 259 303 374
#
# _framework density 25.256347000000002
#
# number of rings (size 3 to 8) (size 9 to 14) (size 15 to 20)
#    0.000    2.462    0.769    2.308    4.308    0.615 
#    8.308    0.000    0.000    0.000    0.000    0.000 
#    0.000    0.000    0.000    0.000    0.000    0.000 
#
# Total GULP energy -144809.959369 kJ/mol
# GULP energy per Si atom -5569.613822 kJ/mol
# Density = 2.519886 g / cm^3
# Si number density = 25.256347 Si / 1000 Ang^3
#
#
#
# Elastic Constant Matrix: (Units=GPa)
#
#
# Indices 1 2 3 4 5 6 
#
# 1 139.4208 3.8893 42.6020 0.0000 0.0000 0.0000
# 2 3.8893 22.1910 27.2787 0.0000 0.0000 0.0000
# 3 42.6020 27.2787 216.3035 0.0000 0.0000 0.0000
# 4 0.0000 0.0000 0.0000 29.0299 0.0000 0.0000
# 5 0.0000 0.0000 0.0000 0.0000 29.7735 0.0000
# 6 0.0000 0.0000 0.0000 0.0000 0.0000 -12.8252
#
#
#
# Elastic Compliance Matrix: (Units=1/GPa)
#
#
# Indices 1 2 3 4 5 6 
#
# 1 0.007639 0.000604 -0.001581 0.000000 0.000000 0.000000
# 2 0.000604 0.053379 -0.006851 0.000000 0.000000 0.000000
# 3 -0.001581 -0.006851 0.005798 0.000000 0.000000 0.000000
# 4 0.000000 0.000000 0.000000 0.034447 0.000000 0.000000
# 5 0.000000 0.000000 0.000000 0.000000 0.033587 0.000000
# 6 0.000000 0.000000 0.000000 0.000000 0.000000 -0.077972
#
#
# Mechanical properties :
#
#
# Convention : Reuss Voigt Hill
#
# Bulk Modulus (GPa) = 19.54589 58.38391 38.96490
# Shear Modulus (GPa) = 55.81189 29.47201 42.64195
#
# Velocity S-wave (km/s) = 4.70597 3.41972 4.11343
# Velocity P-wave (km/s) = 6.10606 6.22570 6.16617
#
# Compressibility (1/GPa) = 0.05116164
#
# Stress axis : x y z
#
# Youngs Moduli (GPa) = 130.91280 18.73400 172.46054
#
# Poissons Ratio (x) = -0.01132 0.27260
# Poissons Ratio (y) = -0.07911 1.18149
# Poissons Ratio (z) = 0.20693 0.12834
#
# Static dielectric constant tensor:
#      x y z
#    x 1.957180 0.000000 0.000000 
#    y 0.000000 2.122000 0.000000 
#    z 0.000000 0.000000 2.058300 
# 
# From -- ./inp_files/10597.got.cif
#   From: 2010.05.17/outbox.cif.g08.bks.cpg/sg36_6_cif.got.tgz:10597.got - 2010.06.03 17:41:39.
