data_PCOD9352212
_publ_section_title
;
Structure prediction by ZEFSAII (Michael W. Deem and Ramdas Pophale) SiO2 
 PCOD9352212
Probable space group: C M C 21
;
_chemical_formula_sum "Si O2"
_cell_formula_units_Z 64
_cell_length_a 12.284774
_cell_length_b 30.971460
_cell_length_c 8.187428
_cell_angle_alpha 90.000000
_cell_angle_beta 90.000000
_cell_angle_gamma 90.000000
_cell_volume 3115.131208
_symmetry_space_group_name_H-M "C M C 21"
_symmetry_group_IT_number 36
_symmetry_cell_setting 'orthorhombic'
loop_
_space_group_symop_operation_xyz
x,y,z
-x,-y,1/2+z
x,-y,1/2+z
-x,y,z
1/2+x,1/2+y,z
1/2-x,1/2-y,1/2+z
1/2+x,1/2-y,1/2+z
1/2-x,1/2+y,z
loop_
_atom_site_type_symbol
_atom_site_label
_atom_site_fract_x
_atom_site_fract_y
_atom_site_fract_z
Si Si1 0.629203 0.125846 0.015710
Si Si2 0.186948 0.365789 0.897186
Si Si3 0.261919 0.512611 0.130755
Si Si4 0.782349 0.291462 0.330101
Si Si5 0.121685 0.543994 0.412600
Si Si6 0.876348 0.853681 0.135050
Si Si7 0.809444 0.067737 0.849884
Si Si8 0.880133 0.271187 0.008538
O O1 0.500000 0.117582 0.015794
O O2 0.670865 0.129153 0.202980
O O3 0.657889 0.171776 0.934200
O O4 0.695844 0.089880 0.911786
O O5 0.130653 0.407541 0.980806
O O6 0.133110 0.320710 0.950186
O O7 0.308396 0.365588 0.972126
O O8 0.213503 0.541270 0.274354
O O9 0.307441 0.469256 0.212150
O O10 0.157921 0.494031 0.032065
O O11 0.339137 0.540322 0.012698
O O12 0.691420 0.315539 0.219789
O O13 0.717267 0.256835 0.435093
O O14 0.865600 0.270530 0.203227
O O15 0.000000 0.537200 0.351517
O O16 0.872466 0.892820 0.267165
O O17 0.000000 0.842400 0.099094
O O18 0.000000 0.255307 0.960231
#
# Coordination Sequence:
#
# PCOD9352212 Si02
#       8
#     8   8   8   8   8   8   8   8
#     4  11  22  39  62  91 129 166 198 243 308 375
#     4  11  22  38  60  91 124 159 201 251 301 369
#     4  10  21  35  55  84 125 155 201 252 296 358
#     4  10  23  41  64  95 123 158 206 255 300 369
#     4  11  20  33  54  85 124 162 195 236 301 363
#     4  10  22  44  65  86 117 163 210 260 310 356
#     4  10  21  38  59  86 122 158 202 253 304 363
#     4  11  22  40  64  92 126 163 202 252 311 367
#
# _framework density 20.544882999999999
#
# number of rings (size 3 to 8) (size 9 to 14) (size 15 to 20)
#    0.000    1.500    2.500    3.000    0.000    2.500 
#    0.000   11.875    0.000    0.000    0.000    0.000 
#    0.000    0.000    0.000    0.000    0.000    0.000 
#
# Total GULP energy -178450.026158 kJ/mol
# GULP energy per Si atom -5576.563317 kJ/mol
# Density = 2.049812 g / cm^3
# Si number density = 20.544883 Si / 1000 Ang^3
#
#
#
# Elastic Constant Matrix: (Units=GPa)
#
#
# Indices 1 2 3 4 5 6 
#
# 1 72.8945 -9.3863 22.5586 0.0000 0.0000 0.0000
# 2 -9.3863 75.1605 14.8853 0.0000 0.0000 0.0000
# 3 22.5586 14.8853 55.9225 0.0000 0.0000 0.0000
# 4 0.0000 0.0000 0.0000 37.5980 0.0000 0.0000
# 5 0.0000 0.0000 0.0000 0.0000 14.3017 0.0000
# 6 0.0000 0.0000 0.0000 0.0000 0.0000 4.5919
#
#
#
# Elastic Compliance Matrix: (Units=1/GPa)
#
#
# Indices 1 2 3 4 5 6 
#
# 1 0.016538 0.003575 -0.007623 0.000000 0.000000 0.000000
# 2 0.003575 0.014818 -0.005386 0.000000 0.000000 0.000000
# 3 -0.007623 -0.005386 0.022391 0.000000 0.000000 0.000000
# 4 0.000000 0.000000 0.000000 0.026597 0.000000 0.000000
# 5 0.000000 0.000000 0.000000 0.000000 0.069922 0.000000
# 6 0.000000 0.000000 0.000000 0.000000 0.000000 0.217773
#
#
# Mechanical properties :
#
#
# Convention : Reuss Voigt Hill
#
# Bulk Modulus (GPa) = 28.67124 28.89918 28.78521
# Shear Modulus (GPa) = 12.54603 23.02634 17.78618
#
# Velocity S-wave (km/s) = 2.47384 3.35144 2.94551
# Velocity P-wave (km/s) = 4.70591 5.39195 5.06057
#
# Compressibility (1/GPa) = 0.03487816
#
# Stress axis : x y z
#
# Youngs Moduli (GPa) = 60.46760 67.48521 44.66170
#
# Poissons Ratio (x) = -0.24126 0.34044
# Poissons Ratio (y) = -0.21617 0.24056
# Poissons Ratio (z) = 0.46093 0.36350
#
# Static dielectric constant tensor:
#      x y z
#    x 1.696340 0.000000 0.000000 
#    y 0.000000 1.767300 0.000000 
#    z 0.000000 0.000000 1.770610 
# 
# From -- ./inp_files/3627.got.cif
#   From: 2010.05.17/outbox.cif.g08.bks.cpg/sg36_2_cif.got.tgz:3627.got - 2010.06.03 17:41:39.
