data_PCOD9352745
_publ_section_title
;
Structure prediction by ZEFSAII (Michael W. Deem and Ramdas Pophale) SiO2 
 PCOD9352745
Probable space group: C M C 21
;
_chemical_formula_sum "Si O2"
_cell_formula_units_Z 48
_cell_length_a 27.201152
_cell_length_b 7.765517
_cell_length_c 8.996815
_cell_angle_alpha 90.000000
_cell_angle_beta 90.000000
_cell_angle_gamma 90.000000
_cell_volume 1900.406304
_symmetry_space_group_name_H-M "C M C 21"
_symmetry_group_IT_number 36
_symmetry_cell_setting 'orthorhombic'
loop_
_space_group_symop_operation_xyz
x,y,z
-x,-y,1/2+z
x,-y,1/2+z
-x,y,z
1/2+x,1/2+y,z
1/2-x,1/2-y,1/2+z
1/2+x,1/2-y,1/2+z
1/2-x,1/2+y,z
loop_
_atom_site_type_symbol
_atom_site_label
_atom_site_fract_x
_atom_site_fract_y
_atom_site_fract_z
Si Si1 0.554374 0.646096 0.573570
Si Si2 0.797202 0.253067 0.407379
Si Si3 0.444140 0.987883 0.241071
Si Si4 0.289890 0.915363 0.086279
Si Si5 0.893899 0.958201 0.814209
Si Si6 0.107397 0.313474 0.981454
O O1 0.500000 0.574045 0.601153
O O2 0.555848 0.834574 0.644392
O O3 0.565376 0.654772 0.399081
O O4 0.594748 0.520507 0.648234
O O5 0.755812 0.132934 0.481629
O O6 0.781740 0.362008 0.258626
O O7 0.805754 0.389789 0.542421
O O8 0.842714 0.134817 0.353218
O O9 0.500000 0.967473 0.296405
O O10 0.404720 0.029516 0.368931
O O11 0.426003 0.846204 0.125012
O O12 0.336747 0.808776 0.032723
O O13 0.901786 0.143650 0.890059
#
# Coordination Sequence:
#
# PCOD9352745 Si02
#       6
#     8   8   8   8   8   8
#     4  10  22  41  65  96 137 183 233 293 361 434
#     4  12  27  48  74 108 145 192 249 307 374 448
#     4  10  22  40  64  98 139 183 233 292 362 437
#     4  12  26  46  73 105 146 193 245 306 369 441
#     4  11  24  43  68 100 139 184 238 298 360 434
#     4  11  23  42  68  99 138 185 238 296 360 434
#
# _framework density 25.257756000000001
#
# number of rings (size 3 to 8) (size 9 to 14) (size 15 to 20)
#    0.000    1.000    0.000    6.000    0.000    8.667 
#    0.000    0.000    0.000    0.000    0.000    0.000 
#    0.000    0.000    0.000    0.000    0.000    0.000 
#
# Total GULP energy -134252.468649 kJ/mol
# GULP energy per Si atom -5593.852860 kJ/mol
# Density = 2.520027 g / cm^3
# Si number density = 25.257756 Si / 1000 Ang^3
#
#
#
# Elastic Constant Matrix: (Units=GPa)
#
#
# Indices 1 2 3 4 5 6 
#
# 1 88.1337 10.2527 20.0044 0.0000 0.0000 0.0000
# 2 10.2527 95.5030 42.1025 0.0000 0.0000 0.0000
# 3 20.0044 42.1025 114.9616 0.0000 0.0000 0.0000
# 4 0.0000 0.0000 0.0000 50.0352 0.0000 0.0000
# 5 0.0000 0.0000 0.0000 0.0000 19.4002 0.0000
# 6 0.0000 0.0000 0.0000 0.0000 0.0000 28.8909
#
#
#
# Elastic Compliance Matrix: (Units=1/GPa)
#
#
# Indices 1 2 3 4 5 6 
#
# 1 0.011828 -0.000432 -0.001900 0.000000 0.000000 0.000000
# 2 -0.000432 0.012503 -0.004504 0.000000 0.000000 0.000000
# 3 -0.001900 -0.004504 0.010679 0.000000 0.000000 0.000000
# 4 0.000000 0.000000 0.000000 0.019986 0.000000 0.000000
# 5 0.000000 0.000000 0.000000 0.000000 0.051546 0.000000
# 6 0.000000 0.000000 0.000000 0.000000 0.000000 0.034613
#
#
# Mechanical properties :
#
#
# Convention : Reuss Voigt Hill
#
# Bulk Modulus (GPa) = 46.86559 49.25753 48.06156
# Shear Modulus (GPa) = 30.87603 34.74785 32.81194
#
# Velocity S-wave (km/s) = 3.50013 3.71311 3.60819
# Velocity P-wave (km/s) = 5.91014 6.15850 6.03560
#
# Compressibility (1/GPa) = 0.02133762
#
# Stress axis : x y z
#
# Youngs Moduli (GPa) = 84.54583 79.98257 93.64579
#
# Poissons Ratio (x) = 0.03457 0.17792
# Poissons Ratio (y) = 0.03654 0.42175
# Poissons Ratio (z) = 0.16063 0.36022
#
# Static dielectric constant tensor:
#      x y z
#    x 1.961330 0.000000 0.000000 
#    y 0.000000 2.080110 0.000000 
#    z 0.000000 0.000000 2.011270 
# 
# From -- ./inp_files/5987.got.cif
#   From: 2010.05.17/outbox.cif.g08.bks.cpg/sg36_3_cif.got.tgz:5987.got - 2010.06.03 17:41:39.
