data_PCOD9352290
_publ_section_title
;
Structure prediction by ZEFSAII (Michael W. Deem and Ramdas Pophale) SiO2 
 PCOD9352290
Probable space group: C M C 21
;
_chemical_formula_sum "Si O2"
_cell_formula_units_Z 64
_cell_length_a 7.391109
_cell_length_b 23.915761
_cell_length_c 16.197293
_cell_angle_alpha 90.000000
_cell_angle_beta 90.000000
_cell_angle_gamma 90.000000
_cell_volume 2863.098241
_symmetry_space_group_name_H-M "C M C 21"
_symmetry_group_IT_number 36
_symmetry_cell_setting 'orthorhombic'
loop_
_space_group_symop_operation_xyz
x,y,z
-x,-y,1/2+z
x,-y,1/2+z
-x,y,z
1/2+x,1/2+y,z
1/2-x,1/2-y,1/2+z
1/2+x,1/2-y,1/2+z
1/2-x,1/2+y,z
loop_
_atom_site_type_symbol
_atom_site_label
_atom_site_fract_x
_atom_site_fract_y
_atom_site_fract_z
Si Si1 0.720079 0.365328 0.959280
Si Si2 0.794225 0.667710 0.133121
Si Si3 0.220946 0.214241 0.605939
Si Si4 0.282560 0.507546 0.459279
Si Si5 0.711762 0.956954 0.279443
Si Si6 0.711762 0.043046 0.139116
Si Si7 0.705775 0.832290 0.285439
Si Si8 0.720946 0.285759 0.812621
O O1 0.500000 0.366926 0.959280
O O2 0.782583 0.428628 0.959280
O O3 0.775858 0.330233 0.880328
O O4 0.775858 0.330233 0.038232
O O5 0.717907 0.722274 0.086532
O O6 0.709784 0.606097 0.136427
O O7 0.792966 0.691554 0.226059
O O8 0.000000 0.660365 0.102253
O O9 0.292966 0.191554 0.692501
O O10 0.000000 0.215484 0.610688
O O11 0.500000 0.506476 0.459279
O O12 0.224872 0.480307 0.372486
O O13 0.224873 0.480306 0.546073
O O14 0.500000 0.950072 0.257328
O O15 0.790216 0.893903 0.282133
O O16 0.785311 1.000000 0.209279
O O17 0.500000 0.049927 0.161231
O O18 0.500000 0.839635 0.316307
O O19 0.782093 0.777726 0.332028
O O20 0.500000 0.284516 0.807872
#
# Coordination Sequence:
#
# PCOD9352290 Si02
#       8
#     8   8   8   8   8   8   8   8
#     4   9  18  32  49  71  97 127 164 205 254 306
#     4   9  18  32  51  75 100 130 169 208 251 303
#     4   9  17  31  52  74  98 129 165 208 255 305
#     4  11  23  36  53  79 107 137 178 223 266 316
#     4  10  21  37  56  78 108 145 180 216 262 317
#     4  10  21  37  56  78 108 145 180 216 262 317
#     4   9  18  32  51  75 100 130 169 208 251 303
#     4   9  17  31  52  74  98 129 165 208 255 305
#
# _framework density 22.353407000000001
#
# number of rings (size 3 to 8) (size 9 to 14) (size 15 to 20)
#    0.000    2.500    0.000    1.875    0.000    2.500 
#    0.000    5.625    0.000    0.000    0.000    0.000 
#    0.000    0.000    0.000    0.000    0.000    0.000 
#
# Total GULP energy -178462.219136 kJ/mol
# GULP energy per Si atom -5576.944348 kJ/mol
# Density = 2.230253 g / cm^3
# Si number density = 22.353407 Si / 1000 Ang^3
#
#
#
# Elastic Constant Matrix: (Units=GPa)
#
#
# Indices 1 2 3 4 5 6 
#
# 1 81.7038 -1.8885 -20.0227 0.0000 0.0000 0.0000
# 2 -1.8885 257.7646 63.2110 0.0000 0.0000 0.0000
# 3 -20.0227 63.2110 74.3214 0.0000 0.0000 0.0000
# 4 0.0000 0.0000 0.0000 36.6150 0.0000 0.0000
# 5 0.0000 0.0000 0.0000 0.0000 440.5160 0.0000
# 6 0.0000 0.0000 0.0000 0.0000 0.0000 -18.3225
#
#
#
# Elastic Compliance Matrix: (Units=1/GPa)
#
#
# Indices 1 2 3 4 5 6 
#
# 1 0.013300 -0.000987 0.004423 0.000000 0.000000 0.000000
# 2 -0.000987 0.004975 -0.004497 0.000000 0.000000 0.000000
# 3 0.004423 -0.004497 0.018472 0.000000 0.000000 0.000000
# 4 0.000000 0.000000 0.000000 0.027311 0.000000 0.000000
# 5 0.000000 0.000000 0.000000 0.000000 0.002270 0.000000
# 6 0.000000 0.000000 0.000000 0.000000 0.000000 -0.054578
#
#
# Mechanical properties :
#
#
# Convention : Reuss Voigt Hill
#
# Bulk Modulus (GPa) = 28.88192 55.15438 42.01815
# Shear Modulus (GPa) = 196.72987 116.59436 156.66211
#
# Velocity S-wave (km/s) = 9.39148 7.22999 8.38071
# Velocity P-wave (km/s) = 11.42579 9.71722 10.60597
#
# Compressibility (1/GPa) = 0.03462374
#
# Stress axis : x y z
#
# Youngs Moduli (GPa) = 75.18580 200.99895 54.13709
#
# Poissons Ratio (x) = 0.19842 -0.23944
# Poissons Ratio (y) = 0.07422 0.24347
# Poissons Ratio (z) = -0.33253 0.90396
#
# Static dielectric constant tensor:
#      x y z
#    x 1.953980 0.000000 0.000000 
#    y 0.000000 1.850640 0.000000 
#    z 0.000000 0.000000 1.802500 
# 
# From -- ./inp_files/11116.got.cif
#   From: 2010.05.17/outbox.cif.g08.bks.cpg/sg36_6_cif.got.tgz:11116.got - 2010.06.03 17:41:39.
