data_PCOD9352723
_publ_section_title
;
Structure prediction by ZEFSAII (Michael W. Deem and Ramdas Pophale) SiO2 
 PCOD9352723
Probable space group: C M C 21
;
_chemical_formula_sum "Si O2"
_cell_formula_units_Z 52
_cell_length_a 28.648848
_cell_length_b 10.241556
_cell_length_c 8.874820
_cell_angle_alpha 90.000000
_cell_angle_beta 90.000000
_cell_angle_gamma 90.000000
_cell_volume 2603.950119
_symmetry_space_group_name_H-M "C M C 21"
_symmetry_group_IT_number 36
_symmetry_cell_setting 'orthorhombic'
loop_
_space_group_symop_operation_xyz
x,y,z
-x,-y,1/2+z
x,-y,1/2+z
-x,y,z
1/2+x,1/2+y,z
1/2-x,1/2-y,1/2+z
1/2+x,1/2-y,1/2+z
1/2-x,1/2+y,z
loop_
_atom_site_type_symbol
_atom_site_label
_atom_site_fract_x
_atom_site_fract_y
_atom_site_fract_z
Si Si1 0.361249 0.008625 0.817880
Si Si2 0.685255 0.825852 0.068030
Si Si3 0.070384 0.937019 0.209550
Si Si4 0.332306 0.569727 0.214921
Si Si5 0.614609 0.183095 0.075856
Si Si6 0.792995 0.166251 0.530791
Si Si7 0.500000 0.577598 0.983277
O O1 0.324045 0.086763 0.716467
O O2 0.392470 0.924076 0.704868
O O3 0.390373 0.113076 0.915302
O O4 0.335996 0.909440 0.931947
O O5 0.660363 0.688353 0.098512
O O6 0.739410 0.795069 0.042055
O O7 0.084578 0.810835 0.109110
O O8 0.118449 0.006314 0.257561
O O9 0.040646 0.896848 0.354181
O O10 0.040284 0.034137 0.107266
O O11 0.306928 0.626106 0.361651
O O12 0.301735 0.458517 0.136371
O O13 0.669362 0.225557 0.081005
#
# Coordination Sequence:
#
# PCOD9352723 Si02
#       7
#     8   8   8   8   8   8   4
#     4  10  23  39  56  88 115 183 206 260 295 372
#     4  11  24  37  58  84 125 169 229 255 308 363
#     4  10  22  42  67 102 123 155 204 265 345 381
#     4  11  24  39  62  90 126 170 206 273 316 382
#     4  10  22  40  60  87 131 162 217 255 312 385
#     4  11  24  36  57  88 126 170 218 273 308 353
#     4  10  22  40  72  98 120 150 192 270 332 400
#
# _framework density 19.969660000000001
#
# number of rings (size 3 to 8) (size 9 to 14) (size 15 to 20)
#    0.000    1.538    1.538    2.769   12.923    0.000 
#    0.000    0.000    0.000    3.692    0.000    0.000 
#    0.000    0.000    0.000    0.000    0.000    0.000 
#
# Total GULP energy -144764.610993 kJ/mol
# GULP energy per Si atom -5567.869654 kJ/mol
# Density = 1.992421 g / cm^3
# Si number density = 19.969660 Si / 1000 Ang^3
#
#
#
# Elastic Constant Matrix: (Units=GPa)
#
#
# Indices 1 2 3 4 5 6 
#
# 1 39.6124 -5.5211 -2.1323 0.0000 0.0000 0.0000
# 2 -5.5211 51.9604 3.8752 0.0000 0.0000 0.0000
# 3 -2.1323 3.8752 82.1626 0.0000 0.0000 0.0000
# 4 0.0000 0.0000 0.0000 20.8876 0.0000 0.0000
# 5 0.0000 0.0000 0.0000 0.0000 19.9794 0.0000
# 6 0.0000 0.0000 0.0000 0.0000 0.0000 4.2893
#
#
#
# Elastic Compliance Matrix: (Units=1/GPa)
#
#
# Indices 1 2 3 4 5 6 
#
# 1 0.025648 0.002685 0.000539 0.000000 0.000000 0.000000
# 2 0.002685 0.019594 -0.000854 0.000000 0.000000 0.000000
# 3 0.000539 -0.000854 0.012225 0.000000 0.000000 0.000000
# 4 0.000000 0.000000 0.000000 0.047875 0.000000 0.000000
# 5 0.000000 0.000000 0.000000 0.000000 0.050052 0.000000
# 6 0.000000 0.000000 0.000000 0.000000 0.000000 0.233141
#
#
# Mechanical properties :
#
#
# Convention : Reuss Voigt Hill
#
# Bulk Modulus (GPa) = 16.07547 18.46434 17.26990
# Shear Modulus (GPa) = 12.35998 20.86550 16.61274
#
# Velocity S-wave (km/s) = 2.49055 3.23594 2.88739
# Velocity P-wave (km/s) = 4.04201 4.81954 4.44780
#
# Compressibility (1/GPa) = 0.06220660
#
# Stress axis : x y z
#
# Youngs Moduli (GPa) = 38.98962 51.03490 81.79770
#
# Poissons Ratio (x) = -0.13703 -0.04409
# Poissons Ratio (y) = -0.10469 0.06989
# Poissons Ratio (z) = -0.02101 0.04361
#
# Static dielectric constant tensor:
#      x y z
#    x 1.659260 0.000000 0.000000 
#    y 0.000000 1.725840 0.000000 
#    z 0.000000 0.000000 1.730570 
# 
# From -- ./inp_files/5788.got.cif
#   From: 2010.05.17/outbox.cif.g08.bks.cpg/sg36_3_cif.got.tgz:5788.got - 2010.06.03 17:41:39.
