data_PCOD9352578
_publ_section_title
;
Structure prediction by ZEFSAII (Michael W. Deem and Ramdas Pophale) SiO2 
 PCOD9352578
Probable space group: C M C 21
;
_chemical_formula_sum "Si O2"
_cell_formula_units_Z 48
_cell_length_a 28.110593
_cell_length_b 8.451056
_cell_length_c 8.542336
_cell_angle_alpha 90.000000
_cell_angle_beta 90.000000
_cell_angle_gamma 90.000000
_cell_volume 2029.353181
_symmetry_space_group_name_H-M "C M C 21"
_symmetry_group_IT_number 36
_symmetry_cell_setting 'orthorhombic'
loop_
_space_group_symop_operation_xyz
x,y,z
-x,-y,1/2+z
x,-y,1/2+z
-x,y,z
1/2+x,1/2+y,z
1/2-x,1/2-y,1/2+z
1/2+x,1/2-y,1/2+z
1/2-x,1/2+y,z
loop_
_atom_site_type_symbol
_atom_site_label
_atom_site_fract_x
_atom_site_fract_y
_atom_site_fract_z
Si Si1 0.788893 0.847139 0.376190
Si Si2 0.445790 0.913665 0.887837
Si Si3 0.294859 0.143021 0.663162
Si Si4 0.357418 0.848920 0.664636
Si Si5 0.553517 0.243853 0.730848
Si Si6 0.641410 0.371101 0.872482
O O1 0.746161 0.922408 0.276951
O O2 0.771979 0.743933 0.523008
O O3 0.815761 0.726205 0.265629
O O4 0.670488 0.473512 0.418563
O O5 0.500000 0.866540 0.841994
O O6 0.403607 0.861966 0.773643
O O7 0.444795 0.104066 0.862106
O O8 0.438064 0.845319 0.063279
O O9 0.324112 0.267305 0.764996
O O10 0.333451 0.013458 0.607487
O O11 0.367826 0.730232 0.525899
O O12 0.500000 0.307752 0.726162
O O13 0.592326 0.375579 0.774848
#
# Coordination Sequence:
#
# PCOD9352578 Si02
#       6
#     8   8   8   8   8   8
#     4  12  28  48  71 102 140 183 235 299 366 429
#     4  10  21  40  70 107 142 187 246 294 337 411
#     4  12  26  48  72  99 135 186 241 291 354 430
#     4  12  25  43  72 104 139 185 241 294 351 427
#     4  10  21  40  69 105 146 190 238 290 348 416
#     4  12  25  43  70 105 146 185 235 300 362 421
#
# _framework density 23.652856
#
# number of rings (size 3 to 8) (size 9 to 14) (size 15 to 20)
#    0.000    0.667    1.667    6.000    0.000    6.000 
#    0.000    5.833    0.000    4.000    0.000    0.000 
#    0.000    0.000    0.000    0.000    0.000    0.000 
#
# Total GULP energy -134323.249636 kJ/mol
# GULP energy per Si atom -5596.802068 kJ/mol
# Density = 2.359902 g / cm^3
# Si number density = 23.652856 Si / 1000 Ang^3
#
#
#
# Elastic Constant Matrix: (Units=GPa)
#
#
# Indices 1 2 3 4 5 6 
#
# 1 171.7279 39.6092 60.9437 0.0000 0.0000 0.0000
# 2 39.6092 72.6835 31.6243 0.0000 0.0000 0.0000
# 3 60.9437 31.6243 102.7756 0.0000 0.0000 0.0000
# 4 0.0000 0.0000 0.0000 21.6860 0.0000 0.0000
# 5 0.0000 0.0000 0.0000 0.0000 29.9147 0.0000
# 6 0.0000 0.0000 0.0000 0.0000 0.0000 45.0733
#
#
#
# Elastic Compliance Matrix: (Units=1/GPa)
#
#
# Indices 1 2 3 4 5 6 
#
# 1 0.007771 -0.002575 -0.003816 0.000000 0.000000 0.000000
# 2 -0.002575 0.016738 -0.003624 0.000000 0.000000 0.000000
# 3 -0.003816 -0.003624 0.013108 0.000000 0.000000 0.000000
# 4 0.000000 0.000000 0.000000 0.046113 0.000000 0.000000
# 5 0.000000 0.000000 0.000000 0.000000 0.033428 0.000000
# 6 0.000000 0.000000 0.000000 0.000000 0.000000 0.022186
#
#
# Mechanical properties :
#
#
# Convention : Reuss Voigt Hill
#
# Bulk Modulus (GPa) = 56.85535 67.94904 62.40219
# Shear Modulus (GPa) = 30.25988 33.66879 31.96433
#
# Velocity S-wave (km/s) = 3.58066 3.77696 3.68012
# Velocity P-wave (km/s) = 6.41751 6.91452 6.67064
#
# Compressibility (1/GPa) = 0.01758849
#
# Stress axis : x y z
#
# Youngs Moduli (GPa) = 128.67957 59.74447 76.29105
#
# Poissons Ratio (x) = 0.15382 0.29112
# Poissons Ratio (y) = 0.33131 0.27645
# Poissons Ratio (z) = 0.49103 0.21649
#
# Static dielectric constant tensor:
#      x y z
#    x 1.898210 0.000000 0.000000 
#    y 0.000000 1.902220 0.000000 
#    z 0.000000 0.000000 1.936890 
# 
# From -- ./inp_files/5590.got.cif
#   From: 2010.05.17/outbox.cif.g08.bks.cpg/sg36_3_cif.got.tgz:5590.got - 2010.06.03 17:41:39.
