data_PCOD9352313
_publ_section_title
;
Structure prediction by ZEFSAII (Michael W. Deem and Ramdas Pophale) SiO2 
 PCOD9352313
Probable space group: C M C 21
;
_chemical_formula_sum "Si O2"
_cell_formula_units_Z 48
_cell_length_a 11.464368
_cell_length_b 13.737348
_cell_length_c 14.000765
_cell_angle_alpha 90.000000
_cell_angle_beta 90.000000
_cell_angle_gamma 90.000000
_cell_volume 2204.980659
_symmetry_space_group_name_H-M "C M C 21"
_symmetry_group_IT_number 36
_symmetry_cell_setting 'orthorhombic'
loop_
_space_group_symop_operation_xyz
x,y,z
-x,-y,1/2+z
x,-y,1/2+z
-x,y,z
1/2+x,1/2+y,z
1/2-x,1/2-y,1/2+z
1/2+x,1/2-y,1/2+z
1/2-x,1/2+y,z
loop_
_atom_site_type_symbol
_atom_site_label
_atom_site_fract_x
_atom_site_fract_y
_atom_site_fract_z
Si Si1 0.808607 0.547839 0.586990
Si Si2 0.262479 0.102266 0.375652
Si Si3 0.132217 0.962921 0.259753
Si Si4 0.363429 0.302647 0.416308
Si Si5 0.131395 0.230117 0.129714
Si Si6 0.374919 0.861131 0.690225
O O1 0.777941 0.547728 0.475452
O O2 0.703146 0.543016 0.662593
O O3 0.866042 0.653705 0.607333
O O4 0.874738 0.449274 0.615021
O O5 0.273687 0.214825 0.402098
O O6 0.362639 0.089849 0.295137
O O7 0.152354 0.063091 0.317484
O O8 0.167072 0.883216 0.338747
O O9 0.000000 0.948520 0.235686
O O10 0.500000 0.273418 0.399426
O O11 0.361110 0.327119 0.528303
O O12 0.255755 0.201934 0.178403
O O13 0.000000 0.209203 0.169538
O O14 0.500000 0.808200 0.683412
#
# Coordination Sequence:
#
# PCOD9352313 Si02
#       6
#     8   8   8   8   8   8
#     4  10  22  39  60  85 117 157 203 248 296 357
#     4  10  21  37  58  84 115 155 200 244 295 358
#     4  10  21  37  58  86 121 158 198 247 301 356
#     4   9  18  36  61  86 116 156 198 242 297 358
#     4  10  21  39  63  89 120 160 201 242 294 359
#     4  11  23  38  60  90 121 154 196 249 303 354
#
# _framework density 21.768899000000001
#
# number of rings (size 3 to 8) (size 9 to 14) (size 15 to 20)
#    0.000    2.000    0.000    3.000    0.000    7.333 
#    0.000    2.500    0.000    9.000    0.000    0.000 
#    0.000    0.000    0.000    0.000    0.000    0.000 
#
# Total GULP energy -133700.906882 kJ/mol
# GULP energy per Si atom -5570.871120 kJ/mol
# Density = 2.171935 g / cm^3
# Si number density = 21.768899 Si / 1000 Ang^3
#
#
#
# Elastic Constant Matrix: (Units=GPa)
#
#
# Indices 1 2 3 4 5 6 
#
# 1 126.9805 30.9440 54.3518 0.0000 0.0000 0.0000
# 2 30.9440 50.6872 7.5202 0.0000 0.0000 0.0000
# 3 54.3518 7.5202 109.6768 0.0000 0.0000 0.0000
# 4 0.0000 0.0000 0.0000 36.2992 0.0000 0.0000
# 5 0.0000 0.0000 0.0000 0.0000 6.1781 0.0000
# 6 0.0000 0.0000 0.0000 0.0000 0.0000 -1.3373
#
#
#
# Elastic Compliance Matrix: (Units=1/GPa)
#
#
# Indices 1 2 3 4 5 6 
#
# 1 0.011726 -0.006361 -0.005375 0.000000 0.000000 0.000000
# 2 -0.006361 0.023382 0.001549 0.000000 0.000000 0.000000
# 3 -0.005375 0.001549 0.011675 0.000000 0.000000 0.000000
# 4 0.000000 0.000000 0.000000 0.027549 0.000000 0.000000
# 5 0.000000 0.000000 0.000000 0.000000 0.161861 0.000000
# 6 0.000000 0.000000 0.000000 0.000000 0.000000 -0.747783
#
#
# Mechanical properties :
#
#
# Convention : Reuss Voigt Hill
#
# Bulk Modulus (GPa) = 37.86485 52.55293 45.20889
# Shear Modulus (GPa) = -10.36456 21.19659 5.41602
#
# Velocity S-wave (km/s) = -2.18438 3.12382 1.57904
# Velocity P-wave (km/s) = 3.32712 6.09956 4.91296
#
# Compressibility (1/GPa) = 0.02640972
#
# Stress axis : x y z
#
# Youngs Moduli (GPa) = 85.28088 42.76720 85.65293
#
# Poissons Ratio (x) = 0.27205 0.46037
# Poissons Ratio (y) = 0.54248 -0.13268
# Poissons Ratio (z) = 0.45837 -0.06625
#
# Static dielectric constant tensor:
#      x y z
#    x 1.821620 0.000000 0.000000 
#    y 0.000000 1.872570 0.000000 
#    z 0.000000 0.000000 1.808390 
# 
# From -- ./inp_files/11545.got.cif
#   From: 2010.05.17/outbox.cif.g08.bks.cpg/sg36_6_cif.got.tgz:11545.got - 2010.06.03 17:41:39.
