data_PCOD9352179
_publ_section_title
;
Structure prediction by ZEFSAII (Michael W. Deem and Ramdas Pophale) SiO2 
 PCOD9352179
Probable space group: C M C 21
;
_chemical_formula_sum "Si O2"
_cell_formula_units_Z 36
_cell_length_a 7.707567
_cell_length_b 23.368752
_cell_length_c 7.722400
_cell_angle_alpha 90.000000
_cell_angle_beta 90.000000
_cell_angle_gamma 90.000000
_cell_volume 1390.929511
_symmetry_space_group_name_H-M "C M C 21"
_symmetry_group_IT_number 36
_symmetry_cell_setting 'orthorhombic'
loop_
_space_group_symop_operation_xyz
x,y,z
-x,-y,1/2+z
x,-y,1/2+z
-x,y,z
1/2+x,1/2+y,z
1/2-x,1/2-y,1/2+z
1/2+x,1/2-y,1/2+z
1/2-x,1/2+y,z
loop_
_atom_site_type_symbol
_atom_site_label
_atom_site_fract_x
_atom_site_fract_y
_atom_site_fract_z
Si Si1 0.297757 0.951524 0.088800
Si Si2 0.701584 0.659330 0.768620
Si Si3 0.193484 0.734686 0.454660
Si Si4 0.691820 0.575816 0.205298
Si Si5 0.000000 0.659734 0.175264
O O1 0.500000 0.961608 0.053257
O O2 0.281874 0.902243 0.233572
O O3 0.210513 0.010365 0.142649
O O4 0.217001 0.927352 0.912651
O O5 0.500000 0.652515 0.810670
O O6 0.712065 0.693332 0.586133
O O7 0.783461 0.705698 0.901585
O O8 0.000000 0.746024 0.530903
O O9 0.148436 0.700190 0.279143
O O10 0.500000 0.597349 0.164412
O O11 0.846879 0.612955 0.130216
#
# Coordination Sequence:
#
# PCOD9352179 Si02
#       5
#     8   8   8   8   4
#     4  12  23  43  64  94 131 169 212 267 324 381
#     4  11  21  39  62  90 122 166 213 261 312 381
#     4   9  21  39  61  86 125 164 206 262 312 368
#     4  12  23  41  69  96 127 171 212 264 323 385
#     4  10  20  44  64  94 132 166 212 262 326 370
#
# _framework density 25.881972000000001
#
# number of rings (size 3 to 8) (size 9 to 14) (size 15 to 20)
#    0.667    0.444    4.444    2.667    0.000    1.778 
#    4.000    0.000    0.000    0.000    0.000    0.000 
#    0.000    0.000    0.000    0.000    0.000    0.000 
#
# Total GULP energy -100304.219113 kJ/mol
# GULP energy per Si atom -5572.456617 kJ/mol
# Density = 2.582306 g / cm^3
# Si number density = 25.881972 Si / 1000 Ang^3
#
#
#
# Elastic Constant Matrix: (Units=GPa)
#
#
# Indices 1 2 3 4 5 6 
#
# 1 158.8797 22.7151 -9.5860 0.0000 0.0000 0.0000
# 2 22.7151 136.2853 40.4211 0.0000 0.0000 0.0000
# 3 -9.5860 40.4211 101.2301 0.0000 0.0000 0.0000
# 4 0.0000 0.0000 0.0000 53.4202 0.0000 0.0000
# 5 0.0000 0.0000 0.0000 0.0000 -20.0651 0.0000
# 6 0.0000 0.0000 0.0000 0.0000 0.0000 -7.5254
#
#
#
# Elastic Compliance Matrix: (Units=1/GPa)
#
#
# Indices 1 2 3 4 5 6 
#
# 1 0.006574 -0.001452 0.001202 0.000000 0.000000 0.000000
# 2 -0.001452 0.008644 -0.003589 0.000000 0.000000 0.000000
# 3 0.001202 -0.003589 0.011425 0.000000 0.000000 0.000000
# 4 0.000000 0.000000 0.000000 0.018719 0.000000 0.000000
# 5 0.000000 0.000000 0.000000 0.000000 -0.049838 0.000000
# 6 0.000000 0.000000 0.000000 0.000000 0.000000 -0.132883
#
#
# Mechanical properties :
#
#
# Convention : Reuss Voigt Hill
#
# Bulk Modulus (GPa) = 52.72643 55.94395 54.33519
# Shear Modulus (GPa) = -40.53258 28.02228 -6.25515
#
# Velocity S-wave (km/s) = -3.96163 3.29400 -1.55629
# Velocity P-wave (km/s) = 0.71411 6.01076 4.22015
#
# Compressibility (1/GPa) = 0.01896582
#
# Stress axis : x y z
#
# Youngs Moduli (GPa) = 152.10808 115.68546 87.52355
#
# Poissons Ratio (x) = 0.16802 -0.10525
# Poissons Ratio (y) = 0.22092 0.31413
# Poissons Ratio (z) = -0.18291 0.41521
#
# Static dielectric constant tensor:
#      x y z
#    x 1.964520 0.000000 0.000000 
#    y 0.000000 2.016650 0.000000 
#    z 0.000000 0.000000 2.152200 
# 
# From -- ./inp_files/6589.got.cif
#   From: 2010.05.17/outbox.cif.g08.bks.cpg/sg36_4_cif.got.tgz:6589.got - 2010.06.03 17:41:39.
