data_PCOD9352379
_publ_section_title
;
Structure prediction by ZEFSAII (Michael W. Deem and Ramdas Pophale) SiO2 
 PCOD9352379
Probable space group: C M C 21
;
_chemical_formula_sum "Si O2"
_cell_formula_units_Z 48
_cell_length_a 8.431893
_cell_length_b 24.639656
_cell_length_c 12.275946
_cell_angle_alpha 90.000000
_cell_angle_beta 90.000000
_cell_angle_gamma 90.000000
_cell_volume 2550.437565
_symmetry_space_group_name_H-M "C M C 21"
_symmetry_group_IT_number 36
_symmetry_cell_setting 'orthorhombic'
loop_
_space_group_symop_operation_xyz
x,y,z
-x,-y,1/2+z
x,-y,1/2+z
-x,y,z
1/2+x,1/2+y,z
1/2-x,1/2-y,1/2+z
1/2+x,1/2-y,1/2+z
1/2-x,1/2+y,z
loop_
_atom_site_type_symbol
_atom_site_label
_atom_site_fract_x
_atom_site_fract_y
_atom_site_fract_z
Si Si1 0.808341 0.919432 0.312780
Si Si2 0.190232 0.359814 0.895756
Si Si3 0.807045 0.289619 0.691127
Si Si4 0.191915 0.831383 0.135280
Si Si5 0.190071 0.607516 0.052861
Si Si6 0.309631 0.458983 0.755797
O O1 0.753969 0.875329 0.224219
O O2 0.752934 0.903846 0.433081
O O3 0.000000 0.919547 0.312027
O O4 0.755172 0.980006 0.280872
O O5 0.241795 0.313885 0.808133
O O6 0.249606 0.416761 0.846711
O O7 0.000000 0.360594 0.897338
O O8 0.253853 0.347685 0.015088
O O9 0.751442 0.229093 0.666146
O O10 0.757635 0.333972 0.600964
O O11 0.000000 0.288660 0.690896
O O12 0.000000 0.830850 0.136710
O O13 0.248827 0.563187 0.140084
O O14 0.000000 0.606833 0.052193
O O15 0.500000 0.458129 0.754944
#
# Coordination Sequence:
#
# PCOD9352379 Si02
#       6
#     8   8   8   8   8   8
#     4  10  23  38  58  85 114 150 194 235 278 338
#     4  10  21  38  59  87 116 148 189 238 288 339
#     4   8  18  37  58  81 115 150 185 229 283 340
#     4  10  21  38  59  84 115 153 190 233 281 335
#     4  10  21  38  60  86 117 150 187 237 287 337
#     4  10  21  39  60  83 113 153 195 234 279 341
#
# _framework density 18.820298999999999
#
# number of rings (size 3 to 8) (size 9 to 14) (size 15 to 20)
#    0.000    2.333    0.000    2.500    4.667    2.000 
#    0.000    4.167    0.000    0.000    0.000    0.000 
#    0.000    0.000    0.000    0.000    0.000    0.000 
#
# Total GULP energy -134003.684258 kJ/mol
# GULP energy per Si atom -5583.486844 kJ/mol
# Density = 1.877746 g / cm^3
# Si number density = 18.820299 Si / 1000 Ang^3
#
#
#
# Elastic Constant Matrix: (Units=GPa)
#
#
# Indices 1 2 3 4 5 6 
#
# 1 16.2987 29.8020 20.3476 0.0000 0.0000 0.0000
# 2 29.8020 202.5809 141.5086 0.0000 0.0000 0.0000
# 3 20.3476 141.5086 199.6556 0.0000 0.0000 0.0000
# 4 0.0000 0.0000 0.0000 12.1846 0.0000 0.0000
# 5 0.0000 0.0000 0.0000 0.0000 32.7596 0.0000
# 6 0.0000 0.0000 0.0000 0.0000 0.0000 17.8956
#
#
#
# Elastic Compliance Matrix: (Units=1/GPa)
#
#
# Indices 1 2 3 4 5 6 
#
# 1 0.083947 -0.012623 0.000391 0.000000 0.000000 0.000000
# 2 -0.012623 0.011675 -0.006988 0.000000 0.000000 0.000000
# 3 0.000391 -0.006988 0.009922 0.000000 0.000000 0.000000
# 4 0.000000 0.000000 0.000000 0.082071 0.000000 0.000000
# 5 0.000000 0.000000 0.000000 0.000000 0.030525 0.000000
# 6 0.000000 0.000000 0.000000 0.000000 0.000000 0.055880
#
#
# Mechanical properties :
#
#
# Convention : Reuss Voigt Hill
#
# Bulk Modulus (GPa) = 14.90225 89.09460 51.99842
# Shear Modulus (GPa) = 14.93308 27.69309 21.31309
#
# Velocity S-wave (km/s) = 2.81989 3.84011 3.36884
# Velocity P-wave (km/s) = 4.30555 8.19172 6.54378
#
# Compressibility (1/GPa) = 0.06710398
#
# Stress axis : x y z
#
# Youngs Moduli (GPa) = 11.91226 85.65516 100.78927
#
# Poissons Ratio (x) = 1.08122 -0.03945
# Poissons Ratio (y) = 0.15037 0.70433
# Poissons Ratio (z) = -0.00466 0.59857
#
# Static dielectric constant tensor:
#      x y z
#    x 1.648500 0.000000 0.000000 
#    y 0.000000 1.651210 0.000000 
#    z 0.000000 0.000000 1.609230 
# 
# From -- ./inp_files/6717.got.cif
#   From: 2010.05.17/outbox.cif.g08.bks.cpg/sg36_4_cif.got.tgz:6717.got - 2010.06.03 17:41:39.
