data_PCOD9352187
_publ_section_title
;
Structure prediction by ZEFSAII (Michael W. Deem and Ramdas Pophale) SiO2 
 PCOD9352187
Probable space group: C M C 21
;
_chemical_formula_sum "Si O2"
_cell_formula_units_Z 32
_cell_length_a 18.177312
_cell_length_b 9.208871
_cell_length_c 8.054475
_cell_angle_alpha 90.000000
_cell_angle_beta 90.000000
_cell_angle_gamma 90.000000
_cell_volume 1348.258878
_symmetry_space_group_name_H-M "C M C 21"
_symmetry_group_IT_number 36
_symmetry_cell_setting 'orthorhombic'
loop_
_space_group_symop_operation_xyz
x,y,z
-x,-y,1/2+z
x,-y,1/2+z
-x,y,z
1/2+x,1/2+y,z
1/2-x,1/2-y,1/2+z
1/2+x,1/2-y,1/2+z
1/2-x,1/2+y,z
loop_
_atom_site_type_symbol
_atom_site_label
_atom_site_fract_x
_atom_site_fract_y
_atom_site_fract_z
Si Si1 0.584488 0.681580 0.947200
Si Si2 0.335625 0.293188 0.129648
Si Si3 0.414477 0.969253 0.759331
Si Si4 0.672524 0.267693 0.759365
O O1 0.500000 0.638471 0.973887
O O2 0.614556 0.627987 0.768861
O O3 0.587553 0.857455 0.916447
O O4 0.636188 0.651259 0.102862
O O5 0.373348 0.133715 0.127562
O O6 0.255488 0.272569 0.209329
O O7 0.329873 0.343426 0.939880
O O8 0.500000 0.991145 0.720459
O O9 0.373052 0.119042 0.776591
#
# Coordination Sequence:
#
# PCOD9352187 Si02
#       4
#     8   8   8   8
#     4   9  20  34  50  79 109 136 181 224 267 322
#     4  10  21  33  50  79 115 142 182 222 275 324
#     4   9  20  36  55  83 113 139 178 227 276 326
#     4  12  19  33  53  75 115 149 177 223 276 320
#
# _framework density 23.734314000000001
#
# number of rings (size 3 to 8) (size 9 to 14) (size 15 to 20)
#    1.500    0.500    2.500    2.250    0.000    6.000 
#    0.000    0.000    0.000    0.000    0.000    7.000 
#    0.000    0.000    0.000    0.000    0.000    0.000 
#
# Total GULP energy -89290.883627 kJ/mol
# GULP energy per Si atom -5580.680227 kJ/mol
# Density = 2.368029 g / cm^3
# Si number density = 23.734314 Si / 1000 Ang^3
#
#
#
# Elastic Constant Matrix: (Units=GPa)
#
#
# Indices 1 2 3 4 5 6 
#
# 1 135.7648 -0.6754 5.4708 0.0000 0.0000 0.0000
# 2 -0.6754 76.6965 -5.9364 0.0000 0.0000 0.0000
# 3 5.4708 -5.9364 156.3243 0.0000 0.0000 0.0000
# 4 0.0000 0.0000 0.0000 28.8695 0.0000 0.0000
# 5 0.0000 0.0000 0.0000 0.0000 13.5813 0.0000
# 6 0.0000 0.0000 0.0000 0.0000 0.0000 3.3971
#
#
#
# Elastic Compliance Matrix: (Units=1/GPa)
#
#
# Indices 1 2 3 4 5 6 
#
# 1 0.007376 0.000045 -0.000256 0.000000 0.000000 0.000000
# 2 0.000045 0.013077 0.000495 0.000000 0.000000 0.000000
# 3 -0.000256 0.000495 0.006425 0.000000 0.000000 0.000000
# 4 0.000000 0.000000 0.000000 0.034639 0.000000 0.000000
# 5 0.000000 0.000000 0.000000 0.000000 0.073631 0.000000
# 6 0.000000 0.000000 0.000000 0.000000 0.000000 0.294373
#
#
# Mechanical properties :
#
#
# Convention : Reuss Voigt Hill
#
# Bulk Modulus (GPa) = 36.43588 40.72264 38.57926
# Shear Modulus (GPa) = 11.41289 33.83133 22.62211
#
# Velocity S-wave (km/s) = 2.19523 3.77957 3.09065
# Velocity P-wave (km/s) = 4.67015 6.02012 5.38758
#
# Compressibility (1/GPa) = 0.02744547
#
# Stress axis : x y z
#
# Youngs Moduli (GPa) = 135.57047 76.46948 155.64853
#
# Poissons Ratio (x) = -0.00345 0.03991
# Poissons Ratio (y) = -0.00611 -0.07705
# Poissons Ratio (z) = 0.03476 -0.03785
#
# Static dielectric constant tensor:
#      x y z
#    x 1.865120 0.000000 0.000000 
#    y 0.000000 1.882200 0.000000 
#    z 0.000000 0.000000 1.966130 
# 
# From -- ./inp_files/3684.got.cif
#   From: 2010.05.17/outbox.cif.g08.bks.cpg/sg36_2_cif.got.tgz:3684.got - 2010.06.03 17:41:39.
