data_PCOD9352897
_publ_section_title
;
Structure prediction by ZEFSAII (Michael W. Deem and Ramdas Pophale) SiO2 
 PCOD9352897
Probable space group: C M C 21
;
_chemical_formula_sum "Si O2"
_cell_formula_units_Z 48
_cell_length_a 17.758707
_cell_length_b 8.389525
_cell_length_c 13.143847
_cell_angle_alpha 90.000000
_cell_angle_beta 90.000000
_cell_angle_gamma 90.000000
_cell_volume 1958.263862
_symmetry_space_group_name_H-M "C M C 21"
_symmetry_group_IT_number 36
_symmetry_cell_setting 'orthorhombic'
loop_
_space_group_symop_operation_xyz
x,y,z
-x,-y,1/2+z
x,-y,1/2+z
-x,y,z
1/2+x,1/2+y,z
1/2-x,1/2-y,1/2+z
1/2+x,1/2-y,1/2+z
1/2-x,1/2+y,z
loop_
_atom_site_type_symbol
_atom_site_label
_atom_site_fract_x
_atom_site_fract_y
_atom_site_fract_z
Si Si1 0.500000 0.545482 0.750000
Si Si2 0.755572 0.028687 0.173645
Si Si3 0.500000 0.002686 0.553818
Si Si4 0.350169 0.439418 0.990287
Si Si5 0.336903 0.237530 0.788670
Si Si6 0.392035 0.210986 0.163432
Si Si7 0.500000 0.377767 0.527098
Si Si8 0.500000 0.794784 0.347082
O O1 0.568331 0.675813 0.745987
O O2 0.500000 0.449433 0.642307
O O3 0.500000 0.401391 0.832578
O O4 0.776375 0.985956 0.057355
O O5 0.721076 0.897525 0.250794
O O6 0.831462 0.116834 0.209329
O O7 0.692441 0.163198 0.182249
O O8 0.568372 0.948854 0.625644
O O9 0.500000 0.892141 0.452846
O O10 0.500000 0.187005 0.529073
O O11 0.393036 0.316012 0.062492
O O12 0.417490 0.570299 0.979258
O O13 0.324396 0.335727 0.893368
O O14 0.419898 0.165084 0.797901
#
# Coordination Sequence:
#
# PCOD9352897 Si02
#       8
#     4   8   4   8   8   8   4   4
#     4   9  22  44  80 100 147 198 245 312 388 450
#     4  12  28  47  76 115 154 206 261 315 396 464
#     4  11  24  43  79 115 147 192 266 324 384 451
#     4  11  24  50  76 105 160 204 253 321 390 464
#     4  12  28  48  76 114 156 203 259 320 389 465
#     4  10  22  47  73 106 147 202 251 318 384 457
#     4  10  23  46  82 110 140 211 256 312 399 453
#     4  12  25  47  75 111 152 197 257 322 365 472
#
# _framework density 24.511507999999999
#
# number of rings (size 3 to 8) (size 9 to 14) (size 15 to 20)
#    0.000    1.000    3.333    3.000    7.000    0.667 
#    3.000    1.667    0.000    0.000    0.000    0.000 
#    0.000    0.000    0.000    0.000    0.000    0.000 
#
# Total GULP energy -133703.901665 kJ/mol
# GULP energy per Si atom -5570.995903 kJ/mol
# Density = 2.445572 g / cm^3
# Si number density = 24.511508 Si / 1000 Ang^3
#
#
#
# Elastic Constant Matrix: (Units=GPa)
#
#
# Indices 1 2 3 4 5 6 
#
# 1 120.7352 55.6808 34.0274 0.0000 0.0000 0.0000
# 2 55.6808 158.7272 71.6950 0.0000 0.0000 0.0000
# 3 34.0274 71.6950 112.2105 0.0000 0.0000 0.0000
# 4 0.0000 0.0000 0.0000 33.3850 0.0000 0.0000
# 5 0.0000 0.0000 0.0000 0.0000 19.5670 0.0000
# 6 0.0000 0.0000 0.0000 0.0000 0.0000 11.4907
#
#
#
# Elastic Compliance Matrix: (Units=1/GPa)
#
#
# Indices 1 2 3 4 5 6 
#
# 1 0.009979 -0.002999 -0.001110 0.000000 0.000000 0.000000
# 2 -0.002999 0.009757 -0.005325 0.000000 0.000000 0.000000
# 3 -0.001110 -0.005325 0.012651 0.000000 0.000000 0.000000
# 4 0.000000 0.000000 0.000000 0.029954 0.000000 0.000000
# 5 0.000000 0.000000 0.000000 0.000000 0.051106 0.000000
# 6 0.000000 0.000000 0.000000 0.000000 0.000000 0.087027
#
#
# Mechanical properties :
#
#
# Convention : Reuss Voigt Hill
#
# Bulk Modulus (GPa) = 73.96961 79.38658 76.67809
# Shear Modulus (GPa) = 22.33671 28.23987 25.28829
#
# Velocity S-wave (km/s) = 3.02201 3.39795 3.21548
# Velocity P-wave (km/s) = 6.51304 6.91755 6.71834
#
# Compressibility (1/GPa) = 0.01351907
#
# Stress axis : x y z
#
# Youngs Moduli (GPa) = 100.21544 102.48669 79.04818
#
# Poissons Ratio (x) = 0.30738 0.08772
# Poissons Ratio (y) = 0.30057 0.42092
# Poissons Ratio (z) = 0.11120 0.54572
#
# Static dielectric constant tensor:
#      x y z
#    x 2.295190 0.000000 0.000000 
#    y 0.000000 1.974270 0.000000 
#    z 0.000000 0.000000 1.987260 
# 
# From -- ./inp_files/12532.got.cif
#   From: 2010.05.17/outbox.cif.g08.bks.cpg/sg36_7_cif.got.tgz:12532.got - 2010.06.03 17:41:39.
