data_PCOD9352347
_publ_section_title
;
Structure prediction by ZEFSAII (Michael W. Deem and Ramdas Pophale) SiO2 
 PCOD9352347
Probable space group: C M C 21
;
_chemical_formula_sum "Si O2"
_cell_formula_units_Z 64
_cell_length_a 17.457614
_cell_length_b 16.334598
_cell_length_c 10.941203
_cell_angle_alpha 90.000000
_cell_angle_beta 90.000000
_cell_angle_gamma 90.000000
_cell_volume 3120.027439
_symmetry_space_group_name_H-M "C M C 21"
_symmetry_group_IT_number 36
_symmetry_cell_setting 'orthorhombic'
loop_
_space_group_symop_operation_xyz
x,y,z
-x,-y,1/2+z
x,-y,1/2+z
-x,y,z
1/2+x,1/2+y,z
1/2-x,1/2-y,1/2+z
1/2+x,1/2-y,1/2+z
1/2-x,1/2+y,z
loop_
_atom_site_type_symbol
_atom_site_label
_atom_site_fract_x
_atom_site_fract_y
_atom_site_fract_z
Si Si1 0.857772 0.928060 0.081740
Si Si2 0.312950 0.144240 0.584334
Si Si3 0.592676 0.175712 0.218080
Si Si4 0.178084 0.962258 0.351110
Si Si5 0.847594 0.469571 0.861573
Si Si6 0.370257 0.737746 0.472477
Si Si7 0.418566 0.872502 0.308551
Si Si8 0.198980 0.772669 0.409966
O O1 0.773645 0.886588 0.095006
O O2 0.869567 0.959815 0.221826
O O3 0.900288 0.848635 0.024741
O O4 0.857764 0.994635 0.972421
O O5 0.348115 0.089145 0.477982
O O6 0.353861 0.129086 0.708812
O O7 0.322919 0.238295 0.543574
O O8 0.500000 0.187687 0.219927
O O9 0.613365 0.082564 0.253743
O O10 0.628879 0.202756 0.089810
O O11 0.639670 0.232114 0.314932
O O12 0.196836 0.868872 0.388998
O O13 0.259085 0.009154 0.331178
O O14 0.894091 0.551399 0.891996
O O15 0.420055 0.786678 0.376232
O O16 0.286030 0.736674 0.407070
O O17 0.500000 0.890009 0.250781
#
# Coordination Sequence:
#
# PCOD9352347 Si02
#       8
#     8   8   8   8   8   8   8   8
#     4  10  21  37  62  92 128 158 220 282 336 383
#     4   9  21  38  55  86 125 170 209 269 321 391
#     4  11  24  42  65  94 134 178 215 264 336 411
#     4  11  20  38  64 100 121 167 219 287 329 390
#     4  10  22  38  59  91 134 170 216 256 324 409
#     4  11  23  40  61  93 129 173 223 270 326 398
#     4  12  24  36  58  90 134 176 214 266 331 406
#     4  10  21  39  68  88 123 168 226 272 321 396
#
# _framework density 20.512640999999999
#
# number of rings (size 3 to 8) (size 9 to 14) (size 15 to 20)
#    0.000    1.500    3.750    1.500    5.250    3.500 
#    0.000    0.000    0.000    1.500    0.000    0.000 
#    0.000    0.000    0.000    0.000    0.000    0.000 
#
# Total GULP energy -178253.091385 kJ/mol
# GULP energy per Si atom -5570.409106 kJ/mol
# Density = 2.046595 g / cm^3
# Si number density = 20.512641 Si / 1000 Ang^3
#
#
#
# Elastic Constant Matrix: (Units=GPa)
#
#
# Indices 1 2 3 4 5 6 
#
# 1 51.4471 13.4295 0.2157 0.0000 0.0000 0.0000
# 2 13.4295 106.4793 41.3292 0.0000 0.0000 0.0000
# 3 0.2157 41.3292 71.7348 0.0000 0.0000 0.0000
# 4 0.0000 0.0000 0.0000 31.7764 0.0000 0.0000
# 5 0.0000 0.0000 0.0000 0.0000 -23.0935 0.0000
# 6 0.0000 0.0000 0.0000 0.0000 0.0000 6.8599
#
#
#
# Elastic Compliance Matrix: (Units=1/GPa)
#
#
# Indices 1 2 3 4 5 6 
#
# 1 0.020282 -0.003264 0.001820 0.000000 0.000000 0.000000
# 2 -0.003264 0.012622 -0.007262 0.000000 0.000000 0.000000
# 3 0.001820 -0.007262 0.018119 0.000000 0.000000 0.000000
# 4 0.000000 0.000000 0.000000 0.031470 0.000000 0.000000
# 5 0.000000 0.000000 0.000000 0.000000 -0.043302 0.000000
# 6 0.000000 0.000000 0.000000 0.000000 0.000000 0.145774
#
#
# Mechanical properties :
#
#
# Convention : Reuss Voigt Hill
#
# Bulk Modulus (GPa) = 29.75388 37.73445 33.74417
# Shear Modulus (GPa) = 23.41031 14.75434 19.08232
#
# Velocity S-wave (km/s) = 3.38192 2.68485 3.05334
# Velocity P-wave (km/s) = 5.45770 5.29593 5.37742
#
# Compressibility (1/GPa) = 0.03360907
#
# Stress axis : x y z
#
# Youngs Moduli (GPa) = 49.30501 79.22686 55.19129
#
# Poissons Ratio (x) = 0.25862 -0.10043
# Poissons Ratio (y) = 0.16095 0.40081
# Poissons Ratio (z) = -0.08972 0.57536
#
# Static dielectric constant tensor:
#      x y z
#    x 1.749600 0.000000 0.000000 
#    y 0.000000 1.782480 0.000000 
#    z 0.000000 0.000000 1.757200 
# 
# From -- ./inp_files/8988.got.cif
#   From: 2010.05.17/outbox.cif.g08.bks.cpg/sg36_5_cif.got.tgz:8988.got - 2010.06.03 17:41:39.
