data_PCOD9352740
_publ_section_title
;
Structure prediction by ZEFSAII (Michael W. Deem and Ramdas Pophale) SiO2 
 PCOD9352740
Probable space group: C M C 21
;
_chemical_formula_sum "Si O2"
_cell_formula_units_Z 48
_cell_length_a 7.453231
_cell_length_b 18.359692
_cell_length_c 18.392797
_cell_angle_alpha 90.000000
_cell_angle_beta 90.000000
_cell_angle_gamma 90.000000
_cell_volume 2516.852419
_symmetry_space_group_name_H-M "C M C 21"
_symmetry_group_IT_number 36
_symmetry_cell_setting 'orthorhombic'
loop_
_space_group_symop_operation_xyz
x,y,z
-x,-y,1/2+z
x,-y,1/2+z
-x,y,z
1/2+x,1/2+y,z
1/2-x,1/2-y,1/2+z
1/2+x,1/2-y,1/2+z
1/2-x,1/2+y,z
loop_
_atom_site_type_symbol
_atom_site_label
_atom_site_fract_x
_atom_site_fract_y
_atom_site_fract_z
Si Si1 0.216211 0.406019 0.302410
Si Si2 0.214552 0.687950 0.087155
Si Si3 0.500000 0.474448 0.783621
Si Si4 0.000000 0.067266 0.118383
Si Si5 0.708794 0.845226 0.142171
Si Si6 0.705240 0.206790 0.922694
Si Si7 0.500000 0.656288 0.387222
Si Si8 0.500000 0.579729 0.541386
O O1 0.326145 0.480330 0.309253
O O2 0.254731 0.372869 0.222776
O O3 0.280111 0.348172 0.363260
O O4 0.000000 0.415960 0.306926
O O5 0.326153 0.618503 0.112345
O O6 0.258440 0.759129 0.134369
O O7 0.000000 0.676938 0.089556
O O8 0.277608 0.705672 0.004209
O O9 0.500000 0.471117 0.696516
O O10 0.500000 0.394072 0.817240
O O11 0.000000 0.006156 0.055939
O O12 0.500000 0.860549 0.129375
O O13 0.830328 0.885204 0.082784
O O14 0.500000 0.180010 0.932970
O O15 0.670200 0.288391 0.892790
O O16 0.500000 0.605724 0.458511
#
# Coordination Sequence:
#
# PCOD9352740 Si02
#       8
#     8   8   4   4   8   8   4   4
#     4  10  22  40  64  87 126 166 210 251 318 385
#     4  11  22  40  65  92 128 162 218 270 305 369
#     4  12  26  42  62  96 131 166 203 258 328 379
#     4  12  28  38  64  98 132 165 217 260 324 377
#     4  11  20  38  69  90 118 172 215 260 309 375
#     4   8  18  39  63  88 118 164 208 254 307 369
#     4  10  22  40  68  90 129 165 203 273 310 369
#     4  12  22  46  60  94 134 162 207 269 320 373
#
# _framework density 19.071439999999999
#
# number of rings (size 3 to 8) (size 9 to 14) (size 15 to 20)
#    0.500    1.000    5.000    0.000    4.667    1.333 
#    0.000    0.833    3.667    0.000    0.000    0.000 
#    0.000    0.000    0.000    0.000    0.000    0.000 
#
# Total GULP energy -133860.786160 kJ/mol
# GULP energy per Si atom -5577.532757 kJ/mol
# Density = 1.902803 g / cm^3
# Si number density = 19.071440 Si / 1000 Ang^3
#
#
#
# Elastic Constant Matrix: (Units=GPa)
#
#
# Indices 1 2 3 4 5 6 
#
# 1 78.9282 20.0419 7.9795 0.0000 0.0000 0.0000
# 2 20.0419 93.7308 4.2091 0.0000 0.0000 0.0000
# 3 7.9795 4.2091 38.9882 0.0000 0.0000 0.0000
# 4 0.0000 0.0000 0.0000 43.6151 0.0000 0.0000
# 5 0.0000 0.0000 0.0000 0.0000 -31.4543 0.0000
# 6 0.0000 0.0000 0.0000 0.0000 0.0000 27.5124
#
#
#
# Elastic Compliance Matrix: (Units=1/GPa)
#
#
# Indices 1 2 3 4 5 6 
#
# 1 0.013633 -0.002803 -0.002488 0.000000 0.000000 0.000000
# 2 -0.002803 0.011297 -0.000646 0.000000 0.000000 0.000000
# 3 -0.002488 -0.000646 0.026228 0.000000 0.000000 0.000000
# 4 0.000000 0.000000 0.000000 0.022928 0.000000 0.000000
# 5 0.000000 0.000000 0.000000 0.000000 -0.031792 0.000000
# 6 0.000000 0.000000 0.000000 0.000000 0.000000 0.036347
#
#
# Mechanical properties :
#
#
# Convention : Reuss Voigt Hill
#
# Bulk Modulus (GPa) = 25.45542 30.67869 28.06706
# Shear Modulus (GPa) = 48.25823 19.89577 34.07700
#
# Velocity S-wave (km/s) = 5.03576 3.23340 4.23165
# Velocity P-wave (km/s) = 6.86937 5.48279 6.21487
#
# Compressibility (1/GPa) = 0.03928437
#
# Stress axis : x y z
#
# Youngs Moduli (GPa) = 73.35099 88.51687 38.12772
#
# Poissons Ratio (x) = 0.24815 0.09484
# Poissons Ratio (y) = 0.20563 0.02463
# Poissons Ratio (z) = 0.18246 0.05717
#
# Static dielectric constant tensor:
#      x y z
#    x 1.678230 0.000000 0.000000 
#    y 0.000000 1.644050 0.000000 
#    z 0.000000 0.000000 1.662030 
# 
# From -- ./inp_files/13602.got.cif
#   From: 2010.05.17/outbox.cif.g08.bks.cpg/sg36_7_cif.got.tgz:13602.got - 2010.06.03 17:41:39.
