data_PCOD9352183
_publ_section_title
;
Structure prediction by ZEFSAII (Michael W. Deem and Ramdas Pophale) SiO2 
 PCOD9352183
Probable space group: C M C 21
;
_chemical_formula_sum "Si O2"
_cell_formula_units_Z 52
_cell_length_a 20.478139
_cell_length_b 12.848240
_cell_length_c 7.600905
_cell_angle_alpha 90.000000
_cell_angle_beta 90.000000
_cell_angle_gamma 90.000000
_cell_volume 1999.859252
_symmetry_space_group_name_H-M "C M C 21"
_symmetry_group_IT_number 36
_symmetry_cell_setting 'orthorhombic'
loop_
_space_group_symop_operation_xyz
x,y,z
-x,-y,1/2+z
x,-y,1/2+z
-x,y,z
1/2+x,1/2+y,z
1/2-x,1/2-y,1/2+z
1/2+x,1/2-y,1/2+z
1/2-x,1/2+y,z
loop_
_atom_site_type_symbol
_atom_site_label
_atom_site_fract_x
_atom_site_fract_y
_atom_site_fract_z
Si Si1 0.385202 0.629598 0.346390
Si Si2 0.242480 0.916448 0.022798
Si Si3 0.000000 0.711149 0.445971
Si Si4 0.500000 0.444897 0.630175
Si Si5 0.684676 0.188568 0.810552
Si Si6 0.000000 0.808307 0.061856
Si Si7 0.573299 0.048026 0.670365
Si Si8 0.317085 0.885781 0.662942
O O1 0.332305 0.573304 0.466225
O O2 0.432775 0.557849 0.238036
O O3 0.340721 0.704371 0.227593
O O4 0.434856 0.707136 0.448907
O O5 0.287980 0.873383 0.859953
O O6 0.255295 0.856035 0.204267
O O7 0.271821 0.028065 0.069171
O O8 0.000000 0.744619 0.242095
O O9 0.941149 0.634383 0.514727
O O10 0.000000 0.828867 0.535633
O O11 0.500000 0.564704 0.569818
O O12 0.627201 0.105697 0.784551
O O13 0.690482 0.205491 0.019139
O O14 0.500000 0.033237 0.745348
O O15 0.610247 0.937563 0.650605
#
# Coordination Sequence:
#
# PCOD9352183 Si02
#       8
#     8   8   4   4   8   4   8   8
#     4  11  26  47  71  99 142 188 239 307 361 419
#     4  11  25  45  69 104 142 190 239 292 358 427
#     4  10  20  46  70 105 143 179 227 310 356 430
#     4  11  23  49  72  98 141 184 241 309 359 425
#     4  11  24  47  67 102 152 182 240 293 355 433
#     4  11  27  47  72 107 130 187 256 299 369 419
#     4   9  20  41  70 100 140 184 226 284 357 415
#     4  11  23  45  70 104 147 191 237 292 353 450
#
# _framework density 26.001830999999999
#
# number of rings (size 3 to 8) (size 9 to 14) (size 15 to 20)
#    0.462    0.923    4.615    0.923    5.385    3.077 
#    2.769    0.000    0.000    0.000    0.000    0.000 
#    0.000    0.000    0.000    0.000    0.000    0.000 
#
# Total GULP energy -144967.545252 kJ/mol
# GULP energy per Si atom -5575.674817 kJ/mol
# Density = 2.594265 g / cm^3
# Si number density = 26.001831 Si / 1000 Ang^3
#
#
#
# Elastic Constant Matrix: (Units=GPa)
#
#
# Indices 1 2 3 4 5 6 
#
# 1 121.7587 13.4309 -8.8478 0.0000 0.0000 0.0000
# 2 13.4309 65.6672 20.4396 0.0000 0.0000 0.0000
# 3 -8.8478 20.4396 83.9594 0.0000 0.0000 0.0000
# 4 0.0000 0.0000 0.0000 39.0443 0.0000 0.0000
# 5 0.0000 0.0000 0.0000 0.0000 32.9277 0.0000
# 6 0.0000 0.0000 0.0000 0.0000 0.0000 37.1530
#
#
#
# Elastic Compliance Matrix: (Units=1/GPa)
#
#
# Indices 1 2 3 4 5 6 
#
# 1 0.008560 -0.002198 0.001437 0.000000 0.000000 0.000000
# 2 -0.002198 0.017041 -0.004380 0.000000 0.000000 0.000000
# 3 0.001437 -0.004380 0.013128 0.000000 0.000000 0.000000
# 4 0.000000 0.000000 0.000000 0.025612 0.000000 0.000000
# 5 0.000000 0.000000 0.000000 0.000000 0.030370 0.000000
# 6 0.000000 0.000000 0.000000 0.000000 0.000000 0.026916
#
#
# Mechanical properties :
#
#
# Convention : Reuss Voigt Hill
#
# Bulk Modulus (GPa) = 35.15298 35.71454 35.43376
# Shear Modulus (GPa) = 35.36280 38.24916 36.80598
#
# Velocity S-wave (km/s) = 3.69183 3.83955 3.76641
# Velocity P-wave (km/s) = 5.63220 5.78112 5.70714
#
# Compressibility (1/GPa) = 0.02844709
#
# Stress axis : x y z
#
# Youngs Moduli (GPa) = 116.82429 58.68101 76.17111
#
# Poissons Ratio (x) = 0.12899 -0.10947
# Poissons Ratio (y) = 0.25679 0.33365
# Poissons Ratio (z) = -0.16790 0.25704
#
# Static dielectric constant tensor:
#      x y z
#    x 2.025970 0.000000 0.000000 
#    y 0.000000 2.089550 0.000000 
#    z 0.000000 0.000000 2.121440 
# 
# From -- ./inp_files/5193.got.cif
#   From: 2010.05.17/outbox.cif.g08.bks.cpg/sg36_3_cif.got.tgz:5193.got - 2010.06.03 17:41:39.
