data_PCOD9352407
_publ_section_title
;
Structure prediction by ZEFSAII (Michael W. Deem and Ramdas Pophale) SiO2 
 PCOD9352407
Probable space group: C M C 21
;
_chemical_formula_sum "Si O2"
_cell_formula_units_Z 32
_cell_length_a 18.734767
_cell_length_b 5.242344
_cell_length_c 13.151655
_cell_angle_alpha 90.000000
_cell_angle_beta 90.000000
_cell_angle_gamma 90.000000
_cell_volume 1291.677872
_symmetry_space_group_name_H-M "C M C 21"
_symmetry_group_IT_number 36
_symmetry_cell_setting 'orthorhombic'
loop_
_space_group_symop_operation_xyz
x,y,z
-x,-y,1/2+z
x,-y,1/2+z
-x,y,z
1/2+x,1/2+y,z
1/2-x,1/2-y,1/2+z
1/2+x,1/2-y,1/2+z
1/2-x,1/2+y,z
loop_
_atom_site_type_symbol
_atom_site_label
_atom_site_fract_x
_atom_site_fract_y
_atom_site_fract_z
Si Si1 0.077871 0.764783 0.037370
Si Si2 0.707207 0.269754 0.675216
Si Si3 0.640588 0.229663 0.466619
Si Si4 0.414528 0.426530 0.259425
O O1 0.128560 0.571177 0.979745
O O2 0.088733 0.754377 0.157900
O O3 0.000000 0.667710 0.011312
O O4 0.083799 0.060633 0.009187
O O5 0.756442 0.507664 0.705169
O O6 0.701106 0.282529 0.551407
O O7 0.629767 0.321938 0.725473
O O8 0.631570 0.301948 0.349458
O O9 0.500000 0.464864 0.281609
#
# Coordination Sequence:
#
# PCOD9352407 Si02
#       4
#     8   8   8   8
#     4  10  21  38  61  96 138 175 221 283 346 410
#     4  11  25  46  68  96 136 181 228 279 340 416
#     4  11  23  41  66  97 136 182 231 283 346 413
#     4  10  23  43  72 105 138 182 236 295 353 409
#
# _framework density 24.773979000000001
#
# number of rings (size 3 to 8) (size 9 to 14) (size 15 to 20)
#    0.000    1.500    0.000    5.250    0.000   10.000 
#    0.000    8.750    0.000    0.000    0.000    0.000 
#    0.000    0.000    0.000    0.000    0.000    0.000 
#
# Total GULP energy -89218.085962 kJ/mol
# GULP energy per Si atom -5576.130373 kJ/mol
# Density = 2.471759 g / cm^3
# Si number density = 24.773979 Si / 1000 Ang^3
#
#
#
# Elastic Constant Matrix: (Units=GPa)
#
#
# Indices 1 2 3 4 5 6 
#
# 1 76.6770 28.9600 6.6572 0.0000 0.0000 0.0000
# 2 28.9600 83.1149 -6.8336 0.0000 0.0000 0.0000
# 3 6.6572 -6.8336 109.7190 0.0000 0.0000 0.0000
# 4 0.0000 0.0000 0.0000 25.0284 0.0000 0.0000
# 5 0.0000 0.0000 0.0000 0.0000 21.7881 0.0000
# 6 0.0000 0.0000 0.0000 0.0000 0.0000 20.4727
#
#
#
# Elastic Compliance Matrix: (Units=1/GPa)
#
#
# Indices 1 2 3 4 5 6 
#
# 1 0.015189 -0.005396 -0.001258 0.000000 0.000000 0.000000
# 2 -0.005396 0.014010 0.001200 0.000000 0.000000 0.000000
# 3 -0.001258 0.001200 0.009265 0.000000 0.000000 0.000000
# 4 0.000000 0.000000 0.000000 0.039955 0.000000 0.000000
# 5 0.000000 0.000000 0.000000 0.000000 0.045897 0.000000
# 6 0.000000 0.000000 0.000000 0.000000 0.000000 0.048846
#
#
# Mechanical properties :
#
#
# Convention : Reuss Voigt Hill
#
# Bulk Modulus (GPa) = 36.28766 36.34202 36.31484
# Shear Modulus (GPa) = 25.87277 29.50635 27.68956
#
# Velocity S-wave (km/s) = 3.23515 3.45486 3.34681
# Velocity P-wave (km/s) = 5.35110 5.53318 5.44290
#
# Compressibility (1/GPa) = 0.02755758
#
# Stress axis : x y z
#
# Youngs Moduli (GPa) = 65.83800 71.37641 107.93034
#
# Poissons Ratio (x) = 0.38512 0.13574
# Poissons Ratio (y) = 0.35524 -0.12951
# Poissons Ratio (z) = 0.08280 -0.08565
#
# Static dielectric constant tensor:
#      x y z
#    x 1.998080 0.000000 0.000000 
#    y 0.000000 1.911700 0.000000 
#    z 0.000000 0.000000 2.030740 
# 
# From -- ./inp_files/9113.got.cif
#   From: 2010.05.17/outbox.cif.g08.bks.cpg/sg36_5_cif.got.tgz:9113.got - 2010.06.03 17:41:39.
