data_PCOD9352793
_publ_section_title
;
Structure prediction by ZEFSAII (Michael W. Deem and Ramdas Pophale) SiO2 
 PCOD9352793
Probable space group: C M C 21
;
_chemical_formula_sum "Si O2"
_cell_formula_units_Z 48
_cell_length_a 13.879664
_cell_length_b 15.842861
_cell_length_c 9.388140
_cell_angle_alpha 90.000000
_cell_angle_beta 90.000000
_cell_angle_gamma 90.000000
_cell_volume 2064.391784
_symmetry_space_group_name_H-M "C M C 21"
_symmetry_group_IT_number 36
_symmetry_cell_setting 'orthorhombic'
loop_
_space_group_symop_operation_xyz
x,y,z
-x,-y,1/2+z
x,-y,1/2+z
-x,y,z
1/2+x,1/2+y,z
1/2-x,1/2-y,1/2+z
1/2+x,1/2-y,1/2+z
1/2-x,1/2+y,z
loop_
_atom_site_type_symbol
_atom_site_label
_atom_site_fract_x
_atom_site_fract_y
_atom_site_fract_z
Si Si1 0.886112 0.586939 0.654420
Si Si2 0.390800 0.616723 0.919847
Si Si3 0.608357 0.478622 0.710806
Si Si4 0.258478 0.364922 0.905495
Si Si5 0.818029 0.311489 0.422361
Si Si6 0.607964 0.109030 0.198923
O O1 0.808616 0.596153 0.527861
O O2 0.856329 0.656876 0.770338
O O3 0.875887 0.491730 0.716100
O O4 0.000000 0.595852 0.614315
O O5 0.500000 0.651850 0.935553
O O6 0.381217 0.545423 0.045542
O O7 0.382878 0.574623 0.763473
O O8 0.296175 0.671532 0.941619
O O9 0.500000 0.452781 0.750253
O O10 0.680801 0.428953 0.810618
O O11 0.326463 0.287950 0.949082
O O12 0.180259 0.334620 0.789127
O O13 0.874670 0.367603 0.535883
O O14 0.500000 0.127215 0.242677
#
# Coordination Sequence:
#
# PCOD9352793 Si02
#       6
#     8   8   8   8   8   8
#     4  11  25  44  71  97 129 175 222 269 322 384
#     4  10  22  41  66  94 126 168 214 261 315 382
#     4  10  22  41  66  94 126 168 214 261 315 382
#     4  12  25  42  63 100 132 169 210 267 335 387
#     4  12  25  42  63 100 132 169 210 267 335 387
#     4  11  23  44  69  95 127 171 226 271 316 386
#
# _framework density 23.251401000000001
#
# number of rings (size 3 to 8) (size 9 to 14) (size 15 to 20)
#    0.000    1.000    1.667    5.000    2.333    5.333 
#    0.000    0.000    0.000    0.000    0.000    0.000 
#    0.000    0.000    0.000    0.000    0.000    0.000 
#
# Total GULP energy -134113.185258 kJ/mol
# GULP energy per Si atom -5588.049386 kJ/mol
# Density = 2.319848 g / cm^3
# Si number density = 23.251401 Si / 1000 Ang^3
#
#
#
# Elastic Constant Matrix: (Units=GPa)
#
#
# Indices 1 2 3 4 5 6 
#
# 1 86.2218 19.0165 11.2248 0.0000 0.0000 0.0000
# 2 19.0165 31.5676 -5.3158 0.0000 0.0000 0.0000
# 3 11.2248 -5.3158 63.6205 0.0000 0.0000 0.0000
# 4 0.0000 0.0000 0.0000 27.9289 0.0000 0.0000
# 5 0.0000 0.0000 0.0000 0.0000 -15.9896 0.0000
# 6 0.0000 0.0000 0.0000 0.0000 0.0000 -3.6343
#
#
#
# Elastic Compliance Matrix: (Units=1/GPa)
#
#
# Indices 1 2 3 4 5 6 
#
# 1 0.013996 -0.008974 -0.003219 0.000000 0.000000 0.000000
# 2 -0.008974 0.037883 0.004749 0.000000 0.000000 0.000000
# 3 -0.003219 0.004749 0.016683 0.000000 0.000000 0.000000
# 4 0.000000 0.000000 0.000000 0.035805 0.000000 0.000000
# 5 0.000000 0.000000 0.000000 0.000000 -0.062541 0.000000
# 6 0.000000 0.000000 0.000000 0.000000 0.000000 -0.275156
#
#
# Mechanical properties :
#
#
# Convention : Reuss Voigt Hill
#
# Bulk Modulus (GPa) = 18.63089 25.69566 22.16328
# Shear Modulus (GPa) = -24.93147 12.09330 -6.41908
#
# Velocity S-wave (km/s) = -3.27809 2.28307 -1.66335
# Velocity P-wave (km/s) = 2.50950 4.24560 2.42152
#
# Compressibility (1/GPa) = 0.05367431
#
# Stress axis : x y z
#
# Youngs Moduli (GPa) = 71.44780 26.39679 59.94145
#
# Poissons Ratio (x) = 0.23687 0.19296
# Poissons Ratio (y) = 0.64114 -0.28464
# Poissons Ratio (z) = 0.23000 -0.12535
#
# Static dielectric constant tensor:
#      x y z
#    x 1.887680 0.000000 0.000000 
#    y 0.000000 1.862470 0.000000 
#    z 0.000000 0.000000 1.868210 
# 
# From -- ./inp_files/3981.got.cif
#   From: 2010.05.17/outbox.cif.g08.bks.cpg/sg36_2_cif.got.tgz:3981.got - 2010.06.03 17:41:39.
