data_PCOD9352932
_publ_section_title
;
Structure prediction by ZEFSAII (Michael W. Deem and Ramdas Pophale) SiO2 
 PCOD9352932
Probable space group: C M C 21
;
_chemical_formula_sum "Si O2"
_cell_formula_units_Z 56
_cell_length_a 14.597395
_cell_length_b 12.439883
_cell_length_c 14.313836
_cell_angle_alpha 90.000000
_cell_angle_beta 90.000000
_cell_angle_gamma 90.000000
_cell_volume 2599.247846
_symmetry_space_group_name_H-M "C M C 21"
_symmetry_group_IT_number 36
_symmetry_cell_setting 'orthorhombic'
loop_
_space_group_symop_operation_xyz
x,y,z
-x,-y,1/2+z
x,-y,1/2+z
-x,y,z
1/2+x,1/2+y,z
1/2-x,1/2-y,1/2+z
1/2+x,1/2-y,1/2+z
1/2-x,1/2+y,z
loop_
_atom_site_type_symbol
_atom_site_label
_atom_site_fract_x
_atom_site_fract_y
_atom_site_fract_z
Si Si1 0.236254 0.733867 0.539040
Si Si2 0.099874 0.630930 0.198399
Si Si3 0.902433 0.905499 0.576305
Si Si4 0.394740 0.513731 0.867111
Si Si5 0.853081 0.876789 0.177791
Si Si6 0.294706 0.085226 0.381958
Si Si7 0.608167 0.891902 0.489283
O O1 0.181878 0.827208 0.592784
O O2 0.262839 0.646167 0.616761
O O3 0.181042 0.679310 0.455013
O O4 0.326737 0.787034 0.492421
O O5 0.100979 0.759041 0.176460
O O6 0.172838 0.606698 0.277451
O O7 0.111955 0.573391 0.098824
O O8 0.000000 0.602725 0.236980
O O9 0.000000 0.855383 0.602278
O O10 0.899921 0.926311 0.465613
O O11 0.896367 0.020914 0.625723
O O12 0.500000 0.480515 0.843895
O O13 0.354342 0.588386 0.785219
O O14 0.315499 0.426156 0.881619
O O15 0.343275 0.978553 0.422856
O O16 0.500000 0.874230 0.467650
#
# Coordination Sequence:
#
# PCOD9352932 Si02
#       7
#     8   8   8   8   8   8   8
#     4  11  23  41  65 102 128 176 219 276 336 392
#     4  10  23  41  70 100 128 179 227 268 333 407
#     4  11  23  44  69  99 136 173 222 281 335 397
#     4  11  24  40  66  98 132 176 223 276 336 395
#     4  11  23  43  67  95 134 172 224 275 335 395
#     4  12  24  41  69 100 136 171 223 281 334 398
#     4  10  23  44  65  94 136 175 221 273 334 398
#
# _framework density 21.544694
#
# number of rings (size 3 to 8) (size 9 to 14) (size 15 to 20)
#    0.000    1.143    2.857    2.571    6.000    4.000 
#    0.000    0.000    0.000    0.000    0.000    0.000 
#    0.000    0.000    0.000    0.000    0.000    0.000 
#
# Total GULP energy -156189.402486 kJ/mol
# GULP energy per Si atom -5578.192946 kJ/mol
# Density = 2.149566 g / cm^3
# Si number density = 21.544694 Si / 1000 Ang^3
#
#
#
# Elastic Constant Matrix: (Units=GPa)
#
#
# Indices 1 2 3 4 5 6 
#
# 1 92.4124 24.1946 -8.9113 0.0000 0.0000 0.0000
# 2 24.1946 61.6745 16.9597 0.0000 0.0000 0.0000
# 3 -8.9113 16.9597 79.6391 0.0000 0.0000 0.0000
# 4 0.0000 0.0000 0.0000 34.5403 0.0000 0.0000
# 5 0.0000 0.0000 0.0000 0.0000 19.1283 0.0000
# 6 0.0000 0.0000 0.0000 0.0000 0.0000 12.4259
#
#
#
# Elastic Compliance Matrix: (Units=1/GPa)
#
#
# Indices 1 2 3 4 5 6 
#
# 1 0.012549 -0.005639 0.002605 0.000000 0.000000 0.000000
# 2 -0.005639 0.019757 -0.004838 0.000000 0.000000 0.000000
# 3 0.002605 -0.004838 0.013878 0.000000 0.000000 0.000000
# 4 0.000000 0.000000 0.000000 0.028952 0.000000 0.000000
# 5 0.000000 0.000000 0.000000 0.000000 0.052278 0.000000
# 6 0.000000 0.000000 0.000000 0.000000 0.000000 0.080477
#
#
# Mechanical properties :
#
#
# Convention : Reuss Voigt Hill
#
# Bulk Modulus (GPa) = 32.85245 33.13464 32.99354
# Shear Modulus (GPa) = 21.38742 26.65111 24.01927
#
# Velocity S-wave (km/s) = 3.15413 3.52094 3.34257
# Velocity P-wave (km/s) = 5.34288 5.65174 5.49948
#
# Compressibility (1/GPa) = 0.03043913
#
# Stress axis : x y z
#
# Youngs Moduli (GPa) = 79.68986 50.61542 72.05394
#
# Poissons Ratio (x) = 0.28543 -0.18770
# Poissons Ratio (y) = 0.44938 0.34862
# Poissons Ratio (z) = -0.20759 0.24489
#
# Static dielectric constant tensor:
#      x y z
#    x 1.848080 0.000000 0.000000 
#    y 0.000000 1.766160 0.000000 
#    z 0.000000 0.000000 1.774230 
# 
# From -- ./inp_files/12135.got.cif
#   From: 2010.05.17/outbox.cif.g08.bks.cpg/sg36_7_cif.got.tgz:12135.got - 2010.06.03 17:41:39.
