data_PCOD9352812
_publ_section_title
;
Structure prediction by ZEFSAII (Michael W. Deem and Ramdas Pophale) SiO2 
 PCOD9352812
Probable space group: C M C 21
;
_chemical_formula_sum "Si O2"
_cell_formula_units_Z 56
_cell_length_a 21.857950
_cell_length_b 13.963079
_cell_length_c 8.554923
_cell_angle_alpha 90.000000
_cell_angle_beta 90.000000
_cell_angle_gamma 90.000000
_cell_volume 2610.999137
_symmetry_space_group_name_H-M "C M C 21"
_symmetry_group_IT_number 36
_symmetry_cell_setting 'orthorhombic'
loop_
_space_group_symop_operation_xyz
x,y,z
-x,-y,1/2+z
x,-y,1/2+z
-x,y,z
1/2+x,1/2+y,z
1/2-x,1/2-y,1/2+z
1/2+x,1/2-y,1/2+z
1/2-x,1/2+y,z
loop_
_atom_site_type_symbol
_atom_site_label
_atom_site_fract_x
_atom_site_fract_y
_atom_site_fract_z
Si Si1 0.071958 0.813046 0.811910
Si Si2 0.898910 0.468920 0.819167
Si Si3 0.931508 0.636039 0.010709
Si Si4 0.797623 0.883538 0.774630
Si Si5 0.729499 0.265076 0.464129
Si Si6 0.117409 0.322987 0.048072
Si Si7 0.782572 0.436508 0.261441
O O1 0.128710 0.886249 0.794986
O O2 0.080017 0.747188 0.657938
O O3 0.000000 0.841815 0.827479
O O4 0.089453 0.739759 0.953255
O O5 0.898790 0.420733 0.649660
O O6 0.829108 0.496063 0.857593
O O7 0.932082 0.568295 0.856693
O O8 0.922400 0.394574 0.946816
O O9 0.000000 0.647176 0.069163
O O10 0.770015 0.829651 0.928440
O O11 0.776531 0.809237 0.638306
O O12 0.769952 0.986054 0.723961
O O13 0.659647 0.236414 0.427231
O O14 0.754814 0.351896 0.362804
O O15 0.168850 0.383613 0.145784
#
# Coordination Sequence:
#
# PCOD9352812 Si02
#       7
#     8   8   8   8   8   8   8
#     4  10  22  42  61  85 127 173 215 254 314 385
#     4  12  21  34  56  88 125 160 207 255 319 389
#     4  11  22  36  57  84 125 171 211 257 308 386
#     4  11  24  37  66  92 126 170 207 268 318 383
#     4  11  22  39  58  93 127 159 210 258 332 370
#     4  11  22  38  59  94 125 168 206 269 324 384
#     4  12  22  38  61  92 128 161 206 263 333 383
#
# _framework density 21.447728000000001
#
# number of rings (size 3 to 8) (size 9 to 14) (size 15 to 20)
#    0.000    0.857    7.143    1.286    2.000    2.286 
#    0.000    0.000    0.000    3.429    0.000    0.000 
#    0.000    0.000    0.000    0.000    0.000    0.000 
#
# Total GULP energy -155923.679092 kJ/mol
# GULP energy per Si atom -5568.702825 kJ/mol
# Density = 2.139891 g / cm^3
# Si number density = 21.447728 Si / 1000 Ang^3
#
#
#
# Elastic Constant Matrix: (Units=GPa)
#
#
# Indices 1 2 3 4 5 6 
#
# 1 79.8027 37.5337 9.9632 0.0000 0.0000 0.0000
# 2 37.5337 56.2316 9.8616 0.0000 0.0000 0.0000
# 3 9.9632 9.8616 48.8215 0.0000 0.0000 0.0000
# 4 0.0000 0.0000 0.0000 27.5824 0.0000 0.0000
# 5 0.0000 0.0000 0.0000 0.0000 14.9966 0.0000
# 6 0.0000 0.0000 0.0000 0.0000 0.0000 21.1090
#
#
#
# Elastic Compliance Matrix: (Units=1/GPa)
#
#
# Indices 1 2 3 4 5 6 
#
# 1 0.018346 -0.012015 -0.001317 0.000000 0.000000 0.000000
# 2 -0.012015 0.026305 -0.002862 0.000000 0.000000 0.000000
# 3 -0.001317 -0.002862 0.021330 0.000000 0.000000 0.000000
# 4 0.000000 0.000000 0.000000 0.036255 0.000000 0.000000
# 5 0.000000 0.000000 0.000000 0.000000 0.066682 0.000000
# 6 0.000000 0.000000 0.000000 0.000000 0.000000 0.047373
#
#
# Mechanical properties :
#
#
# Convention : Reuss Voigt Hill
#
# Bulk Modulus (GPa) = 29.76719 33.28587 31.52653
# Shear Modulus (GPa) = 19.23995 21.23743 20.23869
#
# Velocity S-wave (km/s) = 2.99835 3.15015 3.07519
# Velocity P-wave (km/s) = 5.08880 5.36512 5.22878
#
# Compressibility (1/GPa) = 0.03359404
#
# Stress axis : x y z
#
# Youngs Moduli (GPa) = 54.50694 38.01535 46.88331
#
# Poissons Ratio (x) = 0.45675 0.06175
# Poissons Ratio (y) = 0.65489 0.13416
# Poissons Ratio (z) = 0.07179 0.10878
#
# Static dielectric constant tensor:
#      x y z
#    x 1.852000 0.000000 0.000000 
#    y 0.000000 1.850530 0.000000 
#    z 0.000000 0.000000 1.904410 
# 
# From -- ./inp_files/5227.got.cif
#   From: 2010.05.17/outbox.cif.g08.bks.cpg/sg36_3_cif.got.tgz:5227.got - 2010.06.03 17:41:39.
