data_PCOD9352557
_publ_section_title
;
Structure prediction by ZEFSAII (Michael W. Deem and Ramdas Pophale) SiO2 
 PCOD9352557
Probable space group: C M C 21
;
_chemical_formula_sum "Si O2"
_cell_formula_units_Z 56
_cell_length_a 29.324916
_cell_length_b 6.049638
_cell_length_c 14.058392
_cell_angle_alpha 90.000000
_cell_angle_beta 90.000000
_cell_angle_gamma 90.000000
_cell_volume 2494.030807
_symmetry_space_group_name_H-M "C M C 21"
_symmetry_group_IT_number 36
_symmetry_cell_setting 'orthorhombic'
loop_
_space_group_symop_operation_xyz
x,y,z
-x,-y,1/2+z
x,-y,1/2+z
-x,y,z
1/2+x,1/2+y,z
1/2-x,1/2-y,1/2+z
1/2+x,1/2-y,1/2+z
1/2-x,1/2+y,z
loop_
_atom_site_type_symbol
_atom_site_label
_atom_site_fract_x
_atom_site_fract_y
_atom_site_fract_z
Si Si1 0.668875 0.893168 0.566010
Si Si2 0.447423 0.026016 0.289772
Si Si3 0.143318 0.995742 0.193953
Si Si4 0.756748 0.907046 0.686718
Si Si5 0.373649 0.294626 0.889088
Si Si6 0.049078 0.099743 0.929695
Si Si7 0.917111 0.666802 0.600325
O O1 0.647743 0.748023 0.653157
O O2 0.720359 0.926339 0.600750
O O3 0.664630 0.782694 0.462475
O O4 0.631132 0.083107 0.559953
O O5 0.500000 0.954244 0.311282
O O6 0.444451 0.274374 0.329799
O O7 0.405775 0.892694 0.340281
O O8 0.439620 0.991506 0.178028
O O9 0.190708 0.101371 0.155970
O O10 0.145401 0.050379 0.305518
O O11 0.097839 0.112334 0.156422
O O12 0.747759 0.659513 0.732942
O O13 0.410010 0.435499 0.948219
O O14 0.000000 0.989517 0.930870
O O15 0.051395 0.282570 0.011572
#
# Coordination Sequence:
#
# PCOD9352557 Si02
#       7
#     8   8   8   8   8   8   8
#     4  11  21  39  65  90 129 166 215 273 332 408
#     4  10  22  38  58  85 123 161 211 269 321 392
#     4  10  22  40  63  89 127 168 215 270 330 403
#     4  10  21  40  65  95 131 173 215 276 336 389
#     4  11  22  39  63  92 121 172 215 265 335 398
#     4  11  22  38  60  91 129 166 221 280 331 401
#     4  11  20  38  62  88 120 168 210 261 339 401
#
# _framework density 22.453614000000002
#
# number of rings (size 3 to 8) (size 9 to 14) (size 15 to 20)
#    0.000    1.429    4.286    1.714    0.000    0.000 
#    0.000    5.714    0.000    0.000    0.000    0.000 
#    0.000    0.000    0.000    0.000    0.000    0.000 
#
# Total GULP energy -155935.176504 kJ/mol
# GULP energy per Si atom -5569.113447 kJ/mol
# Density = 2.240251 g / cm^3
# Si number density = 22.453614 Si / 1000 Ang^3
#
#
#
# Elastic Constant Matrix: (Units=GPa)
#
#
# Indices 1 2 3 4 5 6 
#
# 1 102.9621 4.8254 10.0427 0.0000 0.0000 0.0000
# 2 4.8254 43.1504 6.2752 0.0000 0.0000 0.0000
# 3 10.0427 6.2752 70.1967 0.0000 0.0000 0.0000
# 4 0.0000 0.0000 0.0000 16.7258 0.0000 0.0000
# 5 0.0000 0.0000 0.0000 0.0000 20.0339 0.0000
# 6 0.0000 0.0000 0.0000 0.0000 0.0000 -1.6181
#
#
#
# Elastic Compliance Matrix: (Units=1/GPa)
#
#
# Indices 1 2 3 4 5 6 
#
# 1 0.009885 -0.000912 -0.001333 0.000000 0.000000 0.000000
# 2 -0.000912 0.023564 -0.001976 0.000000 0.000000 0.000000
# 3 -0.001333 -0.001976 0.014613 0.000000 0.000000 0.000000
# 4 0.000000 0.000000 0.000000 0.059788 0.000000 0.000000
# 5 0.000000 0.000000 0.000000 0.000000 0.049915 0.000000
# 6 0.000000 0.000000 0.000000 0.000000 0.000000 -0.618006
#
#
# Mechanical properties :
#
#
# Convention : Reuss Voigt Hill
#
# Bulk Modulus (GPa) = 25.23895 28.73287 26.98591
# Shear Modulus (GPa) = -11.40009 20.03938 4.31964
#
# Velocity S-wave (km/s) = -2.25570 2.99068 1.38852
# Velocity P-wave (km/s) = 2.11675 4.97493 3.82299
#
# Compressibility (1/GPa) = 0.03962131
#
# Stress axis : x y z
#
# Youngs Moduli (GPa) = 101.16315 42.43753 68.43219
#
# Poissons Ratio (x) = 0.03869 0.09120
# Poissons Ratio (y) = 0.09222 0.13523
# Poissons Ratio (z) = 0.13482 0.08386
#
# Static dielectric constant tensor:
#      x y z
#    x 1.807500 0.000000 0.000000 
#    y 0.000000 1.994140 0.000000 
#    z 0.000000 0.000000 1.827760 
# 
# From -- ./inp_files/13147.got.cif
#   From: 2010.05.17/outbox.cif.g08.bks.cpg/sg36_7_cif.got.tgz:13147.got - 2010.06.03 17:41:39.
