data_PCOD9352989
_publ_section_title
;
Structure prediction by ZEFSAII (Michael W. Deem and Ramdas Pophale) SiO2 
 PCOD9352989
Probable space group: C M C 21
;
_chemical_formula_sum "Si O2"
_cell_formula_units_Z 64
_cell_length_a 27.623064
_cell_length_b 13.004212
_cell_length_c 7.994455
_cell_angle_alpha 90.000000
_cell_angle_beta 90.000000
_cell_angle_gamma 90.000000
_cell_volume 2871.737589
_symmetry_space_group_name_H-M "C M C 21"
_symmetry_group_IT_number 36
_symmetry_cell_setting 'orthorhombic'
loop_
_space_group_symop_operation_xyz
x,y,z
-x,-y,1/2+z
x,-y,1/2+z
-x,y,z
1/2+x,1/2+y,z
1/2-x,1/2-y,1/2+z
1/2+x,1/2-y,1/2+z
1/2-x,1/2+y,z
loop_
_atom_site_type_symbol
_atom_site_label
_atom_site_fract_x
_atom_site_fract_y
_atom_site_fract_z
Si Si1 0.943488 0.411508 0.053390
Si Si2 0.305734 0.765930 0.504110
Si Si3 0.748522 0.059233 0.887109
Si Si4 0.780032 0.635860 0.517595
Si Si5 0.444173 0.864976 0.658597
Si Si6 0.138777 0.049471 0.992628
Si Si7 0.884466 0.160131 0.666825
Si Si8 0.366604 0.753258 0.179146
O O1 0.923848 0.528281 0.080218
O O2 0.913861 0.322216 0.147538
O O3 0.000000 0.411873 0.107631
O O4 0.941628 0.384543 0.857685
O O5 0.273712 0.865637 0.527073
O O6 0.265176 0.690733 0.432583
O O7 0.332643 0.718321 0.661037
O O8 0.346005 0.777671 0.362075
O O9 0.739832 0.103236 0.702083
O O10 0.804825 0.040322 0.932534
O O11 0.713017 0.962987 0.906547
O O12 0.826591 0.703853 0.548795
O O13 0.500000 0.859278 0.604471
O O14 0.420822 0.753110 0.628886
O O15 0.109516 0.105835 0.844958
O O16 0.132672 0.130962 0.144902
O O17 0.119993 0.936472 0.040940
#
# Coordination Sequence:
#
# PCOD9352989 Si02
#       8
#     8   8   8   8   8   8   8   8
#     4  10  23  47  76 105 137 173 219 292 360 415
#     4  11  24  39  59  93 135 180 231 281 330 408
#     4  11  23  38  56  87 127 181 226 278 333 386
#     4  11  24  38  58  88 134 178 227 276 331 401
#     4  10  24  47  74 104 139 172 221 288 359 420
#     4  12  22  41  64  90 137 183 227 277 330 394
#     4  12  25  43  67  98 134 183 232 277 341 411
#     4  11  25  41  65 103 135 184 234 279 348 411
#
# _framework density 22.286159000000001
#
# number of rings (size 3 to 8) (size 9 to 14) (size 15 to 20)
#    0.000    1.000    5.000    0.750    5.250    2.000 
#    0.000    1.250    0.000    0.000    0.000    0.000 
#    0.000    0.000    0.000    0.000    0.000    0.000 
#
# Total GULP energy -178698.146131 kJ/mol
# GULP energy per Si atom -5584.317067 kJ/mol
# Density = 2.223544 g / cm^3
# Si number density = 22.286159 Si / 1000 Ang^3
#
#
#
# Elastic Constant Matrix: (Units=GPa)
#
#
# Indices 1 2 3 4 5 6 
#
# 1 70.2149 43.9020 19.7860 0.0000 0.0000 0.0000
# 2 43.9020 134.4371 28.4143 0.0000 0.0000 0.0000
# 3 19.7860 28.4143 62.0432 0.0000 0.0000 0.0000
# 4 0.0000 0.0000 0.0000 36.9014 0.0000 0.0000
# 5 0.0000 0.0000 0.0000 0.0000 25.5287 0.0000
# 6 0.0000 0.0000 0.0000 0.0000 0.0000 43.8890
#
#
#
# Elastic Compliance Matrix: (Units=1/GPa)
#
#
# Indices 1 2 3 4 5 6 
#
# 1 0.018550 -0.005323 -0.003478 0.000000 0.000000 0.000000
# 2 -0.005323 0.009763 -0.002774 0.000000 0.000000 0.000000
# 3 -0.003478 -0.002774 0.018497 0.000000 0.000000 0.000000
# 4 0.000000 0.000000 0.000000 0.027099 0.000000 0.000000
# 5 0.000000 0.000000 0.000000 0.000000 0.039172 0.000000
# 6 0.000000 0.000000 0.000000 0.000000 0.000000 0.022785
#
#
# Mechanical properties :
#
#
# Convention : Reuss Voigt Hill
#
# Bulk Modulus (GPa) = 42.26314 50.09998 46.18156
# Shear Modulus (GPa) = 29.95774 32.90335 31.43054
#
# Velocity S-wave (km/s) = 3.67035 3.84657 3.75949
# Velocity P-wave (km/s) = 6.08005 6.50056 6.29382
#
# Compressibility (1/GPa) = 0.02366128
#
# Stress axis : x y z
#
# Youngs Moduli (GPa) = 53.90816 102.42932 54.06195
#
# Poissons Ratio (x) = 0.54519 0.18803
# Poissons Ratio (y) = 0.28693 0.14995
# Poissons Ratio (z) = 0.18750 0.28411
#
# Static dielectric constant tensor:
#      x y z
#    x 1.806610 0.000000 0.000000 
#    y 0.000000 2.076900 0.000000 
#    z 0.000000 0.000000 1.880760 
# 
# From -- ./inp_files/6090.got.cif
#   From: 2010.05.17/outbox.cif.g08.bks.cpg/sg36_4_cif.got.tgz:6090.got - 2010.06.03 17:41:39.
