data_PCOD9352944
_publ_section_title
;
Structure prediction by ZEFSAII (Michael W. Deem and Ramdas Pophale) SiO2 
 PCOD9352944
Probable space group: C M C 21
;
_chemical_formula_sum "Si O2"
_cell_formula_units_Z 44
_cell_length_a 11.638431
_cell_length_b 14.824535
_cell_length_c 13.645699
_cell_angle_alpha 90.000000
_cell_angle_beta 90.000000
_cell_angle_gamma 90.000000
_cell_volume 2354.351503
_symmetry_space_group_name_H-M "C M C 21"
_symmetry_group_IT_number 36
_symmetry_cell_setting 'orthorhombic'
loop_
_space_group_symop_operation_xyz
x,y,z
-x,-y,1/2+z
x,-y,1/2+z
-x,y,z
1/2+x,1/2+y,z
1/2-x,1/2-y,1/2+z
1/2+x,1/2-y,1/2+z
1/2-x,1/2+y,z
loop_
_atom_site_type_symbol
_atom_site_label
_atom_site_fract_x
_atom_site_fract_y
_atom_site_fract_z
Si Si1 0.500000 0.622339 0.728140
Si Si2 0.733330 0.375671 0.872699
Si Si3 0.243059 0.574316 0.166836
Si Si4 0.771098 0.235259 0.713956
Si Si5 0.000000 0.960471 0.607332
Si Si6 0.500000 0.479407 0.901522
Si Si7 0.136949 0.602000 0.573628
O O1 0.386046 0.680710 0.736809
O O2 0.500000 0.568403 0.625826
O O3 0.500000 0.540792 0.805114
O O4 0.779051 0.439433 0.783331
O O5 0.723416 0.280980 0.813864
O O6 0.612254 0.417291 0.903663
O O7 0.814393 0.372322 0.966586
O O8 0.200086 0.675898 0.148654
O O9 0.381104 0.576117 0.150913
O O10 0.187999 0.495772 0.103555
O O11 0.685333 0.172046 0.654124
O O12 0.000000 0.950944 0.491343
O O13 0.000000 0.600633 0.573671
#
# Coordination Sequence:
#
# PCOD9352944 Si02
#       7
#     4   8   8   8   4   4   8
#     4  12  20  42  66  96 130 178 216 278 318 394
#     4  10  23  42  65  98 130 166 220 275 323 389
#     4  10  23  43  64  94 132 170 212 274 327 384
#     4  10  25  41  64  96 136 169 219 268 335 382
#     4  12  20  40  70  97 120 169 228 270 322 378
#     4  12  20  38  74  91 126 167 230 276 318 382
#     4  12  25  44  66  95 135 175 219 269 336 399
#
# _framework density 18.688798999999999
#
# number of rings (size 3 to 8) (size 9 to 14) (size 15 to 20)
#    1.091    0.000    5.455    0.000    5.091    2.182 
#    3.273    0.000    0.000    0.000    0.000    0.000 
#    0.000    0.000    0.000    0.000    0.000    0.000 
#
# Total GULP energy -122607.882813 kJ/mol
# GULP energy per Si atom -5573.085582 kJ/mol
# Density = 1.864626 g / cm^3
# Si number density = 18.688799 Si / 1000 Ang^3
#
#
#
# Elastic Constant Matrix: (Units=GPa)
#
#
# Indices 1 2 3 4 5 6 
#
# 1 130.3319 38.0368 49.4510 0.0000 0.0000 0.0000
# 2 38.0368 44.6869 -7.6715 0.0000 0.0000 0.0000
# 3 49.4510 -7.6715 66.3755 0.0000 0.0000 0.0000
# 4 0.0000 0.0000 0.0000 25.7364 0.0000 0.0000
# 5 0.0000 0.0000 0.0000 0.0000 15.6585 0.0000
# 6 0.0000 0.0000 0.0000 0.0000 0.0000 -4.2887
#
#
#
# Elastic Compliance Matrix: (Units=1/GPa)
#
#
# Indices 1 2 3 4 5 6 
#
# 1 0.020086 -0.020064 -0.017284 0.000000 0.000000 0.000000
# 2 -0.020064 0.042873 0.019903 0.000000 0.000000 0.000000
# 3 -0.017284 0.019903 0.030243 0.000000 0.000000 0.000000
# 4 0.000000 0.000000 0.000000 0.038855 0.000000 0.000000
# 5 0.000000 0.000000 0.000000 0.000000 0.063863 0.000000
# 6 0.000000 0.000000 0.000000 0.000000 0.000000 -0.233169
#
#
# Mechanical properties :
#
#
# Convention : Reuss Voigt Hill
#
# Bulk Modulus (GPa) = 17.14876 44.55855 30.85365
# Shear Modulus (GPa) = 292.77606 18.19310 155.48458
#
# Velocity S-wave (km/s) = 12.52991 3.12344 9.13112
# Velocity P-wave (km/s) = 14.78267 6.07470 11.30109
#
# Compressibility (1/GPa) = 0.05831327
#
# Stress axis : x y z
#
# Youngs Moduli (GPa) = 49.78561 23.32469 33.06579
#
# Poissons Ratio (x) = 0.46799 0.57149
# Poissons Ratio (y) = 0.99890 -0.65812
# Poissons Ratio (z) = 0.86047 -0.46424
#
# Static dielectric constant tensor:
#      x y z
#    x 1.628970 0.000000 0.000000 
#    y 0.000000 1.653280 0.000000 
#    z 0.000000 0.000000 1.670150 
# 
# From -- ./inp_files/11505.got.cif
#   From: 2010.05.17/outbox.cif.g08.bks.cpg/sg36_6_cif.got.tgz:11505.got - 2010.06.03 17:41:39.
