data_PCOD9352634
_publ_section_title
;
Structure prediction by ZEFSAII (Michael W. Deem and Ramdas Pophale) SiO2 
 PCOD9352634
Probable space group: C M C 21
;
_chemical_formula_sum "Si O2"
_cell_formula_units_Z 28
_cell_length_a 12.646839
_cell_length_b 7.473373
_cell_length_c 13.837428
_cell_angle_alpha 90.000000
_cell_angle_beta 90.000000
_cell_angle_gamma 90.000000
_cell_volume 1307.838213
_symmetry_space_group_name_H-M "C M C 21"
_symmetry_group_IT_number 36
_symmetry_cell_setting 'orthorhombic'
loop_
_space_group_symop_operation_xyz
x,y,z
-x,-y,1/2+z
x,-y,1/2+z
-x,y,z
1/2+x,1/2+y,z
1/2-x,1/2-y,1/2+z
1/2+x,1/2-y,1/2+z
1/2-x,1/2+y,z
loop_
_atom_site_type_symbol
_atom_site_label
_atom_site_fract_x
_atom_site_fract_y
_atom_site_fract_z
Si Si1 0.000000 0.659236 0.093120
Si Si2 0.886454 0.090565 0.281359
Si Si3 0.000000 0.614180 0.416716
Si Si4 0.151755 0.496430 0.748917
Si Si5 0.000000 0.982329 0.964488
O O1 0.899715 0.603168 0.158050
O O2 0.000000 0.541627 0.995359
O O3 0.000000 0.862495 0.058103
O O4 0.883103 0.297396 0.251910
O O5 0.777991 0.005804 0.248316
O O6 0.000000 0.011139 0.249446
O O7 0.899833 0.073660 0.397381
O O8 0.100664 0.594265 0.344718
O O9 0.000000 0.804423 0.470463
#
# Coordination Sequence:
#
# PCOD9352634 Si02
#       5
#     4   8   4   8   4
#     4  11  22  47  67 107 146 181 246 288 343 431
#     4  10  21  45  69  99 136 187 228 283 360 406
#     4  11  21  45  74  98 145 188 226 297 366 395
#     4  11  22  45  74  99 147 187 227 303 348 419
#     4  10  21  44  73 101 137 183 244 277 349 430
#
# _framework density 21.409375000000001
#
# number of rings (size 3 to 8) (size 9 to 14) (size 15 to 20)
#    0.857    0.571    5.714    1.714    0.000    0.000 
#   20.571    0.000    0.000    0.000    0.000    0.000 
#    0.000    0.000    0.000    0.000    0.000    0.000 
#
# Total GULP energy -78173.993937 kJ/mol
# GULP energy per Si atom -5583.856710 kJ/mol
# Density = 2.136065 g / cm^3
# Si number density = 21.409375 Si / 1000 Ang^3
#
#
#
# Elastic Constant Matrix: (Units=GPa)
#
#
# Indices 1 2 3 4 5 6 
#
# 1 182.5850 2.2079 30.2138 0.0000 0.0000 0.0000
# 2 2.2079 47.5951 36.5488 0.0000 0.0000 0.0000
# 3 30.2138 36.5488 112.2894 0.0000 0.0000 0.0000
# 4 0.0000 0.0000 0.0000 35.2591 0.0000 0.0000
# 5 0.0000 0.0000 0.0000 0.0000 8.9525 0.0000
# 6 0.0000 0.0000 0.0000 0.0000 0.0000 28.7339
#
#
#
# Elastic Compliance Matrix: (Units=1/GPa)
#
#
# Indices 1 2 3 4 5 6 
#
# 1 0.005786 0.001236 -0.001959 0.000000 0.000000 0.000000
# 2 0.001236 0.028276 -0.009536 0.000000 0.000000 0.000000
# 3 -0.001959 -0.009536 0.012537 0.000000 0.000000 0.000000
# 4 0.000000 0.000000 0.000000 0.028361 0.000000 0.000000
# 5 0.000000 0.000000 0.000000 0.000000 0.111701 0.000000
# 6 0.000000 0.000000 0.000000 0.000000 0.000000 0.034802
#
#
# Mechanical properties :
#
#
# Convention : Reuss Voigt Hill
#
# Bulk Modulus (GPa) = 38.34299 53.37896 45.86097
# Shear Modulus (GPa) = 19.94612 32.82235 26.38424
#
# Velocity S-wave (km/s) = 3.05561 3.91971 3.51432
# Velocity P-wave (km/s) = 5.51338 6.74330 6.15912
#
# Compressibility (1/GPa) = 0.02608039
#
# Stress axis : x y z
#
# Youngs Moduli (GPa) = 172.82618 35.36552 79.76630
#
# Poissons Ratio (x) = -0.04371 0.15628
# Poissons Ratio (y) = -0.21363 0.76066
# Poissons Ratio (z) = 0.33860 0.33725
#
# Static dielectric constant tensor:
#      x y z
#    x 1.824910 0.000000 0.000000 
#    y 0.000000 1.780110 0.000000 
#    z 0.000000 0.000000 1.769850 
# 
# From -- ./inp_files/8150.got.cif
#   From: 2010.05.17/outbox.cif.g08.bks.cpg/sg36_5_cif.got.tgz:8150.got - 2010.06.03 17:41:39.
