data_PCOD9352893
_publ_section_title
;
Structure prediction by ZEFSAII (Michael W. Deem and Ramdas Pophale) SiO2 
 PCOD9352893
Probable space group: C M C 21
;
_chemical_formula_sum "Si O2"
_cell_formula_units_Z 48
_cell_length_a 19.402133
_cell_length_b 12.086999
_cell_length_c 8.720195
_cell_angle_alpha 90.000000
_cell_angle_beta 90.000000
_cell_angle_gamma 90.000000
_cell_volume 2045.003992
_symmetry_space_group_name_H-M "C M C 21"
_symmetry_group_IT_number 36
_symmetry_cell_setting 'orthorhombic'
loop_
_space_group_symop_operation_xyz
x,y,z
-x,-y,1/2+z
x,-y,1/2+z
-x,y,z
1/2+x,1/2+y,z
1/2-x,1/2-y,1/2+z
1/2+x,1/2-y,1/2+z
1/2-x,1/2+y,z
loop_
_atom_site_type_symbol
_atom_site_label
_atom_site_fract_x
_atom_site_fract_y
_atom_site_fract_z
Si Si1 0.500000 0.037607 0.055310
Si Si2 0.845306 0.529825 0.659167
Si Si3 0.866434 0.242448 0.306927
Si Si4 0.000000 0.052970 0.790785
Si Si5 0.720769 0.149353 0.368836
Si Si6 0.500000 0.667289 0.458374
Si Si7 0.389503 0.301332 0.452829
Si Si8 0.500000 0.134768 0.333171
O O1 0.575644 0.993877 0.110364
O O2 0.500000 0.150815 0.151782
O O3 0.500000 0.993710 0.882319
O O4 0.847973 0.628560 0.784025
O O5 0.809148 0.420908 0.726864
O O6 0.802272 0.580931 0.518647
O O7 0.801448 0.171544 0.361056
O O8 0.930171 0.232685 0.421158
O O9 0.885100 0.198501 0.135889
O O10 0.000000 0.099659 0.618099
O O11 0.067989 0.099945 0.877478
O O12 0.000000 0.924066 0.820138
O O13 0.684136 0.269709 0.382799
O O14 0.435339 0.195193 0.405389
#
# Coordination Sequence:
#
# PCOD9352893 Si02
#       8
#     4   8   8   4   8   4   8   4
#     4  12  17  39  70  99 141 178 217 290 347 425
#     4  11  24  43  67 105 140 180 232 283 356 422
#     4  11  25  45  71  93 142 185 234 292 350 419
#     4  11  26  43  75  94 135 167 233 294 343 432
#     4  11  25  42  68  98 141 183 226 283 353 421
#     4  12  26  48  68 105 123 182 237 288 358 416
#     4  10  22  46  64 100 137 182 227 284 351 415
#     4  11  19  36  67 102 139 181 219 278 354 417
#
# _framework density 23.471838000000002
#
# number of rings (size 3 to 8) (size 9 to 14) (size 15 to 20)
#    0.000    1.000    5.000    2.500    0.000   10.667 
#    6.000    0.000    0.000    0.000    0.000    0.000 
#    0.000    0.000    0.000    0.000    0.000    0.000 
#
# Total GULP energy -134136.360746 kJ/mol
# GULP energy per Si atom -5589.015031 kJ/mol
# Density = 2.341842 g / cm^3
# Si number density = 23.471838 Si / 1000 Ang^3
#
#
#
# Elastic Constant Matrix: (Units=GPa)
#
#
# Indices 1 2 3 4 5 6 
#
# 1 169.9375 20.1000 81.0862 0.0000 0.0000 0.0000
# 2 20.1000 17.7916 21.2633 0.0000 0.0000 0.0000
# 3 81.0862 21.2633 100.8290 0.0000 0.0000 0.0000
# 4 0.0000 0.0000 0.0000 38.4580 0.0000 0.0000
# 5 0.0000 0.0000 0.0000 0.0000 33.2298 0.0000
# 6 0.0000 0.0000 0.0000 0.0000 0.0000 35.1454
#
#
#
# Elastic Compliance Matrix: (Units=1/GPa)
#
#
# Indices 1 2 3 4 5 6 
#
# 1 0.009611 -0.002167 -0.007272 0.000000 0.000000 0.000000
# 2 -0.002167 0.075634 -0.014208 0.000000 0.000000 0.000000
# 3 -0.007272 -0.014208 0.018762 0.000000 0.000000 0.000000
# 4 0.000000 0.000000 0.000000 0.026002 0.000000 0.000000
# 5 0.000000 0.000000 0.000000 0.000000 0.030093 0.000000
# 6 0.000000 0.000000 0.000000 0.000000 0.000000 0.028453
#
#
# Mechanical properties :
#
#
# Convention : Reuss Voigt Hill
#
# Bulk Modulus (GPa) = 17.63228 59.27301 38.45264
# Shear Modulus (GPa) = 19.62689 32.44053 26.03371
#
# Velocity S-wave (km/s) = 2.89483 3.72170 3.33400
# Velocity P-wave (km/s) = 4.32456 6.61632 5.58916
#
# Compressibility (1/GPa) = 0.05671417
#
# Stress axis : x y z
#
# Youngs Moduli (GPa) = 104.05196 13.22158 53.29944
#
# Poissons Ratio (x) = 0.02865 0.38759
# Poissons Ratio (y) = 0.22545 0.75725
# Poissons Ratio (z) = 0.75665 0.18785
#
# Static dielectric constant tensor:
#      x y z
#    x 2.006570 0.000000 0.000000 
#    y 0.000000 1.949940 0.000000 
#    z 0.000000 0.000000 1.902670 
# 
# From -- ./inp_files/5160.got.cif
#   From: 2010.05.17/outbox.cif.g08.bks.cpg/sg36_3_cif.got.tgz:5160.got - 2010.06.03 17:41:39.
