data_PCOD9352524
_publ_section_title
;
Structure prediction by ZEFSAII (Michael W. Deem and Ramdas Pophale) SiO2 
 PCOD9352524
Probable space group: C M C 21
;
_chemical_formula_sum "Si O2"
_cell_formula_units_Z 60
_cell_length_a 17.425739
_cell_length_b 25.746031
_cell_length_c 5.596274
_cell_angle_alpha 90.000000
_cell_angle_beta 90.000000
_cell_angle_gamma 90.000000
_cell_volume 2510.732606
_symmetry_space_group_name_H-M "C M C 21"
_symmetry_group_IT_number 36
_symmetry_cell_setting 'orthorhombic'
loop_
_space_group_symop_operation_xyz
x,y,z
-x,-y,1/2+z
x,-y,1/2+z
-x,y,z
1/2+x,1/2+y,z
1/2-x,1/2-y,1/2+z
1/2+x,1/2-y,1/2+z
1/2-x,1/2+y,z
loop_
_atom_site_type_symbol
_atom_site_label
_atom_site_fract_x
_atom_site_fract_y
_atom_site_fract_z
Si Si1 0.000000 0.967765 0.884450
Si Si2 0.284283 0.679639 0.861313
Si Si3 0.345449 0.766520 0.142518
Si Si4 0.912741 0.794276 0.013747
Si Si5 0.418718 0.182239 0.254377
Si Si6 0.713120 0.899185 0.673053
Si Si7 0.170843 0.967449 0.926294
Si Si8 0.087482 0.469146 0.442002
O O1 0.915123 0.942122 0.907869
O O2 0.000000 0.993632 0.617872
O O3 0.287323 0.739710 0.954773
O O4 0.279251 0.631104 0.032663
O O5 0.200305 0.685012 0.746603
O O6 0.355934 0.675824 0.686167
O O7 0.374278 0.712757 0.259488
O O8 0.417548 0.790455 0.010575
O O9 0.910764 0.732137 0.081546
O O10 0.000000 0.811729 0.019655
O O11 0.500000 0.156398 0.208306
O O12 0.347435 0.144322 0.253445
O O13 0.756267 0.930272 0.881698
O O14 0.660790 0.933467 0.496323
O O15 0.175231 0.004998 0.687703
O O16 0.092173 0.492503 0.174291
O O17 0.000000 0.447172 0.455666
#
# Coordination Sequence:
#
# PCOD9352524 Si02
#       8
#     4   8   8   8   8   8   8   8
#     4   8  16  36  66  90 114 160 214 262 318 396
#     4  11  22  36  59  92 122 162 211 269 323 381
#     4  11  19  39  62  84 124 170 213 261 329 387
#     4  10  21  40  62  82 122 171 213 257 322 393
#     4  10  22  37  58  92 122 163 218 266 313 380
#     4  12  23  39  61  97 129 163 217 281 329 401
#     4  10  22  42  67  93 128 173 219 270 342 411
#     4  10  23  45  68  94 135 183 221 270 342 408
#
# _framework density 23.897407000000001
#
# number of rings (size 3 to 8) (size 9 to 14) (size 15 to 20)
#    0.000    1.600    2.667    2.400    0.000    2.667 
#    1.200    1.333    0.000    0.000    0.000    0.000 
#    0.000    0.000    0.000    0.000    0.000    0.000 
#
# Total GULP energy -167159.086126 kJ/mol
# GULP energy per Si atom -5571.969538 kJ/mol
# Density = 2.384302 g / cm^3
# Si number density = 23.897407 Si / 1000 Ang^3
#
#
#
# Elastic Constant Matrix: (Units=GPa)
#
#
# Indices 1 2 3 4 5 6 
#
# 1 126.4392 31.8228 -10.5515 0.0000 0.0000 0.0000
# 2 31.8228 42.8142 13.8539 0.0000 0.0000 0.0000
# 3 -10.5515 13.8539 41.7162 0.0000 0.0000 0.0000
# 4 0.0000 0.0000 0.0000 5.6011 0.0000 0.0000
# 5 0.0000 0.0000 0.0000 0.0000 10.9159 0.0000
# 6 0.0000 0.0000 0.0000 0.0000 0.0000 25.3754
#
#
#
# Elastic Compliance Matrix: (Units=1/GPa)
#
#
# Indices 1 2 3 4 5 6 
#
# 1 0.010976 -0.010146 0.006146 0.000000 0.000000 0.000000
# 2 -0.010146 0.035549 -0.014372 0.000000 0.000000 0.000000
# 3 0.006146 -0.014372 0.030299 0.000000 0.000000 0.000000
# 4 0.000000 0.000000 0.000000 0.178537 0.000000 0.000000
# 5 0.000000 0.000000 0.000000 0.000000 0.091609 0.000000
# 6 0.000000 0.000000 0.000000 0.000000 0.000000 0.039408
#
#
# Mechanical properties :
#
#
# Convention : Reuss Voigt Hill
#
# Bulk Modulus (GPa) = 24.95160 31.24665 28.09912
# Shear Modulus (GPa) = 11.45520 20.10144 15.77832
#
# Velocity S-wave (km/s) = 2.19178 2.90341 2.57233
# Velocity P-wave (km/s) = 4.10719 4.93391 4.53941
#
# Compressibility (1/GPa) = 0.04007760
#
# Stress axis : x y z
#
# Youngs Moduli (GPa) = 91.11183 28.13025 33.00444
#
# Poissons Ratio (x) = 0.28542 -0.20284
# Poissons Ratio (y) = 0.92446 0.47434
# Poissons Ratio (z) = -0.55995 0.40429
#
# Static dielectric constant tensor:
#      x y z
#    x 2.002000 0.000000 0.000000 
#    y 0.000000 1.911200 0.000000 
#    z 0.000000 0.000000 2.267040 
# 
# From -- ./inp_files/1194.got.cif
#   From: 2010.05.17/outbox.cif.g08.bks.cpg/sg36_1_cif.got.tgz:1194.got - 2010.06.03 17:41:39.
