data_PCOD9352618
_publ_section_title
;
Structure prediction by ZEFSAII (Michael W. Deem and Ramdas Pophale) SiO2 
 PCOD9352618
Probable space group: C M C 21
;
_chemical_formula_sum "Si O2"
_cell_formula_units_Z 52
_cell_length_a 17.569013
_cell_length_b 4.823909
_cell_length_c 26.654611
_cell_angle_alpha 90.000000
_cell_angle_beta 90.000000
_cell_angle_gamma 90.000000
_cell_volume 2259.013465
_symmetry_space_group_name_H-M "C M C 21"
_symmetry_group_IT_number 36
_symmetry_cell_setting 'orthorhombic'
loop_
_space_group_symop_operation_xyz
x,y,z
-x,-y,1/2+z
x,-y,1/2+z
-x,y,z
1/2+x,1/2+y,z
1/2-x,1/2-y,1/2+z
1/2+x,1/2-y,1/2+z
1/2-x,1/2+y,z
loop_
_atom_site_type_symbol
_atom_site_label
_atom_site_fract_x
_atom_site_fract_y
_atom_site_fract_z
Si Si1 0.500000 0.717847 0.540951
Si Si2 0.195971 0.977617 0.871605
Si Si3 0.700816 0.178235 0.502322
Si Si4 0.196522 0.104215 0.255914
Si Si5 0.089515 0.097154 0.668701
Si Si6 0.624401 0.072076 0.602941
Si Si7 0.913451 0.265767 0.452714
O O1 0.563990 0.896404 0.571342
O O2 0.433651 0.589621 0.503262
O O3 0.270132 0.782155 0.879185
O O4 0.172365 0.938872 0.813629
O O5 0.128265 0.886195 0.907742
O O6 0.774286 0.987532 0.490074
O O7 0.687308 0.146951 0.562011
O O8 0.633873 0.031254 0.471593
O O9 0.270764 0.910426 0.248686
O O10 0.130304 0.022856 0.217697
O O11 0.092118 0.854937 0.626537
O O12 0.000000 0.171642 0.676166
O O13 0.138232 0.358362 0.648388
O O14 0.000000 0.358243 0.439140
#
# Coordination Sequence:
#
# PCOD9352618 Si02
#       7
#     4   8   8   8   8   8   8
#     4   8  18  38  56  84 122 152 192 236 298 338
#     4  10  21  42  65  89 122 160 198 250 307 362
#     4  11  23  40  58  86 118 159 202 246 293 358
#     4  10  23  41  63  90 123 157 201 253 305 358
#     4  12  23  38  64  86 119 161 202 249 298 363
#     4  11  22  39  58  86 121 159 201 240 304 348
#     4   9  20  38  65  90 121 159 197 253 296 366
#
# _framework density 23.018899000000001
#
# number of rings (size 3 to 8) (size 9 to 14) (size 15 to 20)
#    0.462    1.231    1.538    2.769    0.000    4.308 
#    0.000    6.154    0.000    5.538    0.000    0.000 
#    0.000    0.000    0.000    0.000    0.000    0.000 
#
# Total GULP energy -144815.611460 kJ/mol
# GULP energy per Si atom -5569.831210 kJ/mol
# Density = 2.296651 g / cm^3
# Si number density = 23.018899 Si / 1000 Ang^3
#
#
#
# Elastic Constant Matrix: (Units=GPa)
#
#
# Indices 1 2 3 4 5 6 
#
# 1 84.4525 -4.9816 50.5497 0.0000 0.0000 0.0000
# 2 -4.9816 78.0422 16.8146 0.0000 0.0000 0.0000
# 3 50.5497 16.8146 119.1839 0.0000 0.0000 0.0000
# 4 0.0000 0.0000 0.0000 34.5190 0.0000 0.0000
# 5 0.0000 0.0000 0.0000 0.0000 66.2531 0.0000
# 6 0.0000 0.0000 0.0000 0.0000 0.0000 20.5957
#
#
#
# Elastic Compliance Matrix: (Units=1/GPa)
#
#
# Indices 1 2 3 4 5 6 
#
# 1 0.016374 0.002621 -0.007314 0.000000 0.000000 0.000000
# 2 0.002621 0.013635 -0.003035 0.000000 0.000000 0.000000
# 3 -0.007314 -0.003035 0.011921 0.000000 0.000000 0.000000
# 4 0.000000 0.000000 0.000000 0.028970 0.000000 0.000000
# 5 0.000000 0.000000 0.000000 0.000000 0.015094 0.000000
# 6 0.000000 0.000000 0.000000 0.000000 0.000000 0.048554
#
#
# Mechanical properties :
#
#
# Convention : Reuss Voigt Hill
#
# Bulk Modulus (GPa) = 37.77547 45.16045 41.46796
# Shear Modulus (GPa) = 31.48065 38.89330 35.18697
#
# Velocity S-wave (km/s) = 3.70212 4.11496 3.91399
# Velocity P-wave (km/s) = 5.89241 6.49913 6.20319
#
# Compressibility (1/GPa) = 0.02647221
#
# Stress axis : x y z
#
# Youngs Moduli (GPa) = 61.07364 73.34140 83.88634
#
# Poissons Ratio (x) = -0.19223 0.61358
# Poissons Ratio (y) = -0.16008 0.25462
# Poissons Ratio (z) = 0.44672 0.22261
#
# Static dielectric constant tensor:
#      x y z
#    x 1.859630 0.000000 0.000000 
#    y 0.000000 1.870200 0.000000 
#    z 0.000000 0.000000 1.939780 
# 
# From -- ./inp_files/17242.got.cif
#   From: 2010.05.17/outbox.cif.g08.bks.cpg/sg36_9_cif.got.tgz:17242.got - 2010.06.03 17:41:39.
