data_PCOD9352939
_publ_section_title
;
Structure prediction by ZEFSAII (Michael W. Deem and Ramdas Pophale) SiO2 
 PCOD9352939
Probable space group: C M C 21
;
_chemical_formula_sum "Si O2"
_cell_formula_units_Z 52
_cell_length_a 20.879339
_cell_length_b 8.390240
_cell_length_c 13.975593
_cell_angle_alpha 90.000000
_cell_angle_beta 90.000000
_cell_angle_gamma 90.000000
_cell_volume 2448.281630
_symmetry_space_group_name_H-M "C M C 21"
_symmetry_group_IT_number 36
_symmetry_cell_setting 'orthorhombic'
loop_
_space_group_symop_operation_xyz
x,y,z
-x,-y,1/2+z
x,-y,1/2+z
-x,y,z
1/2+x,1/2+y,z
1/2-x,1/2-y,1/2+z
1/2+x,1/2-y,1/2+z
1/2-x,1/2+y,z
loop_
_atom_site_type_symbol
_atom_site_label
_atom_site_fract_x
_atom_site_fract_y
_atom_site_fract_z
Si Si1 0.395261 0.137645 0.648550
Si Si2 0.351421 0.794169 0.638987
Si Si3 0.719717 0.714922 0.255264
Si Si4 0.381822 0.442741 0.283248
Si Si5 0.500000 0.331354 0.767708
Si Si6 0.219389 0.604432 0.956637
Si Si7 0.654513 0.756247 0.962182
O O1 0.323787 0.186197 0.681662
O O2 0.444500 0.215944 0.719944
O O3 0.398694 0.211052 0.542356
O O4 0.396458 0.947860 0.648313
O O5 0.288628 0.811285 0.707429
O O6 0.386749 0.639190 0.678882
O O7 0.325021 0.799425 0.531232
O O8 0.681649 0.552335 0.277404
O O9 0.719857 0.814028 0.353312
O O10 0.443009 0.548789 0.304882
O O11 0.373912 0.307238 0.363375
O O12 0.292412 0.624444 0.992687
O O13 0.192717 0.424617 0.952040
#
# Coordination Sequence:
#
# PCOD9352939 Si02
#       7
#     8   8   8   8   4   8   8
#     4  10  23  42  64  90 130 173 224 266 327 385
#     4  11  22  38  64  99 131 169 211 272 333 400
#     4  11  21  37  62  99 134 167 202 268 331 403
#     4  11  24  40  65  92 130 171 222 266 329 386
#     4  10  26  46  62  86 122 178 220 278 310 378
#     4  11  23  36  62 100 143 166 207 263 341 404
#     4  11  22  37  62  95 129 174 210 269 328 402
#
# _framework density 21.239387000000001
#
# number of rings (size 3 to 8) (size 9 to 14) (size 15 to 20)
#    0.000    1.231    3.077    2.769    2.154    3.692 
#    0.000    1.538    0.000   14.769    0.000    0.000 
#    0.000    0.000    0.000    0.000    0.000    0.000 
#
# Total GULP energy -144802.707847 kJ/mol
# GULP energy per Si atom -5569.334917 kJ/mol
# Density = 2.119105 g / cm^3
# Si number density = 21.239387 Si / 1000 Ang^3
#
#
#
# Elastic Constant Matrix: (Units=GPa)
#
#
# Indices 1 2 3 4 5 6 
#
# 1 35.2821 -3.2483 -6.7934 0.0000 0.0000 0.0000
# 2 -3.2483 64.7577 9.8454 0.0000 0.0000 0.0000
# 3 -6.7934 9.8454 58.9599 0.0000 0.0000 0.0000
# 4 0.0000 0.0000 0.0000 24.7734 0.0000 0.0000
# 5 0.0000 0.0000 0.0000 0.0000 13.3548 0.0000
# 6 0.0000 0.0000 0.0000 0.0000 0.0000 24.1965
#
#
#
# Elastic Compliance Matrix: (Units=1/GPa)
#
#
# Indices 1 2 3 4 5 6 
#
# 1 0.029046 0.000973 0.003184 0.000000 0.000000 0.000000
# 2 0.000973 0.015877 -0.002539 0.000000 0.000000 0.000000
# 3 0.003184 -0.002539 0.017752 0.000000 0.000000 0.000000
# 4 0.000000 0.000000 0.000000 0.040366 0.000000 0.000000
# 5 0.000000 0.000000 0.000000 0.000000 0.074879 0.000000
# 6 0.000000 0.000000 0.000000 0.000000 0.000000 0.041328
#
#
# Mechanical properties :
#
#
# Convention : Reuss Voigt Hill
#
# Bulk Modulus (GPa) = 15.17220 17.62302 16.39761
# Shear Modulus (GPa) = 21.01001 23.07801 22.04401
#
# Velocity S-wave (km/s) = 3.14857 3.29989 3.22511
# Velocity P-wave (km/s) = 4.51408 4.77853 4.64819
#
# Compressibility (1/GPa) = 0.06591003
#
# Stress axis : x y z
#
# Youngs Moduli (GPa) = 34.42860 62.98416 56.33308
#
# Poissons Ratio (x) = -0.06127 -0.17938
# Poissons Ratio (y) = -0.03349 0.14304
# Poissons Ratio (z) = -0.10963 0.15992
#
# Static dielectric constant tensor:
#      x y z
#    x 1.754680 0.000000 0.000000 
#    y 0.000000 1.807270 0.000000 
#    z 0.000000 0.000000 1.818010 
# 
# From -- ./inp_files/12808.got.cif
#   From: 2010.05.17/outbox.cif.g08.bks.cpg/sg36_7_cif.got.tgz:12808.got - 2010.06.03 17:41:39.
