data_PCOD9352115
_publ_section_title
;
Structure prediction by ZEFSAII (Michael W. Deem and Ramdas Pophale) SiO2 
 PCOD9352115
Probable space group: C M C 21
;
_chemical_formula_sum "Si O2"
_cell_formula_units_Z 48
_cell_length_a 15.475831
_cell_length_b 8.725152
_cell_length_c 15.733337
_cell_angle_alpha 90.000000
_cell_angle_beta 90.000000
_cell_angle_gamma 90.000000
_cell_volume 2124.456413
_symmetry_space_group_name_H-M "C M C 21"
_symmetry_group_IT_number 36
_symmetry_cell_setting 'orthorhombic'
loop_
_space_group_symop_operation_xyz
x,y,z
-x,-y,1/2+z
x,-y,1/2+z
-x,y,z
1/2+x,1/2+y,z
1/2-x,1/2-y,1/2+z
1/2+x,1/2-y,1/2+z
1/2-x,1/2+y,z
loop_
_atom_site_type_symbol
_atom_site_label
_atom_site_fract_x
_atom_site_fract_y
_atom_site_fract_z
Si Si1 0.181086 0.603253 0.616700
Si Si2 0.500000 0.823055 0.430429
Si Si3 0.000000 0.856308 0.771317
Si Si4 0.353015 0.399095 0.008810
Si Si5 0.776494 0.668805 0.235026
Si Si6 0.660491 0.551171 0.835078
Si Si7 0.000000 0.929613 0.585961
Si Si8 0.000000 0.634496 0.520930
O O1 0.260015 0.630548 0.550157
O O2 0.185218 0.435309 0.659837
O O3 0.201751 0.728333 0.690159
O O4 0.089577 0.614502 0.571592
O O5 0.500000 0.792568 0.330053
O O6 0.586294 0.736605 0.468686
O O7 0.500000 0.001304 0.451624
O O8 0.919861 0.959252 0.798577
O O9 0.000000 0.834624 0.671730
O O10 0.414685 0.468473 0.081445
O O11 0.340677 0.527952 0.935959
O O12 0.741207 0.546988 0.302000
O O13 0.834490 0.785433 0.289393
O O14 0.000000 0.816973 0.504337
#
# Coordination Sequence:
#
# PCOD9352115 Si02
#       8
#     8   4   4   8   8   8   4   4
#     4  11  22  39  60  89 123 161 202 250 300 354
#     4   9  22  40  62  91 120 160 204 245 300 356
#     4  10  20  40  64  84 120 162 200 238 294 372
#     4  10  22  42  64  85 121 167 202 237 299 375
#     4  10  22  39  61  86 118 161 204 245 300 355
#     4  10  22  40  62  89 119 158 201 246 299 357
#     4  11  22  40  66  93 118 156 204 249 298 360
#     4  12  24  36  58  94 124 150 202 264 304 338
#
# _framework density 22.594016
#
# number of rings (size 3 to 8) (size 9 to 14) (size 15 to 20)
#    0.000    1.667    0.000    5.500    0.000    7.333 
#    0.000    5.000    0.000    0.000    0.000    0.000 
#    0.000    0.000    0.000    0.000    0.000    0.000 
#
# Total GULP energy -134014.541296 kJ/mol
# GULP energy per Si atom -5583.939221 kJ/mol
# Density = 2.254259 g / cm^3
# Si number density = 22.594016 Si / 1000 Ang^3
#
#
#
# Elastic Constant Matrix: (Units=GPa)
#
#
# Indices 1 2 3 4 5 6 
#
# 1 114.0696 -2.9817 22.1120 0.0000 0.0000 0.0000
# 2 -2.9817 43.4313 -7.6159 0.0000 0.0000 0.0000
# 3 22.1120 -7.6159 86.0212 0.0000 0.0000 0.0000
# 4 0.0000 0.0000 0.0000 27.9862 0.0000 0.0000
# 5 0.0000 0.0000 0.0000 0.0000 -99.8467 0.0000
# 6 0.0000 0.0000 0.0000 0.0000 0.0000 -20.8236
#
#
#
# Elastic Compliance Matrix: (Units=1/GPa)
#
#
# Indices 1 2 3 4 5 6 
#
# 1 0.009228 0.000221 -0.002353 0.000000 0.000000 0.000000
# 2 0.000221 0.023393 0.002014 0.000000 0.000000 0.000000
# 3 -0.002353 0.002014 0.012408 0.000000 0.000000 0.000000
# 4 0.000000 0.000000 0.000000 0.035732 0.000000 0.000000
# 5 0.000000 0.000000 0.000000 0.000000 -0.010015 0.000000
# 6 0.000000 0.000000 0.000000 0.000000 0.000000 -0.048022
#
#
# Mechanical properties :
#
#
# Convention : Reuss Voigt Hill
#
# Bulk Modulus (GPa) = 22.32381 29.61675 25.97028
# Shear Modulus (GPa) = 131.95985 -3.06965 64.44510
#
# Velocity S-wave (km/s) = 7.65059 -1.16686 5.34649
# Velocity P-wave (km/s) = 9.37784 3.36471 7.04504
#
# Compressibility (1/GPa) = 0.04479523
#
# Stress axis : x y z
#
# Youngs Moduli (GPa) = 108.36112 42.74735 80.59237
#
# Poissons Ratio (x) = -0.00945 0.18960
# Poissons Ratio (y) = -0.02395 -0.16234
# Poissons Ratio (z) = 0.25493 -0.08611
#
# Static dielectric constant tensor:
#      x y z
#    x 1.963790 0.000000 0.000000 
#    y 0.000000 1.850610 0.000000 
#    z 0.000000 0.000000 1.860370 
# 
# From -- ./inp_files/14601.got.cif
#   From: 2010.05.17/outbox.cif.g08.bks.cpg/sg36_8_cif.got.tgz:14601.got - 2010.06.03 17:41:39.
