data_PCOD9352738
_publ_section_title
;
Structure prediction by ZEFSAII (Michael W. Deem and Ramdas Pophale) SiO2 
 PCOD9352738
Probable space group: C M C 21
;
_chemical_formula_sum "Si O2"
_cell_formula_units_Z 64
_cell_length_a 8.965468
_cell_length_b 23.977365
_cell_length_c 15.598789
_cell_angle_alpha 90.000000
_cell_angle_beta 90.000000
_cell_angle_gamma 90.000000
_cell_volume 3353.245132
_symmetry_space_group_name_H-M "C M C 21"
_symmetry_group_IT_number 36
_symmetry_cell_setting 'orthorhombic'
loop_
_space_group_symop_operation_xyz
x,y,z
-x,-y,1/2+z
x,-y,1/2+z
-x,y,z
1/2+x,1/2+y,z
1/2-x,1/2-y,1/2+z
1/2+x,1/2-y,1/2+z
1/2-x,1/2+y,z
loop_
_atom_site_type_symbol
_atom_site_label
_atom_site_fract_x
_atom_site_fract_y
_atom_site_fract_z
Si Si1 0.177712 0.250586 0.595210
Si Si2 0.178629 0.448416 0.693443
Si Si3 0.822144 0.248934 0.282236
Si Si4 0.177401 0.579800 0.695541
Si Si5 0.822573 0.122734 0.343755
Si Si6 0.177745 0.644358 0.519113
Si Si7 0.322255 0.876029 0.528976
Si Si8 0.676994 0.643713 0.853282
O O1 0.253600 0.243353 0.687804
O O2 0.245376 0.204312 0.532492
O O3 0.205620 0.313198 0.562569
O O4 0.000000 0.242756 0.602514
O O5 0.208804 0.514107 0.691051
O O6 0.260286 0.418641 0.771982
O O7 0.221157 0.418374 0.604474
O O8 0.000000 0.440366 0.703558
O O9 0.791414 0.186180 0.312987
O O10 0.750509 0.295211 0.343352
O O11 0.000000 0.257214 0.279089
O O12 0.209898 0.608976 0.604805
O O13 0.267503 0.608842 0.771460
O O14 0.000000 0.587279 0.712227
O O15 0.742902 0.115556 0.434794
O O16 0.000000 0.116621 0.352603
O O17 0.000000 0.650835 0.511532
O O18 0.500000 0.881595 0.513640
O O19 0.235711 0.883671 0.440667
O O20 0.500000 0.648508 0.853631
#
# Coordination Sequence:
#
# PCOD9352738 Si02
#       8
#     8   8   8   8   8   8   8   8
#     4  11  21  36  62  94 125 157 197 253 310 361
#     4  10  22  43  67  89 117 161 211 254 303 367
#     4  11  22  38  61  89 125 165 200 245 306 370
#     4  10  23  43  65  88 119 161 209 257 305 362
#     4  11  24  40  62  93 128 161 200 254 310 361
#     4  11  23  39  62  91 124 165 208 247 299 369
#     4  10  22  40  63  91 125 160 200 250 305 366
#     4  12  25  39  62  93 125 162 205 252 304 364
#
# _framework density 19.085989000000001
#
# number of rings (size 3 to 8) (size 9 to 14) (size 15 to 20)
#    0.000    1.250    2.500    3.375    0.000    8.000 
#    0.000    2.500    0.000    0.000    0.000    0.000 
#    0.000    0.000    0.000    0.000    0.000    0.000 
#
# Total GULP energy -179005.277805 kJ/mol
# GULP energy per Si atom -5593.914931 kJ/mol
# Density = 1.904255 g / cm^3
# Si number density = 19.085989 Si / 1000 Ang^3
#
#
#
# Elastic Constant Matrix: (Units=GPa)
#
#
# Indices 1 2 3 4 5 6 
#
# 1 60.4029 50.1553 49.6198 0.0000 0.0000 0.0000
# 2 50.1553 91.4692 28.1275 0.0000 0.0000 0.0000
# 3 49.6198 28.1275 106.1998 0.0000 0.0000 0.0000
# 4 0.0000 0.0000 0.0000 3.6918 0.0000 0.0000
# 5 0.0000 0.0000 0.0000 0.0000 31.7959 0.0000
# 6 0.0000 0.0000 0.0000 0.0000 0.0000 20.0142
#
#
#
# Elastic Compliance Matrix: (Units=1/GPa)
#
#
# Indices 1 2 3 4 5 6 
#
# 1 0.047816 -0.021065 -0.016762 0.000000 0.000000 0.000000
# 2 -0.021065 0.021182 0.004232 0.000000 0.000000 0.000000
# 3 -0.016762 0.004232 0.016127 0.000000 0.000000 0.000000
# 4 0.000000 0.000000 0.000000 0.270873 0.000000 0.000000
# 5 0.000000 0.000000 0.000000 0.000000 0.031451 0.000000
# 6 0.000000 0.000000 0.000000 0.000000 0.000000 0.049965
#
#
# Mechanical properties :
#
#
# Convention : Reuss Voigt Hill
#
# Bulk Modulus (GPa) = 55.75551 57.09748 56.42649
# Shear Modulus (GPa) = 9.79276 19.77831 14.78553
#
# Velocity S-wave (km/s) = 2.26760 3.22261 2.78633
# Velocity P-wave (km/s) = 6.01101 6.62026 6.32298
#
# Compressibility (1/GPa) = 0.01793545
#
# Stress axis : x y z
#
# Youngs Moduli (GPa) = 20.91346 47.21080 62.00723
#
# Poissons Ratio (x) = 0.99447 1.03937
# Poissons Ratio (y) = 0.44053 -0.26241
# Poissons Ratio (z) = 0.35055 -0.19979
#
# Static dielectric constant tensor:
#      x y z
#    x 1.634260 0.000000 0.000000 
#    y 0.000000 1.644250 0.000000 
#    z 0.000000 0.000000 1.647720 
# 
# From -- ./inp_files/10992.got.cif
#   From: 2010.05.17/outbox.cif.g08.bks.cpg/sg36_6_cif.got.tgz:10992.got - 2010.06.03 17:41:39.
