data_PCOD9352000
_publ_section_title
;
Structure prediction by ZEFSAII (Michael W. Deem and Ramdas Pophale) SiO2 
 PCOD9352000
Probable space group: C M C 21
;
_chemical_formula_sum "Si O2"
_cell_formula_units_Z 52
_cell_length_a 10.586060
_cell_length_b 9.980470
_cell_length_c 24.722544
_cell_angle_alpha 90.000000
_cell_angle_beta 90.000000
_cell_angle_gamma 90.000000
_cell_volume 2612.032060
_symmetry_space_group_name_H-M "C M C 21"
_symmetry_group_IT_number 36
_symmetry_cell_setting 'orthorhombic'
loop_
_space_group_symop_operation_xyz
x,y,z
-x,-y,1/2+z
x,-y,1/2+z
-x,y,z
1/2+x,1/2+y,z
1/2-x,1/2-y,1/2+z
1/2+x,1/2-y,1/2+z
1/2-x,1/2+y,z
loop_
_atom_site_type_symbol
_atom_site_label
_atom_site_fract_x
_atom_site_fract_y
_atom_site_fract_z
Si Si1 0.852993 0.966305 0.043740
Si Si2 0.500000 0.772440 0.796680
Si Si3 0.648789 0.384594 0.918577
Si Si4 0.854582 0.329809 0.588721
Si Si5 0.640280 0.154843 0.746665
Si Si6 0.738483 0.355277 0.359655
Si Si7 0.708659 0.111947 0.211888
O O1 0.832314 0.826811 0.075762
O O2 0.000000 0.008586 0.052954
O O3 0.750592 0.077131 0.060455
O O4 0.839257 0.929836 0.980538
O O5 0.389180 0.704170 0.834546
O O6 0.389874 0.838029 0.757081
O O7 0.500000 0.377973 0.905605
O O8 0.714506 0.495737 0.880943
O O9 0.712002 0.242031 0.906632
O O10 0.841253 0.356985 0.652474
O O11 0.000000 0.359931 0.571586
O O12 0.500000 0.113995 0.731692
O O13 0.660952 0.147487 0.810776
O O14 0.668403 0.300747 0.724183
O O15 0.732183 0.045259 0.720263
#
# Coordination Sequence:
#
# PCOD9352000 Si02
#       7
#     8   4   8   8   8   8   8
#     4  10  24  42  65  93 130 160 219 267 323 378
#     4  10  20  38  58  88 118 162 192 250 300 378
#     4  11  23  43  62  92 123 166 207 264 311 381
#     4  11  22  42  66  93 125 171 210 270 321 379
#     4  11  23  39  58  91 125 162 208 257 296 383
#     4  11  22  39  64  86 126 164 205 248 321 363
#     4  11  22  40  63  88 128 164 207 255 317 365
#
# _framework density 19.907872000000001
#
# number of rings (size 3 to 8) (size 9 to 14) (size 15 to 20)
#    0.000    1.231    2.308    4.154    0.000    1.231 
#    8.308    0.000    0.000    0.000    0.000    0.000 
#    0.000    0.000    0.000    0.000    0.000    0.000 
#
# Total GULP energy -144737.970193 kJ/mol
# GULP energy per Si atom -5566.845007 kJ/mol
# Density = 1.986256 g / cm^3
# Si number density = 19.907872 Si / 1000 Ang^3
#
#
#
# Elastic Constant Matrix: (Units=GPa)
#
#
# Indices 1 2 3 4 5 6 
#
# 1 59.0789 29.3326 3.5455 0.0000 0.0000 0.0000
# 2 29.3326 51.5886 -2.4968 0.0000 0.0000 0.0000
# 3 3.5455 -2.4968 27.3356 0.0000 0.0000 0.0000
# 4 0.0000 0.0000 0.0000 32.2915 0.0000 0.0000
# 5 0.0000 0.0000 0.0000 0.0000 13.2929 0.0000
# 6 0.0000 0.0000 0.0000 0.0000 0.0000 19.6854
#
#
#
# Elastic Compliance Matrix: (Units=1/GPa)
#
#
# Indices 1 2 3 4 5 6 
#
# 1 0.024099 -0.013915 -0.004397 0.000000 0.000000 0.000000
# 2 -0.013915 0.027505 0.004317 0.000000 0.000000 0.000000
# 3 -0.004397 0.004317 0.037547 0.000000 0.000000 0.000000
# 4 0.000000 0.000000 0.000000 0.030968 0.000000 0.000000
# 5 0.000000 0.000000 0.000000 0.000000 0.075228 0.000000
# 6 0.000000 0.000000 0.000000 0.000000 0.000000 0.050799
#
#
# Mechanical properties :
#
#
# Convention : Reuss Voigt Hill
#
# Bulk Modulus (GPa) = 16.35015 22.08507 19.21761
# Shear Modulus (GPa) = 16.97656 20.22874 18.60265
#
# Velocity S-wave (km/s) = 2.92337 3.19112 3.06017
# Velocity P-wave (km/s) = 4.43007 4.96944 4.70749
#
# Compressibility (1/GPa) = 0.06116151
#
# Stress axis : x y z
#
# Youngs Moduli (GPa) = 41.49490 36.35681 26.63333
#
# Poissons Ratio (x) = 0.50592 0.11710
# Poissons Ratio (y) = 0.57742 -0.11498
# Poissons Ratio (z) = 0.18244 -0.15696
#
# Static dielectric constant tensor:
#      x y z
#    x 1.681200 0.000000 0.000000 
#    y 0.000000 1.701540 0.000000 
#    z 0.000000 0.000000 1.686050 
# 
# From -- ./inp_files/17139.got.cif
#   From: 2010.05.17/outbox.cif.g08.bks.cpg/sg36_9_cif.got.tgz:17139.got - 2010.06.03 17:41:39.
