data_PCOD9352307
_publ_section_title
;
Structure prediction by ZEFSAII (Michael W. Deem and Ramdas Pophale) SiO2 
 PCOD9352307
Probable space group: C M C 21
;
_chemical_formula_sum "Si O2"
_cell_formula_units_Z 64
_cell_length_a 8.088645
_cell_length_b 18.287313
_cell_length_c 21.268321
_cell_angle_alpha 90.000000
_cell_angle_beta 90.000000
_cell_angle_gamma 90.000000
_cell_volume 3146.001170
_symmetry_space_group_name_H-M "C M C 21"
_symmetry_group_IT_number 36
_symmetry_cell_setting 'orthorhombic'
loop_
_space_group_symop_operation_xyz
x,y,z
-x,-y,1/2+z
x,-y,1/2+z
-x,y,z
1/2+x,1/2+y,z
1/2-x,1/2-y,1/2+z
1/2+x,1/2-y,1/2+z
1/2-x,1/2+y,z
loop_
_atom_site_type_symbol
_atom_site_label
_atom_site_fract_x
_atom_site_fract_y
_atom_site_fract_z
Si Si1 0.697535 0.588885 0.804360
Si Si2 0.303929 0.826344 0.180731
Si Si3 0.302435 0.085190 0.559159
Si Si4 0.299598 0.920367 0.805899
Si Si5 0.202194 0.168207 0.932473
Si Si6 0.805430 0.081146 0.054938
Si Si7 0.202379 0.662787 0.431951
Si Si8 0.694781 0.160701 0.179542
O O1 0.500000 0.597040 0.800379
O O2 0.773269 0.627203 0.743366
O O3 0.741716 0.503704 0.806560
O O4 0.754107 0.628507 0.868368
O O5 0.500000 0.814720 0.173174
O O6 0.239941 0.871433 0.120299
O O7 0.222283 0.747064 0.185182
O O8 0.500000 0.094581 0.558967
O O9 0.240027 0.120052 0.494067
O O10 0.268266 0.999318 0.562579
O O11 0.500000 0.919674 0.805929
O O12 0.243858 0.877549 0.868305
O O13 0.243455 0.879570 0.742530
O O14 0.254334 0.252692 0.933669
O O15 0.000000 0.168271 0.933585
O O16 0.260286 0.123930 0.993719
O O17 0.777141 0.128774 0.117135
O O18 0.000000 0.071233 0.045499
O O19 0.000000 0.662135 0.431865
O O20 0.500000 0.145504 0.174123
#
# Coordination Sequence:
#
# PCOD9352307 Si02
#       8
#     8   8   8   8   8   8   8   8
#     4  11  22  37  59  85 115 151 190 234 283 336
#     4  11  23  39  59  84 115 150 190 236 286 341
#     4  10  21  37  58  83 112 148 188 231 281 337
#     4  10  21  37  58  83 112 148 188 231 281 337
#     4   9  19  36  57  83 114 149 190 235 284 336
#     4  11  22  37  59  85 115 151 190 234 283 336
#     4   9  17  34  59  81 106 145 190 231 276 334
#     4  11  23  39  59  84 115 150 190 236 286 341
#
# _framework density 20.343285000000002
#
# number of rings (size 3 to 8) (size 9 to 14) (size 15 to 20)
#    0.000    1.750    0.000    4.500    0.000    9.000 
#    0.000    1.875    0.000    3.000    0.000    0.000 
#    0.000    0.000    0.000    0.000    0.000    0.000 
#
# Total GULP energy -178904.168491 kJ/mol
# GULP energy per Si atom -5590.755265 kJ/mol
# Density = 2.029698 g / cm^3
# Si number density = 20.343285 Si / 1000 Ang^3
#
#
#
# Elastic Constant Matrix: (Units=GPa)
#
#
# Indices 1 2 3 4 5 6 
#
# 1 10.2465 -17.1729 -4.6048 0.0000 0.0000 0.0000
# 2 -17.1729 141.9090 62.2864 0.0000 0.0000 0.0000
# 3 -4.6048 62.2864 159.9122 0.0000 0.0000 0.0000
# 4 0.0000 0.0000 0.0000 45.8687 0.0000 0.0000
# 5 0.0000 0.0000 0.0000 0.0000 19.5756 0.0000
# 6 0.0000 0.0000 0.0000 0.0000 0.0000 36.7474
#
#
#
# Elastic Compliance Matrix: (Units=1/GPa)
#
#
# Indices 1 2 3 4 5 6 
#
# 1 0.123404 0.016132 -0.002730 0.000000 0.000000 0.000000
# 2 0.016132 0.010609 -0.003668 0.000000 0.000000 0.000000
# 3 -0.002730 -0.003668 0.007603 0.000000 0.000000 0.000000
# 4 0.000000 0.000000 0.000000 0.021801 0.000000 0.000000
# 5 0.000000 0.000000 0.000000 0.000000 0.051084 0.000000
# 6 0.000000 0.000000 0.000000 0.000000 0.000000 0.027213
#
#
# Mechanical properties :
#
#
# Convention : Reuss Voigt Hill
#
# Bulk Modulus (GPa) = 6.20793 43.67611 24.94202
# Shear Modulus (GPa) = 18.11987 38.54230 28.33108
#
# Velocity S-wave (km/s) = 2.98771 4.35742 3.73587
# Velocity P-wave (km/s) = 3.86782 6.84341 5.55843
#
# Compressibility (1/GPa) = 0.16108440
#
# Stress axis : x y z
#
# Youngs Moduli (GPa) = 8.10348 94.26216 131.52069
#
# Poissons Ratio (x) = -1.52061 0.35904
# Poissons Ratio (y) = -0.13072 0.48237
# Poissons Ratio (z) = 0.02212 0.34572
#
# Static dielectric constant tensor:
#      x y z
#    x 1.730860 0.000000 0.000000 
#    y 0.000000 1.658830 0.000000 
#    z 0.000000 0.000000 1.704080 
# 
# From -- ./inp_files/15649.got.cif
#   From: 2010.05.17/outbox.cif.g08.bks.cpg/sg36_8_cif.got.tgz:15649.got - 2010.06.03 17:41:39.
