data_PCOD9352596
_publ_section_title
;
Structure prediction by ZEFSAII (Michael W. Deem and Ramdas Pophale) SiO2 
 PCOD9352596
Probable space group: C M C 21
;
_chemical_formula_sum "Si O2"
_cell_formula_units_Z 40
_cell_length_a 17.211932
_cell_length_b 11.064049
_cell_length_c 9.114503
_cell_angle_alpha 90.000000
_cell_angle_beta 90.000000
_cell_angle_gamma 90.000000
_cell_volume 1735.708157
_symmetry_space_group_name_H-M "C M C 21"
_symmetry_group_IT_number 36
_symmetry_cell_setting 'orthorhombic'
loop_
_space_group_symop_operation_xyz
x,y,z
-x,-y,1/2+z
x,-y,1/2+z
-x,y,z
1/2+x,1/2+y,z
1/2-x,1/2-y,1/2+z
1/2+x,1/2-y,1/2+z
1/2-x,1/2+y,z
loop_
_atom_site_type_symbol
_atom_site_label
_atom_site_fract_x
_atom_site_fract_y
_atom_site_fract_z
Si Si1 0.329339 0.025714 0.213310
Si Si2 0.000000 0.503933 0.118448
Si Si3 0.658030 0.583822 0.099332
Si Si4 0.805993 0.672559 0.502370
Si Si5 0.130830 0.153841 0.424971
Si Si6 0.500000 0.841042 0.368316
O O1 0.416595 0.058307 0.165235
O O2 0.251558 0.075435 0.132888
O O3 0.325416 0.070698 0.380860
O O4 0.319525 0.885299 0.163729
O O5 0.000000 0.372150 0.195594
O O6 0.000000 0.526969 0.944620
O O7 0.648357 0.701753 0.997636
O O8 0.624859 0.604773 0.259881
O O9 0.623365 0.463258 0.029144
O O10 0.716526 0.698678 0.467215
O O11 0.071703 0.263416 0.425751
#
# Coordination Sequence:
#
# PCOD9352596 Si02
#       6
#     8   4   8   8   8   4
#     4  10  22  38  63  94 127 166 216 271 322 377
#     4  12  24  40  64  96 130 168 202 262 330 380
#     4  10  22  42  66  91 127 175 221 267 324 386
#     4  10  21  41  65  92 126 169 219 268 322 387
#     4  10  24  42  64  94 128 169 218 271 320 385
#     4  12  26  44  64  96 134 164 210 264 326 398
#
# _framework density 23.045347
#
# number of rings (size 3 to 8) (size 9 to 14) (size 15 to 20)
#    0.000    1.600    0.000    3.600    0.000   18.400 
#    0.000    2.000    0.000    0.000    0.000    0.000 
#    0.000    0.000    0.000    0.000    0.000    0.000 
#
# Total GULP energy -111489.128393 kJ/mol
# GULP energy per Si atom -5574.456420 kJ/mol
# Density = 2.299290 g / cm^3
# Si number density = 23.045347 Si / 1000 Ang^3
#
#
#
# Elastic Constant Matrix: (Units=GPa)
#
#
# Indices 1 2 3 4 5 6 
#
# 1 106.3466 16.3923 35.3445 0.0000 0.0000 0.0000
# 2 16.3923 113.6928 67.6101 0.0000 0.0000 0.0000
# 3 35.3445 67.6101 88.3102 0.0000 0.0000 0.0000
# 4 0.0000 0.0000 0.0000 33.4188 0.0000 0.0000
# 5 0.0000 0.0000 0.0000 0.0000 15.4913 0.0000
# 6 0.0000 0.0000 0.0000 0.0000 0.0000 23.3382
#
#
#
# Elastic Compliance Matrix: (Units=1/GPa)
#
#
# Indices 1 2 3 4 5 6 
#
# 1 0.011066 0.001906 -0.005889 0.000000 0.000000 0.000000
# 2 0.001906 0.016475 -0.013376 0.000000 0.000000 0.000000
# 3 -0.005889 -0.013376 0.023921 0.000000 0.000000 0.000000
# 4 0.000000 0.000000 0.000000 0.029923 0.000000 0.000000
# 5 0.000000 0.000000 0.000000 0.000000 0.064552 0.000000
# 6 0.000000 0.000000 0.000000 0.000000 0.000000 0.042848
#
#
# Mechanical properties :
#
#
# Convention : Reuss Voigt Hill
#
# Bulk Modulus (GPa) = 59.71659 60.78261 60.24960
# Shear Modulus (GPa) = 21.82581 27.04986 24.43783
#
# Velocity S-wave (km/s) = 3.08081 3.42974 3.25995
# Velocity P-wave (km/s) = 6.21483 6.48974 6.35377
#
# Compressibility (1/GPa) = 0.01674577
#
# Stress axis : x y z
#
# Youngs Moduli (GPa) = 90.36321 60.69643 41.80343
#
# Poissons Ratio (x) = -0.11570 0.24616
# Poissons Ratio (y) = -0.17225 0.55918
# Poissons Ratio (z) = 0.53210 0.81190
#
# Static dielectric constant tensor:
#      x y z
#    x 1.889440 0.000000 0.000000 
#    y 0.000000 1.884390 0.000000 
#    z 0.000000 0.000000 1.868660 
# 
# From -- ./inp_files/4542.got.cif
#   From: 2010.05.17/outbox.cif.g08.bks.cpg/sg36_3_cif.got.tgz:4542.got - 2010.06.03 17:41:39.
