data_PCOD9352629
_publ_section_title
;
Structure prediction by ZEFSAII (Michael W. Deem and Ramdas Pophale) SiO2 
 PCOD9352629
Probable space group: C M C 21
;
_chemical_formula_sum "Si O2"
_cell_formula_units_Z 52
_cell_length_a 19.989081
_cell_length_b 14.389736
_cell_length_c 8.777859
_cell_angle_alpha 90.000000
_cell_angle_beta 90.000000
_cell_angle_gamma 90.000000
_cell_volume 2524.842282
_symmetry_space_group_name_H-M "C M C 21"
_symmetry_group_IT_number 36
_symmetry_cell_setting 'orthorhombic'
loop_
_space_group_symop_operation_xyz
x,y,z
-x,-y,1/2+z
x,-y,1/2+z
-x,y,z
1/2+x,1/2+y,z
1/2-x,1/2-y,1/2+z
1/2+x,1/2-y,1/2+z
1/2-x,1/2+y,z
loop_
_atom_site_type_symbol
_atom_site_label
_atom_site_fract_x
_atom_site_fract_y
_atom_site_fract_z
Si Si1 0.115605 0.716124 0.070200
Si Si2 0.613989 0.416392 0.976309
Si Si3 0.205771 0.996655 0.730762
Si Si4 0.110241 0.234887 0.922381
Si Si5 0.000000 0.930837 0.417179
Si Si6 0.252263 0.362039 0.479743
Si Si7 0.500000 0.122948 0.483216
Si Si8 0.000000 0.577907 0.121499
O O1 0.125898 0.731027 0.251153
O O2 0.064465 0.631364 0.054261
O O3 0.088217 0.813021 0.004135
O O4 0.186069 0.697971 0.990206
O O5 0.670213 0.426085 0.847064
O O6 0.557059 0.487894 0.932192
O O7 0.648838 0.453608 0.129946
O O8 0.241693 0.076633 0.827052
O O9 0.250122 0.936764 0.616652
O O10 0.058817 0.149148 0.910333
O O11 0.179564 0.198167 0.993293
O O12 0.066958 0.314776 0.006194
O O13 0.500000 0.095585 0.303489
O O14 0.500000 0.029902 0.580982
#
# Coordination Sequence:
#
# PCOD9352629 Si02
#       8
#     8   8   8   8   4   8   4   4
#     4  11  24  41  71  90 138 177 227 281 337 403
#     4  11  21  38  62  99 133 177 215 280 334 416
#     4  10  22  40  61  97 138 170 228 269 349 408
#     4  10  21  43  66 100 127 180 222 282 347 410
#     4  11  19  38  71  96 138 173 220 279 357 410
#     4  11  23  43  63 102 133 178 226 279 347 414
#     4   9  22  44  70  85 131 169 221 283 325 404
#     4  10  23  48  61  95 121 176 229 270 340 396
#
# _framework density 20.595344000000001
#
# number of rings (size 3 to 8) (size 9 to 14) (size 15 to 20)
#    0.000    1.538    4.615    0.923    2.154    4.308 
#    5.538    0.000    0.000    0.000    0.000    0.000 
#    0.000    0.000    0.000    0.000    0.000    0.000 
#
# Total GULP energy -144748.110368 kJ/mol
# GULP energy per Si atom -5567.235014 kJ/mol
# Density = 2.054847 g / cm^3
# Si number density = 20.595344 Si / 1000 Ang^3
#
#
#
# Elastic Constant Matrix: (Units=GPa)
#
#
# Indices 1 2 3 4 5 6 
#
# 1 104.6852 33.8093 11.0133 0.0000 0.0000 0.0000
# 2 33.8093 120.5718 11.5276 0.0000 0.0000 0.0000
# 3 11.0133 11.5276 36.7253 0.0000 0.0000 0.0000
# 4 0.0000 0.0000 0.0000 32.9596 0.0000 0.0000
# 5 0.0000 0.0000 0.0000 0.0000 -6.3011 0.0000
# 6 0.0000 0.0000 0.0000 0.0000 0.0000 127.8969
#
#
#
# Elastic Compliance Matrix: (Units=1/GPa)
#
#
# Indices 1 2 3 4 5 6 
#
# 1 0.010695 -0.002776 -0.002336 0.000000 0.000000 0.000000
# 2 -0.002776 0.009271 -0.002078 0.000000 0.000000 0.000000
# 3 -0.002336 -0.002078 0.028582 0.000000 0.000000 0.000000
# 4 0.000000 0.000000 0.000000 0.030340 0.000000 0.000000
# 5 0.000000 0.000000 0.000000 0.000000 -0.158702 0.000000
# 6 0.000000 0.000000 0.000000 0.000000 0.000000 0.007819
#
#
# Mechanical properties :
#
#
# Convention : Reuss Voigt Hill
#
# Bulk Modulus (GPa) = 29.26630 41.63140 35.44885
# Shear Modulus (GPa) = -108.15981 44.61989 -31.76996
#
# Velocity S-wave (km/s) = -7.25470 4.65962 -3.93183
# Velocity P-wave (km/s) = 7.47885 7.01479 1.83383
#
# Compressibility (1/GPa) = 0.03416900
#
# Stress axis : x y z
#
# Youngs Moduli (GPa) = 93.50533 107.86641 34.98726
#
# Poissons Ratio (x) = 0.29938 0.08173
# Poissons Ratio (y) = 0.25952 0.07269
# Poissons Ratio (z) = 0.21842 0.22411
#
# Static dielectric constant tensor:
#      x y z
#    x 1.748540 0.000000 0.000000 
#    y 0.000000 1.715320 0.000000 
#    z 0.000000 0.000000 1.769730 
# 
# From -- ./inp_files/5195.got.cif
#   From: 2010.05.17/outbox.cif.g08.bks.cpg/sg36_3_cif.got.tgz:5195.got - 2010.06.03 17:41:39.
