data_PCOD9352794
_publ_section_title
;
Structure prediction by ZEFSAII (Michael W. Deem and Ramdas Pophale) SiO2 
 PCOD9352794
Probable space group: C M C 21
;
_chemical_formula_sum "Si O2"
_cell_formula_units_Z 64
_cell_length_a 8.888475
_cell_length_b 24.345044
_cell_length_c 15.436009
_cell_angle_alpha 90.000000
_cell_angle_beta 90.000000
_cell_angle_gamma 90.000000
_cell_volume 3340.202849
_symmetry_space_group_name_H-M "C M C 21"
_symmetry_group_IT_number 36
_symmetry_cell_setting 'orthorhombic'
loop_
_space_group_symop_operation_xyz
x,y,z
-x,-y,1/2+z
x,-y,1/2+z
-x,y,z
1/2+x,1/2+y,z
1/2-x,1/2-y,1/2+z
1/2+x,1/2-y,1/2+z
1/2-x,1/2+y,z
loop_
_atom_site_type_symbol
_atom_site_label
_atom_site_fract_x
_atom_site_fract_y
_atom_site_fract_z
Si Si1 0.170606 0.628468 0.023020
Si Si2 0.820096 0.994433 0.766268
Si Si3 0.821353 0.493460 0.454055
Si Si4 0.179109 0.764565 0.768189
Si Si5 0.818539 0.690725 0.602245
Si Si6 0.172396 0.378252 0.728996
Si Si7 0.180868 0.930607 0.100756
Si Si8 0.176948 0.230229 0.943208
O O1 0.172307 0.631537 0.126259
O O2 0.000000 0.642062 0.993159
O O3 0.203114 0.566235 0.996219
O O4 0.287122 0.671503 0.984988
O O5 0.745711 0.008759 0.857918
O O6 0.767057 0.932716 0.746325
O O7 0.000000 0.996975 0.773657
O O8 0.774648 0.034417 0.686704
O O9 0.745166 0.538586 0.516059
O O10 0.000000 0.503999 0.450525
O O11 0.225450 0.728702 0.684296
O O12 0.256928 0.823916 0.769420
O O13 0.229056 0.735297 0.855885
O O14 0.000000 0.771442 0.763779
O O15 0.743302 0.631156 0.605897
O O16 0.780358 0.723605 0.514266
O O17 0.000000 0.684401 0.604686
O O18 0.000000 0.386311 0.758297
O O19 0.000000 0.929869 0.096444
O O20 0.000000 0.235911 0.924715
#
# Coordination Sequence:
#
# PCOD9352794 Si02
#       8
#     8   8   8   8   8   8   8   8
#     4  10  22  41  66  95 124 162 209 260 316 373
#     4  11  25  43  64  95 129 166 211 261 318 374
#     4  11  24  43  67  94 127 168 212 258 316 380
#     4  11  24  43  65  94 128 167 210 260 316 372
#     4  10  24  44  64  88 126 170 211 255 314 377
#     4  11  22  41  68  95 124 163 211 261 314 375
#     4  11  25  43  65  93 128 167 210 262 318 374
#     4  11  24  42  65  94 126 167 212 259 314 373
#
# _framework density 19.160513000000002
#
# number of rings (size 3 to 8) (size 9 to 14) (size 15 to 20)
#    0.000    1.250    2.500    2.250    3.500    5.000 
#    0.000    0.000    0.000    0.000    0.000    0.000 
#    0.000    0.000    0.000    0.000    0.000    0.000 
#
# Total GULP energy -178888.803123 kJ/mol
# GULP energy per Si atom -5590.275098 kJ/mol
# Density = 1.911690 g / cm^3
# Si number density = 19.160513 Si / 1000 Ang^3
#
#
#
# Elastic Constant Matrix: (Units=GPa)
#
#
# Indices 1 2 3 4 5 6 
#
# 1 40.6216 20.7236 12.9457 0.0000 0.0000 0.0000
# 2 20.7236 52.8606 -14.3269 0.0000 0.0000 0.0000
# 3 12.9457 -14.3269 53.0344 0.0000 0.0000 0.0000
# 4 0.0000 0.0000 0.0000 -175.6031 0.0000 0.0000
# 5 0.0000 0.0000 0.0000 0.0000 31.0259 0.0000
# 6 0.0000 0.0000 0.0000 0.0000 0.0000 31.2584
#
#
#
# Elastic Compliance Matrix: (Units=1/GPa)
#
#
# Indices 1 2 3 4 5 6 
#
# 1 0.039236 -0.019398 -0.014818 0.000000 0.000000 0.000000
# 2 -0.019398 0.030003 0.012840 0.000000 0.000000 0.000000
# 3 -0.014818 0.012840 0.025941 0.000000 0.000000 0.000000
# 4 0.000000 0.000000 0.000000 -0.005695 0.000000 0.000000
# 5 0.000000 0.000000 0.000000 0.000000 0.032231 0.000000
# 6 0.000000 0.000000 0.000000 0.000000 0.000000 0.031991
#
#
# Mechanical properties :
#
#
# Convention : Reuss Voigt Hill
#
# Bulk Modulus (GPa) = 19.07368 20.57792 19.82580
# Shear Modulus (GPa) = 23.37149 -14.18550 4.59300
#
# Velocity S-wave (km/s) = 3.49631 -2.72389 1.54994
# Velocity P-wave (km/s) = 5.12594 0.93290 3.68412
#
# Compressibility (1/GPa) = 0.05242826
#
# Stress axis : x y z
#
# Youngs Moduli (GPa) = 25.48684 33.33033 38.54840
#
# Poissons Ratio (x) = 0.64655 0.57120
# Poissons Ratio (y) = 0.49440 -0.49497
# Poissons Ratio (z) = 0.37766 -0.42797
#
# Static dielectric constant tensor:
#      x y z
#    x 1.652600 0.000000 0.000000 
#    y 0.000000 1.853960 0.000000 
#    z 0.000000 0.000000 1.656780 
# 
# From -- ./inp_files/10965.got.cif
#   From: 2010.05.17/outbox.cif.g08.bks.cpg/sg36_6_cif.got.tgz:10965.got - 2010.06.03 17:41:39.
