data_PCOD9352915
_publ_section_title
;
Structure prediction by ZEFSAII (Michael W. Deem and Ramdas Pophale) SiO2 
 PCOD9352915
Probable space group: C M C 21
;
_chemical_formula_sum "Si O2"
_cell_formula_units_Z 56
_cell_length_a 18.313192
_cell_length_b 23.157939
_cell_length_c 5.947592
_cell_angle_alpha 90.000000
_cell_angle_beta 90.000000
_cell_angle_gamma 90.000000
_cell_volume 2522.348688
_symmetry_space_group_name_H-M "C M C 21"
_symmetry_group_IT_number 36
_symmetry_cell_setting 'orthorhombic'
loop_
_space_group_symop_operation_xyz
x,y,z
-x,-y,1/2+z
x,-y,1/2+z
-x,y,z
1/2+x,1/2+y,z
1/2-x,1/2-y,1/2+z
1/2+x,1/2-y,1/2+z
1/2-x,1/2+y,z
loop_
_atom_site_type_symbol
_atom_site_label
_atom_site_fract_x
_atom_site_fract_y
_atom_site_fract_z
Si Si1 0.586798 0.645710 0.929190
Si Si2 0.329558 0.011699 0.324153
Si Si3 0.417639 0.775201 0.799039
Si Si4 0.326163 0.815898 0.434377
Si Si5 0.807684 0.186600 0.276628
Si Si6 0.809412 0.634975 0.514362
Si Si7 0.339508 0.525959 0.813837
O O1 0.500000 0.635110 0.931516
O O2 0.599535 0.707083 0.802437
O O3 0.619135 0.659894 0.177182
O O4 0.629453 0.590618 0.835585
O O5 0.320266 0.080160 0.361634
O O6 0.362810 0.004540 0.071974
O O7 0.248460 0.982887 0.312282
O O8 0.500000 0.782060 0.876186
O O9 0.401845 0.802804 0.557714
O O10 0.362025 0.812509 0.944103
O O11 0.256964 0.823873 0.596412
O O12 0.310561 0.754399 0.317342
O O13 0.329144 0.870705 0.273907
O O14 0.773981 0.155276 0.492177
O O15 0.362198 0.497810 0.061441
#
# Coordination Sequence:
#
# PCOD9352915 Si02
#       7
#     8   8   8   8   8   8   8
#     4  11  24  42  64  94 139 188 233 280 344 417
#     4  10  23  40  65  99 131 172 228 288 345 404
#     4  10  24  42  62 100 139 176 222 276 355 438
#     4  11  21  34  62  94 129 172 216 277 352 409
#     4  11  20  36  57  95 130 166 224 283 335 408
#     4  11  23  39  68  96 131 175 225 290 357 412
#     4  10  23  43  65  92 132 185 240 290 332 388
#
# _framework density 22.201530999999999
#
# number of rings (size 3 to 8) (size 9 to 14) (size 15 to 20)
#    0.000    1.429    2.857    2.571    8.000    2.857 
#    0.000    1.429    0.000    0.857    0.000    0.000 
#    0.000    0.000    0.000    0.000    0.000    0.000 
#
# Total GULP energy -156041.900820 kJ/mol
# GULP energy per Si atom -5572.925029 kJ/mol
# Density = 2.215100 g / cm^3
# Si number density = 22.201531 Si / 1000 Ang^3
#
#
#
# Elastic Constant Matrix: (Units=GPa)
#
#
# Indices 1 2 3 4 5 6 
#
# 1 38.5776 28.0509 21.4342 0.0000 0.0000 0.0000
# 2 28.0509 106.4583 36.6341 0.0000 0.0000 0.0000
# 3 21.4342 36.6341 115.1161 0.0000 0.0000 0.0000
# 4 0.0000 0.0000 0.0000 33.5314 0.0000 0.0000
# 5 0.0000 0.0000 0.0000 0.0000 7.0696 0.0000
# 6 0.0000 0.0000 0.0000 0.0000 0.0000 18.6825
#
#
#
# Elastic Compliance Matrix: (Units=1/GPa)
#
#
# Indices 1 2 3 4 5 6 
#
# 1 0.033521 -0.007507 -0.003853 0.000000 0.000000 0.000000
# 2 -0.007507 0.012230 -0.002494 0.000000 0.000000 0.000000
# 3 -0.003853 -0.002494 0.010198 0.000000 0.000000 0.000000
# 4 0.000000 0.000000 0.000000 0.029823 0.000000 0.000000
# 5 0.000000 0.000000 0.000000 0.000000 0.141451 0.000000
# 6 0.000000 0.000000 0.000000 0.000000 0.000000 0.053526
#
#
# Mechanical properties :
#
#
# Convention : Reuss Voigt Hill
#
# Bulk Modulus (GPa) = 35.40903 48.04337 41.72620
# Shear Modulus (GPa) = 15.72980 23.45890 19.59435
#
# Velocity S-wave (km/s) = 2.66465 3.25412 2.97403
# Velocity P-wave (km/s) = 5.04487 5.98379 5.53428
#
# Compressibility (1/GPa) = 0.02824138
#
# Stress axis : x y z
#
# Youngs Moduli (GPa) = 29.83241 81.76895 98.05901
#
# Poissons Ratio (x) = 0.61381 0.37777
# Poissons Ratio (y) = 0.22394 0.24458
# Poissons Ratio (z) = 0.11493 0.20395
#
# Static dielectric constant tensor:
#      x y z
#    x 1.746390 0.000000 0.000000 
#    y 0.000000 1.847000 0.000000 
#    z 0.000000 0.000000 2.057910 
# 
# From -- ./inp_files/1415.got.cif
#   From: 2010.05.17/outbox.cif.g08.bks.cpg/sg36_1_cif.got.tgz:1415.got - 2010.06.03 17:41:39.
