data_PCOD9352076
_publ_section_title
;
Structure prediction by ZEFSAII (Michael W. Deem and Ramdas Pophale) SiO2 
 PCOD9352076
Probable space group: C M C 21
;
_chemical_formula_sum "Si O2"
_cell_formula_units_Z 56
_cell_length_a 19.564346
_cell_length_b 9.463816
_cell_length_c 15.533606
_cell_angle_alpha 90.000000
_cell_angle_beta 90.000000
_cell_angle_gamma 90.000000
_cell_volume 2876.099510
_symmetry_space_group_name_H-M "C M C 21"
_symmetry_group_IT_number 36
_symmetry_cell_setting 'orthorhombic'
loop_
_space_group_symop_operation_xyz
x,y,z
-x,-y,1/2+z
x,-y,1/2+z
-x,y,z
1/2+x,1/2+y,z
1/2-x,1/2-y,1/2+z
1/2+x,1/2-y,1/2+z
1/2-x,1/2+y,z
loop_
_atom_site_type_symbol
_atom_site_label
_atom_site_fract_x
_atom_site_fract_y
_atom_site_fract_z
Si Si1 0.920181 0.021420 0.852470
Si Si2 0.581155 0.662589 0.670788
Si Si3 0.831000 0.401712 0.604924
Si Si4 0.136478 0.068824 0.033714
Si Si5 0.293241 0.211137 0.642094
Si Si6 0.780519 0.534706 0.938570
Si Si7 0.292755 0.680785 0.334462
O O1 0.900842 0.117053 0.769115
O O2 0.000000 0.981708 0.842993
O O3 0.865576 0.894414 0.849893
O O4 0.909001 0.085794 0.947882
O O5 0.500000 0.656832 0.663641
O O6 0.607228 0.820103 0.649158
O O7 0.610466 0.549318 0.601181
O O8 0.775945 0.272908 0.599784
O O9 0.802165 0.543056 0.650352
O O10 0.840766 0.461635 0.508268
O O11 0.147709 0.213830 0.086132
O O12 0.210994 0.024890 0.995731
O O13 0.290141 0.279550 0.735541
O O14 0.769542 0.416617 0.866983
O O15 0.784946 0.680303 0.889870
#
# Coordination Sequence:
#
# PCOD9352076 Si02
#       7
#     8   8   8   8   8   8   8
#     4  10  22  40  66  93 125 170 222 264 313 388
#     4  11  23  42  67  92 128 177 222 266 319 387
#     4  11  22  39  59  92 129 162 213 260 326 384
#     4  10  20  39  62  94 122 163 210 264 319 379
#     4  11  22  37  63  94 127 164 204 269 329 381
#     4  10  21  35  60  89 126 158 206 261 317 381
#     4  11  21  38  59  96 124 164 211 262 325 380
#
# _framework density 19.470815000000002
#
# number of rings (size 3 to 8) (size 9 to 14) (size 15 to 20)
#    0.000    1.429    1.429    6.429    4.000    0.000 
#    2.571    2.143    0.000    0.000    0.000    0.000 
#    0.000    0.000    0.000    0.000    0.000    0.000 
#
# Total GULP energy -156060.428009 kJ/mol
# GULP energy per Si atom -5573.586715 kJ/mol
# Density = 1.942650 g / cm^3
# Si number density = 19.470815 Si / 1000 Ang^3
#
#
#
# Elastic Constant Matrix: (Units=GPa)
#
#
# Indices 1 2 3 4 5 6 
#
# 1 71.6677 62.6425 27.9492 0.0000 0.0000 0.0000
# 2 62.6425 161.5052 59.8878 0.0000 0.0000 0.0000
# 3 27.9492 59.8878 154.7145 0.0000 0.0000 0.0000
# 4 0.0000 0.0000 0.0000 37.4832 0.0000 0.0000
# 5 0.0000 0.0000 0.0000 0.0000 26.2259 0.0000
# 6 0.0000 0.0000 0.0000 0.0000 0.0000 10.9125
#
#
#
# Elastic Compliance Matrix: (Units=1/GPa)
#
#
# Indices 1 2 3 4 5 6 
#
# 1 0.021185 -0.007937 -0.000755 0.000000 0.000000 0.000000
# 2 -0.007937 0.010203 -0.002516 0.000000 0.000000 0.000000
# 3 -0.000755 -0.002516 0.007574 0.000000 0.000000 0.000000
# 4 0.000000 0.000000 0.000000 0.026679 0.000000 0.000000
# 5 0.000000 0.000000 0.000000 0.000000 0.038130 0.000000
# 6 0.000000 0.000000 0.000000 0.000000 0.000000 0.091638
#
#
# Mechanical properties :
#
#
# Convention : Reuss Voigt Hill
#
# Bulk Modulus (GPa) = 60.43434 76.53852 68.48643
# Shear Modulus (GPa) = 22.38745 30.75153 26.56949
#
# Velocity S-wave (km/s) = 3.39454 3.97843 3.69803
# Velocity P-wave (km/s) = 6.81687 7.77809 7.31329
#
# Compressibility (1/GPa) = 0.01654688
#
# Stress axis : x y z
#
# Youngs Moduli (GPa) = 47.20260 98.00893 132.03706
#
# Poissons Ratio (x) = 0.77792 0.09966
# Poissons Ratio (y) = 0.37466 0.33216
# Poissons Ratio (z) = 0.03563 0.24656
#
# Static dielectric constant tensor:
#      x y z
#    x 1.706340 0.000000 0.000000 
#    y 0.000000 1.692510 0.000000 
#    z 0.000000 0.000000 1.769620 
# 
# From -- ./inp_files/12827.got.cif
#   From: 2010.05.17/outbox.cif.g08.bks.cpg/sg36_7_cif.got.tgz:12827.got - 2010.06.03 17:41:39.
