data_PCOD9352520
_publ_section_title
;
Structure prediction by ZEFSAII (Michael W. Deem and Ramdas Pophale) SiO2 
 PCOD9352520
Probable space group: C M C 21
;
_chemical_formula_sum "Si O2"
_cell_formula_units_Z 48
_cell_length_a 11.380724
_cell_length_b 8.609658
_cell_length_c 22.525449
_cell_angle_alpha 90.000000
_cell_angle_beta 90.000000
_cell_angle_gamma 90.000000
_cell_volume 2207.136781
_symmetry_space_group_name_H-M "C M C 21"
_symmetry_group_IT_number 36
_symmetry_cell_setting 'orthorhombic'
loop_
_space_group_symop_operation_xyz
x,y,z
-x,-y,1/2+z
x,-y,1/2+z
-x,y,z
1/2+x,1/2+y,z
1/2-x,1/2-y,1/2+z
1/2+x,1/2-y,1/2+z
1/2-x,1/2+y,z
loop_
_atom_site_type_symbol
_atom_site_label
_atom_site_fract_x
_atom_site_fract_y
_atom_site_fract_z
Si Si1 0.372664 0.323399 0.894170
Si Si2 0.873031 0.598646 0.784812
Si Si3 0.793504 0.226209 0.176838
Si Si4 0.866179 0.926470 0.239260
Si Si5 0.211271 0.462286 0.467435
Si Si6 0.634763 0.757323 0.046618
O O1 0.500000 0.400535 0.900967
O O2 0.368473 0.243894 0.829770
O O3 0.270673 0.437753 0.914989
O O4 0.363496 0.175331 0.938593
O O5 0.873322 0.660134 0.717057
O O6 0.738564 0.536161 0.786161
O O7 0.000000 0.518614 0.797123
O O8 0.668623 0.261405 0.209162
O O9 0.794767 0.265829 0.108236
O O10 0.843194 0.055685 0.188875
O O11 0.000000 0.930888 0.260224
O O12 0.311144 0.378008 0.506234
O O13 0.145619 0.583446 0.509694
O O14 0.500000 0.726064 0.061435
#
# Coordination Sequence:
#
# PCOD9352520 Si02
#       6
#     8   8   8   8   8   8
#     4  10  21  40  60  84 119 153 196 247 292 348
#     4   9  21  38  63  90 121 159 196 244 304 359
#     4  10  22  38  62  89 121 156 194 243 302 358
#     4  10  22  39  58  89 124 154 195 242 296 361
#     4  10  23  38  58  88 111 157 201 241 289 348
#     4  11  21  39  61  84 118 155 196 245 293 350
#
# _framework density 21.747631999999999
#
# number of rings (size 3 to 8) (size 9 to 14) (size 15 to 20)
#    1.000    1.000    0.000    3.500    2.333    0.667 
#    0.000    8.333    0.000    0.000    0.000    0.000 
#    0.000    0.000    0.000    0.000    0.000    0.000 
#
# Total GULP energy -133674.392513 kJ/mol
# GULP energy per Si atom -5569.766355 kJ/mol
# Density = 2.169813 g / cm^3
# Si number density = 21.747632 Si / 1000 Ang^3
#
#
#
# Elastic Constant Matrix: (Units=GPa)
#
#
# Indices 1 2 3 4 5 6 
#
# 1 145.7939 14.9073 14.8179 0.0000 0.0000 0.0000
# 2 14.9073 41.6744 8.2894 0.0000 0.0000 0.0000
# 3 14.8179 8.2894 96.3855 0.0000 0.0000 0.0000
# 4 0.0000 0.0000 0.0000 25.4561 0.0000 0.0000
# 5 0.0000 0.0000 0.0000 0.0000 10.4057 0.0000
# 6 0.0000 0.0000 0.0000 0.0000 0.0000 2.6192
#
#
#
# Elastic Compliance Matrix: (Units=1/GPa)
#
#
# Indices 1 2 3 4 5 6 
#
# 1 0.007195 -0.002395 -0.000900 0.000000 0.000000 0.000000
# 2 -0.002395 0.025210 -0.001800 0.000000 0.000000 0.000000
# 3 -0.000900 -0.001800 0.010668 0.000000 0.000000 0.000000
# 4 0.000000 0.000000 0.000000 0.039283 0.000000 0.000000
# 5 0.000000 0.000000 0.000000 0.000000 0.096101 0.000000
# 6 0.000000 0.000000 0.000000 0.000000 0.000000 0.381797
#
#
# Mechanical properties :
#
#
# Convention : Reuss Voigt Hill
#
# Bulk Modulus (GPa) = 30.41012 39.98701 35.19856
# Shear Modulus (GPa) = 8.59984 24.08548 16.34266
#
# Velocity S-wave (km/s) = 1.99072 3.33152 2.74427
# Velocity P-wave (km/s) = 4.39289 5.76415 5.12460
#
# Compressibility (1/GPa) = 0.03288379
#
# Stress axis : x y z
#
# Youngs Moduli (GPa) = 138.97846 39.66643 93.73650
#
# Poissons Ratio (x) = 0.09499 0.08438
# Poissons Ratio (y) = 0.33282 0.16872
# Poissons Ratio (z) = 0.12511 0.07140
#
# Static dielectric constant tensor:
#      x y z
#    x 1.837150 0.000000 0.000000 
#    y 0.000000 1.800700 0.000000 
#    z 0.000000 0.000000 1.758930 
# 
# From -- ./inp_files/16806.got.cif
#   From: 2010.05.17/outbox.cif.g08.bks.cpg/sg36_9_cif.got.tgz:16806.got - 2010.06.03 17:41:39.
