data_PCOD9352445
_publ_section_title
;
Structure prediction by ZEFSAII (Michael W. Deem and Ramdas Pophale) SiO2 
 PCOD9352445
Probable space group: C M C 21
;
_chemical_formula_sum "Si O2"
_cell_formula_units_Z 48
_cell_length_a 13.462800
_cell_length_b 9.462345
_cell_length_c 17.228831
_cell_angle_alpha 90.000000
_cell_angle_beta 90.000000
_cell_angle_gamma 90.000000
_cell_volume 2194.774893
_symmetry_space_group_name_H-M "C M C 21"
_symmetry_group_IT_number 36
_symmetry_cell_setting 'orthorhombic'
loop_
_space_group_symop_operation_xyz
x,y,z
-x,-y,1/2+z
x,-y,1/2+z
-x,y,z
1/2+x,1/2+y,z
1/2-x,1/2-y,1/2+z
1/2+x,1/2-y,1/2+z
1/2-x,1/2+y,z
loop_
_atom_site_type_symbol
_atom_site_label
_atom_site_fract_x
_atom_site_fract_y
_atom_site_fract_z
Si Si1 0.881943 0.259413 0.592140
Si Si2 0.386023 0.003372 0.880370
Si Si3 0.182256 0.299378 0.762125
Si Si4 0.612801 0.604007 0.902775
Si Si5 0.389750 0.696673 0.318162
Si Si6 0.752590 0.506488 0.521154
O O1 0.872790 0.252917 0.685283
O O2 0.829057 0.409175 0.570076
O O3 0.000000 0.252787 0.569226
O O4 0.813442 0.130791 0.559223
O O5 0.500000 0.967486 0.893062
O O6 0.376886 0.172321 0.876958
O O7 0.318012 0.941144 0.947775
O O8 0.353029 0.949639 0.795748
O O9 0.155474 0.197996 0.833710
O O10 0.301244 0.302233 0.756297
O O11 0.500000 0.643500 0.917652
O O12 0.615200 0.445385 0.867986
O O13 0.674942 0.600571 0.980960
O O14 0.500000 0.708900 0.283560
#
# Coordination Sequence:
#
# PCOD9352445 Si02
#       6
#     8   8   8   8   8   8
#     4  12  30  49  69 105 151 191 226 292 366 419
#     4  11  22  41  71 101 130 177 237 290 339 410
#     4  12  23  45  66 101 137 174 235 287 346 411
#     4  11  22  41  71 101 130 177 237 290 339 410
#     4  10  21  38  69 104 132 167 229 297 346 396
#     4  12  24  46  72 102 146 184 234 288 356 426
#
# _framework density 21.870123
#
# number of rings (size 3 to 8) (size 9 to 14) (size 15 to 20)
#    0.000    0.667    3.333    4.500    4.667    1.333 
#    0.000    4.167    0.000    0.000    0.000    0.000 
#    0.000    0.000    0.000    0.000    0.000    0.000 
#
# Total GULP energy -134126.045478 kJ/mol
# GULP energy per Si atom -5588.585228 kJ/mol
# Density = 2.182035 g / cm^3
# Si number density = 21.870123 Si / 1000 Ang^3
#
#
#
# Elastic Constant Matrix: (Units=GPa)
#
#
# Indices 1 2 3 4 5 6 
#
# 1 197.6823 17.8654 27.5756 0.0000 0.0000 0.0000
# 2 17.8654 99.7549 7.7153 0.0000 0.0000 0.0000
# 3 27.5756 7.7153 57.9196 0.0000 0.0000 0.0000
# 4 0.0000 0.0000 0.0000 18.2251 0.0000 0.0000
# 5 0.0000 0.0000 0.0000 0.0000 28.6752 0.0000
# 6 0.0000 0.0000 0.0000 0.0000 0.0000 66.2207
#
#
#
# Elastic Compliance Matrix: (Units=1/GPa)
#
#
# Indices 1 2 3 4 5 6 
#
# 1 0.005479 -0.000788 -0.002504 0.000000 0.000000 0.000000
# 2 -0.000788 0.010242 -0.000989 0.000000 0.000000 0.000000
# 3 -0.002504 -0.000989 0.018589 0.000000 0.000000 0.000000
# 4 0.000000 0.000000 0.000000 0.054869 0.000000 0.000000
# 5 0.000000 0.000000 0.000000 0.000000 0.034873 0.000000
# 6 0.000000 0.000000 0.000000 0.000000 0.000000 0.015101
#
#
# Mechanical properties :
#
#
# Convention : Reuss Voigt Hill
#
# Bulk Modulus (GPa) = 38.83641 51.29661 45.06651
# Shear Modulus (GPa) = 31.99009 42.77089 37.38049
#
# Velocity S-wave (km/s) = 3.82871 4.42710 4.13874
# Velocity P-wave (km/s) = 6.11079 7.04545 6.59470
#
# Compressibility (1/GPa) = 0.02574903
#
# Stress axis : x y z
#
# Youngs Moduli (GPa) = 182.51340 97.63579 53.79496
#
# Poissons Ratio (x) = 0.07690 0.13468
# Poissons Ratio (y) = 0.14375 0.05322
# Poissons Ratio (z) = 0.45695 0.09660
#
# Static dielectric constant tensor:
#      x y z
#    x 1.857130 0.000000 0.000000 
#    y 0.000000 1.865320 0.000000 
#    z 0.000000 0.000000 1.776540 
# 
# From -- ./inp_files/14585.got.cif
#   From: 2010.05.17/outbox.cif.g08.bks.cpg/sg36_8_cif.got.tgz:14585.got - 2010.06.03 17:41:39.
