data_PCOD9352544
_publ_section_title
;
Structure prediction by ZEFSAII (Michael W. Deem and Ramdas Pophale) SiO2 
 PCOD9352544
Probable space group: C M C 21
;
_chemical_formula_sum "Si O2"
_cell_formula_units_Z 56
_cell_length_a 16.693895
_cell_length_b 28.976344
_cell_length_c 5.422706
_cell_angle_alpha 90.000000
_cell_angle_beta 90.000000
_cell_angle_gamma 90.000000
_cell_volume 2623.114968
_symmetry_space_group_name_H-M "C M C 21"
_symmetry_group_IT_number 36
_symmetry_cell_setting 'orthorhombic'
loop_
_space_group_symop_operation_xyz
x,y,z
-x,-y,1/2+z
x,-y,1/2+z
-x,y,z
1/2+x,1/2+y,z
1/2-x,1/2-y,1/2+z
1/2+x,1/2-y,1/2+z
1/2-x,1/2+y,z
loop_
_atom_site_type_symbol
_atom_site_label
_atom_site_fract_x
_atom_site_fract_y
_atom_site_fract_z
Si Si1 0.500000 0.164747 0.997601
Si Si2 0.908950 0.876794 0.165034
Si Si3 0.866676 0.470944 0.092052
Si Si4 0.582493 0.300874 0.559609
Si Si5 0.636129 0.776640 0.717853
Si Si6 0.176987 0.972074 0.098746
Si Si7 0.500000 0.894315 0.004661
Si Si8 0.215042 0.805280 0.938052
O O1 0.500000 0.141924 0.729681
O O2 0.420285 0.195530 0.034222
O O3 0.500000 0.129528 0.234004
O O4 0.916506 0.850122 0.424473
O O5 0.878810 0.928733 0.158588
O O6 0.000000 0.874446 0.059745
O O7 0.836229 0.847736 0.044041
O O8 0.882742 0.494979 0.358097
O O9 0.771828 0.459469 0.098988
O O10 0.922748 0.427086 0.044811
O O11 0.500000 0.296973 0.711941
O O12 0.582239 0.258100 0.374074
O O13 0.665711 0.296812 0.691447
O O14 0.691478 0.810190 0.882836
O O15 0.697082 0.740317 0.595061
O O16 0.162915 0.007709 0.324637
#
# Coordination Sequence:
#
# PCOD9352544 Si02
#       8
#     4   8   8   8   8   8   4   8
#     4  12  30  41  64 102 146 174 218 285 338 388
#     4  10  24  42  65  99 124 169 222 272 331 400
#     4  10  21  43  72  96 131 175 223 271 325 399
#     4  10  21  40  64  87 125 167 224 270 322 388
#     4  11  24  40  60  93 126 180 224 274 333 387
#     4  10  24  44  70 101 136 172 211 273 341 396
#     4  12  26  43  66 104 134 182 222 273 338 390
#     4  11  23  40  67  89 126 177 231 271 329 394
#
# _framework density 21.348663999999999
#
# number of rings (size 3 to 8) (size 9 to 14) (size 15 to 20)
#    0.000    1.429    2.143    1.714    8.000    1.714 
#    0.000    0.000    0.000    0.000    0.000    0.000 
#    0.000    0.000    0.000    0.000    0.000    0.000 
#
# Total GULP energy -156149.929600 kJ/mol
# GULP energy per Si atom -5576.783200 kJ/mol
# Density = 2.130007 g / cm^3
# Si number density = 21.348664 Si / 1000 Ang^3
#
#
#
# Elastic Constant Matrix: (Units=GPa)
#
#
# Indices 1 2 3 4 5 6 
#
# 1 82.7251 25.8434 3.2898 0.0000 0.0000 0.0000
# 2 25.8434 63.3265 2.8114 0.0000 0.0000 0.0000
# 3 3.2898 2.8114 59.6467 0.0000 0.0000 0.0000
# 4 0.0000 0.0000 0.0000 18.2164 0.0000 0.0000
# 5 0.0000 0.0000 0.0000 0.0000 32.4146 0.0000
# 6 0.0000 0.0000 0.0000 0.0000 0.0000 -520.3121
#
#
#
# Elastic Compliance Matrix: (Units=1/GPa)
#
#
# Indices 1 2 3 4 5 6 
#
# 1 0.013869 -0.005638 -0.000499 0.000000 0.000000 0.000000
# 2 -0.005638 0.018116 -0.000543 0.000000 0.000000 0.000000
# 3 -0.000499 -0.000543 0.016819 0.000000 0.000000 0.000000
# 4 0.000000 0.000000 0.000000 0.054896 0.000000 0.000000
# 5 0.000000 0.000000 0.000000 0.000000 0.030850 0.000000
# 6 0.000000 0.000000 0.000000 0.000000 0.000000 -0.001922
#
#
# Mechanical properties :
#
#
# Convention : Reuss Voigt Hill
#
# Bulk Modulus (GPa) = 28.21363 29.95418 29.08390
# Shear Modulus (GPa) = 31.68516 -82.35263 -25.33374
#
# Velocity S-wave (km/s) = 3.85668 -6.21762 -3.44854
# Velocity P-wave (km/s) = 5.75120 6.12239 1.48449
#
# Compressibility (1/GPa) = 0.03544386
#
# Stress axis : x y z
#
# Youngs Moduli (GPa) = 72.10139 55.19955 59.45827
#
# Poissons Ratio (x) = 0.31121 0.02968
# Poissons Ratio (y) = 0.40650 0.03228
# Poissons Ratio (z) = 0.03600 0.02997
#
# Static dielectric constant tensor:
#      x y z
#    x 1.696830 0.000000 0.000000 
#    y 0.000000 1.771740 0.000000 
#    z 0.000000 0.000000 1.864830 
# 
# From -- ./inp_files/963.got.cif
#   From: 2010.05.17/outbox.cif.g08.bks.cpg/sg36_1_cif.got.tgz:963.got - 2010.06.03 17:41:39.
