data_PCOD9352727
_publ_section_title
;
Structure prediction by ZEFSAII (Michael W. Deem and Ramdas Pophale) SiO2 
 PCOD9352727
Probable space group: C M C 21
;
_chemical_formula_sum "Si O2"
_cell_formula_units_Z 56
_cell_length_a 23.427327
_cell_length_b 4.967177
_cell_length_c 24.350770
_cell_angle_alpha 90.000000
_cell_angle_beta 90.000000
_cell_angle_gamma 90.000000
_cell_volume 2833.642607
_symmetry_space_group_name_H-M "C M C 21"
_symmetry_group_IT_number 36
_symmetry_cell_setting 'orthorhombic'
loop_
_space_group_symop_operation_xyz
x,y,z
-x,-y,1/2+z
x,-y,1/2+z
-x,y,z
1/2+x,1/2+y,z
1/2-x,1/2-y,1/2+z
1/2+x,1/2-y,1/2+z
1/2-x,1/2+y,z
loop_
_atom_site_type_symbol
_atom_site_label
_atom_site_fract_x
_atom_site_fract_y
_atom_site_fract_z
Si Si1 0.000000 0.803427 0.660720
Si Si2 0.899296 0.262743 0.073948
Si Si3 0.287295 0.577036 0.258661
Si Si4 0.432541 0.741608 0.509301
Si Si5 0.066220 0.593448 0.885666
Si Si6 0.286648 0.537031 0.128609
Si Si7 0.098150 0.111449 0.817282
Si Si8 0.500000 0.198433 0.235140
O O1 0.944715 0.751528 0.623437
O O2 0.000000 0.605225 0.713052
O O3 0.000000 0.107534 0.682328
O O4 0.898790 0.562538 0.050225
O O5 0.839702 0.147331 0.094933
O O6 0.921244 0.065214 0.025770
O O7 0.265675 0.877197 0.270263
O O8 0.299987 0.558541 0.193578
O O9 0.342307 0.480332 0.291373
O O10 0.500000 0.795924 0.517221
O O11 0.418171 0.811159 0.446671
O O12 0.102930 0.347670 0.862278
O O13 0.000000 0.501581 0.886478
O O14 0.071389 0.848919 0.845735
O O15 0.267054 0.233615 0.117758
O O16 0.055461 0.230361 0.771254
#
# Coordination Sequence:
#
# PCOD9352727 Si02
#       8
#     4   8   8   8   8   8   8   4
#     4  12  24  36  55  90 127 154 184 238 312 364
#     4  12  22  40  62  89 124 158 198 252 306 358
#     4  10  22  40  62  87 117 162 210 243 287 357
#     4  11  22  39  62  90 122 158 204 247 300 371
#     4  11  22  39  62  90 122 158 204 247 300 371
#     4  10  22  40  62  87 117 162 210 243 287 357
#     4  12  22  40  62  89 124 158 198 252 306 358
#     4  12  24  36  55  90 127 154 184 238 312 364
#
# _framework density 19.762547000000001
#
# number of rings (size 3 to 8) (size 9 to 14) (size 15 to 20)
#    0.000    0.857    2.857    5.143    0.000    5.714 
#    0.000    0.000    0.000   17.143    0.000    0.000 
#    0.000    0.000    0.000    0.000    0.000    0.000 
#
# Total GULP energy -156639.373608 kJ/mol
# GULP energy per Si atom -5594.263343 kJ/mol
# Density = 1.971757 g / cm^3
# Si number density = 19.762547 Si / 1000 Ang^3
#
#
#
# Elastic Constant Matrix: (Units=GPa)
#
#
# Indices 1 2 3 4 5 6 
#
# 1 62.5627 -15.0281 27.8542 0.0000 0.0000 0.0000
# 2 -15.0281 56.6125 -13.8984 0.0000 0.0000 0.0000
# 3 27.8542 -13.8984 42.3848 0.0000 0.0000 0.0000
# 4 0.0000 0.0000 0.0000 37.1021 0.0000 0.0000
# 5 0.0000 0.0000 0.0000 0.0000 20.6959 0.0000
# 6 0.0000 0.0000 0.0000 0.0000 0.0000 19.8082
#
#
#
# Elastic Compliance Matrix: (Units=1/GPa)
#
#
# Indices 1 2 3 4 5 6 
#
# 1 0.022941 0.002598 -0.014224 0.000000 0.000000 0.000000
# 2 0.002598 0.019505 0.004689 0.000000 0.000000 0.000000
# 3 -0.014224 0.004689 0.034479 0.000000 0.000000 0.000000
# 4 0.000000 0.000000 0.000000 0.026953 0.000000 0.000000
# 5 0.000000 0.000000 0.000000 0.000000 0.048319 0.000000
# 6 0.000000 0.000000 0.000000 0.000000 0.000000 0.050484
#
#
# Mechanical properties :
#
#
# Convention : Reuss Voigt Hill
#
# Bulk Modulus (GPa) = 15.86093 17.71283 16.78688
# Shear Modulus (GPa) = 21.04625 26.36339 23.70482
#
# Velocity S-wave (km/s) = 3.26691 3.65637 3.46711
# Velocity P-wave (km/s) = 4.71947 5.17761 4.95384
#
# Compressibility (1/GPa) = 0.06304801
#
# Stress axis : x y z
#
# Youngs Moduli (GPa) = 43.59019 51.27008 29.00339
#
# Poissons Ratio (x) = -0.13319 0.41256
# Poissons Ratio (y) = -0.11324 -0.13598
# Poissons Ratio (z) = 0.62004 -0.24038
#
# Static dielectric constant tensor:
#      x y z
#    x 1.667360 0.000000 0.000000 
#    y 0.000000 1.675530 0.000000 
#    z 0.000000 0.000000 1.682690 
# 
# From -- ./inp_files/17042.got.cif
#   From: 2010.05.17/outbox.cif.g08.bks.cpg/sg36_9_cif.got.tgz:17042.got - 2010.06.03 17:41:39.
