data_PCOD9352892
_publ_section_title
;
Structure prediction by ZEFSAII (Michael W. Deem and Ramdas Pophale) SiO2 
 PCOD9352892
Probable space group: C M C 21
;
_chemical_formula_sum "Si O2"
_cell_formula_units_Z 44
_cell_length_a 8.388365
_cell_length_b 14.723663
_cell_length_c 14.002278
_cell_angle_alpha 90.000000
_cell_angle_beta 90.000000
_cell_angle_gamma 90.000000
_cell_volume 1729.385781
_symmetry_space_group_name_H-M "C M C 21"
_symmetry_group_IT_number 36
_symmetry_cell_setting 'orthorhombic'
loop_
_space_group_symop_operation_xyz
x,y,z
-x,-y,1/2+z
x,-y,1/2+z
-x,y,z
1/2+x,1/2+y,z
1/2-x,1/2-y,1/2+z
1/2+x,1/2-y,1/2+z
1/2-x,1/2+y,z
loop_
_atom_site_type_symbol
_atom_site_label
_atom_site_fract_x
_atom_site_fract_y
_atom_site_fract_z
Si Si1 0.188550 0.974522 0.765920
Si Si2 0.669052 0.770430 0.411035
Si Si3 0.251768 0.575454 0.466830
Si Si4 0.179272 0.109786 0.069681
Si Si5 0.000000 0.323611 0.106196
Si Si6 0.681591 0.687018 0.721131
O O1 0.291527 0.961771 0.861070
O O2 0.233742 0.910376 0.677339
O O3 0.000000 0.957935 0.787474
O O4 0.195417 0.077823 0.730614
O O5 0.500000 0.804719 0.372911
O O6 0.656003 0.666358 0.439217
O O7 0.712280 0.828492 0.503796
O O8 0.802819 0.778928 0.330332
O O9 0.327417 0.488970 0.519034
O O10 0.130964 0.618848 0.540906
O O11 0.000000 0.150518 0.064843
O O12 0.846943 0.284063 0.169944
O O13 0.500000 0.707485 0.684471
#
# Coordination Sequence:
#
# PCOD9352892 Si02
#       6
#     8   8   8   8   4   8
#     4  10  22  45  76 108 149 208 259 316 395 470
#     4  12  27  46  78 117 161 205 264 326 393 474
#     4  12  27  47  74 113 156 204 262 325 389 472
#     4  11  24  46  77 109 158 211 260 324 403 469
#     4  12  28  48  82 112 158 208 270 318 402 470
#     4  11  24  47  80 113 154 208 263 327 395 465
#
# _framework density 25.442558999999999
#
# number of rings (size 3 to 8) (size 9 to 14) (size 15 to 20)
#    0.000    0.727    4.545    2.182    3.818    3.636 
#    4.909    0.000    0.000    0.000    0.000    0.000 
#    0.000    0.000    0.000    0.000    0.000    0.000 
#
# Total GULP energy -122477.924811 kJ/mol
# GULP energy per Si atom -5567.178400 kJ/mol
# Density = 2.538465 g / cm^3
# Si number density = 25.442559 Si / 1000 Ang^3
#
#
#
# Elastic Constant Matrix: (Units=GPa)
#
#
# Indices 1 2 3 4 5 6 
#
# 1 141.3974 19.8087 44.4337 0.0000 0.0000 0.0000
# 2 19.8087 70.7386 18.3557 0.0000 0.0000 0.0000
# 3 44.4337 18.3557 136.6851 0.0000 0.0000 0.0000
# 4 0.0000 0.0000 0.0000 45.5472 0.0000 0.0000
# 5 0.0000 0.0000 0.0000 0.0000-4827.9912 0.0000
# 6 0.0000 0.0000 0.0000 0.0000 0.0000 42.6227
#
#
#
# Elastic Compliance Matrix: (Units=1/GPa)
#
#
# Indices 1 2 3 4 5 6 
#
# 1 0.008055 -0.001633 -0.002399 0.000000 0.000000 0.000000
# 2 -0.001633 0.014978 -0.001481 0.000000 0.000000 0.000000
# 3 -0.002399 -0.001481 0.008295 0.000000 0.000000 0.000000
# 4 0.000000 0.000000 0.000000 0.021955 0.000000 0.000000
# 5 0.000000 0.000000 0.000000 0.000000 -0.000207 0.000000
# 6 0.000000 0.000000 0.000000 0.000000 0.000000 0.023462
#
#
# Mechanical properties :
#
#
# Convention : Reuss Voigt Hill
#
# Bulk Modulus (GPa) = 49.25564 57.11301 53.18432
# Shear Modulus (GPa) = 53.00499 -930.21606 -438.60553
#
# Velocity S-wave (km/s) = 4.56929 -19.14178 -13.14400
# Velocity P-wave (km/s) = 6.87310 21.58813 14.47080
#
# Compressibility (1/GPa) = 0.02030225
#
# Stress axis : x y z
#
# Youngs Moduli (GPa) = 124.14664 66.76441 120.55675
#
# Poissons Ratio (x) = 0.10903 0.28924
# Poissons Ratio (y) = 0.20274 0.17849
# Poissons Ratio (z) = 0.29785 0.09885
#
# Static dielectric constant tensor:
#      x y z
#    x 15.494480 0.000000 0.000000 
#    y 0.000000 2.048210 0.000000 
#    z 0.000000 0.000000 2.016640 
# 
# From -- ./inp_files/10271.got.cif
#   From: 2010.05.17/outbox.cif.g08.bks.cpg/sg36_6_cif.got.tgz:10271.got - 2010.06.03 17:41:39.
