data_PCOD9352864
_publ_section_title
;
Structure prediction by ZEFSAII (Michael W. Deem and Ramdas Pophale) SiO2 
 PCOD9352864
Probable space group: C M C 21
;
_chemical_formula_sum "Si O2"
_cell_formula_units_Z 40
_cell_length_a 14.397615
_cell_length_b 11.028361
_cell_length_c 10.801855
_cell_angle_alpha 90.000000
_cell_angle_beta 90.000000
_cell_angle_gamma 90.000000
_cell_volume 1715.141175
_symmetry_space_group_name_H-M "C M C 21"
_symmetry_group_IT_number 36
_symmetry_cell_setting 'orthorhombic'
loop_
_space_group_symop_operation_xyz
x,y,z
-x,-y,1/2+z
x,-y,1/2+z
-x,y,z
1/2+x,1/2+y,z
1/2-x,1/2-y,1/2+z
1/2+x,1/2-y,1/2+z
1/2-x,1/2+y,z
loop_
_atom_site_type_symbol
_atom_site_label
_atom_site_fract_x
_atom_site_fract_y
_atom_site_fract_z
Si Si1 0.500000 0.107526 0.086540
Si Si2 0.804231 0.555607 0.840871
Si Si3 0.500000 0.303008 0.292738
Si Si4 0.000000 0.936842 0.660317
Si Si5 0.000000 0.307293 0.330429
Si Si6 0.651294 0.675081 0.997016
Si Si7 0.323160 0.069915 0.576530
O O1 0.500000 0.185394 0.208514
O O2 0.588400 0.019527 0.077051
O O3 0.500000 0.208321 0.978372
O O4 0.907806 0.608106 0.814802
O O5 0.748824 0.644147 0.933823
O O6 0.766495 0.535879 0.701340
O O7 0.794014 0.440129 0.931422
O O8 0.500000 0.434129 0.227530
O O9 0.412398 0.294176 0.381208
O O10 0.091027 0.923864 0.572460
O O11 0.000000 0.818344 0.753478
O O12 0.658419 0.788201 0.087828
#
# Coordination Sequence:
#
# PCOD9352864 Si02
#       7
#     4   8   4   4   4   8   8
#     4  10  22  43  75 108 134 188 256 313 366 436
#     4  11  25  42  74 108 146 191 247 308 375 444
#     4  11  26  43  70 102 151 196 249 295 378 457
#     4  11  24  47  68 100 156 199 250 301 379 450
#     4  10  22  45  71 102 137 197 243 301 375 439
#     4  11  26  45  69 108 146 201 242 311 376 451
#     4  11  23  45  73 105 146 187 248 317 365 437
#
# _framework density 23.321694000000001
#
# number of rings (size 3 to 8) (size 9 to 14) (size 15 to 20)
#    0.000    1.200    2.000    3.000    5.600    8.000 
#    0.000    0.000    0.000    0.000    0.000    0.000 
#    0.000    0.000    0.000    0.000    0.000    0.000 
#
# Total GULP energy -111451.483958 kJ/mol
# GULP energy per Si atom -5572.574198 kJ/mol
# Density = 2.326861 g / cm^3
# Si number density = 23.321694 Si / 1000 Ang^3
#
#
#
# Elastic Constant Matrix: (Units=GPa)
#
#
# Indices 1 2 3 4 5 6 
#
# 1 84.2113 12.7523 25.7831 0.0000 0.0000 0.0000
# 2 12.7523 33.3220 11.3017 0.0000 0.0000 0.0000
# 3 25.7831 11.3017 138.3611 0.0000 0.0000 0.0000
# 4 0.0000 0.0000 0.0000 60.0871 0.0000 0.0000
# 5 0.0000 0.0000 0.0000 0.0000 62.8738 0.0000
# 6 0.0000 0.0000 0.0000 0.0000 0.0000 23.9233
#
#
#
# Elastic Compliance Matrix: (Units=1/GPa)
#
#
# Indices 1 2 3 4 5 6 
#
# 1 0.013174 -0.004329 -0.002101 0.000000 0.000000 0.000000
# 2 -0.004329 0.032288 -0.001831 0.000000 0.000000 0.000000
# 3 -0.002101 -0.001831 0.007769 0.000000 0.000000 0.000000
# 4 0.000000 0.000000 0.000000 0.016643 0.000000 0.000000
# 5 0.000000 0.000000 0.000000 0.000000 0.015905 0.000000
# 6 0.000000 0.000000 0.000000 0.000000 0.000000 0.041800
#
#
# Mechanical properties :
#
#
# Convention : Reuss Voigt Hill
#
# Bulk Modulus (GPa) = 27.24174 39.50764 33.37469
# Shear Modulus (GPa) = 31.98248 43.11400 37.54824
#
# Velocity S-wave (km/s) = 3.70721 4.30427 4.01685
# Velocity P-wave (km/s) = 5.48003 6.45596 5.98791
#
# Compressibility (1/GPa) = 0.03670838
#
# Stress axis : x y z
#
# Youngs Moduli (GPa) = 75.90839 30.97148 128.72387
#
# Poissons Ratio (x) = 0.13407 0.27049
# Poissons Ratio (y) = 0.32860 0.23565
# Poissons Ratio (z) = 0.15951 0.05670
#
# Static dielectric constant tensor:
#      x y z
#    x 1.883530 0.000000 0.000000 
#    y 0.000000 2.028730 0.000000 
#    z 0.000000 0.000000 1.965330 
# 
# From -- ./inp_files/8283.got.cif
#   From: 2010.05.17/outbox.cif.g08.bks.cpg/sg36_5_cif.got.tgz:8283.got - 2010.06.03 17:41:39.
