data_PCOD9352647
_publ_section_title
;
Structure prediction by ZEFSAII (Michael W. Deem and Ramdas Pophale) SiO2 
 PCOD9352647
Probable space group: C M C 21
;
_chemical_formula_sum "Si O2"
_cell_formula_units_Z 48
_cell_length_a 17.893003
_cell_length_b 14.366381
_cell_length_c 7.288422
_cell_angle_alpha 90.000000
_cell_angle_beta 90.000000
_cell_angle_gamma 90.000000
_cell_volume 1873.544984
_symmetry_space_group_name_H-M "C M C 21"
_symmetry_group_IT_number 36
_symmetry_cell_setting 'orthorhombic'
loop_
_space_group_symop_operation_xyz
x,y,z
-x,-y,1/2+z
x,-y,1/2+z
-x,y,z
1/2+x,1/2+y,z
1/2-x,1/2-y,1/2+z
1/2+x,1/2-y,1/2+z
1/2-x,1/2+y,z
loop_
_atom_site_type_symbol
_atom_site_label
_atom_site_fract_x
_atom_site_fract_y
_atom_site_fract_z
Si Si1 0.638868 0.390978 0.368060
Si Si2 0.915632 0.716689 0.801221
Si Si3 0.365100 0.583622 0.445062
Si Si4 0.128470 0.692252 0.418893
Si Si5 0.081078 0.564187 0.125272
Si Si6 0.763249 0.404323 0.671302
O O1 0.595217 0.294527 0.392890
O O2 0.594765 0.483396 0.433319
O O3 0.637744 0.184578 0.636316
O O4 0.711937 0.379547 0.498565
O O5 0.899460 0.822532 0.862395
O O6 0.913556 0.646581 0.973345
O O7 0.000000 0.711553 0.728949
O O8 0.345617 0.602871 0.653342
O O9 0.292845 0.558486 0.324009
O O10 0.080873 0.610346 0.327811
O O11 0.200004 0.682497 0.282696
O O12 0.166895 0.528554 0.120630
O O13 0.000000 0.517479 0.104383
#
# Coordination Sequence:
#
# PCOD9352647 Si02
#       6
#     8   8   8   8   8   8
#     4  12  23  40  61  91 127 157 209 260 314 377
#     4  11  22  39  61  91 128 169 209 252 311 379
#     4  12  23  41  61  90 128 165 207 258 316 386
#     4  10  22  36  62  87 123 159 203 260 309 369
#     4   9  21  37  57  88 121 156 202 257 306 366
#     4  10  24  35  64  89 118 164 204 259 321 365
#
# _framework density 25.619879999999998
#
# number of rings (size 3 to 8) (size 9 to 14) (size 15 to 20)
#    1.000    0.333    5.000    0.500    7.000    0.000 
#    0.000    4.167    0.000    1.000    0.000    0.000 
#    0.000    0.000    0.000    0.000    0.000    0.000 
#
# Total GULP energy -133859.552732 kJ/mol
# GULP energy per Si atom -5577.481364 kJ/mol
# Density = 2.556157 g / cm^3
# Si number density = 25.619880 Si / 1000 Ang^3
#
#
#
# Elastic Constant Matrix: (Units=GPa)
#
#
# Indices 1 2 3 4 5 6 
#
# 1 82.6543 2.3725 15.6015 0.0000 0.0000 0.0000
# 2 2.3725 88.5079 26.0486 0.0000 0.0000 0.0000
# 3 15.6015 26.0486 149.2452 0.0000 0.0000 0.0000
# 4 0.0000 0.0000 0.0000 37.9696 0.0000 0.0000
# 5 0.0000 0.0000 0.0000 0.0000 26.4934 0.0000
# 6 0.0000 0.0000 0.0000 0.0000 0.0000 2.2341
#
#
#
# Elastic Compliance Matrix: (Units=1/GPa)
#
#
# Indices 1 2 3 4 5 6 
#
# 1 0.012342 0.000052 -0.001299 0.000000 0.000000 0.000000
# 2 0.000052 0.011910 -0.002084 0.000000 0.000000 0.000000
# 3 -0.001299 -0.002084 0.007200 0.000000 0.000000 0.000000
# 4 0.000000 0.000000 0.000000 0.026337 0.000000 0.000000
# 5 0.000000 0.000000 0.000000 0.000000 0.037745 0.000000
# 6 0.000000 0.000000 0.000000 0.000000 0.000000 0.447610
#
#
# Mechanical properties :
#
#
# Convention : Reuss Voigt Hill
#
# Bulk Modulus (GPa) = 40.34049 45.38363 42.86206
# Shear Modulus (GPa) = 8.95942 31.76506 20.36224
#
# Velocity S-wave (km/s) = 1.87207 3.52498 2.82225
# Velocity P-wave (km/s) = 4.52248 5.85833 5.23320
#
# Compressibility (1/GPa) = 0.02478899
#
# Stress axis : x y z
#
# Youngs Moduli (GPa) = 81.02194 83.95999 138.88961
#
# Poissons Ratio (x) = -0.00433 0.18045
# Poissons Ratio (y) = -0.00417 0.28947
# Poissons Ratio (z) = 0.10526 0.17499
#
# Static dielectric constant tensor:
#      x y z
#    x 2.117100 0.000000 0.000000 
#    y 0.000000 2.200150 0.000000 
#    z 0.000000 0.000000 1.959660 
# 
# From -- ./inp_files/5271.got.cif
#   From: 2010.05.17/outbox.cif.g08.bks.cpg/sg36_3_cif.got.tgz:5271.got - 2010.06.03 17:41:39.
