data_PCOD9352536
_publ_section_title
;
Structure prediction by ZEFSAII (Michael W. Deem and Ramdas Pophale) SiO2 
 PCOD9352536
Probable space group: C M C 21
;
_chemical_formula_sum "Si O2"
_cell_formula_units_Z 48
_cell_length_a 9.044056
_cell_length_b 20.466956
_cell_length_c 14.196834
_cell_angle_alpha 90.000000
_cell_angle_beta 90.000000
_cell_angle_gamma 90.000000
_cell_volume 2627.894966
_symmetry_space_group_name_H-M "C M C 21"
_symmetry_group_IT_number 36
_symmetry_cell_setting 'orthorhombic'
loop_
_space_group_symop_operation_xyz
x,y,z
-x,-y,1/2+z
x,-y,1/2+z
-x,y,z
1/2+x,1/2+y,z
1/2-x,1/2-y,1/2+z
1/2+x,1/2-y,1/2+z
1/2-x,1/2+y,z
loop_
_atom_site_type_symbol
_atom_site_label
_atom_site_fract_x
_atom_site_fract_y
_atom_site_fract_z
Si Si1 0.822921 0.309934 0.285430
Si Si2 0.673822 0.491138 0.577081
Si Si3 0.824111 0.446918 0.754969
Si Si4 0.325973 0.436042 0.367188
Si Si5 0.321946 0.865807 0.080856
Si Si6 0.676841 0.816783 0.874781
O O1 0.752184 0.367694 0.347083
O O2 0.784926 0.326350 0.176114
O O3 0.759794 0.242124 0.323968
O O4 0.000000 0.310869 0.292910
O O5 0.500000 0.496205 0.599088
O O6 0.754275 0.444648 0.651817
O O7 0.690218 0.461037 0.473626
O O8 0.745860 0.563169 0.581549
O O9 0.751016 0.509885 0.802546
O O10 0.792974 0.383661 0.818213
O O11 0.000000 0.455523 0.749490
O O12 0.500000 0.431220 0.345306
O O13 0.500000 0.875673 0.079347
O O14 0.281511 0.828511 0.984182
O O15 0.500000 0.804895 0.871649
#
# Coordination Sequence:
#
# PCOD9352536 Si02
#       6
#     8   8   8   8   8   8
#     4  11  24  40  63  92 123 163 206 255 310 370
#     4  11  23  37  61  94 126 162 204 257 308 362
#     4  11  22  38  63  92 122 160 206 254 305 363
#     4  11  23  39  61  91 124 160 205 254 305 362
#     4  10  21  40  63  87 119 162 207 252 310 371
#     4  10  23  42  63  88 124 165 204 256 310 364
#
# _framework density 18.26557
#
# number of rings (size 3 to 8) (size 9 to 14) (size 15 to 20)
#    0.000    1.333    3.333    2.000    0.000    6.000 
#    0.000    5.000    0.000    0.000    0.000    0.000 
#    0.000    0.000    0.000    0.000    0.000    0.000 
#
# Total GULP energy -134121.282327 kJ/mol
# GULP energy per Si atom -5588.386764 kJ/mol
# Density = 1.822400 g / cm^3
# Si number density = 18.265570 Si / 1000 Ang^3
#
#
#
# Elastic Constant Matrix: (Units=GPa)
#
#
# Indices 1 2 3 4 5 6 
#
# 1 53.6006 42.3156 45.8381 0.0000 0.0000 0.0000
# 2 42.3156 78.4429 38.6587 0.0000 0.0000 0.0000
# 3 45.8381 38.6587 102.9679 0.0000 0.0000 0.0000
# 4 0.0000 0.0000 0.0000 24.9220 0.0000 0.0000
# 5 0.0000 0.0000 0.0000 0.0000 32.2691 0.0000
# 6 0.0000 0.0000 0.0000 0.0000 0.0000 35.5731
#
#
#
# Elastic Compliance Matrix: (Units=1/GPa)
#
#
# Indices 1 2 3 4 5 6 
#
# 1 0.042854 -0.016829 -0.012759 0.000000 0.000000 0.000000
# 2 -0.016829 0.022252 -0.000862 0.000000 0.000000 0.000000
# 3 -0.012759 -0.000862 0.015715 0.000000 0.000000 0.000000
# 4 0.000000 0.000000 0.000000 0.040125 0.000000 0.000000
# 5 0.000000 0.000000 0.000000 0.000000 0.030989 0.000000
# 6 0.000000 0.000000 0.000000 0.000000 0.000000 0.028111
#
#
# Mechanical properties :
#
#
# Convention : Reuss Voigt Hill
#
# Bulk Modulus (GPa) = 50.20117 54.29292 52.24704
# Shear Modulus (GPa) = 20.19496 25.76611 22.98054
#
# Velocity S-wave (km/s) = 3.32871 3.75992 3.55087
# Velocity P-wave (km/s) = 6.50519 6.97410 6.74372
#
# Compressibility (1/GPa) = 0.01991985
#
# Stress axis : x y z
#
# Youngs Moduli (GPa) = 23.33531 44.94062 63.63247
#
# Poissons Ratio (x) = 0.75632 0.81186
# Poissons Ratio (y) = 0.39272 0.05487
# Poissons Ratio (z) = 0.29773 0.03875
#
# Static dielectric constant tensor:
#      x y z
#    x 1.609460 0.000000 0.000000 
#    y 0.000000 1.580150 0.000000 
#    z 0.000000 0.000000 1.639780 
# 
# From -- ./inp_files/10338.got.cif
#   From: 2010.05.17/outbox.cif.g08.bks.cpg/sg36_6_cif.got.tgz:10338.got - 2010.06.03 17:41:39.
