data_PCOD9352230
_publ_section_title
;
Structure prediction by ZEFSAII (Michael W. Deem and Ramdas Pophale) SiO2 
 PCOD9352230
Probable space group: C M C 21
;
_chemical_formula_sum "Si O2"
_cell_formula_units_Z 64
_cell_length_a 18.996493
_cell_length_b 10.697036
_cell_length_c 16.136098
_cell_angle_alpha 90.000000
_cell_angle_beta 90.000000
_cell_angle_gamma 90.000000
_cell_volume 3278.954665
_symmetry_space_group_name_H-M "C M C 21"
_symmetry_group_IT_number 36
_symmetry_cell_setting 'orthorhombic'
loop_
_space_group_symop_operation_xyz
x,y,z
-x,-y,1/2+z
x,-y,1/2+z
-x,y,z
1/2+x,1/2+y,z
1/2-x,1/2-y,1/2+z
1/2+x,1/2-y,1/2+z
1/2-x,1/2+y,z
loop_
_atom_site_type_symbol
_atom_site_label
_atom_site_fract_x
_atom_site_fract_y
_atom_site_fract_z
Si Si1 0.673864 0.159712 0.161990
Si Si2 0.292101 0.681872 0.504139
Si Si3 0.580865 0.275326 0.305811
Si Si4 0.673705 0.705664 0.222244
Si Si5 0.421956 0.963404 0.925084
Si Si6 0.850674 0.026752 0.364590
Si Si7 0.288990 0.883063 0.368646
Si Si8 0.852315 0.602189 0.590628
O O1 0.672955 0.237517 0.076758
O O2 0.632403 0.239098 0.230586
O O3 0.755542 0.143307 0.187090
O O4 0.644162 0.021709 0.146769
O O5 0.348403 0.598144 0.452883
O O6 0.263646 0.779891 0.435270
O O7 0.225557 0.611482 0.546553
O O8 0.500000 0.291267 0.278089
O O9 0.583881 0.156494 0.366139
O O10 0.606301 0.399720 0.353411
O O11 0.633222 0.614955 0.285576
O O12 0.700381 0.816352 0.281764
O O13 0.636650 0.774013 0.145508
O O14 0.500000 0.017485 0.917199
O O15 0.361927 0.060929 0.900483
O O16 0.407025 0.915829 0.017264
O O17 0.768418 0.989633 0.358743
#
# Coordination Sequence:
#
# PCOD9352230 Si02
#       8
#     8   8   8   8   8   8   8   8
#     4  11  21  38  60  94 122 157 205 257 310 359
#     4  10  21  35  63  95 118 153 203 259 314 359
#     4  11  25  43  61  86 125 170 209 248 310 382
#     4  10  22  33  62  95 116 151 204 255 307 361
#     4  11  23  40  62  88 123 167 206 250 308 369
#     4  11  20  38  63  88 123 160 204 252 311 368
#     4  11  19  40  62  90 119 160 201 258 308 362
#     4  11  21  37  59  94 128 152 202 261 302 364
#
# _framework density 19.518415999999998
#
# number of rings (size 3 to 8) (size 9 to 14) (size 15 to 20)
#    0.000    1.250    3.750    3.000    1.750    1.500 
#    0.000    4.375    0.000    0.000    0.000    0.000 
#    0.000    0.000    0.000    0.000    0.000    0.000 
#
# Total GULP energy -178656.836750 kJ/mol
# GULP energy per Si atom -5583.026148 kJ/mol
# Density = 1.947399 g / cm^3
# Si number density = 19.518416 Si / 1000 Ang^3
#
#
#
# Elastic Constant Matrix: (Units=GPa)
#
#
# Indices 1 2 3 4 5 6 
#
# 1 38.8332 6.9277 -13.8121 0.0000 0.0000 0.0000
# 2 6.9277 51.6363 7.3565 0.0000 0.0000 0.0000
# 3 -13.8121 7.3565 60.8635 0.0000 0.0000 0.0000
# 4 0.0000 0.0000 0.0000 30.5663 0.0000 0.0000
# 5 0.0000 0.0000 0.0000 0.0000 14.1743 0.0000
# 6 0.0000 0.0000 0.0000 0.0000 0.0000 15.7152
#
#
#
# Elastic Compliance Matrix: (Units=1/GPa)
#
#
# Indices 1 2 3 4 5 6 
#
# 1 0.029204 -0.004947 0.007225 0.000000 0.000000 0.000000
# 2 -0.004947 0.020544 -0.003606 0.000000 0.000000 0.000000
# 3 0.007225 -0.003606 0.018506 0.000000 0.000000 0.000000
# 4 0.000000 0.000000 0.000000 0.032716 0.000000 0.000000
# 5 0.000000 0.000000 0.000000 0.000000 0.070550 0.000000
# 6 0.000000 0.000000 0.000000 0.000000 0.000000 0.063633
#
#
# Mechanical properties :
#
#
# Convention : Reuss Voigt Hill
#
# Bulk Modulus (GPa) = 15.24454 16.91968 16.08211
# Shear Modulus (GPa) = 19.25497 22.14857 20.70177
#
# Velocity S-wave (km/s) = 3.14427 3.37226 3.26026
# Velocity P-wave (km/s) = 4.58358 4.88367 4.73600
#
# Compressibility (1/GPa) = 0.06559728
#
# Stress axis : x y z
#
# Youngs Moduli (GPa) = 34.24226 48.67673 54.03730
#
# Poissons Ratio (x) = 0.24083 -0.39044
# Poissons Ratio (y) = 0.16941 0.19485
# Poissons Ratio (z) = -0.24741 0.17552
#
# Static dielectric constant tensor:
#      x y z
#    x 1.680640 0.000000 0.000000 
#    y 0.000000 1.699480 0.000000 
#    z 0.000000 0.000000 1.695590 
# 
# From -- ./inp_files/12619.got.cif
#   From: 2010.05.17/outbox.cif.g08.bks.cpg/sg36_7_cif.got.tgz:12619.got - 2010.06.03 17:41:39.
