data_PCOD9352287
_publ_section_title
;
Structure prediction by ZEFSAII (Michael W. Deem and Ramdas Pophale) SiO2 
 PCOD9352287
Probable space group: C M C 21
;
_chemical_formula_sum "Si O2"
_cell_formula_units_Z 64
_cell_length_a 8.991248
_cell_length_b 18.599552
_cell_length_c 21.401798
_cell_angle_alpha 90.000000
_cell_angle_beta 90.000000
_cell_angle_gamma 90.000000
_cell_volume 3579.090838
_symmetry_space_group_name_H-M "C M C 21"
_symmetry_group_IT_number 36
_symmetry_cell_setting 'orthorhombic'
loop_
_space_group_symop_operation_xyz
x,y,z
-x,-y,1/2+z
x,-y,1/2+z
-x,y,z
1/2+x,1/2+y,z
1/2-x,1/2-y,1/2+z
1/2+x,1/2-y,1/2+z
1/2-x,1/2+y,z
loop_
_atom_site_type_symbol
_atom_site_label
_atom_site_fract_x
_atom_site_fract_y
_atom_site_fract_z
Si Si1 0.171729 0.836576 0.680250
Si Si2 0.822309 0.330383 0.809521
Si Si3 0.170769 0.338261 0.174046
Si Si4 0.320657 0.173195 0.810619
Si Si5 0.678111 0.331357 0.046743
Si Si6 0.678508 0.835938 0.551847
Si Si7 0.677963 0.072273 0.928961
Si Si8 0.821307 0.082826 0.422925
O O1 0.263203 0.856422 0.741923
O O2 0.175672 0.749087 0.677110
O O3 0.243113 0.861584 0.615276
O O4 0.000000 0.858274 0.685951
O O5 0.760979 0.249199 0.818212
O O6 0.754040 0.378419 0.864223
O O7 0.000000 0.331024 0.810854
O O8 0.222732 0.360419 0.243296
O O9 0.260712 0.359595 0.112769
O O10 0.000000 0.360545 0.166021
O O11 0.500000 0.186599 0.807846
O O12 0.291001 0.121466 0.868555
O O13 0.500000 0.333109 0.049117
O O14 0.722371 0.247404 0.039957
O O15 0.725846 0.376555 0.986667
O O16 0.500000 0.836958 0.560916
O O17 0.714173 0.883496 0.491678
O O18 0.500000 0.057654 0.929316
O O19 0.767863 0.998883 0.926102
O O20 0.000000 0.087847 0.417629
#
# Coordination Sequence:
#
# PCOD9352287 Si02
#       8
#     8   8   8   8   8   8   8   8
#     4   9  17  31  52  79 109 136 166 212 267 317
#     4  11  21  34  56  83 107 135 176 221 265 317
#     4   8  15  28  50  79 106 131 163 209 260 309
#     4   9  18  35  57  81 109 139 172 214 266 317
#     4   9  18  33  54  77 102 135 172 212 259 310
#     4   9  17  32  55  80 104 134 174 218 264 315
#     4  10  21  37  55  76 107 145 182 221 265 315
#     4  11  23  38  53  73 106 145 183 223 268 316
#
# _framework density 17.881636
#
# number of rings (size 3 to 8) (size 9 to 14) (size 15 to 20)
#    0.000    2.500    0.000    3.375    0.000    7.000 
#    0.000    3.750    0.000    4.500    0.000    0.000 
#    0.000    0.000    0.000    0.000    0.000    0.000 
#
# Total GULP energy -178494.728811 kJ/mol
# GULP energy per Si atom -5577.960275 kJ/mol
# Density = 1.784094 g / cm^3
# Si number density = 17.881636 Si / 1000 Ang^3
#
#
#
# Elastic Constant Matrix: (Units=GPa)
#
#
# Indices 1 2 3 4 5 6 
#
# 1 69.3546 47.6128 79.4105 0.0000 0.0000 0.0000
# 2 47.6128 64.0372 73.6000 0.0000 0.0000 0.0000
# 3 79.4105 73.6000 204.5864 0.0000 0.0000 0.0000
# 4 0.0000 0.0000 0.0000 -6.3546 0.0000 0.0000
# 5 0.0000 0.0000 0.0000 0.0000 33.4778 0.0000
# 6 0.0000 0.0000 0.0000 0.0000 0.0000 21.4823
#
#
#
# Elastic Compliance Matrix: (Units=1/GPa)
#
#
# Indices 1 2 3 4 5 6 
#
# 1 0.034633 -0.017561 -0.007125 0.000000 0.000000 0.000000
# 2 -0.017561 0.035529 -0.005965 0.000000 0.000000 0.000000
# 3 -0.007125 -0.005965 0.009800 0.000000 0.000000 0.000000
# 4 0.000000 0.000000 0.000000 -0.157367 0.000000 0.000000
# 5 0.000000 0.000000 0.000000 0.000000 0.029871 0.000000
# 6 0.000000 0.000000 0.000000 0.000000 0.000000 0.046550
#
#
# Mechanical properties :
#
#
# Convention : Reuss Voigt Hill
#
# Bulk Modulus (GPa) = 53.59485 82.13609 67.86547
# Shear Modulus (GPa) = 75.14712 18.87809 47.01261
#
# Velocity S-wave (km/s) = 6.48968 3.25272 5.13304
# Velocity P-wave (km/s) = 9.28395 7.75499 8.55370
#
# Compressibility (1/GPa) = 0.01865851
#
# Stress axis : x y z
#
# Youngs Moduli (GPa) = 28.87442 28.14628 102.04520
#
# Poissons Ratio (x) = 0.49427 0.72710
# Poissons Ratio (y) = 0.50706 0.60872
# Poissons Ratio (z) = 0.20574 0.16790
#
# Static dielectric constant tensor:
#      x y z
#    x 1.602490 0.000000 0.000000 
#    y 0.000000 1.585580 0.000000 
#    z 0.000000 0.000000 1.617480 
# 
# From -- ./inp_files/15737.got.cif
#   From: 2010.05.17/outbox.cif.g08.bks.cpg/sg36_8_cif.got.tgz:15737.got - 2010.06.03 17:41:39.
