data_PCOD9352779
_publ_section_title
;
Structure prediction by ZEFSAII (Michael W. Deem and Ramdas Pophale) SiO2 
 PCOD9352779
Probable space group: C M C 21
;
_chemical_formula_sum "Si O2"
_cell_formula_units_Z 36
_cell_length_a 10.599612
_cell_length_b 24.430139
_cell_length_c 5.171270
_cell_angle_alpha 90.000000
_cell_angle_beta 90.000000
_cell_angle_gamma 90.000000
_cell_volume 1339.100338
_symmetry_space_group_name_H-M "C M C 21"
_symmetry_group_IT_number 36
_symmetry_cell_setting 'orthorhombic'
loop_
_space_group_symop_operation_xyz
x,y,z
-x,-y,1/2+z
x,-y,1/2+z
-x,y,z
1/2+x,1/2+y,z
1/2-x,1/2-y,1/2+z
1/2+x,1/2-y,1/2+z
1/2-x,1/2+y,z
loop_
_atom_site_type_symbol
_atom_site_label
_atom_site_fract_x
_atom_site_fract_y
_atom_site_fract_z
Si Si1 0.866448 0.623484 0.968100
Si Si2 0.145560 0.165675 0.256171
Si Si3 0.364559 0.213085 0.592737
Si Si4 0.000000 0.033414 0.685998
Si Si5 0.279240 0.962639 0.100980
O O1 0.872668 0.686440 0.877063
O O2 0.858720 0.587647 0.706915
O O3 0.000000 0.607439 0.093818
O O4 0.734634 0.620308 0.120600
O O5 0.237212 0.187561 0.481271
O O6 0.136573 0.221654 0.089599
O O7 0.000000 0.150159 0.311534
O O8 0.500000 0.197323 0.467317
O O9 0.134432 0.058471 0.618943
O O10 0.000000 0.981322 0.489128
O O11 0.298939 0.008784 0.325748
#
# Coordination Sequence:
#
# PCOD9352779 Si02
#       5
#     8   8   8   4   8
#     4  11  25  43  66  94 131 178 222 275 342 406
#     4  11  23  40  65  97 131 174 224 277 333 407
#     4  10  22  41  63  92 133 175 219 274 339 403
#     4   8  16  36  62  86 124 166 210 274 340 390
#     4  10  23  43  66  97 133 177 229 288 346 410
#
# _framework density 26.883721999999999
#
# number of rings (size 3 to 8) (size 9 to 14) (size 15 to 20)
#    0.000    1.778    2.222    0.667    4.667    2.667 
#    0.000    0.000    0.000    0.000    0.000    0.000 
#    0.000    0.000    0.000    0.000    0.000    0.000 
#
# Total GULP energy -100499.749774 kJ/mol
# GULP energy per Si atom -5583.319432 kJ/mol
# Density = 2.682253 g / cm^3
# Si number density = 26.883722 Si / 1000 Ang^3
#
#
#
# Elastic Constant Matrix: (Units=GPa)
#
#
# Indices 1 2 3 4 5 6 
#
# 1 275.5149 39.0618 43.0163 0.0000 0.0000 0.0000
# 2 39.0618 98.6808 24.3901 0.0000 0.0000 0.0000
# 3 43.0163 24.3901 86.4422 0.0000 0.0000 0.0000
# 4 0.0000 0.0000 0.0000 51.2051 0.0000 0.0000
# 5 0.0000 0.0000 0.0000 0.0000 34.9700 0.0000
# 6 0.0000 0.0000 0.0000 0.0000 0.0000 16.2978
#
#
#
# Elastic Compliance Matrix: (Units=1/GPa)
#
#
# Indices 1 2 3 4 5 6 
#
# 1 0.004062 -0.001191 -0.001685 0.000000 0.000000 0.000000
# 2 -0.001191 0.011243 -0.002579 0.000000 0.000000 0.000000
# 3 -0.001685 -0.002579 0.013135 0.000000 0.000000 0.000000
# 4 0.000000 0.000000 0.000000 0.019529 0.000000 0.000000
# 5 0.000000 0.000000 0.000000 0.000000 0.028596 0.000000
# 6 0.000000 0.000000 0.000000 0.000000 0.000000 0.061358
#
#
# Mechanical properties :
#
#
# Convention : Reuss Voigt Hill
#
# Bulk Modulus (GPa) = 57.05261 74.84159 65.94710
# Shear Modulus (GPa) = 32.32560 44.10588 38.21574
#
# Velocity S-wave (km/s) = 3.47136 4.05485 3.77439
# Velocity P-wave (km/s) = 6.11025 7.05846 6.60140
#
# Compressibility (1/GPa) = 0.01752768
#
# Stress axis : x y z
#
# Youngs Moduli (GPa) = 246.21172 88.94618 76.13399
#
# Poissons Ratio (x) = 0.10596 0.12829
# Poissons Ratio (y) = 0.29330 0.19638
# Poissons Ratio (z) = 0.41488 0.22943
#
# Static dielectric constant tensor:
#      x y z
#    x 2.169210 0.000000 0.000000 
#    y 0.000000 2.084780 0.000000 
#    z 0.000000 0.000000 2.171370 
# 
# From -- ./inp_files/470.got.cif
#   From: 2010.05.17/outbox.cif.g08.bks.cpg/sg36_1_cif.got.tgz:470.got - 2010.06.03 17:41:39.
