data_PCOD9352611
_publ_section_title
;
Structure prediction by ZEFSAII (Michael W. Deem and Ramdas Pophale) SiO2 
 PCOD9352611
Probable space group: C M C 21
;
_chemical_formula_sum "Si O2"
_cell_formula_units_Z 60
_cell_length_a 17.580692
_cell_length_b 16.291057
_cell_length_c 9.782902
_cell_angle_alpha 90.000000
_cell_angle_beta 90.000000
_cell_angle_gamma 90.000000
_cell_volume 2801.901939
_symmetry_space_group_name_H-M "C M C 21"
_symmetry_group_IT_number 36
_symmetry_cell_setting 'orthorhombic'
loop_
_space_group_symop_operation_xyz
x,y,z
-x,-y,1/2+z
x,-y,1/2+z
-x,y,z
1/2+x,1/2+y,z
1/2-x,1/2-y,1/2+z
1/2+x,1/2-y,1/2+z
1/2-x,1/2+y,z
loop_
_atom_site_type_symbol
_atom_site_label
_atom_site_fract_x
_atom_site_fract_y
_atom_site_fract_z
Si Si1 0.589275 0.457728 0.770020
Si Si2 0.000000 0.658183 0.521232
Si Si3 0.650344 0.585713 0.978266
Si Si4 0.084793 0.229930 0.833241
Si Si5 0.860741 0.406745 0.190770
Si Si6 0.270730 0.275656 0.142629
Si Si7 0.783056 0.151422 0.353973
Si Si8 0.809775 0.490327 0.444847
O O1 0.500000 0.449175 0.774426
O O2 0.616297 0.538994 0.846664
O O3 0.618053 0.455208 0.614778
O O4 0.632334 0.384177 0.847044
O O5 0.065989 0.682530 0.403125
O O6 0.067101 0.641459 0.634646
O O7 0.618636 0.676637 0.958420
O O8 0.739804 0.570587 0.974159
O O9 0.145891 0.222790 0.713146
O O10 0.000000 0.198508 0.795411
O O11 0.784351 0.350870 0.186901
O O12 0.865922 0.446691 0.339726
O O13 0.847923 0.480552 0.083592
O O14 0.234861 0.195466 0.211908
O O15 0.274835 0.285639 0.979656
O O16 0.729343 0.072314 0.379788
#
# Coordination Sequence:
#
# PCOD9352611 Si02
#       8
#     8   4   8   8   8   8   8   8
#     4  11  24  38  60  97 139 179 224 286 357 425
#     4  10  26  44  68 104 142 190 240 302 364 432
#     4  11  22  40  63  98 137 181 229 292 353 431
#     4  10  22  39  69  98 136 185 234 286 375 431
#     4  11  23  43  70  99 140 183 245 291 365 429
#     4  11  23  44  65 100 137 194 234 300 361 447
#     4  10  25  38  66  95 137 180 249 290 356 435
#     4  10  21  41  68  99 129 181 242 294 348 428
#
# _framework density 21.414027000000001
#
# number of rings (size 3 to 8) (size 9 to 14) (size 15 to 20)
#    0.400    1.067    1.333    4.400    7.467    2.133 
#    0.000    0.000    0.000    0.000    0.000    0.000 
#    0.000    0.000    0.000    0.000    0.000    0.000 
#
# Total GULP energy -167047.842934 kJ/mol
# GULP energy per Si atom -5568.261431 kJ/mol
# Density = 2.136529 g / cm^3
# Si number density = 21.414027 Si / 1000 Ang^3
#
#
#
# Elastic Constant Matrix: (Units=GPa)
#
#
# Indices 1 2 3 4 5 6 
#
# 1 100.4243 21.8192 25.4009 0.0000 0.0000 0.0000
# 2 21.8192 28.7436 16.5206 0.0000 0.0000 0.0000
# 3 25.4009 16.5206 57.1678 0.0000 0.0000 0.0000
# 4 0.0000 0.0000 0.0000 42.8356 0.0000 0.0000
# 5 0.0000 0.0000 0.0000 0.0000 35.0576 0.0000
# 6 0.0000 0.0000 0.0000 0.0000 0.0000 18.1456
#
#
#
# Elastic Compliance Matrix: (Units=1/GPa)
#
#
# Indices 1 2 3 4 5 6 
#
# 1 0.012439 -0.007514 -0.003356 0.000000 0.000000 0.000000
# 2 -0.007514 0.046259 -0.010030 0.000000 0.000000 0.000000
# 3 -0.003356 -0.010030 0.021882 0.000000 0.000000 0.000000
# 4 0.000000 0.000000 0.000000 0.023345 0.000000 0.000000
# 5 0.000000 0.000000 0.000000 0.000000 0.028524 0.000000
# 6 0.000000 0.000000 0.000000 0.000000 0.000000 0.055110
#
#
# Mechanical properties :
#
#
# Convention : Reuss Voigt Hill
#
# Bulk Modulus (GPa) = 25.78542 34.86857 30.32700
# Shear Modulus (GPa) = 20.63698 27.38076 24.00887
#
# Velocity S-wave (km/s) = 3.10774 3.57968 3.35203
# Velocity P-wave (km/s) = 4.99449 5.77961 5.40133
#
# Compressibility (1/GPa) = 0.03878161
#
# Stress axis : x y z
#
# Youngs Moduli (GPa) = 80.39223 21.61760 45.70033
#
# Poissons Ratio (x) = 0.16243 0.15335
# Poissons Ratio (y) = 0.60405 0.45835
# Poissons Ratio (z) = 0.26976 0.21681
#
# Static dielectric constant tensor:
#      x y z
#    x 1.756210 0.000000 0.000000 
#    y 0.000000 1.829380 0.000000 
#    z 0.000000 0.000000 1.755700 
# 
# From -- ./inp_files/4821.got.cif
#   From: 2010.05.17/outbox.cif.g08.bks.cpg/sg36_3_cif.got.tgz:4821.got - 2010.06.03 17:41:39.
