data_PCOD9352599
_publ_section_title
;
Structure prediction by ZEFSAII (Michael W. Deem and Ramdas Pophale) SiO2 
 PCOD9352599
Probable space group: C M C 21
;
_chemical_formula_sum "Si O2"
_cell_formula_units_Z 60
_cell_length_a 12.776323
_cell_length_b 23.145469
_cell_length_c 9.479461
_cell_angle_alpha 90.000000
_cell_angle_beta 90.000000
_cell_angle_gamma 90.000000
_cell_volume 2803.209216
_symmetry_space_group_name_H-M "C M C 21"
_symmetry_group_IT_number 36
_symmetry_cell_setting 'orthorhombic'
loop_
_space_group_symop_operation_xyz
x,y,z
-x,-y,1/2+z
x,-y,1/2+z
-x,y,z
1/2+x,1/2+y,z
1/2-x,1/2-y,1/2+z
1/2+x,1/2-y,1/2+z
1/2-x,1/2+y,z
loop_
_atom_site_type_symbol
_atom_site_label
_atom_site_fract_x
_atom_site_fract_y
_atom_site_fract_z
Si Si1 0.716906 0.747917 0.157220
Si Si2 0.166815 0.540415 0.452780
Si Si3 0.658045 0.094277 0.980577
Si Si4 0.383303 0.367501 0.562092
Si Si5 0.117751 0.631817 0.672427
Si Si6 0.621348 0.720778 0.455153
Si Si7 0.500000 0.096117 0.232193
Si Si8 0.114059 0.089177 0.384638
O O1 0.646449 0.699935 0.079987
O O2 0.680593 0.812557 0.124292
O O3 0.695690 0.737124 0.322619
O O4 0.833277 0.747515 0.092900
O O5 0.136331 0.473934 0.464807
O O6 0.154878 0.572515 0.602458
O O7 0.287687 0.548744 0.411399
O O8 0.091839 0.572686 0.342562
O O9 0.622453 0.126260 0.839864
O O10 0.782757 0.103952 0.990671
O O11 0.592560 0.113178 0.116371
O O12 0.500000 0.374457 0.500250
O O13 0.386112 0.393021 0.720372
O O14 0.000000 0.641224 0.625287
O O15 0.500000 0.735817 0.424281
O O16 0.624395 0.650822 0.464893
O O17 0.000000 0.063884 0.420206
#
# Coordination Sequence:
#
# PCOD9352599 Si02
#       8
#     8   8   8   8   8   8   4   8
#     4  11  22  43  71  96 135 181 228 280 343 413
#     4  12  24  41  68  99 132 179 227 274 342 417
#     4  12  26  42  68 100 141 178 224 290 347 402
#     4  10  22  43  68  95 130 180 232 279 332 405
#     4  12  25  41  64 102 138 174 221 287 348 402
#     4  10  21  41  65  96 133 175 222 282 341 405
#     4  12  24  44  66  98 136 182 224 274 342 420
#     4   9  19  40  66  89 124 172 229 274 326 400
#
# _framework density 21.404040999999999
#
# number of rings (size 3 to 8) (size 9 to 14) (size 15 to 20)
#    0.000    1.067    4.000    4.000    1.867    0.533 
#    1.200    4.667    0.000    0.000    0.000    0.000 
#    0.000    0.000    0.000    0.000    0.000    0.000 
#
# Total GULP energy -167090.591941 kJ/mol
# GULP energy per Si atom -5569.686398 kJ/mol
# Density = 2.135532 g / cm^3
# Si number density = 21.404041 Si / 1000 Ang^3
#
#
#
# Elastic Constant Matrix: (Units=GPa)
#
#
# Indices 1 2 3 4 5 6 
#
# 1 115.7507 2.5164 20.0473 0.0000 0.0000 0.0000
# 2 2.5164 43.4583 12.9614 0.0000 0.0000 0.0000
# 3 20.0473 12.9614 43.0074 0.0000 0.0000 0.0000
# 4 0.0000 0.0000 0.0000 12.9809 0.0000 0.0000
# 5 0.0000 0.0000 0.0000 0.0000 27.3248 0.0000
# 6 0.0000 0.0000 0.0000 0.0000 0.0000 -49.2279
#
#
#
# Elastic Compliance Matrix: (Units=1/GPa)
#
#
# Indices 1 2 3 4 5 6 
#
# 1 0.009426 0.000840 -0.004647 0.000000 0.000000 0.000000
# 2 0.000840 0.025358 -0.008034 0.000000 0.000000 0.000000
# 3 -0.004647 -0.008034 0.027839 0.000000 0.000000 0.000000
# 4 0.000000 0.000000 0.000000 0.077036 0.000000 0.000000
# 5 0.000000 0.000000 0.000000 0.000000 0.036597 0.000000
# 6 0.000000 0.000000 0.000000 0.000000 0.000000 -0.020314
#
#
# Mechanical properties :
#
#
# Convention : Reuss Voigt Hill
#
# Bulk Modulus (GPa) = 25.67949 30.36296 28.02123
# Shear Modulus (GPa) = 25.96001 9.32831 17.64416
#
# Velocity S-wave (km/s) = 3.48639 2.08990 2.87424
# Velocity P-wave (km/s) = 5.31320 4.47660 4.91274
#
# Compressibility (1/GPa) = 0.03894159
#
# Stress axis : x y z
#
# Youngs Moduli (GPa) = 106.09165 39.43531 35.92071
#
# Poissons Ratio (x) = -0.03313 0.16692
# Poissons Ratio (y) = -0.08913 0.28858
# Poissons Ratio (z) = 0.49300 0.31682
#
# Static dielectric constant tensor:
#      x y z
#    x 1.867700 0.000000 0.000000 
#    y 0.000000 1.789490 0.000000 
#    z 0.000000 0.000000 1.777720 
# 
# From -- ./inp_files/3467.got.cif
#   From: 2010.05.17/outbox.cif.g08.bks.cpg/sg36_2_cif.got.tgz:3467.got - 2010.06.03 17:41:39.
