data_PCOD9352539
_publ_section_title
;
Structure prediction by ZEFSAII (Michael W. Deem and Ramdas Pophale) SiO2 
 PCOD9352539
Probable space group: C M C 21
;
_chemical_formula_sum "Si O2"
_cell_formula_units_Z 48
_cell_length_a 17.316709
_cell_length_b 14.649102
_cell_length_c 8.209600
_cell_angle_alpha 90.000000
_cell_angle_beta 90.000000
_cell_angle_gamma 90.000000
_cell_volume 2082.564012
_symmetry_space_group_name_H-M "C M C 21"
_symmetry_group_IT_number 36
_symmetry_cell_setting 'orthorhombic'
loop_
_space_group_symop_operation_xyz
x,y,z
-x,-y,1/2+z
x,-y,1/2+z
-x,y,z
1/2+x,1/2+y,z
1/2-x,1/2-y,1/2+z
1/2+x,1/2-y,1/2+z
1/2-x,1/2+y,z
loop_
_atom_site_type_symbol
_atom_site_label
_atom_site_fract_x
_atom_site_fract_y
_atom_site_fract_z
Si Si1 0.586360 0.391884 0.804990
Si Si2 0.091391 0.368218 0.688902
Si Si3 0.352891 0.965315 0.016275
Si Si4 0.854931 0.716885 0.678429
Si Si5 0.814173 0.791821 0.318923
Si Si6 0.673777 0.536719 0.615531
O O1 0.500000 0.428228 0.788878
O O2 0.587855 0.284609 0.768644
O O3 0.641389 0.440631 0.673757
O O4 0.621171 0.417446 0.978656
O O5 0.111002 0.435479 0.541202
O O6 0.137058 0.273377 0.697547
O O7 0.000000 0.354141 0.705752
O O8 0.125616 0.425905 0.840991
O O9 0.381165 0.886278 0.141643
O O10 0.260898 0.969160 0.048063
O O11 0.835593 0.758607 0.499091
O O12 0.775976 0.720385 0.780909
O O13 0.829803 0.896403 0.272298
#
# Coordination Sequence:
#
# PCOD9352539 Si02
#       6
#     8   8   8   8   8   8
#     4  12  25  40  62  92 126 160 202 261 323 377
#     4  11  23  38  59  89 123 155 193 247 307 359
#     4  10  22  40  63  86 116 160 204 245 292 359
#     4  10  21  40  63  89 120 160 209 255 304 367
#     4  10  22  40  64  89 120 162 208 255 304 368
#     4  11  23  42  65  89 119 163 212 255 304 374
#
# _framework density 23.04851
#
# number of rings (size 3 to 8) (size 9 to 14) (size 15 to 20)
#    0.000    1.333    0.000    7.000    0.000   10.000 
#    0.000    0.000    0.000    0.000    0.000    0.000 
#    0.000    0.000    0.000    0.000    0.000    0.000 
#
# Total GULP energy -134357.267098 kJ/mol
# GULP energy per Si atom -5598.219462 kJ/mol
# Density = 2.299605 g / cm^3
# Si number density = 23.048510 Si / 1000 Ang^3
#
#
#
# Elastic Constant Matrix: (Units=GPa)
#
#
# Indices 1 2 3 4 5 6 
#
# 1 55.7805 11.7861 -13.1353 0.0000 0.0000 0.0000
# 2 11.7861 88.3566 -4.4797 0.0000 0.0000 0.0000
# 3 -13.1353 -4.4797 55.8163 0.0000 0.0000 0.0000
# 4 0.0000 0.0000 0.0000 22.1736 0.0000 0.0000
# 5 0.0000 0.0000 0.0000 0.0000 9.8297 0.0000
# 6 0.0000 0.0000 0.0000 0.0000 0.0000 -29.2867
#
#
#
# Elastic Compliance Matrix: (Units=1/GPa)
#
#
# Indices 1 2 3 4 5 6 
#
# 1 0.019463 -0.002374 0.004390 0.000000 0.000000 0.000000
# 2 -0.002374 0.011653 0.000377 0.000000 0.000000 0.000000
# 3 0.004390 0.000377 0.018979 0.000000 0.000000 0.000000
# 4 0.000000 0.000000 0.000000 0.045099 0.000000 0.000000
# 5 0.000000 0.000000 0.000000 0.000000 0.101732 0.000000
# 6 0.000000 0.000000 0.000000 0.000000 0.000000 -0.034145
#
#
# Mechanical properties :
#
#
# Convention : Reuss Voigt Hill
#
# Bulk Modulus (GPa) = 18.22131 20.92172 19.57152
# Shear Modulus (GPa) = 28.36255 14.26216 21.31235
#
# Velocity S-wave (km/s) = 3.51174 2.49025 3.04414
# Velocity P-wave (km/s) = 4.93618 4.16718 4.56789
#
# Compressibility (1/GPa) = 0.05488080
#
# Stress axis : x y z
#
# Youngs Moduli (GPa) = 51.38051 85.81119 52.68937
#
# Poissons Ratio (x) = 0.20368 -0.23129
# Poissons Ratio (y) = 0.12196 -0.01985
# Poissons Ratio (z) = -0.22554 -0.03233
#
# Static dielectric constant tensor:
#      x y z
#    x 1.795710 0.000000 0.000000 
#    y 0.000000 1.870330 0.000000 
#    z 0.000000 0.000000 1.897880 
# 
# From -- ./inp_files/4638.got.cif
#   From: 2010.05.17/outbox.cif.g08.bks.cpg/sg36_3_cif.got.tgz:4638.got - 2010.06.03 17:41:39.
