data_PCOD9352081
_publ_section_title
;
Structure prediction by ZEFSAII (Michael W. Deem and Ramdas Pophale) SiO2 
 PCOD9352081
Probable space group: C M C 21
;
_chemical_formula_sum "Si O2"
_cell_formula_units_Z 56
_cell_length_a 13.855663
_cell_length_b 15.010753
_cell_length_c 13.690184
_cell_angle_alpha 90.000000
_cell_angle_beta 90.000000
_cell_angle_gamma 90.000000
_cell_volume 2847.338338
_symmetry_space_group_name_H-M "C M C 21"
_symmetry_group_IT_number 36
_symmetry_cell_setting 'orthorhombic'
loop_
_space_group_symop_operation_xyz
x,y,z
-x,-y,1/2+z
x,-y,1/2+z
-x,y,z
1/2+x,1/2+y,z
1/2-x,1/2-y,1/2+z
1/2+x,1/2-y,1/2+z
1/2-x,1/2+y,z
loop_
_atom_site_type_symbol
_atom_site_label
_atom_site_fract_x
_atom_site_fract_y
_atom_site_fract_z
Si Si1 0.714016 0.006415 0.741400
Si Si2 0.210529 0.734292 0.446231
Si Si3 0.392420 0.491353 0.113348
Si Si4 0.391266 0.290877 0.062422
Si Si5 0.263646 0.440109 0.457699
Si Si6 0.885420 0.572770 0.559171
Si Si7 0.385326 0.819898 0.750937
O O1 0.643649 0.923014 0.757549
O O2 0.810318 0.973406 0.685459
O O3 0.746284 0.047318 0.843342
O O4 0.658754 0.072979 0.668193
O O5 0.318052 0.702059 0.472993
O O6 0.215541 0.836798 0.478342
O O7 0.142905 0.664566 0.504905
O O8 0.175960 0.728444 0.334887
O O9 0.500000 0.524265 0.131733
O O10 0.391097 0.384356 0.120116
O O11 0.356335 0.511537 0.003987
O O12 0.500000 0.272518 0.029063
O O13 0.363353 0.217632 0.143225
O O14 0.171991 0.490065 0.508277
O O15 0.000000 0.559201 0.558160
O O16 0.500000 0.807605 0.767413
#
# Coordination Sequence:
#
# PCOD9352081 Si02
#       7
#     8   8   8   8   8   8   8
#     4  11  21  41  64  95 130 175 216 275 331 394
#     4  12  23  40  68  94 130 172 221 275 325 397
#     4  10  21  39  61  89 126 166 213 271 327 387
#     4  10  20  39  63  90 124 170 219 267 327 395
#     4  11  24  41  66  94 134 175 218 269 337 392
#     4  11  24  44  68  98 134 172 224 282 334 393
#     4  11  23  40  68  98 130 178 229 267 331 410
#
# _framework density 19.667490000000001
#
# number of rings (size 3 to 8) (size 9 to 14) (size 15 to 20)
#    0.000    1.143    4.286    3.429    0.000    4.000 
#    0.000    0.714    0.000    0.000    0.000    0.000 
#    0.000    0.000    0.000    0.000    0.000    0.000 
#
# Total GULP energy -156219.531252 kJ/mol
# GULP energy per Si atom -5579.268973 kJ/mol
# Density = 1.962273 g / cm^3
# Si number density = 19.667490 Si / 1000 Ang^3
#
#
#
# Elastic Constant Matrix: (Units=GPa)
#
#
# Indices 1 2 3 4 5 6 
#
# 1 144.5980 9.4956 55.6219 0.0000 0.0000 0.0000
# 2 9.4956 81.6076 11.6547 0.0000 0.0000 0.0000
# 3 55.6219 11.6547 73.0804 0.0000 0.0000 0.0000
# 4 0.0000 0.0000 0.0000 14.1864 0.0000 0.0000
# 5 0.0000 0.0000 0.0000 0.0000 19.9315 0.0000
# 6 0.0000 0.0000 0.0000 0.0000 0.0000 20.3758
#
#
#
# Elastic Compliance Matrix: (Units=1/GPa)
#
#
# Indices 1 2 3 4 5 6 
#
# 1 0.009779 -0.000077 -0.007431 0.000000 0.000000 0.000000
# 2 -0.000077 0.012540 -0.001942 0.000000 0.000000 0.000000
# 3 -0.007431 -0.001942 0.019649 0.000000 0.000000 0.000000
# 4 0.000000 0.000000 0.000000 0.070490 0.000000 0.000000
# 5 0.000000 0.000000 0.000000 0.000000 0.050172 0.000000
# 6 0.000000 0.000000 0.000000 0.000000 0.000000 0.049078
#
#
# Mechanical properties :
#
#
# Convention : Reuss Voigt Hill
#
# Bulk Modulus (GPa) = 43.34622 50.31450 46.83036
# Shear Modulus (GPa) = 20.98238 25.73299 23.35769
#
# Velocity S-wave (km/s) = 3.26982 3.62111 3.44994
# Velocity P-wave (km/s) = 6.02852 6.56668 6.30335
#
# Compressibility (1/GPa) = 0.02307006
#
# Stress axis : x y z
#
# Youngs Moduli (GPa) = 102.25901 79.74510 50.89386
#
# Poissons Ratio (x) = 0.00611 0.37818
# Poissons Ratio (y) = 0.00784 0.09881
# Poissons Ratio (z) = 0.75986 0.15483
#
# Static dielectric constant tensor:
#      x y z
#    x 1.685230 0.000000 0.000000 
#    y 0.000000 1.745840 0.000000 
#    z 0.000000 0.000000 1.705350 
# 
# From -- ./inp_files/8480.got.cif
#   From: 2010.05.17/outbox.cif.g08.bks.cpg/sg36_5_cif.got.tgz:8480.got - 2010.06.03 17:41:39.
