data_PCOD9352241
_publ_section_title
;
Structure prediction by ZEFSAII (Michael W. Deem and Ramdas Pophale) SiO2 
 PCOD9352241
Probable space group: C M C 21
;
_chemical_formula_sum "Si O2"
_cell_formula_units_Z 64
_cell_length_a 19.418791
_cell_length_b 8.973986
_cell_length_c 17.168739
_cell_angle_alpha 90.000000
_cell_angle_beta 90.000000
_cell_angle_gamma 90.000000
_cell_volume 2991.892422
_symmetry_space_group_name_H-M "C M C 21"
_symmetry_group_IT_number 36
_symmetry_cell_setting 'orthorhombic'
loop_
_space_group_symop_operation_xyz
x,y,z
-x,-y,1/2+z
x,-y,1/2+z
-x,y,z
1/2+x,1/2+y,z
1/2-x,1/2-y,1/2+z
1/2+x,1/2-y,1/2+z
1/2-x,1/2+y,z
loop_
_atom_site_type_symbol
_atom_site_label
_atom_site_fract_x
_atom_site_fract_y
_atom_site_fract_z
Si Si1 0.420490 0.712766 0.790410
Si Si2 0.195276 0.324840 0.279602
Si Si3 0.219586 0.802314 0.614936
Si Si4 0.190217 0.014270 0.359952
Si Si5 0.719523 0.021456 0.507849
Si Si6 0.923523 0.416378 0.939762
Si Si7 0.080614 0.485359 0.703690
Si Si8 0.925011 0.749918 0.590888
O O1 0.500000 0.663374 0.781430
O O2 0.372996 0.582010 0.825154
O O3 0.417511 0.842537 0.855761
O O4 0.398561 0.811586 0.714363
O O5 0.230137 0.264544 0.199882
O O6 0.183946 0.186811 0.337151
O O7 0.245034 0.447206 0.314326
O O8 0.124940 0.405714 0.257501
O O9 0.271240 0.926116 0.586174
O O10 0.221693 0.686329 0.543411
O O11 0.138726 0.848888 0.617625
O O12 0.215702 0.998506 0.449536
O O13 0.646870 0.998636 0.463038
O O14 0.000000 0.489532 0.947037
O O15 0.925438 0.275646 0.999051
O O16 0.085186 0.579418 0.623047
O O17 0.000000 0.487212 0.723650
O O18 0.000000 0.801790 0.617822
#
# Coordination Sequence:
#
# PCOD9352241 Si02
#       8
#     8   8   8   8   8   8   8   8
#     4  10  21  37  57  82 113 148 187 234 289 345
#     4  11  22  36  56  83 116 152 190 235 284 336
#     4  10  21  36  55  80 110 147 185 229 281 333
#     4  12  23  36  56  83 114 150 190 234 284 337
#     4  11  21  36  56  80 110 143 185 231 279 334
#     4   9  17  31  53  77 101 134 177 223 271 325
#     4   9  18  34  56  81 110 145 186 232 282 337
#     4   8  15  30  53  78 102 135 180 222 264 321
#
# _framework density 21.391144000000001
#
# number of rings (size 3 to 8) (size 9 to 14) (size 15 to 20)
#    0.000    2.000    0.000    5.250    0.000    2.500 
#    0.000    0.000    0.000    3.000    0.000    0.000 
#    0.000    0.000    0.000    0.000    0.000    0.000 
#
# Total GULP energy -178294.105092 kJ/mol
# GULP energy per Si atom -5571.690784 kJ/mol
# Density = 2.134246 g / cm^3
# Si number density = 21.391144 Si / 1000 Ang^3
#
#
#
# Elastic Constant Matrix: (Units=GPa)
#
#
# Indices 1 2 3 4 5 6 
#
# 1 86.6571 21.3523 -17.3889 0.0000 0.0000 0.0000
# 2 21.3523 45.7186 -13.4501 0.0000 0.0000 0.0000
# 3 -17.3889 -13.4501 36.9526 0.0000 0.0000 0.0000
# 4 0.0000 0.0000 0.0000 26.7671 0.0000 0.0000
# 5 0.0000 0.0000 0.0000 0.0000 26.9446 0.0000
# 6 0.0000 0.0000 0.0000 0.0000 0.0000 27.2841
#
#
#
# Elastic Compliance Matrix: (Units=1/GPa)
#
#
# Indices 1 2 3 4 5 6 
#
# 1 0.013709 -0.005045 0.004615 0.000000 0.000000 0.000000
# 2 -0.005045 0.026353 0.007218 0.000000 0.000000 0.000000
# 3 0.004615 0.007218 0.031860 0.000000 0.000000 0.000000
# 4 0.000000 0.000000 0.000000 0.037359 0.000000 0.000000
# 5 0.000000 0.000000 0.000000 0.000000 0.037113 0.000000
# 6 0.000000 0.000000 0.000000 0.000000 0.000000 0.036651
#
#
# Mechanical properties :
#
#
# Convention : Reuss Voigt Hill
#
# Bulk Modulus (GPa) = 11.69632 16.70612 14.20122
# Shear Modulus (GPa) = 25.25645 28.12017 26.68831
#
# Velocity S-wave (km/s) = 3.43985 3.62963 3.53602
# Velocity P-wave (km/s) = 4.61048 5.03909 4.82954
#
# Compressibility (1/GPa) = 0.08549701
#
# Stress axis : x y z
#
# Youngs Moduli (GPa) = 72.94577 37.94699 31.38694
#
# Poissons Ratio (x) = 0.19144 -0.14484
# Poissons Ratio (y) = 0.36801 -0.22655
# Poissons Ratio (z) = -0.33662 -0.27389
#
# Static dielectric constant tensor:
#      x y z
#    x 1.839490 0.000000 0.000000 
#    y 0.000000 1.781650 0.000000 
#    z 0.000000 0.000000 1.819150 
# 
# From -- ./inp_files/16228.got.cif
#   From: 2010.05.17/outbox.cif.g08.bks.cpg/sg36_9_cif.got.tgz:16228.got - 2010.06.03 17:41:39.
