data_PCOD9352079
_publ_section_title
;
Structure prediction by ZEFSAII (Michael W. Deem and Ramdas Pophale) SiO2 
 PCOD9352079
Probable space group: C M C 21
;
_chemical_formula_sum "Si O2"
_cell_formula_units_Z 56
_cell_length_a 14.868388
_cell_length_b 28.999398
_cell_length_c 5.481643
_cell_angle_alpha 90.000000
_cell_angle_beta 90.000000
_cell_angle_gamma 90.000000
_cell_volume 2363.543590
_symmetry_space_group_name_H-M "C M C 21"
_symmetry_group_IT_number 36
_symmetry_cell_setting 'orthorhombic'
loop_
_space_group_symop_operation_xyz
x,y,z
-x,-y,1/2+z
x,-y,1/2+z
-x,y,z
1/2+x,1/2+y,z
1/2-x,1/2-y,1/2+z
1/2+x,1/2-y,1/2+z
1/2-x,1/2+y,z
loop_
_atom_site_type_symbol
_atom_site_label
_atom_site_fract_x
_atom_site_fract_y
_atom_site_fract_z
Si Si1 0.106348 0.527601 0.601560
Si Si2 0.895675 0.753972 0.334277
Si Si3 0.741092 0.189096 0.613602
Si Si4 0.905967 0.333712 0.485027
Si Si5 0.101835 0.954122 0.032643
Si Si6 0.187295 0.606072 0.319648
Si Si7 0.166930 0.056969 0.031073
O O1 0.124458 0.495821 0.362101
O O2 0.162091 0.573491 0.544176
O O3 0.000000 0.538078 0.597566
O O4 0.837382 0.794409 0.209278
O O5 0.825053 0.731579 0.529869
O O6 0.904532 0.714125 0.131184
O O7 0.000000 0.764079 0.414177
O O8 0.743552 0.150994 0.401340
O O9 0.682111 0.165569 0.823406
O O10 0.000000 0.337188 0.342829
O O11 0.899304 0.373547 0.685833
O O12 0.136552 0.926108 0.265803
O O13 0.000000 0.968074 0.089221
O O14 0.158824 0.001360 0.009462
O O15 0.106389 0.931009 0.768307
O O16 0.239646 0.575962 0.122821
#
# Coordination Sequence:
#
# PCOD9352079 Si02
#       7
#     8   8   8   8   8   8   8
#     4  10  24  43  65  93 133 185 235 290 353 419
#     4  10  21  41  69 102 134 177 226 276 346 427
#     4  11  22  42  68 101 139 179 227 290 343 436
#     4  10  22  41  69  97 130 176 224 279 347 419
#     4  10  20  39  63  87 116 165 234 290 333 409
#     4  11  26  38  63  95 140 170 231 286 355 416
#     4  10  21  34  61  89 120 164 214 277 346 394
#
# _framework density 23.693235000000001
#
# number of rings (size 3 to 8) (size 9 to 14) (size 15 to 20)
#    0.000    1.714    1.429    3.000    8.000    1.714 
#    0.000    2.143    0.000    0.000    0.000    0.000 
#    0.000    0.000    0.000    0.000    0.000    0.000 
#
# Total GULP energy -156394.532969 kJ/mol
# GULP energy per Si atom -5585.519035 kJ/mol
# Density = 2.363931 g / cm^3
# Si number density = 23.693235 Si / 1000 Ang^3
#
#
#
# Elastic Constant Matrix: (Units=GPa)
#
#
# Indices 1 2 3 4 5 6 
#
# 1 132.1219 56.0197 27.4402 0.0000 0.0000 0.0000
# 2 56.0197 62.3513 7.0394 0.0000 0.0000 0.0000
# 3 27.4402 7.0394 102.3468 0.0000 0.0000 0.0000
# 4 0.0000 0.0000 0.0000 28.0626 0.0000 0.0000
# 5 0.0000 0.0000 0.0000 0.0000 37.1210 0.0000
# 6 0.0000 0.0000 0.0000 0.0000 0.0000 -30.4309
#
#
#
# Elastic Compliance Matrix: (Units=1/GPa)
#
#
# Indices 1 2 3 4 5 6 
#
# 1 0.012920 -0.011305 -0.002686 0.000000 0.000000 0.000000
# 2 -0.011305 0.026055 0.001239 0.000000 0.000000 0.000000
# 3 -0.002686 0.001239 0.010406 0.000000 0.000000 0.000000
# 4 0.000000 0.000000 0.000000 0.035635 0.000000 0.000000
# 5 0.000000 0.000000 0.000000 0.000000 0.026939 0.000000
# 6 0.000000 0.000000 0.000000 0.000000 0.000000 -0.032861
#
#
# Mechanical properties :
#
#
# Convention : Reuss Voigt Hill
#
# Bulk Modulus (GPa) = 41.88275 53.09094 47.48685
# Shear Modulus (GPa) = 44.42243 20.70526 32.56384
#
# Velocity S-wave (km/s) = 4.33471 2.95937 3.71130
# Velocity P-wave (km/s) = 6.53976 5.84238 6.20088
#
# Compressibility (1/GPa) = 0.02387618
#
# Stress axis : x y z
#
# Youngs Moduli (GPa) = 77.40032 38.38050 96.10068
#
# Poissons Ratio (x) = 0.43387 0.25817
# Poissons Ratio (y) = 0.87498 -0.11905
# Poissons Ratio (z) = 0.20793 -0.04755
#
# Static dielectric constant tensor:
#      x y z
#    x 1.909590 0.000000 0.000000 
#    y 0.000000 1.882250 0.000000 
#    z 0.000000 0.000000 1.978210 
# 
# From -- ./inp_files/923.got.cif
#   From: 2010.05.17/outbox.cif.g08.bks.cpg/sg36_1_cif.got.tgz:923.got - 2010.06.03 17:41:39.
