data_PCOD9352249
_publ_section_title
;
Structure prediction by ZEFSAII (Michael W. Deem and Ramdas Pophale) SiO2 
 PCOD9352249
Probable space group: C M C 21
;
_chemical_formula_sum "Si O2"
_cell_formula_units_Z 48
_cell_length_a 7.696372
_cell_length_b 24.877285
_cell_length_c 12.209868
_cell_angle_alpha 90.000000
_cell_angle_beta 90.000000
_cell_angle_gamma 90.000000
_cell_volume 2337.760420
_symmetry_space_group_name_H-M "C M C 21"
_symmetry_group_IT_number 36
_symmetry_cell_setting 'orthorhombic'
loop_
_space_group_symop_operation_xyz
x,y,z
-x,-y,1/2+z
x,-y,1/2+z
-x,y,z
1/2+x,1/2+y,z
1/2-x,1/2-y,1/2+z
1/2+x,1/2-y,1/2+z
1/2-x,1/2+y,z
loop_
_atom_site_type_symbol
_atom_site_label
_atom_site_fract_x
_atom_site_fract_y
_atom_site_fract_z
Si Si1 0.293296 0.357550 0.803260
Si Si2 0.708359 0.890745 0.149286
Si Si3 0.294836 0.170476 0.056680
Si Si4 0.209040 0.458518 0.942475
Si Si5 0.209463 0.210305 0.510954
Si Si6 0.786249 0.578850 0.892069
O O1 0.500000 0.351848 0.799176
O O2 0.224943 0.344044 0.683708
O O3 0.251431 0.417556 0.844405
O O4 0.226090 0.317512 0.898679
O O5 0.500000 0.896346 0.151332
O O6 0.747440 0.830565 0.109043
O O7 0.771001 0.904941 0.270126
O O8 0.775475 0.930666 0.054136
O O9 0.500000 0.173448 0.032902
O O10 0.222828 0.229749 0.030840
O O11 0.225818 0.123095 0.979442
O O12 0.271617 0.518783 0.922513
O O13 0.000000 0.460836 0.950366
O O14 0.000000 0.212264 0.504234
O O15 0.000000 0.578256 0.892845
#
# Coordination Sequence:
#
# PCOD9352249 Si02
#       6
#     8   8   8   8   8   8
#     4  10  21  37  56  80 110 144 177 218 271 324
#     4   9  18  33  56  82 105 137 178 220 267 317
#     4  10  21  36  56  81 108 141 181 224 266 314
#     4   9  18  34  57  82 106 138 179 222 266 318
#     4   9  20  37  55  77 108 144 177 217 271 319
#     4   9  19  33  56  84 107 136 180 227 265 308
#
# _framework density 20.532471000000001
#
# number of rings (size 3 to 8) (size 9 to 14) (size 15 to 20)
#    0.000    2.667    0.000    0.500    4.667    1.333 
#    0.000    2.500    0.000    0.000    0.000    0.000 
#    0.000    0.000    0.000    0.000    0.000    0.000 
#
# Total GULP energy -133975.221993 kJ/mol
# GULP energy per Si atom -5582.300916 kJ/mol
# Density = 2.048574 g / cm^3
# Si number density = 20.532471 Si / 1000 Ang^3
#
#
#
# Elastic Constant Matrix: (Units=GPa)
#
#
# Indices 1 2 3 4 5 6 
#
# 1 30.1758 -5.3125 -10.0750 0.0000 0.0000 0.0000
# 2 -5.3125 206.2957 96.3201 0.0000 0.0000 0.0000
# 3 -10.0750 96.3201 124.2323 0.0000 0.0000 0.0000
# 4 0.0000 0.0000 0.0000 14.9836 0.0000 0.0000
# 5 0.0000 0.0000 0.0000 0.0000 8.9457 0.0000
# 6 0.0000 0.0000 0.0000 0.0000 0.0000 16.8122
#
#
#
# Elastic Compliance Matrix: (Units=1/GPa)
#
#
# Indices 1 2 3 4 5 6 
#
# 1 0.034116 -0.000648 0.003269 0.000000 0.000000 0.000000
# 2 -0.000648 0.007610 -0.005953 0.000000 0.000000 0.000000
# 3 0.003269 -0.005953 0.012930 0.000000 0.000000 0.000000
# 4 0.000000 0.000000 0.000000 0.066740 0.000000 0.000000
# 5 0.000000 0.000000 0.000000 0.000000 0.111785 0.000000
# 6 0.000000 0.000000 0.000000 0.000000 0.000000 0.059481
#
#
# Mechanical properties :
#
#
# Convention : Reuss Voigt Hill
#
# Bulk Modulus (GPa) = 20.83622 58.06323 39.44973
# Shear Modulus (GPa) = 15.85674 26.79971 21.32822
#
# Velocity S-wave (km/s) = 2.78200 3.61672 3.22647
# Velocity P-wave (km/s) = 4.52652 6.76617 5.75632
#
# Compressibility (1/GPa) = 0.04799335
#
# Stress axis : x y z
#
# Youngs Moduli (GPa) = 29.31134 131.40394 77.34013
#
# Poissons Ratio (x) = 0.08512 -0.25282
# Poissons Ratio (y) = 0.01899 0.46039
# Poissons Ratio (z) = -0.09582 0.78222
#
# Static dielectric constant tensor:
#      x y z
#    x 1.769770 0.000000 0.000000 
#    y 0.000000 1.715560 0.000000 
#    z 0.000000 0.000000 1.705160 
# 
# From -- ./inp_files/6702.got.cif
#   From: 2010.05.17/outbox.cif.g08.bks.cpg/sg36_4_cif.got.tgz:6702.got - 2010.06.03 17:41:39.
