data_PCOD9352595
_publ_section_title
;
Structure prediction by ZEFSAII (Michael W. Deem and Ramdas Pophale) SiO2 
 PCOD9352595
Probable space group: C M C 21
;
_chemical_formula_sum "Si O2"
_cell_formula_units_Z 64
_cell_length_a 10.737691
_cell_length_b 19.616495
_cell_length_c 14.596180
_cell_angle_alpha 90.000000
_cell_angle_beta 90.000000
_cell_angle_gamma 90.000000
_cell_volume 3074.478953
_symmetry_space_group_name_H-M "C M C 21"
_symmetry_group_IT_number 36
_symmetry_cell_setting 'orthorhombic'
loop_
_space_group_symop_operation_xyz
x,y,z
-x,-y,1/2+z
x,-y,1/2+z
-x,y,z
1/2+x,1/2+y,z
1/2-x,1/2-y,1/2+z
1/2+x,1/2-y,1/2+z
1/2-x,1/2+y,z
loop_
_atom_site_type_symbol
_atom_site_label
_atom_site_fract_x
_atom_site_fract_y
_atom_site_fract_z
Si Si1 0.859105 0.071834 0.864010
Si Si2 0.278689 0.548305 0.659413
Si Si3 0.219812 0.710904 0.866744
Si Si4 0.641914 0.092335 0.164485
Si Si5 0.140432 0.654215 0.368181
Si Si6 0.859804 0.734430 0.065805
Si Si7 0.140328 0.928161 0.960492
Si Si8 0.638742 0.184251 0.663966
O O1 0.848232 0.056988 0.755648
O O2 0.770274 0.135022 0.884259
O O3 0.000000 0.091291 0.887332
O O4 0.830409 0.002344 0.917608
O O5 0.230836 0.471390 0.650622
O O6 0.356620 0.566229 0.569730
O O7 0.166744 0.603501 0.662623
O O8 0.330992 0.765754 0.857776
O O9 0.150613 0.709057 0.769378
O O10 0.144541 0.733493 0.956082
O O11 0.500000 0.069628 0.148034
O O12 0.650193 0.119364 0.268550
O O13 0.664822 0.157738 0.101188
O O14 0.249587 0.621224 0.428296
O O15 0.000000 0.642945 0.403189
O O16 0.750086 0.780225 0.107709
O O17 0.000000 0.754340 0.096852
O O18 0.000000 0.908310 0.930253
O O19 0.500000 0.199511 0.629371
#
# Coordination Sequence:
#
# PCOD9352595 Si02
#       8
#     8   8   8   8   8   8   8   8
#     4  10  22  40  62  92 129 170 212 262 323 379
#     4  11  22  40  65  91 127 172 212 263 314 384
#     4  11  23  41  67  95 129 168 216 270 318 378
#     4  10  21  41  65  92 124 166 217 264 315 375
#     4  11  23  42  67  94 127 171 216 261 316 379
#     4  11  24  44  69  96 128 170 215 263 323 385
#     4  11  24  42  65  97 131 167 212 262 323 384
#     4  11  25  42  64  97 131 168 214 267 324 380
#
# _framework density 20.816534000000001
#
# number of rings (size 3 to 8) (size 9 to 14) (size 15 to 20)
#    0.000    1.250    2.500    3.000    0.000    7.500 
#    0.000    1.875    0.000    0.000    0.000    0.000 
#    0.000    0.000    0.000    0.000    0.000    0.000 
#
# Total GULP energy -178861.628491 kJ/mol
# GULP energy per Si atom -5589.425890 kJ/mol
# Density = 2.076916 g / cm^3
# Si number density = 20.816534 Si / 1000 Ang^3
#
#
#
# Elastic Constant Matrix: (Units=GPa)
#
#
# Indices 1 2 3 4 5 6 
#
# 1 129.0852 61.6345 31.3263 0.0000 0.0000 0.0000
# 2 61.6345 89.6288 22.0870 0.0000 0.0000 0.0000
# 3 31.3263 22.0870 100.7143 0.0000 0.0000 0.0000
# 4 0.0000 0.0000 0.0000 34.1893 0.0000 0.0000
# 5 0.0000 0.0000 0.0000 0.0000 15.7832 0.0000
# 6 0.0000 0.0000 0.0000 0.0000 0.0000 9.7649
#
#
#
# Elastic Compliance Matrix: (Units=1/GPa)
#
#
# Indices 1 2 3 4 5 6 
#
# 1 0.011909 -0.007693 -0.002017 0.000000 0.000000 0.000000
# 2 -0.007693 0.016763 -0.001284 0.000000 0.000000 0.000000
# 3 -0.002017 -0.001284 0.010838 0.000000 0.000000 0.000000
# 4 0.000000 0.000000 0.000000 0.029249 0.000000 0.000000
# 5 0.000000 0.000000 0.000000 0.000000 0.063359 0.000000
# 6 0.000000 0.000000 0.000000 0.000000 0.000000 0.102407
#
#
# Mechanical properties :
#
#
# Convention : Reuss Voigt Hill
#
# Bulk Modulus (GPa) = 57.06484 61.05820 59.06152
# Shear Modulus (GPa) = 19.05826 25.57285 22.31556
#
# Velocity S-wave (km/s) = 3.02906 3.50878 3.27771
# Velocity P-wave (km/s) = 6.30130 6.76836 6.53900
#
# Compressibility (1/GPa) = 0.01752392
#
# Stress axis : x y z
#
# Youngs Moduli (GPa) = 83.96774 59.65410 92.26767
#
# Poissons Ratio (x) = 0.45889 0.18613
# Poissons Ratio (y) = 0.64592 0.11843
# Poissons Ratio (z) = 0.16939 0.07657
#
# Static dielectric constant tensor:
#      x y z
#    x 1.732780 0.000000 0.000000 
#    y 0.000000 1.725990 0.000000 
#    z 0.000000 0.000000 1.745920 
# 
# From -- ./inp_files/11801.got.cif
#   From: 2010.05.17/outbox.cif.g08.bks.cpg/sg36_6_cif.got.tgz:11801.got - 2010.06.03 17:41:39.
