data_PCOD9352766
_publ_section_title
;
Structure prediction by ZEFSAII (Michael W. Deem and Ramdas Pophale) SiO2 
 PCOD9352766
Probable space group: C M C 21
;
_chemical_formula_sum "Si O2"
_cell_formula_units_Z 64
_cell_length_a 9.577175
_cell_length_b 24.533560
_cell_length_c 14.257051
_cell_angle_alpha 90.000000
_cell_angle_beta 90.000000
_cell_angle_gamma 90.000000
_cell_volume 3349.868033
_symmetry_space_group_name_H-M "C M C 21"
_symmetry_group_IT_number 36
_symmetry_cell_setting 'orthorhombic'
loop_
_space_group_symop_operation_xyz
x,y,z
-x,-y,1/2+z
x,-y,1/2+z
-x,y,z
1/2+x,1/2+y,z
1/2-x,1/2-y,1/2+z
1/2+x,1/2-y,1/2+z
1/2-x,1/2+y,z
loop_
_atom_site_type_symbol
_atom_site_label
_atom_site_fract_x
_atom_site_fract_y
_atom_site_fract_z
Si Si1 0.836130 0.283320 0.017390
Si Si2 0.655722 0.466256 0.059071
Si Si3 0.660929 0.547702 0.333702
Si Si4 0.834198 0.310304 0.617415
Si Si5 0.661694 0.881205 0.164199
Si Si6 0.834305 0.924256 0.323050
Si Si7 0.661057 0.408418 0.543803
Si Si8 0.833020 0.658172 0.321888
O O1 0.743457 0.233327 0.052263
O O2 0.824290 0.328445 0.099058
O O3 0.000000 0.267657 0.008847
O O4 0.793534 0.310950 0.918390
O O5 0.500000 0.448725 0.090670
O O6 0.775018 0.430513 0.103997
O O7 0.671238 0.529944 0.080609
O O8 0.658905 0.458593 0.946930
O O9 0.500000 0.556295 0.302731
O O10 0.707565 0.487278 0.300741
O O11 0.753391 0.600462 0.312025
O O12 0.770609 0.368546 0.589905
O O13 0.806108 0.305514 0.729279
O O14 0.000000 0.307773 0.603466
O O15 0.500000 0.889430 0.185879
O O16 0.751589 0.882504 0.258497
O O17 0.812109 0.912353 0.432450
O O18 0.000000 0.920915 0.307603
O O19 0.500000 0.390099 0.557900
O O20 0.000000 0.647763 0.326591
#
# Coordination Sequence:
#
# PCOD9352766 Si02
#       8
#     8   8   8   8   8   8   8   8
#     4  10  23  44  63  82 117 161 203 244 297 360
#     4   9  18  34  57  85 118 155 197 241 289 352
#     4   9  18  34  58  87 117 155 201 242 286 347
#     4  11  25  41  62  91 118 151 201 253 302 355
#     4  11  22  35  57  89 121 158 200 245 297 350
#     4   9  20  37  57  86 124 164 202 241 292 356
#     4   9  20  40  61  83 119 162 198 240 297 355
#     4  10  22  41  61  85 118 154 192 244 304 357
#
# _framework density 19.105229999999999
#
# number of rings (size 3 to 8) (size 9 to 14) (size 15 to 20)
#    0.000    2.250    1.250    2.250    1.750    5.000 
#    0.000    6.250    0.000    0.000    0.000    0.000 
#    0.000    0.000    0.000    0.000    0.000    0.000 
#
# Total GULP energy -178627.233595 kJ/mol
# GULP energy per Si atom -5582.101050 kJ/mol
# Density = 1.906175 g / cm^3
# Si number density = 19.105230 Si / 1000 Ang^3
#
#
#
# Elastic Constant Matrix: (Units=GPa)
#
#
# Indices 1 2 3 4 5 6 
#
# 1 49.7006 41.3669 26.5402 0.0000 0.0000 0.0000
# 2 41.3669 55.9245 17.6673 0.0000 0.0000 0.0000
# 3 26.5402 17.6673 67.2203 0.0000 0.0000 0.0000
# 4 0.0000 0.0000 0.0000 15.8398 0.0000 0.0000
# 5 0.0000 0.0000 0.0000 0.0000 29.8281 0.0000
# 6 0.0000 0.0000 0.0000 0.0000 0.0000 30.6676
#
#
#
# Elastic Compliance Matrix: (Units=1/GPa)
#
#
# Indices 1 2 3 4 5 6 
#
# 1 0.061891 -0.041507 -0.013527 0.000000 0.000000 0.000000
# 2 -0.041507 0.047337 0.003947 0.000000 0.000000 0.000000
# 3 -0.013527 0.003947 0.019180 0.000000 0.000000 0.000000
# 4 0.000000 0.000000 0.000000 0.063132 0.000000 0.000000
# 5 0.000000 0.000000 0.000000 0.000000 0.033525 0.000000
# 6 0.000000 0.000000 0.000000 0.000000 0.000000 0.032608
#
#
# Mechanical properties :
#
#
# Convention : Reuss Voigt Hill
#
# Bulk Modulus (GPa) = 38.11968 38.22157 38.17063
# Shear Modulus (GPa) = 13.56516 21.08518 17.32517
#
# Velocity S-wave (km/s) = 2.66752 3.32570 3.01463
# Velocity P-wave (km/s) = 5.42986 5.89884 5.66920
#
# Compressibility (1/GPa) = 0.02623317
#
# Stress axis : x y z
#
# Youngs Moduli (GPa) = 16.15748 21.12527 52.13775
#
# Poissons Ratio (x) = 0.87684 0.70526
# Poissons Ratio (y) = 0.67065 -0.20576
# Poissons Ratio (z) = 0.21856 -0.08337
#
# Static dielectric constant tensor:
#      x y z
#    x 1.632530 0.000000 0.000000 
#    y 0.000000 1.644040 0.000000 
#    z 0.000000 0.000000 1.705010 
# 
# From -- ./inp_files/10973.got.cif
#   From: 2010.05.17/outbox.cif.g08.bks.cpg/sg36_6_cif.got.tgz:10973.got - 2010.06.03 17:41:39.
