data_PCOD9352900
_publ_section_title
;
Structure prediction by ZEFSAII (Michael W. Deem and Ramdas Pophale) SiO2 
 PCOD9352900
Probable space group: C M C 21
;
_chemical_formula_sum "Si O2"
_cell_formula_units_Z 60
_cell_length_a 21.712292
_cell_length_b 22.777512
_cell_length_c 5.236244
_cell_angle_alpha 90.000000
_cell_angle_beta 90.000000
_cell_angle_gamma 90.000000
_cell_volume 2589.594899
_symmetry_space_group_name_H-M "C M C 21"
_symmetry_group_IT_number 36
_symmetry_cell_setting 'orthorhombic'
loop_
_space_group_symop_operation_xyz
x,y,z
-x,-y,1/2+z
x,-y,1/2+z
-x,y,z
1/2+x,1/2+y,z
1/2-x,1/2-y,1/2+z
1/2+x,1/2-y,1/2+z
1/2-x,1/2+y,z
loop_
_atom_site_type_symbol
_atom_site_label
_atom_site_fract_x
_atom_site_fract_y
_atom_site_fract_z
Si Si1 0.357842 0.370127 0.352930
Si Si2 0.000000 0.463282 0.338894
Si Si3 0.190705 0.219970 0.206280
Si Si4 0.072051 0.961051 0.659806
Si Si5 0.568024 0.179932 0.289207
Si Si6 0.738496 0.149572 0.599989
Si Si7 0.933103 0.800671 0.020382
Si Si8 0.388058 0.874972 0.289746
O O1 0.332531 0.306172 0.440416
O O2 0.381626 0.408449 0.587660
O O3 0.296592 0.387916 0.202742
O O4 0.416144 0.359831 0.170733
O O5 0.938067 0.426247 0.290071
O O6 0.000000 0.486106 0.627051
O O7 0.239679 0.173161 0.322142
O O8 0.217766 0.285415 0.211891
O O9 0.127913 0.214790 0.365390
O O10 0.000000 0.942707 0.647462
O O11 0.082187 0.991959 0.930986
O O12 0.500000 0.153387 0.246741
O O13 0.562733 0.247517 0.219397
O O14 0.585734 0.171351 0.581754
O O15 0.612237 0.150301 0.077981
O O16 0.678358 0.111986 0.669134
O O17 0.000000 0.804320 0.888662
#
# Coordination Sequence:
#
# PCOD9352900 Si02
#       8
#     8   4   8   8   8   8   8   8
#     4  11  24  42  64  96 137 187 226 280 339 406
#     4  12  26  50  72  98 126 172 240 314 368 392
#     4  11  22  40  62  96 143 183 227 265 331 426
#     4  10  24  47  74 100 129 174 233 296 354 402
#     4  11  21  38  61  99 129 173 218 267 342 413
#     4  11  24  38  63  98 137 192 221 266 335 421
#     4  10  23  36  60  98 140 175 220 277 334 418
#     4  12  24  42  68  93 130 175 224 287 342 411
#
# _framework density 23.169647000000001
#
# number of rings (size 3 to 8) (size 9 to 14) (size 15 to 20)
#    0.000    1.067    4.000    2.000    7.467    1.067 
#    0.000    1.333    0.000    0.000    0.000    0.000 
#    0.000    0.000    0.000    0.000    0.000    0.000 
#
# Total GULP energy -167428.492526 kJ/mol
# GULP energy per Si atom -5580.949751 kJ/mol
# Density = 2.311691 g / cm^3
# Si number density = 23.169647 Si / 1000 Ang^3
#
#
#
# Elastic Constant Matrix: (Units=GPa)
#
#
# Indices 1 2 3 4 5 6 
#
# 1 122.7085 27.7813 5.6068 0.0000 0.0000 0.0000
# 2 27.7813 62.7214 6.3274 0.0000 0.0000 0.0000
# 3 5.6068 6.3274 53.6153 0.0000 0.0000 0.0000
# 4 0.0000 0.0000 0.0000 38.0754 0.0000 0.0000
# 5 0.0000 0.0000 0.0000 0.0000 29.3563 0.0000
# 6 0.0000 0.0000 0.0000 0.0000 0.0000 28.7573
#
#
#
# Elastic Compliance Matrix: (Units=1/GPa)
#
#
# Indices 1 2 3 4 5 6 
#
# 1 0.009070 -0.003969 -0.000480 0.000000 0.000000 0.000000
# 2 -0.003969 0.017872 -0.001694 0.000000 0.000000 0.000000
# 3 -0.000480 -0.001694 0.018902 0.000000 0.000000 0.000000
# 4 0.000000 0.000000 0.000000 0.026264 0.000000 0.000000
# 5 0.000000 0.000000 0.000000 0.000000 0.034064 0.000000
# 6 0.000000 0.000000 0.000000 0.000000 0.000000 0.034774
#
#
# Mechanical properties :
#
#
# Convention : Reuss Voigt Hill
#
# Bulk Modulus (GPa) = 29.79960 35.38624 32.59292
# Shear Modulus (GPa) = 30.41037 32.52646 31.46842
#
# Velocity S-wave (km/s) = 3.62679 3.75085 3.68934
# Velocity P-wave (km/s) = 5.51611 5.83646 5.67855
#
# Compressibility (1/GPa) = 0.03355750
#
# Stress axis : x y z
#
# Youngs Moduli (GPa) = 110.25491 55.95227 52.90581
#
# Poissons Ratio (x) = 0.22207 0.02540
# Poissons Ratio (y) = 0.43759 0.08963
# Poissons Ratio (z) = 0.05293 0.09479
#
# Static dielectric constant tensor:
#      x y z
#    x 1.970180 0.000000 0.000000 
#    y 0.000000 1.877600 0.000000 
#    z 0.000000 0.000000 1.963630 
# 
# From -- ./inp_files/1443.got.cif
#   From: 2010.05.17/outbox.cif.g08.bks.cpg/sg36_1_cif.got.tgz:1443.got - 2010.06.03 17:41:39.
