data_PCOD9352816
_publ_section_title
;
Structure prediction by ZEFSAII (Michael W. Deem and Ramdas Pophale) SiO2 
 PCOD9352816
Probable space group: C M C 21
;
_chemical_formula_sum "Si O2"
_cell_formula_units_Z 64
_cell_length_a 29.973185
_cell_length_b 8.844026
_cell_length_c 11.928249
_cell_angle_alpha 90.000000
_cell_angle_beta 90.000000
_cell_angle_gamma 90.000000
_cell_volume 3161.983514
_symmetry_space_group_name_H-M "C M C 21"
_symmetry_group_IT_number 36
_symmetry_cell_setting 'orthorhombic'
loop_
_space_group_symop_operation_xyz
x,y,z
-x,-y,1/2+z
x,-y,1/2+z
-x,y,z
1/2+x,1/2+y,z
1/2-x,1/2-y,1/2+z
1/2+x,1/2-y,1/2+z
1/2-x,1/2+y,z
loop_
_atom_site_type_symbol
_atom_site_label
_atom_site_fract_x
_atom_site_fract_y
_atom_site_fract_z
Si Si1 0.894185 0.917667 0.422980
Si Si2 0.809611 0.961007 0.782525
Si Si3 0.249999 0.300395 0.380361
Si Si4 0.309614 0.960998 0.978189
Si Si5 0.355278 0.250006 0.630358
Si Si6 0.948250 0.707042 0.260363
Si Si7 0.448250 0.292945 0.000334
Si Si8 0.894184 0.582330 0.837723
O O1 0.882601 0.797361 0.520400
O O2 0.926200 0.838836 0.333355
O O3 0.849920 0.976249 0.358863
O O4 0.919493 0.058114 0.477623
O O5 0.788038 0.810453 0.835486
O O6 0.827429 0.899879 0.664226
O O7 0.771706 0.089797 0.787054
O O8 0.288038 0.189560 0.425240
O O9 0.228290 0.410208 0.473662
O O10 0.349921 0.023733 0.901838
O O11 0.327435 0.899878 0.096486
O O12 0.382599 0.202661 0.740322
O O13 0.919492 0.558100 0.283056
O O14 0.000000 0.684113 0.291440
O O15 0.946097 0.750008 0.130351
O O16 0.500000 0.315863 0.969253
O O17 0.426200 0.161136 0.927357
#
# Coordination Sequence:
#
# PCOD9352816 Si02
#       8
#     8   8   8   8   8   8   8   8
#     4  12  23  46  68 100 136 176 225 272 338 406
#     4  11  22  42  64  96 134 173 221 270 326 394
#     4  10  22  42  64  94 136 172 224 276 322 384
#     4  11  22  42  64  96 134 173 221 270 326 394
#     4  12  24  40  73  98 128 186 220 266 345 398
#     4  11  25  44  70 101 134 175 222 278 336 398
#     4  11  25  44  70 101 134 175 222 278 336 398
#     4  12  23  46  68 100 136 176 225 272 338 406
#
# _framework density 20.240459000000001
#
# number of rings (size 3 to 8) (size 9 to 14) (size 15 to 20)
#    0.000    0.750    5.000    2.250    0.000    1.000 
#    0.000    1.250    0.000    0.000    0.000    0.000 
#    0.000    0.000    0.000    0.000    0.000    0.000 
#
# Total GULP energy -178869.688830 kJ/mol
# GULP energy per Si atom -5589.677776 kJ/mol
# Density = 2.019439 g / cm^3
# Si number density = 20.240459 Si / 1000 Ang^3
#
#
#
# Elastic Constant Matrix: (Units=GPa)
#
#
# Indices 1 2 3 4 5 6 
#
# 1 94.3422 16.5240 17.0567 0.0000 0.0000 0.0000
# 2 16.5240 71.4460 -6.2144 0.0000 0.0000 0.0000
# 3 17.0567 -6.2144 59.2755 0.0000 0.0000 0.0000
# 4 0.0000 0.0000 0.0000 -203.7382 0.0000 0.0000
# 5 0.0000 0.0000 0.0000 0.0000 14.3388 0.0000
# 6 0.0000 0.0000 0.0000 0.0000 0.0000 65.8907
#
#
#
# Elastic Compliance Matrix: (Units=1/GPa)
#
#
# Indices 1 2 3 4 5 6 
#
# 1 0.011807 -0.003054 -0.003718 0.000000 0.000000 0.000000
# 2 -0.003054 0.014915 0.002443 0.000000 0.000000 0.000000
# 3 -0.003718 0.002443 0.018196 0.000000 0.000000 0.000000
# 4 0.000000 0.000000 0.000000 -0.004908 0.000000 0.000000
# 5 0.000000 0.000000 0.000000 0.000000 0.069741 0.000000
# 6 0.000000 0.000000 0.000000 0.000000 0.000000 0.015177
#
#
# Mechanical properties :
#
#
# Convention : Reuss Voigt Hill
#
# Bulk Modulus (GPa) = 27.57852 31.08848 29.33350
# Shear Modulus (GPa) = 34.32354 -11.52192 11.40081
#
# Velocity S-wave (km/s) = 4.12246 -2.38849 2.37590
# Velocity P-wave (km/s) = 6.02616 2.79041 4.69580
#
# Compressibility (1/GPa) = 0.03626011
#
# Stress axis : x y z
#
# Youngs Moduli (GPa) = 84.69728 67.04490 54.95655
#
# Poissons Ratio (x) = 0.20476 0.20431
# Poissons Ratio (y) = 0.25867 -0.13423
# Poissons Ratio (z) = 0.31487 -0.16376
#
# Static dielectric constant tensor:
#      x y z
#    x 1.727590 0.000000 0.000000 
#    y 0.000000 1.712930 0.000000 
#    z 0.000000 0.000000 1.725030 
# 
# From -- ./inp_files/9726.got.cif
#   From: 2010.05.17/outbox.cif.g08.bks.cpg/sg36_5_cif.got.tgz:9726.got - 2010.06.03 17:41:39.
