data_PCOD9352309
_publ_section_title
;
Structure prediction by ZEFSAII (Michael W. Deem and Ramdas Pophale) SiO2 
 PCOD9352309
Probable space group: C M C 21
;
_chemical_formula_sum "Si O2"
_cell_formula_units_Z 48
_cell_length_a 8.569499
_cell_length_b 10.591820
_cell_length_c 27.539978
_cell_angle_alpha 90.000000
_cell_angle_beta 90.000000
_cell_angle_gamma 90.000000
_cell_volume 2499.709916
_symmetry_space_group_name_H-M "C M C 21"
_symmetry_group_IT_number 36
_symmetry_cell_setting 'orthorhombic'
loop_
_space_group_symop_operation_xyz
x,y,z
-x,-y,1/2+z
x,-y,1/2+z
-x,y,z
1/2+x,1/2+y,z
1/2-x,1/2-y,1/2+z
1/2+x,1/2-y,1/2+z
1/2-x,1/2+y,z
loop_
_atom_site_type_symbol
_atom_site_label
_atom_site_fract_x
_atom_site_fract_y
_atom_site_fract_z
Si Si1 0.811264 0.625880 0.159650
Si Si2 0.188624 0.627358 0.492364
Si Si3 0.811436 0.627063 0.047315
Si Si4 0.187177 0.877909 0.324389
Si Si5 0.188722 0.377185 0.879937
Si Si6 0.312771 0.129033 0.715079
O O1 0.760720 0.626703 0.103476
O O2 0.747616 0.746880 0.187856
O O3 0.762274 0.496759 0.186166
O O4 0.000000 0.630292 0.160664
O O5 0.239729 0.500492 0.520070
O O6 0.250431 0.750474 0.519543
O O7 0.238591 0.624725 0.436160
O O8 0.000000 0.630825 0.493216
O O9 0.000000 0.629084 0.046675
O O10 0.237111 0.751380 0.352923
O O11 0.251011 0.875370 0.269840
O O12 0.000000 0.879387 0.322891
O O13 0.246258 0.001281 0.352377
O O14 0.000000 0.383198 0.878780
O O15 0.500000 0.131085 0.715893
#
# Coordination Sequence:
#
# PCOD9352309 Si02
#       6
#     8   8   8   8   8   8
#     4  10  22  39  57  82 115 146 183 232 280 331
#     4  10  21  38  59  84 115 150 189 232 279 333
#     4  10  21  37  58  84 113 146 185 230 279 332
#     4  11  23  38  58  85 115 148 189 235 283 336
#     4  10  22  39  58  83 116 151 188 233 281 332
#     4  11  23  39  60  84 112 149 190 232 282 338
#
# _framework density 19.202228000000002
#
# number of rings (size 3 to 8) (size 9 to 14) (size 15 to 20)
#    0.000    1.667    0.000    4.000    0.000   10.000 
#    0.000    0.000    0.000    0.000    0.000    0.000 
#    0.000    0.000    0.000    0.000    0.000    0.000 
#
# Total GULP energy -134195.876834 kJ/mol
# GULP energy per Si atom -5591.494868 kJ/mol
# Density = 1.915852 g / cm^3
# Si number density = 19.202228 Si / 1000 Ang^3
#
#
#
# Elastic Constant Matrix: (Units=GPa)
#
#
# Indices 1 2 3 4 5 6 
#
# 1 16.2431 43.0313 43.4238 0.0000 0.0000 0.0000
# 2 43.0313 242.9970 150.8328 0.0000 0.0000 0.0000
# 3 43.4238 150.8328 245.3060 0.0000 0.0000 0.0000
# 4 0.0000 0.0000 0.0000 46.8614 0.0000 0.0000
# 5 0.0000 0.0000 0.0000 0.0000 27.0990 0.0000
# 6 0.0000 0.0000 0.0000 0.0000 0.0000 31.7689
#
#
#
# Elastic Compliance Matrix: (Units=1/GPa)
#
#
# Indices 1 2 3 4 5 6 
#
# 1 0.147464 -0.016028 -0.016249 0.000000 0.000000 0.000000
# 2 -0.016028 0.008397 -0.002326 0.000000 0.000000 0.000000
# 3 -0.016249 -0.002326 0.008383 0.000000 0.000000 0.000000
# 4 0.000000 0.000000 0.000000 0.021340 0.000000 0.000000
# 5 0.000000 0.000000 0.000000 0.000000 0.036902 0.000000
# 6 0.000000 0.000000 0.000000 0.000000 0.000000 0.031477
#
#
# Mechanical properties :
#
#
# Convention : Reuss Voigt Hill
#
# Bulk Modulus (GPa) = 10.52197 108.79131 59.65664
# Shear Modulus (GPa) = 14.09051 38.96310 26.52680
#
# Velocity S-wave (km/s) = 2.71180 4.50943 3.72081
# Velocity P-wave (km/s) = 3.91109 9.15925 7.04232
#
# Compressibility (1/GPa) = 0.09503926
#
# Stress axis : x y z
#
# Youngs Moduli (GPa) = 6.78131 119.08341 119.28625
#
# Poissons Ratio (x) = 1.90865 1.93826
# Poissons Ratio (y) = 0.10869 0.27748
# Poissons Ratio (z) = 0.11019 0.27701
#
# Static dielectric constant tensor:
#      x y z
#    x 1.660760 0.000000 0.000000 
#    y 0.000000 1.623230 0.000000 
#    z 0.000000 0.000000 1.640980 
# 
# From -- ./inp_files/16445.got.cif
#   From: 2010.05.17/outbox.cif.g08.bks.cpg/sg36_9_cif.got.tgz:16445.got - 2010.06.03 17:41:39.
