data_PCOD9352527
_publ_section_title
;
Structure prediction by ZEFSAII (Michael W. Deem and Ramdas Pophale) SiO2 
 PCOD9352527
Probable space group: C M C 21
;
_chemical_formula_sum "Si O2"
_cell_formula_units_Z 48
_cell_length_a 13.471043
_cell_length_b 29.147405
_cell_length_c 5.275421
_cell_angle_alpha 90.000000
_cell_angle_beta 90.000000
_cell_angle_gamma 90.000000
_cell_volume 2071.372670
_symmetry_space_group_name_H-M "C M C 21"
_symmetry_group_IT_number 36
_symmetry_cell_setting 'orthorhombic'
loop_
_space_group_symop_operation_xyz
x,y,z
-x,-y,1/2+z
x,-y,1/2+z
-x,y,z
1/2+x,1/2+y,z
1/2-x,1/2-y,1/2+z
1/2+x,1/2-y,1/2+z
1/2-x,1/2+y,z
loop_
_atom_site_type_symbol
_atom_site_label
_atom_site_fract_x
_atom_site_fract_y
_atom_site_fract_z
Si Si1 0.615748 0.469880 0.635650
Si Si2 0.230035 0.686925 0.106952
Si Si3 0.107048 0.155868 0.489774
Si Si4 0.231973 0.099214 0.821524
Si Si5 0.115050 0.529999 0.587599
Si Si6 0.893050 0.756180 0.357035
O O1 0.630827 0.507188 0.409632
O O2 0.500000 0.455379 0.622025
O O3 0.691734 0.429902 0.559819
O O4 0.300528 0.662496 0.308973
O O5 0.218178 0.647811 0.896924
O O6 0.131433 0.708817 0.218453
O O7 0.298767 0.730130 0.024880
O O8 0.000000 0.150316 0.361284
O O9 0.133124 0.113238 0.667894
O O10 0.102323 0.201699 0.660016
O O11 0.308266 0.069610 0.658761
O O12 0.128550 0.508131 0.309750
O O13 0.000000 0.545483 0.605656
O O14 0.000000 0.754450 0.490992
#
# Coordination Sequence:
#
# PCOD9352527 Si02
#       6
#     8   8   8   8   8   8
#     4  10  22  39  60  89 126 168 210 256 317 389
#     4  11  22  39  62  91 126 168 216 268 331 395
#     4  10  22  39  62  89 123 165 206 265 330 393
#     4  11  24  37  62  94 127 162 215 270 322 389
#     4  10  23  44  70  96 130 177 223 270 332 399
#     4  10  21  40  62  87 120 164 216 263 322 397
#
# _framework density 23.173038999999999
#
# number of rings (size 3 to 8) (size 9 to 14) (size 15 to 20)
#    0.000    1.667    1.667    2.000    4.667    2.667 
#    0.000    0.833    0.000    0.000    0.000    0.000 
#    0.000    0.000    0.000    0.000    0.000    0.000 
#
# Total GULP energy -134234.226442 kJ/mol
# GULP energy per Si atom -5593.092768 kJ/mol
# Density = 2.312030 g / cm^3
# Si number density = 23.173039 Si / 1000 Ang^3
#
#
#
# Elastic Constant Matrix: (Units=GPa)
#
#
# Indices 1 2 3 4 5 6 
#
# 1 87.8139 41.9313 2.3696 0.0000 0.0000 0.0000
# 2 41.9313 92.8455 14.4252 0.0000 0.0000 0.0000
# 3 2.3696 14.4252 62.8404 0.0000 0.0000 0.0000
# 4 0.0000 0.0000 0.0000 34.6802 0.0000 0.0000
# 5 0.0000 0.0000 0.0000 0.0000 -3.8115 0.0000
# 6 0.0000 0.0000 0.0000 0.0000 0.0000 -23.0939
#
#
#
# Elastic Compliance Matrix: (Units=1/GPa)
#
#
# Indices 1 2 3 4 5 6 
#
# 1 0.014579 -0.006739 0.000997 0.000000 0.000000 0.000000
# 2 -0.006739 0.014284 -0.003025 0.000000 0.000000 0.000000
# 3 0.000997 -0.003025 0.016570 0.000000 0.000000 0.000000
# 4 0.000000 0.000000 0.000000 0.028835 0.000000 0.000000
# 5 0.000000 0.000000 0.000000 0.000000 -0.262366 0.000000
# 6 0.000000 0.000000 0.000000 0.000000 0.000000 -0.043302
#
#
# Mechanical properties :
#
#
# Convention : Reuss Voigt Hill
#
# Bulk Modulus (GPa) = 35.84284 40.10577 37.97430
# Shear Modulus (GPa) = -24.44188 13.87322 -5.28433
#
# Velocity S-wave (km/s) = -3.25122 2.44945 -1.51173
# Velocity P-wave (km/s) = 1.18622 5.03432 3.65729
#
# Compressibility (1/GPa) = 0.02789958
#
# Stress axis : x y z
#
# Youngs Moduli (GPa) = 68.59320 70.00813 60.34967
#
# Poissons Ratio (x) = 0.47179 -0.06018
# Poissons Ratio (y) = 0.46225 0.18255
# Poissons Ratio (z) = -0.06840 0.21176
#
# Static dielectric constant tensor:
#      x y z
#    x 1.922470 0.000000 0.000000 
#    y 0.000000 1.861120 0.000000 
#    z 0.000000 0.000000 1.939470 
# 
# From -- ./inp_files/820.got.cif
#   From: 2010.05.17/outbox.cif.g08.bks.cpg/sg36_1_cif.got.tgz:820.got - 2010.06.03 17:41:39.
