data_PCOD9352114
_publ_section_title
;
Structure prediction by ZEFSAII (Michael W. Deem and Ramdas Pophale) SiO2 
 PCOD9352114
Probable space group: C M C 21
;
_chemical_formula_sum "Si O2"
_cell_formula_units_Z 52
_cell_length_a 7.370039
_cell_length_b 20.021142
_cell_length_c 15.896341
_cell_angle_alpha 90.000000
_cell_angle_beta 90.000000
_cell_angle_gamma 90.000000
_cell_volume 2345.609989
_symmetry_space_group_name_H-M "C M C 21"
_symmetry_group_IT_number 36
_symmetry_cell_setting 'orthorhombic'
loop_
_space_group_symop_operation_xyz
x,y,z
-x,-y,1/2+z
x,-y,1/2+z
-x,y,z
1/2+x,1/2+y,z
1/2-x,1/2-y,1/2+z
1/2+x,1/2-y,1/2+z
1/2-x,1/2+y,z
loop_
_atom_site_type_symbol
_atom_site_label
_atom_site_fract_x
_atom_site_fract_y
_atom_site_fract_z
Si Si1 0.778484 0.541329 0.277560
Si Si2 0.219381 0.557475 0.927327
Si Si3 0.297194 0.830771 0.304966
Si Si4 0.779106 0.489559 0.095900
Si Si5 0.283344 0.818145 0.846080
Si Si6 0.786026 0.339773 0.043840
Si Si7 0.000000 0.182218 0.664649
O O1 0.721751 0.495863 0.356475
O O2 0.719054 0.512331 0.188025
O O3 0.721895 0.617438 0.293998
O O4 0.000000 0.541121 0.278069
O O5 0.262120 0.629596 0.888778
O O6 0.000000 0.553044 0.931573
O O7 0.282607 0.537522 0.019994
O O8 0.500000 0.855240 0.282512
O O9 0.300105 0.752050 0.321452
O O10 0.157946 0.842336 0.230827
O O11 0.723963 0.414383 0.071499
O O12 0.000000 0.489271 0.096877
O O13 0.500000 0.810317 0.831380
O O14 0.256217 0.832583 0.944528
O O15 0.659612 0.292863 0.098589
O O16 0.000000 0.332076 0.059766
#
# Coordination Sequence:
#
# PCOD9352114 Si02
#       7
#     8   8   8   8   8   8   4
#     4   9  16  30  61  92 125 166 216 271 327 384
#     4   9  17  34  59  93 128 169 215 270 328 388
#     4  11  24  42  65  93 135 179 220 269 335 398
#     4   9  16  32  61  99 128 165 221 272 334 398
#     4  10  20  40  63  95 132 176 219 273 335 400
#     4  10  21  39  68  97 130 168 220 277 333 402
#     4  12  24  42  64  98 124 168 226 274 318 398
#
# _framework density 22.169074999999999
#
# number of rings (size 3 to 8) (size 9 to 14) (size 15 to 20)
#    0.000    2.154    2.308    1.385    1.077    2.462 
#    2.769    0.769    6.769    0.000    0.000    0.000 
#    0.000    0.000    0.000    0.000    0.000    0.000 
#
# Total GULP energy -144805.179242 kJ/mol
# GULP energy per Si atom -5569.429971 kJ/mol
# Density = 2.211862 g / cm^3
# Si number density = 22.169075 Si / 1000 Ang^3
#
#
#
# Elastic Constant Matrix: (Units=GPa)
#
#
# Indices 1 2 3 4 5 6 
#
# 1 105.2196 -1.2236 28.6913 0.0000 0.0000 0.0000
# 2 -1.2236 76.1892 6.3597 0.0000 0.0000 0.0000
# 3 28.6913 6.3597 93.1602 0.0000 0.0000 0.0000
# 4 0.0000 0.0000 0.0000 8.5351 0.0000 0.0000
# 5 0.0000 0.0000 0.0000 0.0000 9.3621 0.0000
# 6 0.0000 0.0000 0.0000 0.0000 0.0000 -27.9861
#
#
#
# Elastic Compliance Matrix: (Units=1/GPa)
#
#
# Indices 1 2 3 4 5 6 
#
# 1 0.010390 0.000436 -0.003230 0.000000 0.000000 0.000000
# 2 0.000436 0.013219 -0.001037 0.000000 0.000000 0.000000
# 3 -0.003230 -0.001037 0.011800 0.000000 0.000000 0.000000
# 4 0.000000 0.000000 0.000000 0.117164 0.000000 0.000000
# 5 0.000000 0.000000 0.000000 0.000000 0.106813 0.000000
# 6 0.000000 0.000000 0.000000 0.000000 0.000000 -0.035732
#
#
# Mechanical properties :
#
#
# Convention : Reuss Voigt Hill
#
# Bulk Modulus (GPa) = 36.03845 38.02487 37.03166
# Shear Modulus (GPa) = 20.78466 14.03166 17.40816
#
# Velocity S-wave (km/s) = 3.06527 2.51856 2.80526
# Velocity P-wave (km/s) = 5.36836 5.06428 5.21854
#
# Compressibility (1/GPa) = 0.02774814
#
# Stress axis : x y z
#
# Youngs Moduli (GPa) = 96.24961 75.64996 84.74853
#
# Poissons Ratio (x) = -0.03302 0.27370
# Poissons Ratio (y) = -0.04201 0.08787
# Poissons Ratio (z) = 0.31085 0.07843
#
# Static dielectric constant tensor:
#      x y z
#    x 1.833060 0.000000 0.000000 
#    y 0.000000 1.834800 0.000000 
#    z 0.000000 0.000000 1.815960 
# 
# From -- ./inp_files/10563.got.cif
#   From: 2010.05.17/outbox.cif.g08.bks.cpg/sg36_6_cif.got.tgz:10563.got - 2010.06.03 17:41:39.
