data_PCOD9352668
_publ_section_title
;
Structure prediction by ZEFSAII (Michael W. Deem and Ramdas Pophale) SiO2 
 PCOD9352668
Probable space group: C M C 21
;
_chemical_formula_sum "Si O2"
_cell_formula_units_Z 64
_cell_length_a 8.305480
_cell_length_b 27.381667
_cell_length_c 13.461747
_cell_angle_alpha 90.000000
_cell_angle_beta 90.000000
_cell_angle_gamma 90.000000
_cell_volume 3061.442067
_symmetry_space_group_name_H-M "C M C 21"
_symmetry_group_IT_number 36
_symmetry_cell_setting 'orthorhombic'
loop_
_space_group_symop_operation_xyz
x,y,z
-x,-y,1/2+z
x,-y,1/2+z
-x,y,z
1/2+x,1/2+y,z
1/2-x,1/2-y,1/2+z
1/2+x,1/2-y,1/2+z
1/2-x,1/2+y,z
loop_
_atom_site_type_symbol
_atom_site_label
_atom_site_fract_x
_atom_site_fract_y
_atom_site_fract_z
Si Si1 0.817319 0.230024 0.524240
Si Si2 0.690470 0.585333 0.212676
Si Si3 0.312539 0.807561 0.686566
Si Si4 0.693609 0.547432 0.002351
Si Si5 0.184721 0.229632 0.837927
Si Si6 0.309877 0.121355 0.834046
Si Si7 0.695847 0.560288 0.434965
Si Si8 0.193057 0.631334 0.611381
O O1 0.814160 0.281632 0.580655
O O2 0.694924 0.237050 0.435228
O O3 0.770813 0.184403 0.592576
O O4 0.000000 0.221984 0.487686
O O5 0.500000 0.574874 0.215810
O O6 0.718786 0.642568 0.194761
O O7 0.753001 0.571835 0.322539
O O8 0.757308 0.559232 0.113365
O O9 0.500000 0.816551 0.715219
O O10 0.242205 0.765003 0.755477
O O11 0.500000 0.546468 0.009113
O O12 0.735782 0.588147 0.920351
O O13 0.746441 0.494321 0.965008
O O14 0.272890 0.178494 0.851237
O O15 0.000000 0.218629 0.811021
O O16 0.500000 0.113345 0.837535
O O17 0.254232 0.111314 0.719989
O O18 0.500000 0.563115 0.435816
O O19 0.757996 0.597462 0.518835
O O20 0.000000 0.636420 0.614083
#
# Coordination Sequence:
#
# PCOD9352668 Si02
#       8
#     8   8   8   8   8   8   8   8
#     4  11  22  38  60  89 124 164 209 253 305 366
#     4  10  22  40  61  92 125 157 204 259 313 372
#     4  10  22  38  57  84 119 161 200 239 297 362
#     4  10  23  42  67  94 122 162 210 263 320 379
#     4  11  22  38  60  89 124 164 209 253 305 366
#     4  11  24  41  62  93 130 167 212 261 313 374
#     4  10  23  42  67  94 122 162 210 263 320 379
#     4  11  24  41  62  93 130 167 212 261 313 374
#
# _framework density 20.905180000000001
#
# number of rings (size 3 to 8) (size 9 to 14) (size 15 to 20)
#    0.000    1.500    1.250    3.000    1.750    9.000 
#    0.000    0.000    0.000    0.000    0.000    0.000 
#    0.000    0.000    0.000    0.000    0.000    0.000 
#
# Total GULP energy -178683.702137 kJ/mol
# GULP energy per Si atom -5583.865692 kJ/mol
# Density = 2.085760 g / cm^3
# Si number density = 20.905180 Si / 1000 Ang^3
#
#
#
# Elastic Constant Matrix: (Units=GPa)
#
#
# Indices 1 2 3 4 5 6 
#
# 1 21.0852 6.8121 16.8472 0.0000 0.0000 0.0000
# 2 6.8121 90.3125 53.3589 0.0000 0.0000 0.0000
# 3 16.8472 53.3589 145.3809 0.0000 0.0000 0.0000
# 4 0.0000 0.0000 0.0000 28.3178 0.0000 0.0000
# 5 0.0000 0.0000 0.0000 0.0000 25.0316 0.0000
# 6 0.0000 0.0000 0.0000 0.0000 0.0000 21.6202
#
#
#
# Elastic Compliance Matrix: (Units=1/GPa)
#
#
# Indices 1 2 3 4 5 6 
#
# 1 0.052281 -0.000465 -0.005888 0.000000 0.000000 0.000000
# 2 -0.000465 0.014143 -0.005137 0.000000 0.000000 0.000000
# 3 -0.005888 -0.005137 0.009446 0.000000 0.000000 0.000000
# 4 0.000000 0.000000 0.000000 0.035313 0.000000 0.000000
# 5 0.000000 0.000000 0.000000 0.000000 0.039950 0.000000
# 6 0.000000 0.000000 0.000000 0.000000 0.000000 0.046253
#
#
# Mechanical properties :
#
#
# Convention : Reuss Voigt Hill
#
# Bulk Modulus (GPa) = 18.90681 45.64610 32.27645
# Shear Modulus (GPa) = 21.00877 26.97794 23.99335
#
# Velocity S-wave (km/s) = 3.17354 3.59624 3.39148
# Velocity P-wave (km/s) = 4.74259 6.25509 5.55060
#
# Compressibility (1/GPa) = 0.05289101
#
# Stress axis : x y z
#
# Youngs Moduli (GPa) = 19.12732 70.70759 105.86266
#
# Poissons Ratio (x) = 0.03286 0.62331
# Poissons Ratio (y) = 0.00889 0.54381
# Poissons Ratio (z) = 0.11262 0.36322
#
# Static dielectric constant tensor:
#      x y z
#    x 1.737480 0.000000 0.000000 
#    y 0.000000 1.705540 0.000000 
#    z 0.000000 0.000000 1.801770 
# 
# From -- ./inp_files/7248.got.cif
#   From: 2010.05.17/outbox.cif.g08.bks.cpg/sg36_4_cif.got.tgz:7248.got - 2010.06.03 17:41:39.
