data_PCOD9352294
_publ_section_title
;
Structure prediction by ZEFSAII (Michael W. Deem and Ramdas Pophale) SiO2 
 PCOD9352294
Probable space group: C M C 21
;
_chemical_formula_sum "Si O2"
_cell_formula_units_Z 48
_cell_length_a 9.389981
_cell_length_b 28.706877
_cell_length_c 7.977032
_cell_angle_alpha 90.000000
_cell_angle_beta 90.000000
_cell_angle_gamma 90.000000
_cell_volume 2150.265051
_symmetry_space_group_name_H-M "C M C 21"
_symmetry_group_IT_number 36
_symmetry_cell_setting 'orthorhombic'
loop_
_space_group_symop_operation_xyz
x,y,z
-x,-y,1/2+z
x,-y,1/2+z
-x,y,z
1/2+x,1/2+y,z
1/2-x,1/2-y,1/2+z
1/2+x,1/2-y,1/2+z
1/2-x,1/2+y,z
loop_
_atom_site_type_symbol
_atom_site_label
_atom_site_fract_x
_atom_site_fract_y
_atom_site_fract_z
Si Si1 0.664351 0.573005 0.674600
Si Si2 0.337469 0.102877 0.159757
Si Si3 0.336667 0.315224 0.502750
Si Si4 0.336713 0.264918 0.864544
Si Si5 0.336717 0.847561 0.022641
Si Si6 0.165046 0.022527 0.031978
O O1 0.500000 0.587967 0.652958
O O2 0.765096 0.617134 0.652720
O O3 0.695749 0.532264 0.539975
O O4 0.677146 0.545581 0.849474
O O5 0.500000 0.102859 0.099469
O O6 0.240107 0.136758 0.047307
O O7 0.336922 0.123998 0.346313
O O8 0.269794 0.052053 0.147783
O O9 0.500000 0.322323 0.450518
O O10 0.336480 0.286663 0.678780
O O11 0.248032 0.283291 0.376620
O O12 0.500000 0.258236 0.918238
O O13 0.256555 0.302313 0.981611
O O14 0.500000 0.835232 0.064717
O O15 0.000000 0.027972 0.088026
#
# Coordination Sequence:
#
# PCOD9352294 Si02
#       6
#     8   8   8   8   8   8
#     4  10  21  37  58  83 110 143 183 226 273 325
#     4  10  21  37  57  81 110 145 184 226 273 324
#     4  10  21  37  58  83 111 145 184 226 273 324
#     4  10  21  37  58  83 111 145 184 226 273 324
#     4  10  21  37  57  81 110 145 184 226 273 324
#     4  10  21  37  58  83 110 143 183 226 273 325
#
# _framework density 22.322831000000001
#
# number of rings (size 3 to 8) (size 9 to 14) (size 15 to 20)
#    0.000    2.000    0.000    3.000    0.000    8.000 
#    0.000    0.000    0.000    0.000    0.000    0.000 
#    0.000    0.000    0.000    0.000    0.000    0.000 
#
# Total GULP energy -134315.488164 kJ/mol
# GULP energy per Si atom -5596.478673 kJ/mol
# Density = 2.227202 g / cm^3
# Si number density = 22.322831 Si / 1000 Ang^3
#
#
#
# Elastic Constant Matrix: (Units=GPa)
#
#
# Indices 1 2 3 4 5 6 
#
# 1 141.4299 48.0037 22.5554 0.0000 0.0000 0.0000
# 2 48.0037 77.5303 9.8716 0.0000 0.0000 0.0000
# 3 22.5554 9.8716 52.5319 0.0000 0.0000 0.0000
# 4 0.0000 0.0000 0.0000 42.9833 0.0000 0.0000
# 5 0.0000 0.0000 0.0000 0.0000 24.0951 0.0000
# 6 0.0000 0.0000 0.0000 0.0000 0.0000 35.6234
#
#
#
# Elastic Compliance Matrix: (Units=1/GPa)
#
#
# Indices 1 2 3 4 5 6 
#
# 1 0.009395 -0.005434 -0.003013 0.000000 0.000000 0.000000
# 2 -0.005434 0.016357 -0.000741 0.000000 0.000000 0.000000
# 3 -0.003013 -0.000741 0.020469 0.000000 0.000000 0.000000
# 4 0.000000 0.000000 0.000000 0.023265 0.000000 0.000000
# 5 0.000000 0.000000 0.000000 0.000000 0.041502 0.000000
# 6 0.000000 0.000000 0.000000 0.000000 0.000000 0.028071
#
#
# Mechanical properties :
#
#
# Convention : Reuss Voigt Hill
#
# Bulk Modulus (GPa) = 35.91120 48.03927 41.97524
# Shear Modulus (GPa) = 29.99103 33.27778 31.63440
#
# Velocity S-wave (km/s) = 3.66937 3.86521 3.76857
# Velocity P-wave (km/s) = 5.83734 6.44102 6.14660
#
# Compressibility (1/GPa) = 0.02784647
#
# Stress axis : x y z
#
# Youngs Moduli (GPa) = 106.43469 61.13666 48.85456
#
# Poissons Ratio (x) = 0.33220 0.14720
# Poissons Ratio (y) = 0.57833 0.03619
# Poissons Ratio (z) = 0.32069 0.04528
#
# Static dielectric constant tensor:
#      x y z
#    x 1.771500 0.000000 0.000000 
#    y 0.000000 1.781220 0.000000 
#    z 0.000000 0.000000 1.881450 
# 
# From -- ./inp_files/2642.got.cif
#   From: 2010.05.17/outbox.cif.g08.bks.cpg/sg36_2_cif.got.tgz:2642.got - 2010.06.03 17:41:39.
