data_PCOD9352538
_publ_section_title
;
Structure prediction by ZEFSAII (Michael W. Deem and Ramdas Pophale) SiO2 
 PCOD9352538
Probable space group: C M C 21
;
_chemical_formula_sum "Si O2"
_cell_formula_units_Z 48
_cell_length_a 8.587153
_cell_length_b 24.468202
_cell_length_c 12.234900
_cell_angle_alpha 90.000000
_cell_angle_beta 90.000000
_cell_angle_gamma 90.000000
_cell_volume 2570.701685
_symmetry_space_group_name_H-M "C M C 21"
_symmetry_group_IT_number 36
_symmetry_cell_setting 'orthorhombic'
loop_
_space_group_symop_operation_xyz
x,y,z
-x,-y,1/2+z
x,-y,1/2+z
-x,y,z
1/2+x,1/2+y,z
1/2-x,1/2-y,1/2+z
1/2+x,1/2-y,1/2+z
1/2-x,1/2+y,z
loop_
_atom_site_type_symbol
_atom_site_label
_atom_site_fract_x
_atom_site_fract_y
_atom_site_fract_z
Si Si1 0.688963 0.139685 0.626330
Si Si2 0.812807 0.290842 0.917767
Si Si3 0.687112 0.829222 0.369045
Si Si4 0.312825 0.036992 0.485148
Si Si5 0.312987 0.607667 0.288045
Si Si6 0.813388 0.082390 0.038854
O O1 0.500000 0.139457 0.628416
O O2 0.735256 0.184750 0.536131
O O3 0.742912 0.153138 0.747857
O O4 0.736635 0.080809 0.578267
O O5 0.750730 0.230481 0.898080
O O6 0.747773 0.333684 0.829255
O O7 0.000000 0.291286 0.913188
O O8 0.500000 0.827472 0.367880
O O9 0.742862 0.873243 0.456982
O O10 0.500000 0.033983 0.484835
O O11 0.256967 0.063077 0.371100
O O12 0.243190 0.977849 0.506703
O O13 0.500000 0.606552 0.295832
O O14 0.267084 0.595563 0.163655
O O15 0.000000 0.084908 0.032472
#
# Coordination Sequence:
#
# PCOD9352538 Si02
#       6
#     8   8   8   8   8   8
#     4   8  19  39  61  85 117 154 194 243 296 351
#     4  10  21  40  63  89 120 158 200 246 301 357
#     4  11  23  39  61  91 121 158 202 245 298 357
#     4  10  21  40  65  90 118 157 202 249 302 357
#     4  10  22  41  63  88 121 161 202 246 298 357
#     4  11  25  41  59  89 125 160 200 249 299 353
#
# _framework density 18.671944
#
# number of rings (size 3 to 8) (size 9 to 14) (size 15 to 20)
#    0.000    2.000    0.000    3.500    4.667    2.667 
#    0.000    8.333    0.000    0.000    0.000    0.000 
#    0.000    0.000    0.000    0.000    0.000    0.000 
#
# Total GULP energy -134081.466402 kJ/mol
# GULP energy per Si atom -5586.727767 kJ/mol
# Density = 1.862945 g / cm^3
# Si number density = 18.671944 Si / 1000 Ang^3
#
#
#
# Elastic Constant Matrix: (Units=GPa)
#
#
# Indices 1 2 3 4 5 6 
#
# 1 27.5488 7.2173 0.5523 0.0000 0.0000 0.0000
# 2 7.2173 147.6695 60.6996 0.0000 0.0000 0.0000
# 3 0.5523 60.6996 95.3530 0.0000 0.0000 0.0000
# 4 0.0000 0.0000 0.0000 11.3868 0.0000 0.0000
# 5 0.0000 0.0000 0.0000 0.0000 28.3786 0.0000
# 6 0.0000 0.0000 0.0000 0.0000 0.0000 37.7185
#
#
#
# Elastic Compliance Matrix: (Units=1/GPa)
#
#
# Indices 1 2 3 4 5 6 
#
# 1 0.036882 -0.002323 0.001265 0.000000 0.000000 0.000000
# 2 -0.002323 0.009318 -0.005918 0.000000 0.000000 0.000000
# 3 0.001265 -0.005918 0.014247 0.000000 0.000000 0.000000
# 4 0.000000 0.000000 0.000000 0.087821 0.000000 0.000000
# 5 0.000000 0.000000 0.000000 0.000000 0.035238 0.000000
# 6 0.000000 0.000000 0.000000 0.000000 0.000000 0.026512
#
#
# Mechanical properties :
#
#
# Convention : Reuss Voigt Hill
#
# Bulk Modulus (GPa) = 21.50719 45.27883 33.39301
# Shear Modulus (GPa) = 20.87948 28.97024 24.92486
#
# Velocity S-wave (km/s) = 3.34762 3.94323 3.65757
# Velocity P-wave (km/s) = 5.14641 6.71077 5.97996
#
# Compressibility (1/GPa) = 0.04649607
#
# Stress axis : x y z
#
# Youngs Moduli (GPa) = 27.11323 107.31817 70.18803
#
# Poissons Ratio (x) = 0.24925 -0.08878
# Poissons Ratio (y) = 0.06297 0.41539
# Poissons Ratio (z) = -0.03429 0.63513
#
# Static dielectric constant tensor:
#      x y z
#    x 1.634680 0.000000 0.000000 
#    y 0.000000 1.603270 0.000000 
#    z 0.000000 0.000000 1.637950 
# 
# From -- ./inp_files/6732.got.cif
#   From: 2010.05.17/outbox.cif.g08.bks.cpg/sg36_4_cif.got.tgz:6732.got - 2010.06.03 17:41:39.
