data_PCOD9352865
_publ_section_title
;
Structure prediction by ZEFSAII (Michael W. Deem and Ramdas Pophale) SiO2 
 PCOD9352865
Probable space group: C M C 21
;
_chemical_formula_sum "Si O2"
_cell_formula_units_Z 48
_cell_length_a 22.106010
_cell_length_b 9.071828
_cell_length_c 9.625568
_cell_angle_alpha 90.000000
_cell_angle_beta 90.000000
_cell_angle_gamma 90.000000
_cell_volume 1930.329892
_symmetry_space_group_name_H-M "C M C 21"
_symmetry_group_IT_number 36
_symmetry_cell_setting 'orthorhombic'
loop_
_space_group_symop_operation_xyz
x,y,z
-x,-y,1/2+z
x,-y,1/2+z
-x,y,z
1/2+x,1/2+y,z
1/2-x,1/2-y,1/2+z
1/2+x,1/2-y,1/2+z
1/2-x,1/2+y,z
loop_
_atom_site_type_symbol
_atom_site_label
_atom_site_fract_x
_atom_site_fract_y
_atom_site_fract_z
Si Si1 0.500000 0.481491 0.470551
Si Si2 0.368637 0.790410 0.890708
Si Si3 0.190660 0.054001 0.036142
Si Si4 0.399636 0.331662 0.125006
Si Si5 0.115041 0.637068 0.870510
Si Si6 0.268082 0.668983 0.299713
Si Si7 0.500000 0.293475 0.725714
O O1 0.556062 0.567139 0.539009
O O2 0.500000 0.326716 0.559145
O O3 0.500000 0.549154 0.312064
O O4 0.361123 0.678869 0.017950
O O5 0.412956 0.711388 0.781592
O O6 0.297577 0.784243 0.849094
O O7 0.384045 0.961262 0.883227
O O8 0.161584 0.924020 0.126721
O O9 0.212250 0.967844 0.899272
O O10 0.239160 0.125056 0.138390
O O11 0.392626 0.189914 0.029266
O O12 0.178363 0.709974 0.817694
O O13 0.059295 0.703173 0.779701
#
# Coordination Sequence:
#
# PCOD9352865 Si02
#       7
#     4   8   8   8   8   8   4
#     4  10  22  43  75  93 131 180 232 282 322 404
#     4  12  26  40  68  99 141 182 220 286 356 405
#     4  11  24  44  66  95 132 182 232 277 331 417
#     4  10  24  45  65 101 132 176 236 279 333 412
#     4  10  25  44  68 103 144 175 224 292 348 404
#     4  11  25  42  69  99 138 183 232 276 340 419
#     4  10  22  47  75 105 137 182 234 286 336 406
#
# _framework density 24.866213999999999
#
# number of rings (size 3 to 8) (size 9 to 14) (size 15 to 20)
#    0.000    1.333    1.667    2.000   14.000    0.667 
#    0.000    0.833    0.000    0.000    0.000    0.000 
#    0.000    0.000    0.000    0.000    0.000    0.000 
#
# Total GULP energy -133978.976397 kJ/mol
# GULP energy per Si atom -5582.457350 kJ/mol
# Density = 2.480962 g / cm^3
# Si number density = 24.866214 Si / 1000 Ang^3
#
#
#
# Elastic Constant Matrix: (Units=GPa)
#
#
# Indices 1 2 3 4 5 6 
#
# 1 74.3113 23.1320 -22.6805 0.0000 0.0000 0.0000
# 2 23.1320 158.1715 10.9762 0.0000 0.0000 0.0000
# 3 -22.6805 10.9762 80.5595 0.0000 0.0000 0.0000
# 4 0.0000 0.0000 0.0000 20.3275 0.0000 0.0000
# 5 0.0000 0.0000 0.0000 0.0000 19.6850 0.0000
# 6 0.0000 0.0000 0.0000 0.0000 0.0000 14.5764
#
#
#
# Elastic Compliance Matrix: (Units=1/GPa)
#
#
# Indices 1 2 3 4 5 6 
#
# 1 0.015739 -0.002634 0.004790 0.000000 0.000000 0.000000
# 2 -0.002634 0.006823 -0.001671 0.000000 0.000000 0.000000
# 3 0.004790 -0.001671 0.013989 0.000000 0.000000 0.000000
# 4 0.000000 0.000000 0.000000 0.049194 0.000000 0.000000
# 5 0.000000 0.000000 0.000000 0.000000 0.050800 0.000000
# 6 0.000000 0.000000 0.000000 0.000000 0.000000 0.068604
#
#
# Mechanical properties :
#
#
# Convention : Reuss Voigt Hill
#
# Bulk Modulus (GPa) = 26.65190 37.32196 31.98693
# Shear Modulus (GPa) = 23.07463 31.02543 27.05003
#
# Velocity S-wave (km/s) = 3.04953 3.53610 3.30179
# Velocity P-wave (km/s) = 4.81050 5.63149 5.23711
#
# Compressibility (1/GPa) = 0.03752078
#
# Stress axis : x y z
#
# Youngs Moduli (GPa) = 63.53721 146.55321 71.48241
#
# Poissons Ratio (x) = 0.38604 -0.34240
# Poissons Ratio (y) = 0.16737 0.11947
# Poissons Ratio (z) = -0.30434 0.24493
#
# Static dielectric constant tensor:
#      x y z
#    x 2.102560 0.000000 0.000000 
#    y 0.000000 1.966820 0.000000 
#    z 0.000000 0.000000 1.998150 
# 
# From -- ./inp_files/9452.got.cif
#   From: 2010.05.17/outbox.cif.g08.bks.cpg/sg36_5_cif.got.tgz:9452.got - 2010.06.03 17:41:39.
