data_PCOD9352167
_publ_section_title
;
Structure prediction by ZEFSAII (Michael W. Deem and Ramdas Pophale) SiO2 
 PCOD9352167
Probable space group: C M C 21
;
_chemical_formula_sum "Si O2"
_cell_formula_units_Z 52
_cell_length_a 7.409067
_cell_length_b 19.278109
_cell_length_c 13.709804
_cell_angle_alpha 90.000000
_cell_angle_beta 90.000000
_cell_angle_gamma 90.000000
_cell_volume 1958.209709
_symmetry_space_group_name_H-M "C M C 21"
_symmetry_group_IT_number 36
_symmetry_cell_setting 'orthorhombic'
loop_
_space_group_symop_operation_xyz
x,y,z
-x,-y,1/2+z
x,-y,1/2+z
-x,y,z
1/2+x,1/2+y,z
1/2-x,1/2-y,1/2+z
1/2+x,1/2-y,1/2+z
1/2-x,1/2+y,z
loop_
_atom_site_type_symbol
_atom_site_label
_atom_site_fract_x
_atom_site_fract_y
_atom_site_fract_z
Si Si1 0.216317 0.235336 0.618820
Si Si2 0.719720 0.605533 0.927447
Si Si3 0.705001 0.760774 0.907220
Si Si4 0.500000 0.438637 0.844701
Si Si5 0.695202 0.969833 0.007797
Si Si6 0.782892 0.096117 0.712632
Si Si7 0.782490 0.364371 0.738579
O O1 0.292302 0.210042 0.516192
O O2 0.266579 0.177628 0.698206
O O3 0.267683 0.313215 0.649013
O O4 0.000000 0.234310 0.611428
O O5 0.500000 0.604915 0.934305
O O6 0.784567 0.684544 0.924332
O O7 0.794145 0.553695 0.007357
O O8 0.772404 0.575518 0.821119
O O9 0.500000 0.749336 0.872584
O O10 0.780575 0.814649 0.830341
O O11 0.345404 0.446417 0.931488
O O12 0.658709 0.429614 0.759347
O O13 0.500000 0.947226 0.970529
O O14 0.717281 0.942592 0.117083
O O15 0.000000 0.091942 0.712570
O O16 0.000000 0.374866 0.739141
#
# Coordination Sequence:
#
# PCOD9352167 Si02
#       7
#     8   8   8   4   8   8   8
#     4  10  21  38  64  99 137 177 222 281 351 412
#     4  10  21  45  71  96 138 185 231 283 344 404
#     4  10  21  38  65 100 137 174 221 284 339 410
#     4  12  24  44  68  98 138 182 230 282 336 402
#     4  12  26  45  68 103 136 183 238 284 337 406
#     4  10  20  42  73  98 132 181 230 282 343 418
#     4  10  22  42  64 100 140 174 222 283 347 408
#
# _framework density 26.554869
#
# number of rings (size 3 to 8) (size 9 to 14) (size 15 to 20)
#    0.000    1.538    3.077    1.385    4.308    3.077 
#    2.769    0.000    0.000    0.000    0.000    0.000 
#    0.000    0.000    0.000    0.000    0.000    0.000 
#
# Total GULP energy -145092.874675 kJ/mol
# GULP energy per Si atom -5580.495180 kJ/mol
# Density = 2.649443 g / cm^3
# Si number density = 26.554869 Si / 1000 Ang^3
#
#
#
# Elastic Constant Matrix: (Units=GPa)
#
#
# Indices 1 2 3 4 5 6 
#
# 1 146.8140 -0.0338 4.3629 0.0000 0.0000 0.0000
# 2 -0.0338 90.1454 4.5192 0.0000 0.0000 0.0000
# 3 4.3629 4.5192 65.8523 0.0000 0.0000 0.0000
# 4 0.0000 0.0000 0.0000 52.6911 0.0000 0.0000
# 5 0.0000 0.0000 0.0000 0.0000 10.9042 0.0000
# 6 0.0000 0.0000 0.0000 0.0000 0.0000 1.8343
#
#
#
# Elastic Compliance Matrix: (Units=1/GPa)
#
#
# Indices 1 2 3 4 5 6 
#
# 1 0.006825 0.000025 -0.000454 0.000000 0.000000 0.000000
# 2 0.000025 0.011132 -0.000766 0.000000 0.000000 0.000000
# 3 -0.000454 -0.000766 0.015268 0.000000 0.000000 0.000000
# 4 0.000000 0.000000 0.000000 0.018979 0.000000 0.000000
# 5 0.000000 0.000000 0.000000 0.000000 0.091708 0.000000
# 6 0.000000 0.000000 0.000000 0.000000 0.000000 0.545156
#
#
# Mechanical properties :
#
#
# Convention : Reuss Voigt Hill
#
# Bulk Modulus (GPa) = 32.42947 35.61204 34.02076
# Shear Modulus (GPa) = 7.12520 32.68349 19.90434
#
# Velocity S-wave (km/s) = 1.63982 3.51207 2.74077
# Velocity P-wave (km/s) = 3.97796 5.46681 4.78070
#
# Compressibility (1/GPa) = 0.03083615
#
# Stress axis : x y z
#
# Youngs Moduli (GPa) = 146.52367 89.83449 65.49599
#
# Poissons Ratio (x) = -0.00227 0.02973
# Poissons Ratio (y) = -0.00371 0.05014
# Poissons Ratio (z) = 0.06651 0.06878
#
# Static dielectric constant tensor:
#      x y z
#    x 2.031200 0.000000 0.000000 
#    y 0.000000 2.244120 0.000000 
#    z 0.000000 0.000000 2.031240 
# 
# From -- ./inp_files/10571.got.cif
#   From: 2010.05.17/outbox.cif.g08.bks.cpg/sg36_6_cif.got.tgz:10571.got - 2010.06.03 17:41:39.
