data_PCOD9352655
_publ_section_title
;
Structure prediction by ZEFSAII (Michael W. Deem and Ramdas Pophale) SiO2 
 PCOD9352655
Probable space group: C M C 21
;
_chemical_formula_sum "Si O2"
_cell_formula_units_Z 56
_cell_length_a 34.118742
_cell_length_b 5.171241
_cell_length_c 13.461841
_cell_angle_alpha 90.000000
_cell_angle_beta 90.000000
_cell_angle_gamma 90.000000
_cell_volume 2375.156576
_symmetry_space_group_name_H-M "C M C 21"
_symmetry_group_IT_number 36
_symmetry_cell_setting 'orthorhombic'
loop_
_space_group_symop_operation_xyz
x,y,z
-x,-y,1/2+z
x,-y,1/2+z
-x,y,z
1/2+x,1/2+y,z
1/2-x,1/2-y,1/2+z
1/2+x,1/2-y,1/2+z
1/2-x,1/2+y,z
loop_
_atom_site_type_symbol
_atom_site_label
_atom_site_fract_x
_atom_site_fract_y
_atom_site_fract_z
Si Si1 0.955689 0.337071 0.787380
Si Si2 0.663443 0.500000 0.417101
Si Si3 0.955689 0.662928 0.046821
Si Si4 0.905198 0.167517 0.048312
Si Si5 0.775421 0.707663 0.283609
Si Si6 0.724579 0.207663 0.050592
Si Si7 0.594802 0.332483 0.785889
O O1 0.958640 0.342436 0.667101
O O2 0.933847 0.600010 0.814640
O O3 0.000000 0.311299 0.825669
O O4 0.928095 0.096114 0.809535
O O5 0.635477 0.338942 0.490617
O O6 0.689710 0.307019 0.351946
O O7 0.689710 0.692981 0.482256
O O8 0.635477 0.661058 0.343584
O O9 0.933847 0.399989 0.019562
O O10 0.000000 0.688701 0.008532
O O11 0.928095 0.903885 0.024666
O O12 0.898369 0.180966 0.167101
O O13 0.759373 0.418695 0.300601
O O14 0.786346 0.727725 0.167101
O O15 0.740627 0.918695 0.033601
#
# Coordination Sequence:
#
# PCOD9352655 Si02
#       7
#     8   8   8   8   8   8   8
#     4   9  18  37  61  82 113 158 203 245 288 338
#     4  12  24  40  61  90 124 156 186 238 297 352
#     4   9  18  37  61  82 113 158 203 245 288 338
#     4  10  22  37  57  87 118 153 196 242 294 344
#     4  10  23  43  66  90 116 152 196 237 282 344
#     4  10  23  43  66  90 116 152 196 237 282 344
#     4  10  22  37  57  87 118 153 196 242 294 344
#
# _framework density 23.577393000000001
#
# number of rings (size 3 to 8) (size 9 to 14) (size 15 to 20)
#    0.000    2.000    0.000    2.571    0.000    9.143 
#    0.000   12.857    0.000    0.000    0.000    0.000 
#    0.000    0.000    0.000    0.000    0.000    0.000 
#
# Total GULP energy -157005.890562 kJ/mol
# GULP energy per Si atom -5607.353234 kJ/mol
# Density = 2.352373 g / cm^3
# Si number density = 23.577393 Si / 1000 Ang^3
#
#
#
# Elastic Constant Matrix: (Units=GPa)
#
#
# Indices 1 2 3 4 5 6 
#
# 1 138.2274 29.0650 49.1620 0.0000 0.0000 0.0000
# 2 29.0650 118.6938 2.9688 0.0000 0.0000 0.0000
# 3 49.1620 2.9688 100.9412 0.0000 0.0000 0.0000
# 4 0.0000 0.0000 0.0000 31.6215 0.0000 0.0000
# 5 0.0000 0.0000 0.0000 0.0000 46.8566 0.0000
# 6 0.0000 0.0000 0.0000 0.0000 0.0000 6.6480
#
#
#
# Elastic Compliance Matrix: (Units=1/GPa)
#
#
# Indices 1 2 3 4 5 6 
#
# 1 0.009272 -0.002159 -0.004452 0.000000 0.000000 0.000000
# 2 -0.002159 0.008934 0.000789 0.000000 0.000000 0.000000
# 3 -0.004452 0.000789 0.012052 0.000000 0.000000 0.000000
# 4 0.000000 0.000000 0.000000 0.031624 0.000000 0.000000
# 5 0.000000 0.000000 0.000000 0.000000 0.021342 0.000000
# 6 0.000000 0.000000 0.000000 0.000000 0.000000 0.150421
#
#
# Mechanical properties :
#
#
# Convention : Reuss Voigt Hill
#
# Bulk Modulus (GPa) = 53.72647 57.80601 55.76624
# Shear Modulus (GPa) = 19.88118 35.46966 27.67542
#
# Velocity S-wave (km/s) = 2.90699 3.88286 3.42981
# Velocity P-wave (km/s) = 5.83988 6.68378 6.27603
#
# Compressibility (1/GPa) = 0.01861280
#
# Stress axis : x y z
#
# Youngs Moduli (GPa) = 107.85231 111.93172 82.97400
#
# Poissons Ratio (x) = 0.24167 0.36942
# Poissons Ratio (y) = 0.23286 -0.06545
# Poissons Ratio (z) = 0.48019 -0.08829
#
# Static dielectric constant tensor:
#      x y z
#    x 1.843200 0.000000 0.000000 
#    y 0.000000 1.823660 0.000000 
#    z 0.000000 0.000000 1.956400 
# 
# From -- ./inp_files/13150.got.cif
#   From: 2010.05.17/outbox.cif.g08.bks.cpg/sg36_7_cif.got.tgz:13150.got - 2010.06.03 17:41:39.
