data_PCOD9352855
_publ_section_title
;
Structure prediction by ZEFSAII (Michael W. Deem and Ramdas Pophale) SiO2 
 PCOD9352855
Probable space group: C M C 21
;
_chemical_formula_sum "Si O2"
_cell_formula_units_Z 44
_cell_length_a 15.157839
_cell_length_b 18.209108
_cell_length_c 6.385157
_cell_angle_alpha 90.000000
_cell_angle_beta 90.000000
_cell_angle_gamma 90.000000
_cell_volume 1762.371828
_symmetry_space_group_name_H-M "C M C 21"
_symmetry_group_IT_number 36
_symmetry_cell_setting 'orthorhombic'
loop_
_space_group_symop_operation_xyz
x,y,z
-x,-y,1/2+z
x,-y,1/2+z
-x,y,z
1/2+x,1/2+y,z
1/2-x,1/2-y,1/2+z
1/2+x,1/2-y,1/2+z
1/2-x,1/2+y,z
loop_
_atom_site_type_symbol
_atom_site_label
_atom_site_fract_x
_atom_site_fract_y
_atom_site_fract_z
Si Si1 0.500000 0.476154 0.835680
Si Si2 0.861315 0.552978 0.501860
Si Si3 0.810778 0.084853 0.257024
Si Si4 0.343189 0.286756 0.088486
Si Si5 0.500000 0.064227 0.187520
Si Si6 0.701445 0.849014 0.376593
Si Si7 0.500000 0.371570 0.243919
O O1 0.599709 0.462380 0.745543
O O2 0.500000 0.561995 0.903877
O O3 0.500000 0.420339 0.031709
O O4 0.766142 0.544148 0.391372
O O5 0.922196 0.596956 0.340365
O O6 0.845513 0.403162 0.215556
O O7 0.922556 0.482853 0.556956
O O8 0.834132 0.156823 0.394784
O O9 0.767040 0.110660 0.039044
O O10 0.361267 0.205462 0.006078
O O11 0.255452 0.293717 0.225282
O O12 0.416975 0.319593 0.239074
#
# Coordination Sequence:
#
# PCOD9352855 Si02
#       7
#     4   8   8   8   4   8   4
#     4  10  24  44  66 102 153 180 237 293 371 449
#     4  10  25  43  72 105 139 195 244 306 381 445
#     4  10  23  43  72 108 140 198 241 307 377 452
#     4  10  22  43  68 100 142 184 246 302 368 435
#     4  10  24  50  64  99 152 181 242 310 365 456
#     4  11  22  42  73 101 139 193 248 302 369 441
#     4  10  24  42  62 103 137 183 233 295 356 441
#
# _framework density 24.966355
#
# number of rings (size 3 to 8) (size 9 to 14) (size 15 to 20)
#    0.000    1.818    1.818    0.000    7.636    5.818 
#    0.000    1.818    0.000    0.000    0.000    0.000 
#    0.000    0.000    0.000    0.000    0.000    0.000 
#
# Total GULP energy -122481.753455 kJ/mol
# GULP energy per Si atom -5567.352430 kJ/mol
# Density = 2.490953 g / cm^3
# Si number density = 24.966355 Si / 1000 Ang^3
#
#
#
# Elastic Constant Matrix: (Units=GPa)
#
#
# Indices 1 2 3 4 5 6 
#
# 1 175.6221 47.8645 60.1216 0.0000 0.0000 0.0000
# 2 47.8645 82.6773 49.5181 0.0000 0.0000 0.0000
# 3 60.1216 49.5181 106.8972 0.0000 0.0000 0.0000
# 4 0.0000 0.0000 0.0000 25.8877 0.0000 0.0000
# 5 0.0000 0.0000 0.0000 0.0000 44.2839 0.0000
# 6 0.0000 0.0000 0.0000 0.0000 0.0000 31.3792
#
#
#
# Elastic Compliance Matrix: (Units=1/GPa)
#
#
# Indices 1 2 3 4 5 6 
#
# 1 0.007402 -0.002480 -0.003014 0.000000 0.000000 0.000000
# 2 -0.002480 0.017570 -0.006744 0.000000 0.000000 0.000000
# 3 -0.003014 -0.006744 0.014174 0.000000 0.000000 0.000000
# 4 0.000000 0.000000 0.000000 0.038628 0.000000 0.000000
# 5 0.000000 0.000000 0.000000 0.000000 0.022582 0.000000
# 6 0.000000 0.000000 0.000000 0.000000 0.000000 0.031868
#
#
# Mechanical properties :
#
#
# Convention : Reuss Voigt Hill
#
# Bulk Modulus (GPa) = 68.16871 75.57834 71.87353
# Shear Modulus (GPa) = 30.94229 34.15633 32.54931
#
# Velocity S-wave (km/s) = 3.52427 3.70279 3.61463
# Velocity P-wave (km/s) = 6.62753 6.97271 6.80231
#
# Compressibility (1/GPa) = 0.01466949
#
# Stress axis : x y z
#
# Youngs Moduli (GPa) = 135.10279 56.91427 70.55048
#
# Poissons Ratio (x) = 0.14114 0.21265
# Poissons Ratio (y) = 0.33503 0.47582
# Poissons Ratio (z) = 0.40723 0.38385
#
# Static dielectric constant tensor:
#      x y z
#    x 1.958830 0.000000 0.000000 
#    y 0.000000 1.994470 0.000000 
#    z 0.000000 0.000000 2.109180 
# 
# From -- ./inp_files/3960.got.cif
#   From: 2010.05.17/outbox.cif.g08.bks.cpg/sg36_2_cif.got.tgz:3960.got - 2010.06.03 17:41:39.
