data_PCOD9352261
_publ_section_title
;
Structure prediction by ZEFSAII (Michael W. Deem and Ramdas Pophale) SiO2 
 PCOD9352261
Probable space group: C M C 21
;
_chemical_formula_sum "Si O2"
_cell_formula_units_Z 52
_cell_length_a 20.215644
_cell_length_b 20.316186
_cell_length_c 5.671646
_cell_angle_alpha 90.000000
_cell_angle_beta 90.000000
_cell_angle_gamma 90.000000
_cell_volume 2329.372143
_symmetry_space_group_name_H-M "C M C 21"
_symmetry_group_IT_number 36
_symmetry_cell_setting 'orthorhombic'
loop_
_space_group_symop_operation_xyz
x,y,z
-x,-y,1/2+z
x,-y,1/2+z
-x,y,z
1/2+x,1/2+y,z
1/2-x,1/2-y,1/2+z
1/2+x,1/2-y,1/2+z
1/2-x,1/2+y,z
loop_
_atom_site_type_symbol
_atom_site_label
_atom_site_fract_x
_atom_site_fract_y
_atom_site_fract_z
Si Si1 0.927134 0.759345 0.105680
Si Si2 0.110128 0.359305 0.316963
Si Si3 0.687946 0.968226 0.544514
Si Si4 0.813429 0.258859 0.987552
Si Si5 0.318791 0.664970 0.362244
Si Si6 0.500000 0.041422 0.662132
Si Si7 0.334089 0.483636 0.998564
O O1 0.869031 0.744851 0.289052
O O2 0.000000 0.777521 0.196891
O O3 0.932844 0.692687 0.958158
O O4 0.892330 0.813381 0.939778
O O5 0.156185 0.398188 0.499595
O O6 0.063686 0.410545 0.178326
O O7 0.156761 0.314561 0.158045
O O8 0.667520 0.992081 0.805321
O O9 0.767078 0.973322 0.527574
O O10 0.739422 0.285672 0.948877
O O11 0.813035 0.184191 0.088005
O O12 0.310847 0.591750 0.458334
O O13 0.500000 0.000634 0.413024
O O14 0.368100 0.506600 0.754030
#
# Coordination Sequence:
#
# PCOD9352261 Si02
#       7
#     8   8   8   8   8   4   8
#     4  11  26  45  70 100 141 189 235 306 370 433
#     4  11  25  40  64  95 142 188 248 287 360 427
#     4  10  21  36  57  92 130 181 222 279 345 406
#     4  11  24  40  71 101 140 186 241 315 359 428
#     4  11  24  43  70 107 139 181 251 299 373 431
#     4  12  28  44  66  98 148 208 258 292 344 436
#     4  10  23  38  67 100 140 178 228 293 368 429
#
# _framework density 22.323612000000001
#
# number of rings (size 3 to 8) (size 9 to 14) (size 15 to 20)
#    0.000    1.231    2.308    2.769   11.846    0.615 
#    0.000    0.000    0.000    0.923    0.000    0.000 
#    0.000    0.000    0.000    0.000    0.000    0.000 
#
# Total GULP energy -144942.007002 kJ/mol
# GULP energy per Si atom -5574.692577 kJ/mol
# Density = 2.227280 g / cm^3
# Si number density = 22.323612 Si / 1000 Ang^3
#
#
#
# Elastic Constant Matrix: (Units=GPa)
#
#
# Indices 1 2 3 4 5 6 
#
# 1 95.2287 21.9910 23.3514 0.0000 0.0000 0.0000
# 2 21.9910 70.7192 20.0779 0.0000 0.0000 0.0000
# 3 23.3514 20.0779 107.5133 0.0000 0.0000 0.0000
# 4 0.0000 0.0000 0.0000 14.6082 0.0000 0.0000
# 5 0.0000 0.0000 0.0000 0.0000 -172.7766 0.0000
# 6 0.0000 0.0000 0.0000 0.0000 0.0000 -42.6843
#
#
#
# Elastic Compliance Matrix: (Units=1/GPa)
#
#
# Indices 1 2 3 4 5 6 
#
# 1 0.011694 -0.003078 -0.001965 0.000000 0.000000 0.000000
# 2 -0.003078 0.015743 -0.002271 0.000000 0.000000 0.000000
# 3 -0.001965 -0.002271 0.010152 0.000000 0.000000 0.000000
# 4 0.000000 0.000000 0.000000 0.068455 0.000000 0.000000
# 5 0.000000 0.000000 0.000000 0.000000 -0.005788 0.000000
# 6 0.000000 0.000000 0.000000 0.000000 0.000000 -0.023428
#
#
# Mechanical properties :
#
#
# Convention : Reuss Voigt Hill
#
# Bulk Modulus (GPa) = 43.55570 44.92243 44.23907
# Shear Modulus (GPa) = 50.44903 -26.30115 12.07394
#
# Velocity S-wave (km/s) = 4.75899 -3.43618 2.32816
# Velocity P-wave (km/s) = 7.05342 2.10329 5.20455
#
# Compressibility (1/GPa) = 0.02295911
#
# Stress axis : x y z
#
# Youngs Moduli (GPa) = 85.51563 63.52206 98.50178
#
# Poissons Ratio (x) = 0.19555 0.19355
# Poissons Ratio (y) = 0.26326 0.22372
# Poissons Ratio (z) = 0.16803 0.14428
#
# Static dielectric constant tensor:
#      x y z
#    x 1.866470 0.000000 0.000000 
#    y 0.000000 1.838050 0.000000 
#    z 0.000000 0.000000 1.977320 
# 
# From -- ./inp_files/1375.got.cif
#   From: 2010.05.17/outbox.cif.g08.bks.cpg/sg36_1_cif.got.tgz:1375.got - 2010.06.03 17:41:39.
