data_PCOD9352594
_publ_section_title
;
Structure prediction by ZEFSAII (Michael W. Deem and Ramdas Pophale) SiO2 
 PCOD9352594
Probable space group: C M C 21
;
_chemical_formula_sum "Si O2"
_cell_formula_units_Z 64
_cell_length_a 7.949165
_cell_length_b 19.714719
_cell_length_c 16.974747
_cell_angle_alpha 90.000000
_cell_angle_beta 90.000000
_cell_angle_gamma 90.000000
_cell_volume 2660.206885
_symmetry_space_group_name_H-M "C M C 21"
_symmetry_group_IT_number 36
_symmetry_cell_setting 'orthorhombic'
loop_
_space_group_symop_operation_xyz
x,y,z
-x,-y,1/2+z
x,-y,1/2+z
-x,y,z
1/2+x,1/2+y,z
1/2-x,1/2-y,1/2+z
1/2+x,1/2-y,1/2+z
1/2-x,1/2+y,z
loop_
_atom_site_type_symbol
_atom_site_label
_atom_site_fract_x
_atom_site_fract_y
_atom_site_fract_z
Si Si1 0.705874 0.082074 0.121900
Si Si2 0.195423 0.646894 0.957228
Si Si3 0.306057 0.946482 0.187974
Si Si4 0.306291 0.403880 0.940202
Si Si5 0.305543 0.777297 0.024067
Si Si6 0.195323 0.967898 0.355953
Si Si7 0.300810 0.162777 0.279132
Si Si8 0.204738 0.294028 0.198710
O O1 0.500000 0.081648 0.122339
O O2 0.757045 0.124257 0.199463
O O3 0.766776 0.004451 0.131642
O O4 0.758640 0.116922 0.040794
O O5 0.213560 0.727402 0.964206
O O6 0.288373 0.607975 0.888022
O O7 0.000000 0.629909 0.947566
O O8 0.500000 0.936830 0.164496
O O9 0.296690 0.977071 0.275915
O O10 0.231921 0.871507 0.197823
O O11 0.500000 0.406624 0.964855
O O12 0.212379 0.355803 0.001257
O O13 0.243105 0.479708 0.922890
O O14 0.289646 0.366761 0.855509
O O15 0.500000 0.758785 0.020835
O O16 0.243120 0.766470 0.112677
O O17 0.000000 0.983869 0.340354
O O18 0.500000 0.151385 0.289859
O O19 0.269870 0.242327 0.263736
O O20 0.000000 0.294728 0.203741
#
# Coordination Sequence:
#
# PCOD9352594 Si02
#       8
#     8   8   8   8   8   8   8   8
#     4   9  19  37  64  92 116 153 207 253 301 366
#     4  11  23  41  66  92 124 166 206 254 312 374
#     4  10  21  41  65  90 122 163 207 254 306 367
#     4  11  25  43  63  89 126 166 209 258 314 374
#     4  11  24  42  64  92 126 164 209 259 308 369
#     4  11  25  43  61  91 127 163 207 257 307 368
#     4  11  21  39  66  91 120 160 207 256 306 367
#     4  10  23  40  63  93 127 161 202 257 312 369
#
# _framework density 24.058278000000001
#
# number of rings (size 3 to 8) (size 9 to 14) (size 15 to 20)
#    0.000    1.500    2.500    1.875    3.500    2.500 
#    0.000    1.250    0.000    0.000    0.000    0.000 
#    0.000    0.000    0.000    0.000    0.000    0.000 
#
# Total GULP energy -179025.882976 kJ/mol
# GULP energy per Si atom -5594.558843 kJ/mol
# Density = 2.400352 g / cm^3
# Si number density = 24.058278 Si / 1000 Ang^3
#
#
#
# Elastic Constant Matrix: (Units=GPa)
#
#
# Indices 1 2 3 4 5 6 
#
# 1 37.3097 2.2595 -2.1120 0.0000 0.0000 0.0000
# 2 2.2595 108.9407 -11.3033 0.0000 0.0000 0.0000
# 3 -2.1120 -11.3033 45.1605 0.0000 0.0000 0.0000
# 4 0.0000 0.0000 0.0000 41.0891 0.0000 0.0000
# 5 0.0000 0.0000 0.0000 0.0000 13.3275 0.0000
# 6 0.0000 0.0000 0.0000 0.0000 0.0000 24.8467
#
#
#
# Elastic Compliance Matrix: (Units=1/GPa)
#
#
# Indices 1 2 3 4 5 6 
#
# 1 0.026894 -0.000439 0.001148 0.000000 0.000000 0.000000
# 2 -0.000439 0.009431 0.002340 0.000000 0.000000 0.000000
# 3 0.001148 0.002340 0.022783 0.000000 0.000000 0.000000
# 4 0.000000 0.000000 0.000000 0.024337 0.000000 0.000000
# 5 0.000000 0.000000 0.000000 0.000000 0.075033 0.000000
# 6 0.000000 0.000000 0.000000 0.000000 0.000000 0.040247
#
#
# Mechanical properties :
#
#
# Convention : Reuss Voigt Hill
#
# Bulk Modulus (GPa) = 15.33587 18.78881 17.06234
# Shear Modulus (GPa) = 23.32505 29.35712 26.34108
#
# Velocity S-wave (km/s) = 3.11709 3.49700 3.31250
# Velocity P-wave (km/s) = 4.39811 4.91243 4.66237
#
# Compressibility (1/GPa) = 0.06520661
#
# Stress axis : x y z
#
# Youngs Moduli (GPa) = 37.18274 106.03105 43.89308
#
# Poissons Ratio (x) = 0.04651 -0.05039
# Poissons Ratio (y) = 0.01631 -0.10271
# Poissons Ratio (z) = -0.04268 -0.24812
#
# Static dielectric constant tensor:
#      x y z
#    x 1.839030 0.000000 0.000000 
#    y 0.000000 1.956700 0.000000 
#    z 0.000000 0.000000 1.903970 
# 
# From -- ./inp_files/13983.got.cif
#   From: 2010.05.17/outbox.cif.g08.bks.cpg/sg36_7_cif.got.tgz:13983.got - 2010.06.03 17:41:39.
