data_PCOD9352067
_publ_section_title
;
Structure prediction by ZEFSAII (Michael W. Deem and Ramdas Pophale) SiO2 
 PCOD9352067
Probable space group: C M C 21
;
_chemical_formula_sum "Si O2"
_cell_formula_units_Z 48
_cell_length_a 24.515120
_cell_length_b 11.983748
_cell_length_c 8.279685
_cell_angle_alpha 90.000000
_cell_angle_beta 90.000000
_cell_angle_gamma 90.000000
_cell_volume 2432.430866
_symmetry_space_group_name_H-M "C M C 21"
_symmetry_group_IT_number 36
_symmetry_cell_setting 'orthorhombic'
loop_
_space_group_symop_operation_xyz
x,y,z
-x,-y,1/2+z
x,-y,1/2+z
-x,y,z
1/2+x,1/2+y,z
1/2-x,1/2-y,1/2+z
1/2+x,1/2-y,1/2+z
1/2-x,1/2+y,z
loop_
_atom_site_type_symbol
_atom_site_label
_atom_site_fract_x
_atom_site_fract_y
_atom_site_fract_z
Si Si1 0.324896 0.551353 0.681630
Si Si2 0.733267 0.199914 0.666320
Si Si3 0.062965 0.650705 0.793167
Si Si4 0.935346 0.590553 0.414845
Si Si5 0.333618 0.767174 0.836264
Si Si6 0.350757 0.668829 0.347658
O O1 0.259763 0.577060 0.684224
O O2 0.347403 0.635561 0.819095
O O3 0.344170 0.602539 0.513060
O O4 0.341375 0.425970 0.713129
O O5 0.698554 0.209680 0.503169
O O6 0.787541 0.277101 0.694687
O O7 0.694657 0.237595 0.811403
O O8 0.079409 0.538899 0.888326
O O9 0.069029 0.623768 0.602761
O O10 0.094474 0.762141 0.836617
O O11 0.000000 0.667787 0.828460
O O12 0.888906 0.662642 0.324667
O O13 0.000000 0.604980 0.366282
#
# Coordination Sequence:
#
# PCOD9352067 Si02
#       6
#     8   8   8   8   8   8
#     4  10  24  38  62  90 129 169 213 265 324 391
#     4  10  20  39  59  91 125 166 215 263 318 391
#     4  10  24  43  67  96 129 170 221 279 332 389
#     4  10  22  42  68  97 129 169 222 281 330 388
#     4  10  20  42  60  98 126 178 213 273 333 390
#     4  12  22  42  63  92 131 170 214 271 327 399
#
# _framework density 19.733346000000001
#
# number of rings (size 3 to 8) (size 9 to 14) (size 15 to 20)
#    1.000    0.667    3.333    1.000    2.333    1.333 
#    3.000    1.667    0.000    0.000    0.000    0.000 
#    0.000    0.000    0.000    0.000    0.000    0.000 
#
# Total GULP energy -133630.287383 kJ/mol
# GULP energy per Si atom -5567.928641 kJ/mol
# Density = 1.968843 g / cm^3
# Si number density = 19.733346 Si / 1000 Ang^3
#
#
#
# Elastic Constant Matrix: (Units=GPa)
#
#
# Indices 1 2 3 4 5 6 
#
# 1 74.1177 43.6966 23.3938 0.0000 0.0000 0.0000
# 2 43.6966 76.9386 15.0351 0.0000 0.0000 0.0000
# 3 23.3938 15.0351 54.0775 0.0000 0.0000 0.0000
# 4 0.0000 0.0000 0.0000 19.5555 0.0000 0.0000
# 5 0.0000 0.0000 0.0000 0.0000 7.1035 0.0000
# 6 0.0000 0.0000 0.0000 0.0000 0.0000 12.8051
#
#
#
# Elastic Compliance Matrix: (Units=1/GPa)
#
#
# Indices 1 2 3 4 5 6 
#
# 1 0.022229 -0.011363 -0.006457 0.000000 0.000000 0.000000
# 2 -0.011363 0.019553 -0.000521 0.000000 0.000000 0.000000
# 3 -0.006457 -0.000521 0.021430 0.000000 0.000000 0.000000
# 4 0.000000 0.000000 0.000000 0.051137 0.000000 0.000000
# 5 0.000000 0.000000 0.000000 0.000000 0.140775 0.000000
# 6 0.000000 0.000000 0.000000 0.000000 0.000000 0.078094
#
#
# Mechanical properties :
#
#
# Convention : Reuss Voigt Hill
#
# Bulk Modulus (GPa) = 37.69241 41.04274 39.36757
# Shear Modulus (GPa) = 13.20159 16.09339 14.64749
#
# Velocity S-wave (km/s) = 2.58931 2.85887 2.72742
# Velocity P-wave (km/s) = 5.29922 5.63394 5.46914
#
# Compressibility (1/GPa) = 0.02653054
#
# Stress axis : x y z
#
# Youngs Moduli (GPa) = 44.98568 51.14392 46.66350
#
# Poissons Ratio (x) = 0.58115 0.30131
# Poissons Ratio (y) = 0.51118 0.02429
# Poissons Ratio (z) = 0.29048 0.02662
#
# Static dielectric constant tensor:
#      x y z
#    x 1.724130 0.000000 0.000000 
#    y 0.000000 1.708890 0.000000 
#    z 0.000000 0.000000 1.756510 
# 
# From -- ./inp_files/5767.got.cif
#   From: 2010.05.17/outbox.cif.g08.bks.cpg/sg36_3_cif.got.tgz:5767.got - 2010.06.03 17:41:39.
