data_PCOD9352490
_publ_section_title
;
Structure prediction by ZEFSAII (Michael W. Deem and Ramdas Pophale) SiO2 
 PCOD9352490
Probable space group: C M C 21
;
_chemical_formula_sum "Si O2"
_cell_formula_units_Z 64
_cell_length_a 8.829799
_cell_length_b 32.810240
_cell_length_c 10.551950
_cell_angle_alpha 90.000000
_cell_angle_beta 90.000000
_cell_angle_gamma 90.000000
_cell_volume 3056.982477
_symmetry_space_group_name_H-M "C M C 21"
_symmetry_group_IT_number 36
_symmetry_cell_setting 'orthorhombic'
loop_
_space_group_symop_operation_xyz
x,y,z
-x,-y,1/2+z
x,-y,1/2+z
-x,y,z
1/2+x,1/2+y,z
1/2-x,1/2-y,1/2+z
1/2+x,1/2-y,1/2+z
1/2-x,1/2+y,z
loop_
_atom_site_type_symbol
_atom_site_label
_atom_site_fract_x
_atom_site_fract_y
_atom_site_fract_z
Si Si1 0.673612 0.166943 0.923480
Si Si2 0.181382 0.290643 0.026760
Si Si3 0.821115 0.240515 0.782287
Si Si4 0.165613 0.420464 0.296823
Si Si5 0.174501 0.954416 0.073116
Si Si6 0.181192 0.127776 0.450930
Si Si7 0.820960 0.124147 0.158499
Si Si8 0.827818 0.541730 0.072703
O O1 0.500000 0.182229 0.928985
O O2 0.781918 0.199060 0.857232
O O3 0.674253 0.126081 0.839663
O O4 0.729947 0.152524 0.061084
O O5 0.229311 0.273652 0.887901
O O6 0.240186 0.337091 0.032961
O O7 0.000000 0.289822 0.033019
O O8 0.243597 0.263864 0.144455
O O9 0.000000 0.245310 0.762295
O O10 0.302116 0.433402 0.208871
O O11 0.169176 0.446291 0.425002
O O12 0.000000 0.427181 0.234294
O O13 0.000000 0.962998 0.043426
O O14 0.262800 0.996596 0.080352
O O15 0.231449 0.918489 0.980792
O O16 0.209299 0.135624 0.303158
O O17 0.000000 0.129312 0.473972
O O18 0.770007 0.077268 0.137728
O O19 0.000000 0.127678 0.133006
O O20 0.000000 0.543586 0.121602
#
# Coordination Sequence:
#
# PCOD9352490 Si02
#       8
#     8   8   8   8   8   8   8   8
#     4  10  21  39  65  94 124 163 209 259 318 384
#     4  11  26  45  68 100 134 175 224 273 332 396
#     4  11  25  44  68 100 135 174 219 271 332 393
#     4   9  20  38  57  82 114 150 197 248 303 370
#     4  11  23  37  58  86 118 158 203 255 314 377
#     4  10  24  43  63  91 129 170 214 266 329 391
#     4  10  21  39  63  93 128 168 213 266 321 384
#     4  10  22  39  58  86 120 160 207 258 313 377
#
# _framework density 20.935677999999999
#
# number of rings (size 3 to 8) (size 9 to 14) (size 15 to 20)
#    0.000    1.750    0.000    3.750    3.500    9.000 
#    0.000    0.000    0.000    0.000    0.000    0.000 
#    0.000    0.000    0.000    0.000    0.000    0.000 
#
# Total GULP energy -178750.659990 kJ/mol
# GULP energy per Si atom -5585.958125 kJ/mol
# Density = 2.088803 g / cm^3
# Si number density = 20.935678 Si / 1000 Ang^3
#
#
#
# Elastic Constant Matrix: (Units=GPa)
#
#
# Indices 1 2 3 4 5 6 
#
# 1 22.9759 5.6078 22.7772 0.0000 0.0000 0.0000
# 2 5.6078 27.1849 20.8954 0.0000 0.0000 0.0000
# 3 22.7772 20.8954 76.9515 0.0000 0.0000 0.0000
# 4 0.0000 0.0000 0.0000 -3.8501 0.0000 0.0000
# 5 0.0000 0.0000 0.0000 0.0000 55.6703 0.0000
# 6 0.0000 0.0000 0.0000 0.0000 0.0000 1.7229
#
#
#
# Elastic Compliance Matrix: (Units=1/GPa)
#
#
# Indices 1 2 3 4 5 6 
#
# 1 0.061658 0.001654 -0.018700 0.000000 0.000000 0.000000
# 2 0.001654 0.046532 -0.013125 0.000000 0.000000 0.000000
# 3 -0.018700 -0.013125 0.022094 0.000000 0.000000 0.000000
# 4 0.000000 0.000000 0.000000 -0.259731 0.000000 0.000000
# 5 0.000000 0.000000 0.000000 0.000000 0.017963 0.000000
# 6 0.000000 0.000000 0.000000 0.000000 0.000000 0.580418
#
#
# Mechanical properties :
#
#
# Convention : Reuss Voigt Hill
#
# Bulk Modulus (GPa) = 14.29721 25.07479 19.68600
# Shear Modulus (GPa) = 9.04829 15.89739 12.47284
#
# Velocity S-wave (km/s) = 2.08119 2.75861 2.44349
# Velocity P-wave (km/s) = 3.55233 4.70634 4.16945
#
# Compressibility (1/GPa) = 0.06994371
#
# Stress axis : x y z
#
# Youngs Moduli (GPa) = 16.21848 21.49039 45.26085
#
# Poissons Ratio (x) = -0.03555 0.84636
# Poissons Ratio (y) = -0.02683 0.59405
# Poissons Ratio (z) = 0.30328 0.28206
#
# Static dielectric constant tensor:
#      x y z
#    x 1.734370 0.000000 0.000000 
#    y 0.000000 1.767010 0.000000 
#    z 0.000000 0.000000 1.755250 
# 
# From -- ./inp_files/7132.got.cif
#   From: 2010.05.17/outbox.cif.g08.bks.cpg/sg36_4_cif.got.tgz:7132.got - 2010.06.03 17:41:39.
