data_PCOD9352397
_publ_section_title
;
Structure prediction by ZEFSAII (Michael W. Deem and Ramdas Pophale) SiO2 
 PCOD9352397
Probable space group: C M C 21
;
_chemical_formula_sum "Si O2"
_cell_formula_units_Z 48
_cell_length_a 19.272225
_cell_length_b 14.310321
_cell_length_c 8.028200
_cell_angle_alpha 90.000000
_cell_angle_beta 90.000000
_cell_angle_gamma 90.000000
_cell_volume 2214.111136
_symmetry_space_group_name_H-M "C M C 21"
_symmetry_group_IT_number 36
_symmetry_cell_setting 'orthorhombic'
loop_
_space_group_symop_operation_xyz
x,y,z
-x,-y,1/2+z
x,-y,1/2+z
-x,y,z
1/2+x,1/2+y,z
1/2-x,1/2-y,1/2+z
1/2+x,1/2-y,1/2+z
1/2-x,1/2+y,z
loop_
_atom_site_type_symbol
_atom_site_label
_atom_site_fract_x
_atom_site_fract_y
_atom_site_fract_z
Si Si1 0.580211 0.644162 0.850940
Si Si2 0.420294 0.957720 0.548796
Si Si3 0.079414 0.354897 0.193074
Si Si4 0.080523 0.950243 0.712330
Si Si5 0.671992 0.800455 0.699535
Si Si6 0.675735 0.299635 0.841141
O O1 0.500000 0.672808 0.830886
O O2 0.595052 0.560263 0.721622
O O3 0.628486 0.732144 0.819102
O O4 0.588167 0.594693 0.029998
O O5 0.500000 0.949531 0.610463
O O6 0.419441 0.914701 0.364561
O O7 0.368988 0.895188 0.657926
O O8 0.403031 0.067508 0.555581
O O9 0.133729 0.273067 0.222814
O O10 0.000000 0.319692 0.168999
O O11 0.131172 0.893669 0.832181
O O12 0.000000 0.938609 0.764815
O O13 0.678077 0.745837 0.523268
O O14 0.747712 0.816710 0.773017
#
# Coordination Sequence:
#
# PCOD9352397 Si02
#       6
#     8   8   8   8   8   8
#     4  10  21  38  61  87 113 145 188 236 286 341
#     4   9  19  36  58  82 107 139 180 226 275 326
#     4   9  19  36  58  82 107 139 180 226 275 326
#     4  10  21  38  61  87 113 145 188 236 286 341
#     4  11  23  38  56  81 116 153 189 231 281 337
#     4  11  23  38  56  81 116 153 189 231 281 337
#
# _framework density 21.679127999999999
#
# number of rings (size 3 to 8) (size 9 to 14) (size 15 to 20)
#    0.000    2.000    0.000    3.000    0.000    7.333 
#    0.000    6.667    0.000    0.000    0.000    0.000 
#    0.000    0.000    0.000    0.000    0.000    0.000 
#
# Total GULP energy -134269.292248 kJ/mol
# GULP energy per Si atom -5594.553844 kJ/mol
# Density = 2.162979 g / cm^3
# Si number density = 21.679128 Si / 1000 Ang^3
#
#
#
# Elastic Constant Matrix: (Units=GPa)
#
#
# Indices 1 2 3 4 5 6 
#
# 1 71.0305 37.4865 20.2304 0.0000 0.0000 0.0000
# 2 37.4865 65.3605 6.7566 0.0000 0.0000 0.0000
# 3 20.2304 6.7566 61.8817 0.0000 0.0000 0.0000
# 4 0.0000 0.0000 0.0000 40.3894 0.0000 0.0000
# 5 0.0000 0.0000 0.0000 0.0000 -227.2675 0.0000
# 6 0.0000 0.0000 0.0000 0.0000 0.0000 35.0877
#
#
#
# Elastic Compliance Matrix: (Units=1/GPa)
#
#
# Indices 1 2 3 4 5 6 
#
# 1 0.022144 -0.012088 -0.005919 0.000000 0.000000 0.000000
# 2 -0.012088 0.022074 0.001542 0.000000 0.000000 0.000000
# 3 -0.005919 0.001542 0.017927 0.000000 0.000000 0.000000
# 4 0.000000 0.000000 0.000000 0.024759 0.000000 0.000000
# 5 0.000000 0.000000 0.000000 0.000000 -0.004400 0.000000
# 6 0.000000 0.000000 0.000000 0.000000 0.000000 0.028500
#
#
# Mechanical properties :
#
#
# Convention : Reuss Voigt Hill
#
# Bulk Modulus (GPa) = 34.23234 36.35776 35.29505
# Shear Modulus (GPa) = 32.53665 -21.43813 5.54926
#
# Velocity S-wave (km/s) = 3.87826 -3.14806 1.60165
# Velocity P-wave (km/s) = 5.98993 1.89566 4.44256
#
# Compressibility (1/GPa) = 0.02921214
#
# Stress axis : x y z
#
# Youngs Moduli (GPa) = 45.15869 45.30310 55.78268
#
# Poissons Ratio (x) = 0.54765 0.33020
# Poissons Ratio (y) = 0.54590 -0.08601
# Poissons Ratio (z) = 0.26732 -0.06985
#
# Static dielectric constant tensor:
#      x y z
#    x 1.727650 0.000000 0.000000 
#    y 0.000000 1.761180 0.000000 
#    z 0.000000 0.000000 1.841790 
# 
# From -- ./inp_files/4637.got.cif
#   From: 2010.05.17/outbox.cif.g08.bks.cpg/sg36_3_cif.got.tgz:4637.got - 2010.06.03 17:41:39.
