data_PCOD9352682
_publ_section_title
;
Structure prediction by ZEFSAII (Michael W. Deem and Ramdas Pophale) SiO2 
 PCOD9352682
Probable space group: C M C 21
;
_chemical_formula_sum "Si O2"
_cell_formula_units_Z 48
_cell_length_a 14.663634
_cell_length_b 9.272052
_cell_length_c 16.099311
_cell_angle_alpha 90.000000
_cell_angle_beta 90.000000
_cell_angle_gamma 90.000000
_cell_volume 2188.894151
_symmetry_space_group_name_H-M "C M C 21"
_symmetry_group_IT_number 36
_symmetry_cell_setting 'orthorhombic'
loop_
_space_group_symop_operation_xyz
x,y,z
-x,-y,1/2+z
x,-y,1/2+z
-x,y,z
1/2+x,1/2+y,z
1/2-x,1/2-y,1/2+z
1/2+x,1/2-y,1/2+z
1/2-x,1/2+y,z
loop_
_atom_site_type_symbol
_atom_site_label
_atom_site_fract_x
_atom_site_fract_y
_atom_site_fract_z
Si Si1 0.500000 0.641293 0.768311
Si Si2 0.000000 0.824200 0.078744
Si Si3 0.702323 0.670746 0.559665
Si Si4 0.500000 0.706763 0.247943
Si Si5 0.805653 0.543956 0.959279
Si Si6 0.500000 0.110831 0.919879
Si Si7 0.697357 0.310094 0.711801
Si Si8 0.695096 0.598018 0.809272
O O1 0.500000 0.713612 0.676995
O O2 0.500000 0.466055 0.761638
O O3 0.595734 0.669460 0.812278
O O4 0.899781 0.895816 0.068244
O O5 0.000000 0.700836 0.007521
O O6 0.778683 0.555694 0.536235
O O7 0.698216 0.790660 0.488071
O O8 0.734545 0.759880 0.640181
O O9 0.500000 0.787204 0.337642
O O10 0.407156 0.736401 0.198554
O O11 0.906189 0.520952 0.922281
O O12 0.725711 0.521177 0.892867
O O13 0.699401 0.478224 0.736043
O O14 0.731355 0.219880 0.790785
#
# Coordination Sequence:
#
# PCOD9352682 Si02
#       8
#     4   4   8   4   8   4   8   8
#     4  10  22  38  63  94 124 165 216 261 309 384
#     4  10  22  40  63  90 127 169 209 254 320 389
#     4  11  24  42  65  93 129 167 212 267 323 380
#     4  10  22  39  64  91 127 172 207 256 326 388
#     4  11  24  42  66  92 126 171 211 264 322 388
#     4  10  22  43  64  91 130 174 208 257 335 387
#     4  11  22  41  63  93 125 168 211 262 315 379
#     4  11  22  40  65  92 127 163 219 260 319 377
#
# _framework density 21.928881000000001
#
# number of rings (size 3 to 8) (size 9 to 14) (size 15 to 20)
#    0.000    1.333    3.333    2.000    9.333    0.667 
#    0.000    9.167    0.000    0.000    0.000    0.000 
#    0.000    0.000    0.000    0.000    0.000    0.000 
#
# Total GULP energy -133881.751004 kJ/mol
# GULP energy per Si atom -5578.406292 kJ/mol
# Density = 2.187897 g / cm^3
# Si number density = 21.928881 Si / 1000 Ang^3
#
#
#
# Elastic Constant Matrix: (Units=GPa)
#
#
# Indices 1 2 3 4 5 6 
#
# 1 134.5777 20.1343 14.0501 0.0000 0.0000 0.0000
# 2 20.1343 58.1353 4.3297 0.0000 0.0000 0.0000
# 3 14.0501 4.3297 75.1480 0.0000 0.0000 0.0000
# 4 0.0000 0.0000 0.0000 31.2157 0.0000 0.0000
# 5 0.0000 0.0000 0.0000 0.0000 33.1279 0.0000
# 6 0.0000 0.0000 0.0000 0.0000 0.0000 19.5109
#
#
#
# Elastic Compliance Matrix: (Units=1/GPa)
#
#
# Indices 1 2 3 4 5 6 
#
# 1 0.007968 -0.002660 -0.001337 0.000000 0.000000 0.000000
# 2 -0.002660 0.018163 -0.000549 0.000000 0.000000 0.000000
# 3 -0.001337 -0.000549 0.013589 0.000000 0.000000 0.000000
# 4 0.000000 0.000000 0.000000 0.032035 0.000000 0.000000
# 5 0.000000 0.000000 0.000000 0.000000 0.030186 0.000000
# 6 0.000000 0.000000 0.000000 0.000000 0.000000 0.051253
#
#
# Mechanical properties :
#
#
# Convention : Reuss Voigt Hill
#
# Bulk Modulus (GPa) = 32.64916 38.32100 35.48508
# Shear Modulus (GPa) = 28.98620 32.06069 30.52344
#
# Velocity S-wave (km/s) = 3.63964 3.82780 3.73490
# Velocity P-wave (km/s) = 5.70820 6.08680 5.90054
#
# Compressibility (1/GPa) = 0.03062866
#
# Stress axis : x y z
#
# Youngs Moduli (GPa) = 125.49940 55.05561 73.59112
#
# Poissons Ratio (x) = 0.14645 0.09835
# Poissons Ratio (y) = 0.33384 0.04041
# Poissons Ratio (z) = 0.16773 0.03023
#
# Static dielectric constant tensor:
#      x y z
#    x 1.835310 0.000000 0.000000 
#    y 0.000000 1.813700 0.000000 
#    z 0.000000 0.000000 1.902940 
# 
# From -- ./inp_files/14603.got.cif
#   From: 2010.05.17/outbox.cif.g08.bks.cpg/sg36_8_cif.got.tgz:14603.got - 2010.06.03 17:41:39.
