data_PCOD9352483
_publ_section_title
;
Structure prediction by ZEFSAII (Michael W. Deem and Ramdas Pophale) SiO2 
 PCOD9352483
Probable space group: C M C 21
;
_chemical_formula_sum "Si O2"
_cell_formula_units_Z 56
_cell_length_a 15.770219
_cell_length_b 22.885854
_cell_length_c 7.515465
_cell_angle_alpha 90.000000
_cell_angle_beta 90.000000
_cell_angle_gamma 90.000000
_cell_volume 2712.443521
_symmetry_space_group_name_H-M "C M C 21"
_symmetry_group_IT_number 36
_symmetry_cell_setting 'orthorhombic'
loop_
_space_group_symop_operation_xyz
x,y,z
-x,-y,1/2+z
x,-y,1/2+z
-x,y,z
1/2+x,1/2+y,z
1/2-x,1/2-y,1/2+z
1/2+x,1/2-y,1/2+z
1/2-x,1/2+y,z
loop_
_atom_site_type_symbol
_atom_site_label
_atom_site_fract_x
_atom_site_fract_y
_atom_site_fract_z
Si Si1 0.401994 0.036108 0.641700
Si Si2 0.741899 0.875847 0.230243
Si Si3 0.094908 0.586783 0.242890
Si Si4 0.807746 0.190751 0.048393
Si Si5 0.100683 0.054120 0.599983
Si Si6 0.195378 0.304905 0.874802
Si Si7 0.401403 0.423496 0.682168
O O1 0.500000 0.036525 0.712119
O O2 0.334494 0.077513 0.737989
O O3 0.406882 0.060995 0.443080
O O4 0.370053 0.969127 0.637442
O O5 0.742774 0.835288 0.402920
O O6 0.833071 0.908157 0.213269
O O7 0.730290 0.838862 0.048178
O O8 0.141778 0.647627 0.265028
O O9 0.000000 0.597426 0.177168
O O10 0.766114 0.212675 0.231442
O O11 0.861102 0.134550 0.104964
O O12 0.849170 0.246489 0.949508
O O13 0.107944 0.074254 0.395657
O O14 0.000000 0.057972 0.652566
O O15 0.128885 0.986369 0.611147
O O16 0.500000 0.421956 0.637992
#
# Coordination Sequence:
#
# PCOD9352483 Si02
#       7
#     8   8   8   8   8   8   8
#     4   9  20  37  59  91 126 156 197 254 314 374
#     4  11  23  39  66  93 124 169 210 259 319 374
#     4   9  20  38  60  88 122 157 196 253 313 374
#     4  12  24  41  64  87 123 170 216 263 311 369
#     4  10  21  39  62  99 136 161 205 263 321 388
#     4  11  24  41  60  88 122 161 219 261 305 370
#     4  10  22  39  63  94 129 166 207 263 323 383
#
# _framework density 20.645589999999999
#
# number of rings (size 3 to 8) (size 9 to 14) (size 15 to 20)
#    0.000    1.714    2.857    0.857    4.000    3.429 
#    0.000    0.000    0.000    1.714    0.000    0.000 
#    0.000    0.000    0.000    0.000    0.000    0.000 
#
# Total GULP energy -156187.601731 kJ/mol
# GULP energy per Si atom -5578.128633 kJ/mol
# Density = 2.059860 g / cm^3
# Si number density = 20.645590 Si / 1000 Ang^3
#
#
#
# Elastic Constant Matrix: (Units=GPa)
#
#
# Indices 1 2 3 4 5 6 
#
# 1 47.2013 37.2437 25.2390 0.0000 0.0000 0.0000
# 2 37.2437 132.6146 37.6138 0.0000 0.0000 0.0000
# 3 25.2390 37.6138 68.4823 0.0000 0.0000 0.0000
# 4 0.0000 0.0000 0.0000 38.3388 0.0000 0.0000
# 5 0.0000 0.0000 0.0000 0.0000 16.2266 0.0000
# 6 0.0000 0.0000 0.0000 0.0000 0.0000 -107.0724
#
#
#
# Elastic Compliance Matrix: (Units=1/GPa)
#
#
# Indices 1 2 3 4 5 6 
#
# 1 0.030288 -0.006325 -0.007688 0.000000 0.000000 0.000000
# 2 -0.006325 0.010253 -0.003300 0.000000 0.000000 0.000000
# 3 -0.007688 -0.003300 0.019248 0.000000 0.000000 0.000000
# 4 0.000000 0.000000 0.000000 0.026083 0.000000 0.000000
# 5 0.000000 0.000000 0.000000 0.000000 0.061627 0.000000
# 6 0.000000 0.000000 0.000000 0.000000 0.000000 -0.009339
#
#
# Mechanical properties :
#
#
# Convention : Reuss Voigt Hill
#
# Bulk Modulus (GPa) = 39.74330 49.83236 44.78783
# Shear Modulus (GPa) = 27.59748 -0.62130 13.48809
#
# Velocity S-wave (km/s) = 3.66009 -0.54917 2.55878
# Velocity P-wave (km/s) = 6.09539 4.87723 5.52001
#
# Compressibility (1/GPa) = 0.02516148
#
# Stress axis : x y z
#
# Youngs Moduli (GPa) = 33.01645 97.53070 51.95213
#
# Poissons Ratio (x) = 0.61693 0.39942
# Poissons Ratio (y) = 0.20884 0.17146
# Poissons Ratio (z) = 0.25384 0.32188
#
# Static dielectric constant tensor:
#      x y z
#    x 1.753470 0.000000 0.000000 
#    y 0.000000 1.774040 0.000000 
#    z 0.000000 0.000000 1.756470 
# 
# From -- ./inp_files/4195.got.cif
#   From: 2010.05.17/outbox.cif.g08.bks.cpg/sg36_3_cif.got.tgz:4195.got - 2010.06.03 17:41:39.
