data_PCOD9352652
_publ_section_title
;
Structure prediction by ZEFSAII (Michael W. Deem and Ramdas Pophale) SiO2 
 PCOD9352652
Probable space group: C M C 21
;
_chemical_formula_sum "Si O2"
_cell_formula_units_Z 48
_cell_length_a 9.831288
_cell_length_b 32.003054
_cell_length_c 7.814346
_cell_angle_alpha 90.000000
_cell_angle_beta 90.000000
_cell_angle_gamma 90.000000
_cell_volume 2458.637378
_symmetry_space_group_name_H-M "C M C 21"
_symmetry_group_IT_number 36
_symmetry_cell_setting 'orthorhombic'
loop_
_space_group_symop_operation_xyz
x,y,z
-x,-y,1/2+z
x,-y,1/2+z
-x,y,z
1/2+x,1/2+y,z
1/2-x,1/2-y,1/2+z
1/2+x,1/2-y,1/2+z
1/2-x,1/2+y,z
loop_
_atom_site_type_symbol
_atom_site_label
_atom_site_fract_x
_atom_site_fract_y
_atom_site_fract_z
Si Si1 0.000000 0.621687 0.895670
Si Si2 0.500000 0.799571 0.595131
Si Si3 0.838487 0.460600 0.009548
Si Si4 0.000000 0.237184 0.289277
Si Si5 0.771772 0.447186 0.393155
Si Si6 0.239113 0.679814 0.308496
Si Si7 0.342317 0.412371 0.727782
Si Si8 0.000000 0.316624 0.073811
O O1 0.126884 0.591578 0.898120
O O2 0.000000 0.652603 0.735284
O O3 0.000000 0.651008 0.060132
O O4 0.500000 0.772723 0.429498
O O5 0.361056 0.792666 0.691893
O O6 0.756384 0.454069 0.188326
O O7 0.000000 0.448418 0.027018
O O8 0.834391 0.509527 0.961866
O O9 0.759054 0.436756 0.857546
O O10 0.871447 0.207974 0.322986
O O11 0.000000 0.266771 0.119571
O O12 0.664045 0.433260 0.538316
O O13 0.289200 0.635502 0.232598
O O14 0.138849 0.673021 0.470275
O O15 0.500000 0.413719 0.786096
#
# Coordination Sequence:
#
# PCOD9352652 Si02
#       8
#     4   4   8   4   8   8   8   4
#     4  11  20  38  64  97 128 159 229 285 323 389
#     4  10  22  36  68  92 120 168 211 268 327 391
#     4  12  25  42  73 103 133 177 239 301 338 400
#     4  11  22  42  66  96 135 166 215 267 345 420
#     4  12  24  42  68 101 136 176 235 287 347 398
#     4  11  22  42  65  95 132 173 217 274 337 409
#     4  12  28  46  68  98 144 190 228 281 355 420
#     4  10  24  40  68 103 131 173 225 284 341 404
#
# _framework density 19.523009999999999
#
# number of rings (size 3 to 8) (size 9 to 14) (size 15 to 20)
#    0.000    0.667    5.833    2.000    3.500    1.333 
#    0.000    0.000    0.000    0.000    0.000    0.000 
#    0.000    0.000    0.000    0.000    0.000    0.000 
#
# Total GULP energy -133709.642446 kJ/mol
# GULP energy per Si atom -5571.235102 kJ/mol
# Density = 1.947858 g / cm^3
# Si number density = 19.523010 Si / 1000 Ang^3
#
#
#
# Elastic Constant Matrix: (Units=GPa)
#
#
# Indices 1 2 3 4 5 6 
#
# 1 131.1141 47.0707 41.4837 0.0000 0.0000 0.0000
# 2 47.0707 90.8316 14.9527 0.0000 0.0000 0.0000
# 3 41.4837 14.9527 84.3676 0.0000 0.0000 0.0000
# 4 0.0000 0.0000 0.0000 31.0558 0.0000 0.0000
# 5 0.0000 0.0000 0.0000 0.0000 39.3548 0.0000
# 6 0.0000 0.0000 0.0000 0.0000 0.0000 51.0899
#
#
#
# Elastic Compliance Matrix: (Units=1/GPa)
#
#
# Indices 1 2 3 4 5 6 
#
# 1 0.010773 -0.004852 -0.004437 0.000000 0.000000 0.000000
# 2 -0.004852 0.013526 -0.000011 0.000000 0.000000 0.000000
# 3 -0.004437 -0.000011 0.014037 0.000000 0.000000 0.000000
# 4 0.000000 0.000000 0.000000 0.032200 0.000000 0.000000
# 5 0.000000 0.000000 0.000000 0.000000 0.025410 0.000000
# 6 0.000000 0.000000 0.000000 0.000000 0.000000 0.019573
#
#
# Mechanical properties :
#
#
# Convention : Reuss Voigt Hill
#
# Bulk Modulus (GPa) = 50.67414 57.03637 53.85525
# Shear Modulus (GPa) = 35.53721 37.82053 36.67887
#
# Velocity S-wave (km/s) = 4.27109 4.40617 4.33916
# Velocity P-wave (km/s) = 7.09475 7.42726 7.26291
#
# Compressibility (1/GPa) = 0.01973393
#
# Stress axis : x y z
#
# Youngs Moduli (GPa) = 92.82669 73.93291 71.24237
#
# Poissons Ratio (x) = 0.35874 0.31610
# Poissons Ratio (y) = 0.45042 0.00081
# Poissons Ratio (z) = 0.41187 0.00084
#
# Static dielectric constant tensor:
#      x y z
#    x 1.621890 0.000000 0.000000 
#    y 0.000000 1.671270 0.000000 
#    z 0.000000 0.000000 1.767510 
# 
# From -- ./inp_files/2784.got.cif
#   From: 2010.05.17/outbox.cif.g08.bks.cpg/sg36_2_cif.got.tgz:2784.got - 2010.06.03 17:41:39.
