data_PCOD9352247
_publ_section_title
;
Structure prediction by ZEFSAII (Michael W. Deem and Ramdas Pophale) SiO2 
 PCOD9352247
Probable space group: C M C 21
;
_chemical_formula_sum "Si O2"
_cell_formula_units_Z 64
_cell_length_a 14.024203
_cell_length_b 22.125935
_cell_length_c 11.355246
_cell_angle_alpha 90.000000
_cell_angle_beta 90.000000
_cell_angle_gamma 90.000000
_cell_volume 3523.516982
_symmetry_space_group_name_H-M "C M C 21"
_symmetry_group_IT_number 36
_symmetry_cell_setting 'orthorhombic'
loop_
_space_group_symop_operation_xyz
x,y,z
-x,-y,1/2+z
x,-y,1/2+z
-x,y,z
1/2+x,1/2+y,z
1/2-x,1/2-y,1/2+z
1/2+x,1/2-y,1/2+z
1/2-x,1/2+y,z
loop_
_atom_site_type_symbol
_atom_site_label
_atom_site_fract_x
_atom_site_fract_y
_atom_site_fract_z
Si Si1 0.107071 0.669971 0.813070
Si Si2 0.745836 0.851070 0.112345
Si Si3 0.892338 0.044455 0.656528
Si Si4 0.113647 0.424653 0.935155
Si Si5 0.612446 0.126099 0.174432
Si Si6 0.392344 0.468013 0.415829
Si Si7 0.889405 0.748131 0.049020
Si Si8 0.812336 0.561376 0.952814
O O1 0.186152 0.680300 0.715443
O O2 0.125522 0.603478 0.867420
O O3 0.000000 0.673586 0.764979
O O4 0.115184 0.715187 0.922834
O O5 0.813248 0.904266 0.160716
O O6 0.816400 0.802925 0.053923
O O7 0.669771 0.883066 0.027129
O O8 0.885225 0.007044 0.780397
O O9 0.000000 0.069777 0.656833
O O10 0.882786 0.010811 0.530843
O O11 0.126469 0.394513 0.807291
O O12 0.159284 0.491649 0.936350
O O13 0.000000 0.428893 0.960015
O O14 0.500000 0.120038 0.145896
O O15 0.636133 0.195547 0.143472
O O16 0.666881 0.082296 0.085307
O O17 0.500000 0.442032 0.424429
O O18 0.299065 0.427055 0.427419
O O19 0.000000 0.766520 0.069019
#
# Coordination Sequence:
#
# PCOD9352247 Si02
#       8
#     8   8   8   8   8   8   8   8
#     4  10  22  40  61  87 119 154 197 245 293 352
#     4  12  22  35  63  88 114 152 195 247 297 348
#     4  10  21  38  57  85 118 158 200 244 296 355
#     4  11  24  36  56  93 126 151 191 242 297 359
#     4   9  21  40  60  84 119 155 196 241 289 355
#     4  10  21  36  55  83 123 157 196 245 290 350
#     4   9  21  42  63  82 109 156 204 244 292 354
#     4  11  20  37  61  86 118 163 193 230 298 365
#
# _framework density 18.163668000000001
#
# number of rings (size 3 to 8) (size 9 to 14) (size 15 to 20)
#    0.000    1.750    2.500    2.625    5.250    0.000 
#    0.000    0.000    0.000    6.750    0.000    0.000 
#    0.000    0.000    0.000    0.000    0.000    0.000 
#
# Total GULP energy -178346.058441 kJ/mol
# GULP energy per Si atom -5573.314326 kJ/mol
# Density = 1.812233 g / cm^3
# Si number density = 18.163668 Si / 1000 Ang^3
#
#
#
# Elastic Constant Matrix: (Units=GPa)
#
#
# Indices 1 2 3 4 5 6 
#
# 1 95.8548 20.2986 42.3747 0.0000 0.0000 0.0000
# 2 20.2986 47.4139 25.5408 0.0000 0.0000 0.0000
# 3 42.3747 25.5408 82.9636 0.0000 0.0000 0.0000
# 4 0.0000 0.0000 0.0000 9.5176 0.0000 0.0000
# 5 0.0000 0.0000 0.0000 0.0000 22.2036 0.0000
# 6 0.0000 0.0000 0.0000 0.0000 0.0000 20.2058
#
#
#
# Elastic Compliance Matrix: (Units=1/GPa)
#
#
# Indices 1 2 3 4 5 6 
#
# 1 0.013721 -0.002516 -0.006233 0.000000 0.000000 0.000000
# 2 -0.002516 0.025745 -0.006641 0.000000 0.000000 0.000000
# 3 -0.006233 -0.006641 0.017282 0.000000 0.000000 0.000000
# 4 0.000000 0.000000 0.000000 0.105068 0.000000 0.000000
# 5 0.000000 0.000000 0.000000 0.000000 0.045038 0.000000
# 6 0.000000 0.000000 0.000000 0.000000 0.000000 0.049491
#
#
# Mechanical properties :
#
#
# Convention : Reuss Voigt Hill
#
# Bulk Modulus (GPa) = 38.51026 44.74006 41.62516
# Shear Modulus (GPa) = 16.90437 19.58661 18.24549
#
# Velocity S-wave (km/s) = 3.05400 3.28737 3.17283
# Velocity P-wave (km/s) = 5.80377 6.25253 6.03232
#
# Compressibility (1/GPa) = 0.02596710
#
# Stress axis : x y z
#
# Youngs Moduli (GPa) = 72.88123 38.84207 57.86486
#
# Poissons Ratio (x) = 0.09774 0.36070
# Poissons Ratio (y) = 0.18339 0.38426
# Poissons Ratio (z) = 0.45430 0.25793
#
# Static dielectric constant tensor:
#      x y z
#    x 1.633200 0.000000 0.000000 
#    y 0.000000 1.593590 0.000000 
#    z 0.000000 0.000000 1.646240 
# 
# From -- ./inp_files/8066.got.cif
#   From: 2010.05.17/outbox.cif.g08.bks.cpg/sg36_5_cif.got.tgz:8066.got - 2010.06.03 17:41:39.
