data_PCOD9352310
_publ_section_title
;
Structure prediction by ZEFSAII (Michael W. Deem and Ramdas Pophale) SiO2 
 PCOD9352310
Probable space group: C M C 21
;
_chemical_formula_sum "Si O2"
_cell_formula_units_Z 48
_cell_length_a 8.788519
_cell_length_b 28.608465
_cell_length_c 8.151793
_cell_angle_alpha 90.000000
_cell_angle_beta 90.000000
_cell_angle_gamma 90.000000
_cell_volume 2049.573018
_symmetry_space_group_name_H-M "C M C 21"
_symmetry_group_IT_number 36
_symmetry_cell_setting 'orthorhombic'
loop_
_space_group_symop_operation_xyz
x,y,z
-x,-y,1/2+z
x,-y,1/2+z
-x,y,z
1/2+x,1/2+y,z
1/2-x,1/2-y,1/2+z
1/2+x,1/2-y,1/2+z
1/2-x,1/2+y,z
loop_
_atom_site_type_symbol
_atom_site_label
_atom_site_fract_x
_atom_site_fract_y
_atom_site_fract_z
Si Si1 0.677736 0.350491 0.937050
Si Si2 0.177880 0.485151 0.832233
Si Si3 0.322992 0.228069 0.626732
Si Si4 0.323443 0.102697 0.124460
Si Si5 0.823860 0.061896 0.644368
Si Si6 0.823405 0.181944 0.940367
O O1 0.500000 0.354107 0.889040
O O2 0.782954 0.370721 0.794425
O O3 0.700336 0.384340 0.095361
O O4 0.723075 0.299275 0.992964
O O5 0.203341 0.451165 0.674183
O O6 0.218976 0.537381 0.778889
O O7 0.283600 0.464892 0.974510
O O8 0.000000 0.480893 0.878685
O O9 0.500000 0.217308 0.597833
O O10 0.272345 0.206733 0.798854
O O11 0.305171 0.283393 0.597383
O O12 0.500000 0.108312 0.083641
O O13 0.225737 0.130012 0.990139
O O14 0.000000 0.054809 0.687476
O O15 0.000000 0.182378 0.891949
#
# Coordination Sequence:
#
# PCOD9352310 Si02
#       6
#     8   8   8   8   8   8
#     4  10  21  38  60  85 114 149 189 233 282 335
#     4  10  21  37  58  84 114 150 190 233 282 335
#     4  11  24  40  60  86 115 149 188 231 280 334
#     4  10  21  38  60  85 114 149 189 233 282 335
#     4  10  21  37  58  84 114 150 190 233 282 335
#     4  11  24  40  60  86 115 149 188 231 280 334
#
# _framework density 23.419511
#
# number of rings (size 3 to 8) (size 9 to 14) (size 15 to 20)
#    0.000    1.667    0.000    4.000    0.000   10.667 
#    0.000    0.000    0.000    0.000    0.000    0.000 
#    0.000    0.000    0.000    0.000    0.000    0.000 
#
# Total GULP energy -134311.558362 kJ/mol
# GULP energy per Si atom -5596.314932 kJ/mol
# Density = 2.336621 g / cm^3
# Si number density = 23.419511 Si / 1000 Ang^3
#
#
#
# Elastic Constant Matrix: (Units=GPa)
#
#
# Indices 1 2 3 4 5 6 
#
# 1 55.9619 22.2714 -9.7934 0.0000 0.0000 0.0000
# 2 22.2714 102.8849 -9.6633 0.0000 0.0000 0.0000
# 3 -9.7934 -9.6633 41.5450 0.0000 0.0000 0.0000
# 4 0.0000 0.0000 0.0000 41.7485 0.0000 0.0000
# 5 0.0000 0.0000 0.0000 0.0000 31.0002 0.0000
# 6 0.0000 0.0000 0.0000 0.0000 0.0000 27.6184
#
#
#
# Elastic Compliance Matrix: (Units=1/GPa)
#
#
# Indices 1 2 3 4 5 6 
#
# 1 0.020128 -0.003999 0.003815 0.000000 0.000000 0.000000
# 2 -0.003999 0.010731 0.001553 0.000000 0.000000 0.000000
# 3 0.003815 0.001553 0.025331 0.000000 0.000000 0.000000
# 4 0.000000 0.000000 0.000000 0.023953 0.000000 0.000000
# 5 0.000000 0.000000 0.000000 0.000000 0.032258 0.000000
# 6 0.000000 0.000000 0.000000 0.000000 0.000000 0.036208
#
#
# Mechanical properties :
#
#
# Convention : Reuss Voigt Hill
#
# Bulk Modulus (GPa) = 16.96964 22.89124 19.93044
# Shear Modulus (GPa) = 30.20903 33.24520 31.72712
#
# Velocity S-wave (km/s) = 3.59543 3.77178 3.68466
# Velocity P-wave (km/s) = 4.94952 5.36322 5.16052
#
# Compressibility (1/GPa) = 0.05892876
#
# Stress axis : x y z
#
# Youngs Moduli (GPa) = 49.68129 93.18681 39.47756
#
# Poissons Ratio (x) = 0.37264 -0.15060
# Poissons Ratio (y) = 0.19867 -0.06132
# Poissons Ratio (z) = -0.18952 -0.14476
#
# Static dielectric constant tensor:
#      x y z
#    x 1.758510 0.000000 0.000000 
#    y 0.000000 1.892300 0.000000 
#    z 0.000000 0.000000 1.934130 
# 
# From -- ./inp_files/2683.got.cif
#   From: 2010.05.17/outbox.cif.g08.bks.cpg/sg36_2_cif.got.tgz:2683.got - 2010.06.03 17:41:39.
