data_PCOD9352272
_publ_section_title
;
Structure prediction by ZEFSAII (Michael W. Deem and Ramdas Pophale) SiO2 
 PCOD9352272
Probable space group: C M C 21
;
_chemical_formula_sum "Si O2"
_cell_formula_units_Z 56
_cell_length_a 30.530264
_cell_length_b 5.627109
_cell_length_c 14.440733
_cell_angle_alpha 90.000000
_cell_angle_beta 90.000000
_cell_angle_gamma 90.000000
_cell_volume 2480.876388
_symmetry_space_group_name_H-M "C M C 21"
_symmetry_group_IT_number 36
_symmetry_cell_setting 'orthorhombic'
loop_
_space_group_symop_operation_xyz
x,y,z
-x,-y,1/2+z
x,-y,1/2+z
-x,y,z
1/2+x,1/2+y,z
1/2-x,1/2-y,1/2+z
1/2+x,1/2-y,1/2+z
1/2-x,1/2+y,z
loop_
_atom_site_type_symbol
_atom_site_label
_atom_site_fract_x
_atom_site_fract_y
_atom_site_fract_z
Si Si1 0.951024 0.332039 0.205850
Si Si2 0.951024 0.332037 0.407810
Si Si3 0.771925 0.507207 0.443890
Si Si4 0.228075 0.507209 0.169770
Si Si5 0.631414 0.118422 0.455090
Si Si6 0.368586 0.118425 0.158570
Si Si7 0.410240 0.499998 0.556830
O O1 0.949383 0.206300 0.306830
O O2 0.911989 0.521502 0.206198
O O3 0.940828 0.173352 0.116199
O O4 0.000000 0.434111 0.197287
O O5 0.911989 0.521500 0.407462
O O6 0.000000 0.434108 0.416374
O O7 0.940828 0.173348 0.497460
O O8 0.745207 0.745492 0.415634
O O9 0.770852 0.499999 0.556830
O O10 0.821964 0.554323 0.413918
O O11 0.245207 0.245493 0.198026
O O12 0.178036 0.554326 0.199742
O O13 0.622175 0.390554 0.479550
O O14 0.631779 0.999998 0.556830
O O15 0.377825 0.390557 0.134110
#
# Coordination Sequence:
#
# PCOD9352272 Si02
#       7
#     8   8   8   8   8   8   8
#     4  10  22  39  59  86 121 162 209 263 325 387
#     4  10  22  39  59  86 121 162 209 263 325 387
#     4   9  18  29  53  85 120 158 203 253 308 374
#     4   9  18  29  53  85 120 158 203 253 308 374
#     4   9  20  34  55  83 119 154 198 251 310 373
#     4   9  20  34  55  83 119 154 198 251 310 373
#     4  10  21  36  60  90 124 160 210 258 321 384
#
# _framework density 22.572669999999999
#
# number of rings (size 3 to 8) (size 9 to 14) (size 15 to 20)
#    0.000    2.571    0.000    0.429   14.000    7.429 
#    0.000    2.857    0.000    1.714    0.000    0.000 
#    0.000    0.000    0.000    0.000    0.000    0.000 
#
# Total GULP energy -155995.695601 kJ/mol
# GULP energy per Si atom -5571.274843 kJ/mol
# Density = 2.252129 g / cm^3
# Si number density = 22.572670 Si / 1000 Ang^3
#
#
#
# Elastic Constant Matrix: (Units=GPa)
#
#
# Indices 1 2 3 4 5 6 
#
# 1 225.4123 80.0362 30.2873 0.0000 0.0000 0.0000
# 2 80.0362 94.4811 16.4768 0.0000 0.0000 0.0000
# 3 30.2873 16.4768 97.5340 0.0000 0.0000 0.0000
# 4 0.0000 0.0000 0.0000 -5.8123 0.0000 0.0000
# 5 0.0000 0.0000 0.0000 0.0000 1046.4256 0.0000
# 6 0.0000 0.0000 0.0000 0.0000 0.0000 20.9934
#
#
#
# Elastic Compliance Matrix: (Units=1/GPa)
#
#
# Indices 1 2 3 4 5 6 
#
# 1 0.006460 -0.005278 -0.001114 0.000000 0.000000 0.000000
# 2 -0.005278 0.015218 -0.000932 0.000000 0.000000 0.000000
# 3 -0.001114 -0.000932 0.010756 0.000000 0.000000 0.000000
# 4 0.000000 0.000000 0.000000 -0.172048 0.000000 0.000000
# 5 0.000000 0.000000 0.000000 0.000000 0.000956 0.000000
# 6 0.000000 0.000000 0.000000 0.000000 0.000000 0.047634
#
#
# Mechanical properties :
#
#
# Convention : Reuss Voigt Hill
#
# Bulk Modulus (GPa) = 56.22528 74.55866 65.39197
# Shear Modulus (GPa) = -70.97552 231.69648 80.36048
#
# Velocity S-wave (km/s) = -5.61350 10.14236 5.97311
# Velocity P-wave (km/s) = 4.12947 13.04833 8.75232
#
# Compressibility (1/GPa) = 0.01778559
#
# Stress axis : x y z
#
# Youngs Moduli (GPa) = 154.79552 65.71255 92.96873
#
# Poissons Ratio (x) = 0.34684 0.10361
# Poissons Ratio (y) = 0.81703 0.08663
# Poissons Ratio (z) = 0.17251 0.06123
#
# Static dielectric constant tensor:
#      x y z
#    x 1.818230 0.000000 0.000000 
#    y 0.000000 1.997380 0.000000 
#    z 0.000000 0.000000 1.890750 
# 
# From -- ./inp_files/13153.got.cif
#   From: 2010.05.17/outbox.cif.g08.bks.cpg/sg36_7_cif.got.tgz:13153.got - 2010.06.03 17:41:39.
