data_PCOD9352926
_publ_section_title
;
Structure prediction by ZEFSAII (Michael W. Deem and Ramdas Pophale) SiO2 
 PCOD9352926
Probable space group: C M C 21
;
_chemical_formula_sum "Si O2"
_cell_formula_units_Z 48
_cell_length_a 8.249490
_cell_length_b 29.178309
_cell_length_c 8.421295
_cell_angle_alpha 90.000000
_cell_angle_beta 90.000000
_cell_angle_gamma 90.000000
_cell_volume 2027.057652
_symmetry_space_group_name_H-M "C M C 21"
_symmetry_group_IT_number 36
_symmetry_cell_setting 'orthorhombic'
loop_
_space_group_symop_operation_xyz
x,y,z
-x,-y,1/2+z
x,-y,1/2+z
-x,y,z
1/2+x,1/2+y,z
1/2-x,1/2-y,1/2+z
1/2+x,1/2-y,1/2+z
1/2-x,1/2+y,z
loop_
_atom_site_type_symbol
_atom_site_label
_atom_site_fract_x
_atom_site_fract_y
_atom_site_fract_z
Si Si1 0.182909 0.486053 0.454230
Si Si2 0.686778 0.562464 0.646435
Si Si3 0.691386 0.233676 0.623565
Si Si4 0.810404 0.900922 0.625029
Si Si5 0.803498 0.852003 0.951462
Si Si6 0.309525 0.182356 0.942627
O O1 0.217596 0.461406 0.287999
O O2 0.298264 0.528376 0.495839
O O3 0.213022 0.446473 0.584421
O O4 0.000000 0.502958 0.460552
O O5 0.500000 0.565927 0.695496
O O6 0.744418 0.612068 0.589222
O O7 0.500000 0.243413 0.638686
O O8 0.725279 0.196746 0.485560
O O9 0.780597 0.280443 0.581111
O O10 0.747284 0.208081 0.783375
O O11 0.783790 0.863815 0.485727
O O12 0.000000 0.912689 0.637316
O O13 0.758183 0.875402 0.785487
O O14 0.000000 0.847214 0.952653
O O15 0.500000 0.171923 0.927244
#
# Coordination Sequence:
#
# PCOD9352926 Si02
#       6
#     8   8   8   8   8   8
#     4  12  25  41  63  94 128 162 205 258 312 365
#     4  11  23  42  66  91 123 166 210 253 308 371
#     4  11  24  40  61  89 121 158 200 248 304 366
#     4  11  23  41  64  91 123 161 206 252 304 367
#     4  10  23  41  63  90 120 157 203 252 300 359
#     4  11  24  41  61  89 123 158 202 253 304 362
#
# _framework density 23.679642999999999
#
# number of rings (size 3 to 8) (size 9 to 14) (size 15 to 20)
#    0.000    1.000    0.000    6.500    0.000   13.333 
#    0.000    0.000    0.000    0.000    0.000    0.000 
#    0.000    0.000    0.000    0.000    0.000    0.000 
#
# Total GULP energy -134504.789760 kJ/mol
# GULP energy per Si atom -5604.366240 kJ/mol
# Density = 2.362575 g / cm^3
# Si number density = 23.679643 Si / 1000 Ang^3
#
#
#
# Elastic Constant Matrix: (Units=GPa)
#
#
# Indices 1 2 3 4 5 6 
#
# 1 34.2507 -5.2992 -2.0811 0.0000 0.0000 0.0000
# 2 -5.2992 88.1861 -8.7570 0.0000 0.0000 0.0000
# 3 -2.0811 -8.7570 71.0466 0.0000 0.0000 0.0000
# 4 0.0000 0.0000 0.0000 37.5190 0.0000 0.0000
# 5 0.0000 0.0000 0.0000 0.0000 29.9060 0.0000
# 6 0.0000 0.0000 0.0000 0.0000 0.0000 16.2062
#
#
#
# Elastic Compliance Matrix: (Units=1/GPa)
#
#
# Indices 1 2 3 4 5 6 
#
# 1 0.029555 0.001885 0.001098 0.000000 0.000000 0.000000
# 2 0.001885 0.011600 0.001485 0.000000 0.000000 0.000000
# 3 0.001098 0.001485 0.014290 0.000000 0.000000 0.000000
# 4 0.000000 0.000000 0.000000 0.026653 0.000000 0.000000
# 5 0.000000 0.000000 0.000000 0.000000 0.033438 0.000000
# 6 0.000000 0.000000 0.000000 0.000000 0.000000 0.061705
#
#
# Mechanical properties :
#
#
# Convention : Reuss Voigt Hill
#
# Bulk Modulus (GPa) = 15.53231 17.91209 16.72220
# Shear Modulus (GPa) = 26.34820 30.70094 28.52457
#
# Velocity S-wave (km/s) = 3.33933 3.60462 3.47450
# Velocity P-wave (km/s) = 4.63052 4.99050 4.81388
#
# Compressibility (1/GPa) = 0.06438192
#
# Stress axis : x y z
#
# Youngs Moduli (GPa) = 33.83544 86.20398 69.97665
#
# Poissons Ratio (x) = -0.16250 -0.07684
# Poissons Ratio (y) = -0.06378 -0.10392
# Poissons Ratio (z) = -0.03715 -0.12802
#
# Static dielectric constant tensor:
#      x y z
#    x 1.795900 0.000000 0.000000 
#    y 0.000000 1.841040 0.000000 
#    z 0.000000 0.000000 1.968050 
# 
# From -- ./inp_files/2722.got.cif
#   From: 2010.05.17/outbox.cif.g08.bks.cpg/sg36_2_cif.got.tgz:2722.got - 2010.06.03 17:41:39.
