data_PCOD9352556
_publ_section_title
;
Structure prediction by ZEFSAII (Michael W. Deem and Ramdas Pophale) SiO2 
 PCOD9352556
Probable space group: C M C 21
;
_chemical_formula_sum "Si O2"
_cell_formula_units_Z 36
_cell_length_a 7.327877
_cell_length_b 24.991029
_cell_length_c 7.708740
_cell_angle_alpha 90.000000
_cell_angle_beta 90.000000
_cell_angle_gamma 90.000000
_cell_volume 1411.710704
_symmetry_space_group_name_H-M "C M C 21"
_symmetry_group_IT_number 36
_symmetry_cell_setting 'orthorhombic'
loop_
_space_group_symop_operation_xyz
x,y,z
-x,-y,1/2+z
x,-y,1/2+z
-x,y,z
1/2+x,1/2+y,z
1/2-x,1/2-y,1/2+z
1/2+x,1/2-y,1/2+z
1/2-x,1/2+y,z
loop_
_atom_site_type_symbol
_atom_site_label
_atom_site_fract_x
_atom_site_fract_y
_atom_site_fract_z
Si Si1 0.221534 0.310826 0.008600
Si Si2 0.284544 0.034254 0.800005
Si Si3 0.792855 0.690420 0.909396
Si Si4 0.000000 0.888700 0.493380
Si Si5 0.711597 0.077403 0.407319
O O1 0.270906 0.317905 0.210774
O O2 0.000000 0.310280 0.001119
O O3 0.286650 0.253615 0.944720
O O4 0.290419 0.363213 0.908219
O O5 0.500000 0.033990 0.853157
O O6 0.276928 0.057850 0.606775
O O7 0.160213 0.069903 0.922541
O O8 0.215989 0.972678 0.799893
O O9 0.658422 0.657149 0.026931
O O10 0.000000 0.671510 0.925967
O O11 0.500000 0.082901 0.358069
#
# Coordination Sequence:
#
# PCOD9352556 Si02
#       5
#     8   8   8   4   8
#     4  10  21  42  65  94 127 166 212 260 313 381
#     4  10  21  40  65  92 123 166 204 256 315 373
#     4  11  24  41  66  94 127 168 213 260 317 372
#     4  12  22  40  66  92 128 166 212 252 316 376
#     4   9  19  39  64  90 126 160 204 256 312 368
#
# _framework density 25.500976000000001
#
# number of rings (size 3 to 8) (size 9 to 14) (size 15 to 20)
#    0.000    1.778    3.333    0.667    1.556    0.889 
#    6.000    0.000    0.000    0.000    0.000    0.000 
#    0.000    0.000    0.000    0.000    0.000    0.000 
#
# Total GULP energy -100308.070396 kJ/mol
# GULP energy per Si atom -5572.670578 kJ/mol
# Density = 2.544293 g / cm^3
# Si number density = 25.500976 Si / 1000 Ang^3
#
#
#
# Elastic Constant Matrix: (Units=GPa)
#
#
# Indices 1 2 3 4 5 6 
#
# 1 148.9990 42.9631 22.3761 0.0000 0.0000 0.0000
# 2 42.9631 344.5425 -20.8482 0.0000 0.0000 0.0000
# 3 22.3761 -20.8482 98.2569 0.0000 0.0000 0.0000
# 4 0.0000 0.0000 0.0000 15.1988 0.0000 0.0000
# 5 0.0000 0.0000 0.0000 0.0000 1.3332 0.0000
# 6 0.0000 0.0000 0.0000 0.0000 0.0000 -107.5750
#
#
#
# Elastic Compliance Matrix: (Units=1/GPa)
#
#
# Indices 1 2 3 4 5 6 
#
# 1 0.007288 -0.001022 -0.001877 0.000000 0.000000 0.000000
# 2 -0.001022 0.003084 0.000887 0.000000 0.000000 0.000000
# 3 -0.001877 0.000887 0.010793 0.000000 0.000000 0.000000
# 4 0.000000 0.000000 0.000000 0.065795 0.000000 0.000000
# 5 0.000000 0.000000 0.000000 0.000000 0.750064 0.000000
# 6 0.000000 0.000000 0.000000 0.000000 0.000000 -0.009296
#
#
# Mechanical properties :
#
#
# Convention : Reuss Voigt Hill
#
# Bulk Modulus (GPa) = 58.34021 75.64226 66.99124
# Shear Modulus (GPa) = 5.97040 18.27857 12.12448
#
# Velocity S-wave (km/s) = 1.53177 2.68018 2.18285
# Velocity P-wave (km/s) = 5.10448 6.26935 5.71666
#
# Compressibility (1/GPa) = 0.01714084
#
# Stress axis : x y z
#
# Youngs Moduli (GPa) = 137.21059 324.30049 92.65271
#
# Poissons Ratio (x) = 0.33155 0.17388
# Poissons Ratio (y) = 0.14028 -0.08219
# Poissons Ratio (z) = 0.25749 -0.28768
#
# Static dielectric constant tensor:
#      x y z
#    x 1.962780 0.000000 0.000000 
#    y 0.000000 2.012620 0.000000 
#    z 0.000000 0.000000 2.036800 
# 
# From -- ./inp_files/6579.got.cif
#   From: 2010.05.17/outbox.cif.g08.bks.cpg/sg36_4_cif.got.tgz:6579.got - 2010.06.03 17:41:39.
