data_PCOD9352886
_publ_section_title
;
Structure prediction by ZEFSAII (Michael W. Deem and Ramdas Pophale) SiO2 
 PCOD9352886
Probable space group: C M C 21
;
_chemical_formula_sum "Si O2"
_cell_formula_units_Z 64
_cell_length_a 26.099650
_cell_length_b 10.161582
_cell_length_c 11.611267
_cell_angle_alpha 90.000000
_cell_angle_beta 90.000000
_cell_angle_gamma 90.000000
_cell_volume 3079.467473
_symmetry_space_group_name_H-M "C M C 21"
_symmetry_group_IT_number 36
_symmetry_cell_setting 'orthorhombic'
loop_
_space_group_symop_operation_xyz
x,y,z
-x,-y,1/2+z
x,-y,1/2+z
-x,y,z
1/2+x,1/2+y,z
1/2-x,1/2-y,1/2+z
1/2+x,1/2-y,1/2+z
1/2-x,1/2+y,z
loop_
_atom_site_type_symbol
_atom_site_label
_atom_site_fract_x
_atom_site_fract_y
_atom_site_fract_z
Si Si1 0.059328 0.349096 0.799290
Si Si2 0.759179 0.358494 0.682788
Si Si3 0.939882 0.952087 0.353933
Si Si4 0.610239 0.505209 0.601006
Si Si5 0.746631 0.604885 0.810026
Si Si6 0.816276 0.797615 0.502284
Si Si7 0.368245 0.200445 0.107919
Si Si8 0.349118 0.012843 0.420322
O O1 0.067263 0.206976 0.859718
O O2 0.077420 0.320681 0.669526
O O3 0.100858 0.451787 0.845728
O O4 0.000000 0.386907 0.809443
O O5 0.739109 0.504940 0.704042
O O6 0.739248 0.253055 0.774971
O O7 0.739210 0.303132 0.562175
O O8 0.820471 0.348845 0.685281
O O9 0.922837 0.003733 0.480634
O O10 0.000000 0.978867 0.340568
O O11 0.914392 0.996482 0.230725
O O12 0.646082 0.378734 0.583684
O O13 0.638904 0.644941 0.592095
O O14 0.795194 0.535173 0.868037
O O15 0.695052 0.621696 0.884890
O O16 0.835025 0.650111 0.483598
O O17 0.365587 0.107721 0.999379
#
# Coordination Sequence:
#
# PCOD9352886 Si02
#       8
#     8   8   8   8   8   8   8   8
#     4  10  22  45  70  92 131 182 227 282 352 414
#     4  12  25  41  64  95 133 182 217 276 342 415
#     4  10  22  46  74 103 136 181 231 294 353 407
#     4  11  25  42  72 106 137 176 233 287 342 422
#     4  12  25  40  65  93 136 172 226 271 338 412
#     4  12  26  41  64  99 135 177 223 277 341 413
#     4  11  24  43  66  98 136 175 227 285 348 413
#     4  12  24  44  64  98 133 173 227 280 344 414
#
# _framework density 20.782813999999998
#
# number of rings (size 3 to 8) (size 9 to 14) (size 15 to 20)
#    0.000    0.750    5.000    1.875    7.000    1.000 
#    0.000    0.000    0.000    0.000    0.000    0.000 
#    0.000    0.000    0.000    0.000    0.000    0.000 
#
# Total GULP energy -178447.406985 kJ/mol
# GULP energy per Si atom -5576.481468 kJ/mol
# Density = 2.073551 g / cm^3
# Si number density = 20.782814 Si / 1000 Ang^3
#
#
#
# Elastic Constant Matrix: (Units=GPa)
#
#
# Indices 1 2 3 4 5 6 
#
# 1 76.6830 14.4428 17.6445 0.0000 0.0000 0.0000
# 2 14.4428 49.5868 4.5662 0.0000 0.0000 0.0000
# 3 17.6445 4.5662 60.2725 0.0000 0.0000 0.0000
# 4 0.0000 0.0000 0.0000 35.1334 0.0000 0.0000
# 5 0.0000 0.0000 0.0000 0.0000 36.3019 0.0000
# 6 0.0000 0.0000 0.0000 0.0000 0.0000 22.7944
#
#
#
# Elastic Compliance Matrix: (Units=1/GPa)
#
#
# Indices 1 2 3 4 5 6 
#
# 1 0.014700 -0.003912 -0.004007 0.000000 0.000000 0.000000
# 2 -0.003912 0.021350 -0.000472 0.000000 0.000000 0.000000
# 3 -0.004007 -0.000472 0.017800 0.000000 0.000000 0.000000
# 4 0.000000 0.000000 0.000000 0.028463 0.000000 0.000000
# 5 0.000000 0.000000 0.000000 0.000000 0.027547 0.000000
# 6 0.000000 0.000000 0.000000 0.000000 0.000000 0.043870
#
#
# Mechanical properties :
#
#
# Convention : Reuss Voigt Hill
#
# Bulk Modulus (GPa) = 26.97849 28.87214 27.92531
# Shear Modulus (GPa) = 27.34219 28.83854 28.09037
#
# Velocity S-wave (km/s) = 3.63108 3.72911 3.68042
# Velocity P-wave (km/s) = 5.53073 5.69773 5.61485
#
# Compressibility (1/GPa) = 0.03706657
#
# Stress axis : x y z
#
# Youngs Moduli (GPa) = 68.02934 46.83908 56.17960
#
# Poissons Ratio (x) = 0.18326 0.22510
# Poissons Ratio (y) = 0.26616 0.02652
# Poissons Ratio (z) = 0.27258 0.02211
#
# Static dielectric constant tensor:
#      x y z
#    x 1.750650 0.000000 0.000000 
#    y 0.000000 1.741560 0.000000 
#    z 0.000000 0.000000 1.855570 
# 
# From -- ./inp_files/9749.got.cif
#   From: 2010.05.17/outbox.cif.g08.bks.cpg/sg36_5_cif.got.tgz:9749.got - 2010.06.03 17:41:39.
