data_PCOD9352601
_publ_section_title
;
Structure prediction by ZEFSAII (Michael W. Deem and Ramdas Pophale) SiO2 
 PCOD9352601
Probable space group: C M C 21
;
_chemical_formula_sum "Si O2"
_cell_formula_units_Z 64
_cell_length_a 8.949556
_cell_length_b 24.309940
_cell_length_c 15.524578
_cell_angle_alpha 90.000000
_cell_angle_beta 90.000000
_cell_angle_gamma 90.000000
_cell_volume 3377.576393
_symmetry_space_group_name_H-M "C M C 21"
_symmetry_group_IT_number 36
_symmetry_cell_setting 'orthorhombic'
loop_
_space_group_symop_operation_xyz
x,y,z
-x,-y,1/2+z
x,-y,1/2+z
-x,y,z
1/2+x,1/2+y,z
1/2-x,1/2-y,1/2+z
1/2+x,1/2-y,1/2+z
1/2-x,1/2+y,z
loop_
_atom_site_type_symbol
_atom_site_label
_atom_site_fract_x
_atom_site_fract_y
_atom_site_fract_z
Si Si1 0.823596 0.485048 0.609140
Si Si2 0.830548 0.120945 0.836634
Si Si3 0.167899 0.880648 0.542135
Si Si4 0.177836 0.243282 0.105300
Si Si5 0.823051 0.489478 0.302145
Si Si6 0.179991 0.185474 0.452798
Si Si7 0.178397 0.944304 0.960012
Si Si8 0.679391 0.252487 0.293529
O O1 0.784276 0.424070 0.577735
O O2 0.776961 0.489268 0.708360
O O3 0.741939 0.527932 0.546455
O O4 0.000000 0.495366 0.603804
O O5 0.791844 0.183426 0.814693
O O6 0.000000 0.110041 0.804910
O O7 0.719929 0.074653 0.803419
O O8 0.831820 0.115946 0.939463
O O9 0.197001 0.818143 0.568204
O O10 0.000000 0.895567 0.572647
O O11 0.251624 0.243253 0.199398
O O12 0.000000 0.254540 0.110822
O O13 0.253355 0.285252 0.037930
O O14 0.742343 0.521767 0.379032
O O15 0.000000 0.496438 0.313119
O O16 0.216308 0.120398 0.453506
O O17 0.248226 0.214918 0.368120
O O18 0.000000 0.191374 0.452225
O O19 0.000000 0.949541 0.960164
O O20 0.500000 0.244070 0.293318
#
# Coordination Sequence:
#
# PCOD9352601 Si02
#       8
#     8   8   8   8   8   8   8   8
#     4  11  25  42  63  95 127 161 207 260 316 368
#     4  10  21  41  66  91 122 164 208 253 311 373
#     4  10  21  41  66  91 122 164 208 253 311 373
#     4  11  24  43  66  95 129 168 211 260 316 375
#     4  11  25  42  63  95 127 161 207 260 316 368
#     4  11  25  44  65  94 127 168 216 259 314 379
#     4  11  25  44  65  90 125 170 212 255 312 379
#     4  11  24  43  66  95 129 168 211 260 316 375
#
# _framework density 18.948499000000002
#
# number of rings (size 3 to 8) (size 9 to 14) (size 15 to 20)
#    0.000    1.250    2.500    2.250    3.500    6.000 
#    0.000    0.000    0.000    0.000    0.000    0.000 
#    0.000    0.000    0.000    0.000    0.000    0.000 
#
# Total GULP energy -178849.549523 kJ/mol
# GULP energy per Si atom -5589.048423 kJ/mol
# Density = 1.890537 g / cm^3
# Si number density = 18.948499 Si / 1000 Ang^3
#
#
#
# Elastic Constant Matrix: (Units=GPa)
#
#
# Indices 1 2 3 4 5 6 
#
# 1 43.5076 26.4599 14.7342 0.0000 0.0000 0.0000
# 2 26.4599 55.0894 -7.9425 0.0000 0.0000 0.0000
# 3 14.7342 -7.9425 44.1512 0.0000 0.0000 0.0000
# 4 0.0000 0.0000 0.0000 42.7756 0.0000 0.0000
# 5 0.0000 0.0000 0.0000 0.0000 -1.3171 0.0000
# 6 0.0000 0.0000 0.0000 0.0000 0.0000 35.0755
#
#
#
# Elastic Compliance Matrix: (Units=1/GPa)
#
#
# Indices 1 2 3 4 5 6 
#
# 1 0.043863 -0.023795 -0.018919 0.000000 0.000000 0.000000
# 2 -0.023795 0.031544 0.013616 0.000000 0.000000 0.000000
# 3 -0.018919 0.013616 0.031412 0.000000 0.000000 0.000000
# 4 0.000000 0.000000 0.000000 0.023378 0.000000 0.000000
# 5 0.000000 0.000000 0.000000 0.000000 -0.759268 0.000000
# 6 0.000000 0.000000 0.000000 0.000000 0.000000 0.028510
#
#
# Mechanical properties :
#
#
# Convention : Reuss Voigt Hill
#
# Bulk Modulus (GPa) = 20.56635 23.25015 21.90825
# Shear Modulus (GPa) = -9.50288 22.60657 6.55185
#
# Velocity S-wave (km/s) = -2.24187 3.45781 1.86151
# Velocity P-wave (km/s) = 2.04354 5.31401 4.02584
#
# Compressibility (1/GPa) = 0.04862310
#
# Stress axis : x y z
#
# Youngs Moduli (GPa) = 22.79825 31.70131 31.83464
#
# Poissons Ratio (x) = 0.75434 0.60227
# Poissons Ratio (y) = 0.54249 -0.43345
# Poissons Ratio (z) = 0.43131 -0.43163
#
# Static dielectric constant tensor:
#      x y z
#    x 1.654960 0.000000 0.000000 
#    y 0.000000 1.592360 0.000000 
#    z 0.000000 0.000000 1.648720 
# 
# From -- ./inp_files/11062.got.cif
#   From: 2010.05.17/outbox.cif.g08.bks.cpg/sg36_6_cif.got.tgz:11062.got - 2010.06.03 17:41:39.
