data_PCOD9352057
_publ_section_title
;
Structure prediction by ZEFSAII (Michael W. Deem and Ramdas Pophale) SiO2 
 PCOD9352057
Probable space group: C M C 21
;
_chemical_formula_sum "Si O2"
_cell_formula_units_Z 40
_cell_length_a 22.683555
_cell_length_b 8.087811
_cell_length_c 9.046115
_cell_angle_alpha 90.000000
_cell_angle_beta 90.000000
_cell_angle_gamma 90.000000
_cell_volume 1659.603023
_symmetry_space_group_name_H-M "C M C 21"
_symmetry_group_IT_number 36
_symmetry_cell_setting 'orthorhombic'
loop_
_space_group_symop_operation_xyz
x,y,z
-x,-y,1/2+z
x,-y,1/2+z
-x,y,z
1/2+x,1/2+y,z
1/2-x,1/2-y,1/2+z
1/2+x,1/2-y,1/2+z
1/2-x,1/2+y,z
loop_
_atom_site_type_symbol
_atom_site_label
_atom_site_fract_x
_atom_site_fract_y
_atom_site_fract_z
Si Si1 0.374184 0.339971 0.153160
Si Si2 0.627801 0.973947 0.290313
Si Si3 0.689722 0.144895 0.533246
Si Si4 0.500000 0.256246 0.181775
Si Si5 0.187499 0.990465 0.909691
Si Si6 0.000000 0.565533 0.862509
O O1 0.367608 0.153706 0.211032
O O2 0.442593 0.369916 0.181202
O O3 0.330315 0.458544 0.244719
O O4 0.358734 0.365177 0.982805
O O5 0.640432 0.030145 0.456967
O O6 0.563068 0.892060 0.286421
O O7 0.679488 0.873134 0.208268
O O8 0.681773 0.332634 0.489005
O O9 0.749634 0.083065 0.456506
O O10 0.500000 0.133853 0.325199
O O11 0.500000 0.140446 0.030344
#
# Coordination Sequence:
#
# PCOD9352057 Si02
#       6
#     8   8   8   4   8   4
#     4  10  23  41  62  90 127 165 214 266 326 389
#     4  10  21  39  62  93 124 163 212 266 319 390
#     4  11  23  38  61  89 123 163 214 266 328 391
#     4  10  22  42  66  98 134 172 218 272 326 396
#     4  11  24  41  61  89 124 167 213 272 331 393
#     4  10  20  38  66  94 130 170 212 260 318 388
#
# _framework density 24.102150000000002
#
# number of rings (size 3 to 8) (size 9 to 14) (size 15 to 20)
#    0.000    1.600    0.000    4.800    0.000    8.800 
#    0.000    2.000    0.000    0.000    0.000    0.000 
#    0.000    0.000    0.000    0.000    0.000    0.000 
#
# Total GULP energy -111623.649389 kJ/mol
# GULP energy per Si atom -5581.182469 kJ/mol
# Density = 2.404729 g / cm^3
# Si number density = 24.102150 Si / 1000 Ang^3
#
#
#
# Elastic Constant Matrix: (Units=GPa)
#
#
# Indices 1 2 3 4 5 6 
#
# 1 112.4359 16.7381 11.6688 0.0000 0.0000 0.0000
# 2 16.7381 56.6792 37.6386 0.0000 0.0000 0.0000
# 3 11.6688 37.6386 107.9120 0.0000 0.0000 0.0000
# 4 0.0000 0.0000 0.0000 35.9151 0.0000 0.0000
# 5 0.0000 0.0000 0.0000 0.0000 35.3605 0.0000
# 6 0.0000 0.0000 0.0000 0.0000 0.0000 14.1379
#
#
#
# Elastic Compliance Matrix: (Units=1/GPa)
#
#
# Indices 1 2 3 4 5 6 
#
# 1 0.009303 -0.002706 -0.000062 0.000000 0.000000 0.000000
# 2 -0.002706 0.023749 -0.007991 0.000000 0.000000 0.000000
# 3 -0.000062 -0.007991 0.012061 0.000000 0.000000 0.000000
# 4 0.000000 0.000000 0.000000 0.027843 0.000000 0.000000
# 5 0.000000 0.000000 0.000000 0.000000 0.028280 0.000000
# 6 0.000000 0.000000 0.000000 0.000000 0.000000 0.070732
#
#
# Mechanical properties :
#
#
# Convention : Reuss Voigt Hill
#
# Bulk Modulus (GPa) = 42.38247 45.45758 43.92003
# Shear Modulus (GPa) = 24.83228 31.14814 27.99021
#
# Velocity S-wave (km/s) = 3.21330 3.59881 3.41151
# Velocity P-wave (km/s) = 5.60266 6.01414 5.81204
#
# Compressibility (1/GPa) = 0.02359466
#
# Stress axis : x y z
#
# Youngs Moduli (GPa) = 107.48920 42.10770 82.91471
#
# Poissons Ratio (x) = 0.11395 0.00515
# Poissons Ratio (y) = 0.29088 0.66254
# Poissons Ratio (z) = 0.00668 0.33647
#
# Static dielectric constant tensor:
#      x y z
#    x 1.963970 0.000000 0.000000 
#    y 0.000000 1.876340 0.000000 
#    z 0.000000 0.000000 1.921720 
# 
# From -- ./inp_files/5473.got.cif
#   From: 2010.05.17/outbox.cif.g08.bks.cpg/sg36_3_cif.got.tgz:5473.got - 2010.06.03 17:41:39.
