data_PCOD9352810
_publ_section_title
;
Structure prediction by ZEFSAII (Michael W. Deem and Ramdas Pophale) SiO2 
 PCOD9352810
Probable space group: C M C 21
;
_chemical_formula_sum "Si O2"
_cell_formula_units_Z 56
_cell_length_a 12.284152
_cell_length_b 22.302602
_cell_length_c 11.648062
_cell_angle_alpha 90.000000
_cell_angle_beta 90.000000
_cell_angle_gamma 90.000000
_cell_volume 3191.202691
_symmetry_space_group_name_H-M "C M C 21"
_symmetry_group_IT_number 36
_symmetry_cell_setting 'orthorhombic'
loop_
_space_group_symop_operation_xyz
x,y,z
-x,-y,1/2+z
x,-y,1/2+z
-x,y,z
1/2+x,1/2+y,z
1/2-x,1/2-y,1/2+z
1/2+x,1/2-y,1/2+z
1/2-x,1/2+y,z
loop_
_atom_site_type_symbol
_atom_site_label
_atom_site_fract_x
_atom_site_fract_y
_atom_site_fract_z
Si Si1 0.124885 0.334981 0.898880
Si Si2 0.204040 0.139283 0.202412
Si Si3 0.129971 0.268129 0.117314
Si Si4 0.622707 0.957957 0.043299
Si Si5 0.500000 0.553343 0.249790
Si Si6 0.500000 0.469880 0.480483
Si Si7 0.258544 0.570674 0.979903
Si Si8 0.869938 0.617874 0.764965
O O1 0.208147 0.344673 0.797575
O O2 0.000000 0.321729 0.862970
O O3 0.166608 0.285177 0.989035
O O4 0.121781 0.397118 0.969875
O O5 0.157359 0.201825 0.155714
O O6 0.106794 0.095907 0.245497
O O7 0.261318 0.105063 0.098100
O O8 0.166930 0.320047 0.205222
O O9 0.000000 0.275219 0.112896
O O10 0.500000 0.983934 0.038431
O O11 0.645512 0.935604 0.172380
O O12 0.709474 0.004315 0.995495
O O13 0.500000 0.517294 0.372125
O O14 0.500000 0.517866 0.122918
O O15 0.611708 0.433547 0.463548
O O16 0.198257 0.602942 0.876467
O O17 0.000000 0.621299 0.788002
#
# Coordination Sequence:
#
# PCOD9352810 Si02
#       8
#     8   8   8   8   4   4   8   8
#     4   9  20  37  60  85 113 148 188 240 293 347
#     4  11  22  36  60  86 111 154 198 233 291 343
#     4   9  19  40  61  78 110 152 197 238 285 350
#     4   9  19  36  58  85 112 148 187 230 298 342
#     4  10  22  42  60  90 114 166 202 244 294 348
#     4  10  24  38  58  84 128 160 198 238 286 360
#     4  11  23  35  56  88 117 153 187 237 282 351
#     4   9  20  37  59  84 109 148 187 240 295 335
#
# _framework density 17.548242999999999
#
# number of rings (size 3 to 8) (size 9 to 14) (size 15 to 20)
#    0.000    2.286    0.714    3.000    8.000    1.143 
#    0.000    0.000    1.571    0.000    0.000    0.000 
#    0.000    0.000    0.000    0.000    0.000    0.000 
#
# Total GULP energy -156030.705902 kJ/mol
# GULP energy per Si atom -5572.525211 kJ/mol
# Density = 1.750830 g / cm^3
# Si number density = 17.548243 Si / 1000 Ang^3
#
#
#
# Elastic Constant Matrix: (Units=GPa)
#
#
# Indices 1 2 3 4 5 6 
#
# 1 49.7018 5.3520 43.2894 0.0000 0.0000 0.0000
# 2 5.3520 52.0496 33.3511 0.0000 0.0000 0.0000
# 3 43.2894 33.3511 115.2234 0.0000 0.0000 0.0000
# 4 0.0000 0.0000 0.0000 11.5833 0.0000 0.0000
# 5 0.0000 0.0000 0.0000 0.0000 27.6142 0.0000
# 6 0.0000 0.0000 0.0000 0.0000 0.0000 17.4834
#
#
#
# Elastic Compliance Matrix: (Units=1/GPa)
#
#
# Indices 1 2 3 4 5 6 
#
# 1 0.031034 0.005254 -0.013180 0.000000 0.000000 0.000000
# 2 0.005254 0.024477 -0.009059 0.000000 0.000000 0.000000
# 3 -0.013180 -0.009059 0.016253 0.000000 0.000000 0.000000
# 4 0.000000 0.000000 0.000000 0.086331 0.000000 0.000000
# 5 0.000000 0.000000 0.000000 0.000000 0.036213 0.000000
# 6 0.000000 0.000000 0.000000 0.000000 0.000000 0.057197
#
#
# Mechanical properties :
#
#
# Convention : Reuss Voigt Hill
#
# Bulk Modulus (GPa) = 26.45933 42.32887 34.39410
# Shear Modulus (GPa) = 16.77445 20.33500 18.55472
#
# Velocity S-wave (km/s) = 3.09513 3.40782 3.25523
# Velocity P-wave (km/s) = 5.28052 6.29747 5.81128
#
# Compressibility (1/GPa) = 0.03779385
#
# Stress axis : x y z
#
# Youngs Moduli (GPa) = 32.22261 40.85530 61.52827
#
# Poissons Ratio (x) = -0.21467 0.81097
# Poissons Ratio (y) = -0.16931 0.55737
# Poissons Ratio (z) = 0.42471 0.37010
#
# Static dielectric constant tensor:
#      x y z
#    x 1.585690 0.000000 0.000000 
#    y 0.000000 1.602520 0.000000 
#    z 0.000000 0.000000 1.621260 
# 
# From -- ./inp_files/7875.got.cif
#   From: 2010.05.17/outbox.cif.g08.bks.cpg/sg36_4_cif.got.tgz:7875.got - 2010.06.03 17:41:39.
