data_PCOD9352288
_publ_section_title
;
Structure prediction by ZEFSAII (Michael W. Deem and Ramdas Pophale) SiO2 
 PCOD9352288
Probable space group: C M C 21
;
_chemical_formula_sum "Si O2"
_cell_formula_units_Z 56
_cell_length_a 15.579212
_cell_length_b 31.123974
_cell_length_c 4.932994
_cell_angle_alpha 90.000000
_cell_angle_beta 90.000000
_cell_angle_gamma 90.000000
_cell_volume 2391.944609
_symmetry_space_group_name_H-M "C M C 21"
_symmetry_group_IT_number 36
_symmetry_cell_setting 'orthorhombic'
loop_
_space_group_symop_operation_xyz
x,y,z
-x,-y,1/2+z
x,-y,1/2+z
-x,y,z
1/2+x,1/2+y,z
1/2-x,1/2-y,1/2+z
1/2+x,1/2-y,1/2+z
1/2-x,1/2+y,z
loop_
_atom_site_type_symbol
_atom_site_label
_atom_site_fract_x
_atom_site_fract_y
_atom_site_fract_z
Si Si1 0.598982 0.973859 0.774500
Si Si2 0.795965 0.114444 0.436953
Si Si3 0.858951 0.741865 0.602244
Si Si4 0.500000 0.134529 0.806886
Si Si5 0.396664 0.470798 0.765414
Si Si6 0.815126 0.599601 0.968130
Si Si7 0.000000 0.315431 0.820848
Si Si8 0.165061 0.793736 0.106996
O O1 0.500000 0.959894 0.728265
O O2 0.668533 0.942983 0.645560
O O3 0.607947 0.016886 0.591827
O O4 0.852360 0.074457 0.331916
O O5 0.732588 0.128789 0.191920
O O6 0.846778 0.157176 0.523382
O O7 0.742435 0.099269 0.700433
O O8 0.920145 0.708816 0.451959
O O9 0.861320 0.783710 0.411557
O O10 0.766022 0.719152 0.599662
O O11 0.877977 0.759838 0.900306
O O12 0.410022 0.113634 0.884047
O O13 0.500000 0.176793 0.001993
O O14 0.500000 0.139485 0.482638
O O15 0.373358 0.508357 0.978235
O O16 0.500000 0.465044 0.777599
#
# Coordination Sequence:
#
# PCOD9352288 Si02
#       8
#     8   8   8   4   8   8   4   8
#     4  10  21  37  55  77 118 168 207 247 302 348
#     4  12  25  40  67  98 126 166 220 267 317 396
#     4  10  21  39  62  86 124 161 204 250 312 374
#     4  12  24  40  60  89 136 172 212 263 302 356
#     4  10  23  46  71  96 129 167 211 273 351 404
#     4  12  24  39  60  93 129 168 216 259 307 364
#     4  12  24  40  64  95 114 168 218 259 298 374
#     4  10  21  40  61  87 124 166 193 252 322 374
#
# _framework density 23.411911
#
# number of rings (size 3 to 8) (size 9 to 14) (size 15 to 20)
#    0.000    1.143    0.714    6.000    0.000    5.714 
#    2.571    0.000    0.000    0.000    0.000    0.000 
#    0.000    0.000    0.000    0.000    0.000    0.000 
#
# Total GULP energy -156598.484820 kJ/mol
# GULP energy per Si atom -5592.803029 kJ/mol
# Density = 2.335862 g / cm^3
# Si number density = 23.411911 Si / 1000 Ang^3
#
#
#
# Elastic Constant Matrix: (Units=GPa)
#
#
# Indices 1 2 3 4 5 6 
#
# 1 29.4710 9.5977 6.2249 0.0000 0.0000 0.0000
# 2 9.5977 72.6822 -9.1842 0.0000 0.0000 0.0000
# 3 6.2249 -9.1842 95.8936 0.0000 0.0000 0.0000
# 4 0.0000 0.0000 0.0000 31.4640 0.0000 0.0000
# 5 0.0000 0.0000 0.0000 0.0000 15.5247 0.0000
# 6 0.0000 0.0000 0.0000 0.0000 0.0000 15.7473
#
#
#
# Elastic Compliance Matrix: (Units=1/GPa)
#
#
# Indices 1 2 3 4 5 6 
#
# 1 0.036206 -0.005140 -0.002843 0.000000 0.000000 0.000000
# 2 -0.005140 0.014657 0.001737 0.000000 0.000000 0.000000
# 3 -0.002843 0.001737 0.010779 0.000000 0.000000 0.000000
# 4 0.000000 0.000000 0.000000 0.031782 0.000000 0.000000
# 5 0.000000 0.000000 0.000000 0.000000 0.064413 0.000000
# 6 0.000000 0.000000 0.000000 0.000000 0.000000 0.063503
#
#
# Mechanical properties :
#
#
# Convention : Reuss Voigt Hill
#
# Bulk Modulus (GPa) = 20.34537 23.48041 21.91289
# Shear Modulus (GPa) = 19.98281 25.30777 22.64529
#
# Velocity S-wave (km/s) = 2.92470 3.29139 3.11345
# Velocity P-wave (km/s) = 4.48488 4.94928 4.72279
#
# Compressibility (1/GPa) = 0.04915123
#
# Stress axis : x y z
#
# Youngs Moduli (GPa) = 27.61971 68.22754 92.77165
#
# Poissons Ratio (x) = 0.35070 0.26371
# Poissons Ratio (y) = 0.14197 -0.16118
# Poissons Ratio (z) = 0.07851 -0.11854
#
# Static dielectric constant tensor:
#      x y z
#    x 1.896310 0.000000 0.000000 
#    y 0.000000 1.941630 0.000000 
#    z 0.000000 0.000000 1.840130 
# 
# From -- ./inp_files/965.got.cif
#   From: 2010.05.17/outbox.cif.g08.bks.cpg/sg36_1_cif.got.tgz:965.got - 2010.06.03 17:41:39.
