data_PCOD9352820
_publ_section_title
;
Structure prediction by ZEFSAII (Michael W. Deem and Ramdas Pophale) SiO2 
 PCOD9352820
Probable space group: C M C 21
;
_chemical_formula_sum "Si O2"
_cell_formula_units_Z 48
_cell_length_a 8.922194
_cell_length_b 27.821070
_cell_length_c 10.236397
_cell_angle_alpha 90.000000
_cell_angle_beta 90.000000
_cell_angle_gamma 90.000000
_cell_volume 2540.929480
_symmetry_space_group_name_H-M "C M C 21"
_symmetry_group_IT_number 36
_symmetry_cell_setting 'orthorhombic'
loop_
_space_group_symop_operation_xyz
x,y,z
-x,-y,1/2+z
x,-y,1/2+z
-x,y,z
1/2+x,1/2+y,z
1/2-x,1/2-y,1/2+z
1/2+x,1/2-y,1/2+z
1/2-x,1/2+y,z
loop_
_atom_site_type_symbol
_atom_site_label
_atom_site_fract_x
_atom_site_fract_y
_atom_site_fract_z
Si Si1 0.678607 0.463121 0.090240
Si Si2 0.179381 0.290223 0.940537
Si Si3 0.820790 0.605255 0.806050
Si Si4 0.821054 0.109106 0.355497
Si Si5 0.321112 0.068354 0.095196
Si Si6 0.679729 0.215714 0.739951
O O1 0.500000 0.470364 0.098694
O O2 0.734395 0.430504 0.210086
O O3 0.760307 0.514090 0.091937
O O4 0.712377 0.433723 0.957721
O O5 0.250134 0.341876 0.908783
O O6 0.238510 0.251722 0.837120
O O7 0.000000 0.294180 0.933878
O O8 0.219637 0.275531 0.088682
O O9 0.783685 0.660379 0.773323
O O10 0.000000 0.599011 0.785493
O O11 0.787286 0.592943 0.956186
O O12 0.754718 0.095898 0.215088
O O13 0.000000 0.114286 0.347781
O O14 0.500000 0.068200 0.113078
O O15 0.500000 0.221576 0.754290
#
# Coordination Sequence:
#
# PCOD9352820 Si02
#       6
#     8   8   8   8   8   8
#     4  11  23  40  63  91 124 165 207 256 312 366
#     4  11  24  42  67  94 123 164 207 252 311 371
#     4  10  22  42  65  90 123 163 208 258 306 363
#     4  11  24  42  64  92 128 165 205 258 310 364
#     4  11  24  39  62  94 125 166 210 254 305 366
#     4  10  23  43  65  93 127 161 205 258 310 366
#
# _framework density 18.890726000000001
#
# number of rings (size 3 to 8) (size 9 to 14) (size 15 to 20)
#    0.000    1.333    1.667    3.000    2.333    8.000 
#    0.000    0.000    0.000    0.000    0.000    0.000 
#    0.000    0.000    0.000    0.000    0.000    0.000 
#
# Total GULP energy -134247.655016 kJ/mol
# GULP energy per Si atom -5593.652292 kJ/mol
# Density = 1.884773 g / cm^3
# Si number density = 18.890726 Si / 1000 Ang^3
#
#
#
# Elastic Constant Matrix: (Units=GPa)
#
#
# Indices 1 2 3 4 5 6 
#
# 1 49.9616 37.1090 68.1077 0.0000 0.0000 0.0000
# 2 37.1090 81.2014 58.4124 0.0000 0.0000 0.0000
# 3 68.1077 58.4124 162.0022 0.0000 0.0000 0.0000
# 4 0.0000 0.0000 0.0000 35.1167 0.0000 0.0000
# 5 0.0000 0.0000 0.0000 0.0000 33.8236 0.0000
# 6 0.0000 0.0000 0.0000 0.0000 0.0000 32.0010
#
#
#
# Elastic Compliance Matrix: (Units=1/GPa)
#
#
# Indices 1 2 3 4 5 6 
#
# 1 0.053451 -0.011156 -0.018449 0.000000 0.000000 0.000000
# 2 -0.011156 0.018956 -0.002145 0.000000 0.000000 0.000000
# 3 -0.018449 -0.002145 0.014702 0.000000 0.000000 0.000000
# 4 0.000000 0.000000 0.000000 0.028476 0.000000 0.000000
# 5 0.000000 0.000000 0.000000 0.000000 0.029565 0.000000
# 6 0.000000 0.000000 0.000000 0.000000 0.000000 0.031249
#
#
# Mechanical properties :
#
#
# Convention : Reuss Voigt Hill
#
# Bulk Modulus (GPa) = 42.35473 68.93592 55.64532
# Shear Modulus (GPa) = 20.18001 28.82400 24.50201
#
# Velocity S-wave (km/s) = 3.27195 3.91042 3.60535
# Velocity P-wave (km/s) = 6.06167 7.54717 6.84483
#
# Compressibility (1/GPa) = 0.02361012
#
# Stress axis : x y z
#
# Youngs Moduli (GPa) = 18.70868 52.75317 68.01613
#
# Poissons Ratio (x) = 0.58850 1.25484
# Poissons Ratio (y) = 0.20871 0.14589
# Poissons Ratio (z) = 0.34516 0.11315
#
# Static dielectric constant tensor:
#      x y z
#    x 1.630350 0.000000 0.000000 
#    y 0.000000 1.620080 0.000000 
#    z 0.000000 0.000000 1.633300 
# 
# From -- ./inp_files/6707.got.cif
#   From: 2010.05.17/outbox.cif.g08.bks.cpg/sg36_4_cif.got.tgz:6707.got - 2010.06.03 17:41:39.
