data_PCOD9352091
_publ_section_title
;
Structure prediction by ZEFSAII (Michael W. Deem and Ramdas Pophale) SiO2 
 PCOD9352091
Probable space group: C M C 21
;
_chemical_formula_sum "Si O2"
_cell_formula_units_Z 64
_cell_length_a 8.872881
_cell_length_b 19.848864
_cell_length_c 17.581505
_cell_angle_alpha 90.000000
_cell_angle_beta 90.000000
_cell_angle_gamma 90.000000
_cell_volume 3096.395029
_symmetry_space_group_name_H-M "C M C 21"
_symmetry_group_IT_number 36
_symmetry_cell_setting 'orthorhombic'
loop_
_space_group_symop_operation_xyz
x,y,z
-x,-y,1/2+z
x,-y,1/2+z
-x,y,z
1/2+x,1/2+y,z
1/2-x,1/2-y,1/2+z
1/2+x,1/2-y,1/2+z
1/2-x,1/2+y,z
loop_
_atom_site_type_symbol
_atom_site_label
_atom_site_fract_x
_atom_site_fract_y
_atom_site_fract_z
Si Si1 0.319548 0.578375 0.907560
Si Si2 0.819908 0.848639 0.564153
Si Si3 0.680225 0.952126 0.836338
Si Si4 0.679819 0.893507 0.108257
Si Si5 0.318413 0.203528 0.350512
Si Si6 0.680403 0.961298 0.662181
Si Si7 0.181193 0.831025 0.259613
Si Si8 0.178661 0.782801 0.011026
O O1 0.500000 0.573778 0.909831
O O2 0.252816 0.504421 0.894329
O O3 0.280966 0.624268 0.834177
O O4 0.271351 0.613824 0.985771
O O5 0.766142 0.896506 0.631666
O O6 0.742679 0.776009 0.564674
O O7 0.000000 0.840786 0.563442
O O8 0.500000 0.954296 0.846227
O O9 0.727192 0.874145 0.841526
O O10 0.716006 0.975034 0.750321
O O11 0.500000 0.888053 0.100615
O O12 0.733296 0.858664 0.186527
O O13 0.759121 0.853911 0.040515
O O14 0.719755 0.972215 0.114377
O O15 0.500000 0.206278 0.359276
O O16 0.281243 0.253938 0.281745
O O17 0.243858 0.230069 0.427414
O O18 0.500000 0.950019 0.657091
O O19 0.000000 0.835704 0.246890
O O20 0.000000 0.782161 0.011231
#
# Coordination Sequence:
#
# PCOD9352091 Si02
#       8
#     8   8   8   8   8   8   8   8
#     4  10  21  39  63  89 122 159 203 254 307 366
#     4  11  24  43  65  92 126 164 206 257 317 376
#     4  10  22  40  64  92 126 163 206 255 308 366
#     4  11  24  42  64  91 128 167 211 259 310 375
#     4  10  22  42  65  91 127 166 206 259 315 364
#     4  10  23  42  62  92 128 166 208 253 305 371
#     4  10  20  39  65  90 120 162 208 256 310 366
#     4  12  26  43  64  91 125 165 214 261 310 376
#
# _framework density 20.669197
#
# number of rings (size 3 to 8) (size 9 to 14) (size 15 to 20)
#    0.000    1.500    2.500    1.875    3.500    3.500 
#    0.000    0.000    0.000    0.000    0.000    0.000 
#    0.000    0.000    0.000    0.000    0.000    0.000 
#
# Total GULP energy -178959.220866 kJ/mol
# GULP energy per Si atom -5592.475652 kJ/mol
# Density = 2.062215 g / cm^3
# Si number density = 20.669197 Si / 1000 Ang^3
#
#
#
# Elastic Constant Matrix: (Units=GPa)
#
#
# Indices 1 2 3 4 5 6 
#
# 1 16.1075 21.0428 -1.5899 0.0000 0.0000 0.0000
# 2 21.0428 97.1877 -15.7665 0.0000 0.0000 0.0000
# 3 -1.5899 -15.7665 17.7105 0.0000 0.0000 0.0000
# 4 0.0000 0.0000 0.0000 38.3415 0.0000 0.0000
# 5 0.0000 0.0000 0.0000 0.0000 26.8668 0.0000
# 6 0.0000 0.0000 0.0000 0.0000 0.0000 29.4893
#
#
#
# Elastic Compliance Matrix: (Units=1/GPa)
#
#
# Indices 1 2 3 4 5 6 
#
# 1 0.088247 -0.020830 -0.010622 0.000000 0.000000 0.000000
# 2 -0.020830 0.016943 0.013213 0.000000 0.000000 0.000000
# 3 -0.010622 0.013213 0.067273 0.000000 0.000000 0.000000
# 4 0.000000 0.000000 0.000000 0.026081 0.000000 0.000000
# 5 0.000000 0.000000 0.000000 0.000000 0.037221 0.000000
# 6 0.000000 0.000000 0.000000 0.000000 0.000000 0.033911
#
#
# Mechanical properties :
#
#
# Convention : Reuss Voigt Hill
#
# Bulk Modulus (GPa) = 7.35370 15.37540 11.36455
# Shear Modulus (GPa) = 14.22548 27.42748 20.82648
#
# Velocity S-wave (km/s) = 2.62629 3.64672 3.17773
# Velocity P-wave (km/s) = 3.57240 5.01860 4.35594
#
# Compressibility (1/GPa) = 0.13598596
#
# Stress axis : x y z
#
# Youngs Moduli (GPa) = 11.33183 59.02134 14.86475
#
# Poissons Ratio (x) = 1.22942 0.15789
# Poissons Ratio (y) = 0.23604 -0.19641
# Poissons Ratio (z) = 0.12037 -0.77987
#
# Static dielectric constant tensor:
#      x y z
#    x 1.686390 0.000000 0.000000 
#    y 0.000000 1.750780 0.000000 
#    z 0.000000 0.000000 1.733280 
# 
# From -- ./inp_files/15748.got.cif
#   From: 2010.05.17/outbox.cif.g08.bks.cpg/sg36_8_cif.got.tgz:15748.got - 2010.06.03 17:41:39.
