data_PCOD9352385
_publ_section_title
;
Structure prediction by ZEFSAII (Michael W. Deem and Ramdas Pophale) SiO2 
 PCOD9352385
Probable space group: C M C 21
;
_chemical_formula_sum "Si O2"
_cell_formula_units_Z 56
_cell_length_a 9.997631
_cell_length_b 29.095737
_cell_length_c 8.297126
_cell_angle_alpha 90.000000
_cell_angle_beta 90.000000
_cell_angle_gamma 90.000000
_cell_volume 2413.538057
_symmetry_space_group_name_H-M "C M C 21"
_symmetry_group_IT_number 36
_symmetry_cell_setting 'orthorhombic'
loop_
_space_group_symop_operation_xyz
x,y,z
-x,-y,1/2+z
x,-y,1/2+z
-x,y,z
1/2+x,1/2+y,z
1/2-x,1/2-y,1/2+z
1/2+x,1/2-y,1/2+z
1/2-x,1/2+y,z
loop_
_atom_site_type_symbol
_atom_site_label
_atom_site_fract_x
_atom_site_fract_y
_atom_site_fract_z
Si Si1 0.500000 0.065500 0.024001
Si Si2 0.715253 0.485452 0.908659
Si Si3 0.349710 0.343845 0.789188
Si Si4 0.838333 0.760321 0.590141
Si Si5 0.197451 0.071832 0.103283
Si Si6 0.839033 0.098781 0.594622
Si Si7 0.659549 0.311635 0.252431
Si Si8 0.500000 0.009073 0.768374
O O1 0.357621 0.082498 0.087134
O O2 0.500000 0.012960 0.093537
O O3 0.500000 0.061720 0.829579
O O4 0.650909 0.457013 0.762458
O O5 0.715244 0.452462 0.066380
O O6 0.862843 0.490368 0.840098
O O7 0.665347 0.536058 0.959554
O O8 0.500000 0.332928 0.843110
O O9 0.290754 0.296651 0.726884
O O10 0.359392 0.378124 0.636163
O O11 0.289671 0.372911 0.935809
O O12 0.750115 0.715390 0.622319
O O13 0.815842 0.786920 0.422450
O O14 0.000000 0.752271 0.604048
O O15 0.808076 0.133698 0.739897
O O16 0.000000 0.093302 0.589036
O O17 0.500000 0.307487 0.218817
#
# Coordination Sequence:
#
# PCOD9352385 Si02
#       8
#     4   8   8   8   8   8   8   4
#     4   8  14  26  42  60  86 122 162 204 248 294
#     4   9  17  29  46  68  96 132 171 211 256 305
#     4   9  18  33  51  72 102 138 172 212 264 316
#     4  10  21  38  60  84 110 142 179 222 274 328
#     4   9  17  29  46  68  96 132 171 211 256 305
#     4   9  18  33  51  72 102 138 172 212 264 316
#     4  10  21  38  60  84 110 142 179 222 274 328
#     4   8  14  26  42  60  86 122 162 204 248 294
#
# _framework density 23.202451
#
# number of rings (size 3 to 8) (size 9 to 14) (size 15 to 20)
#    0.000    2.857    0.000    0.857    0.000    3.429 
#    2.571    0.000    0.000    0.000    0.000    0.000 
#    0.000    0.000    0.000    0.000    0.000    0.000 
#
# Total GULP energy -155882.011877 kJ/mol
# GULP energy per Si atom -5567.214710 kJ/mol
# Density = 2.314964 g / cm^3
# Si number density = 23.202451 Si / 1000 Ang^3
#
#
#
# Elastic Constant Matrix: (Units=GPa)
#
#
# Indices 1 2 3 4 5 6 
#
# 1 66.9753 4.0905 9.5571 0.0000 0.0000 0.0000
# 2 4.0905 91.0104 -3.3743 0.0000 0.0000 0.0000
# 3 9.5571 -3.3743 52.3942 0.0000 0.0000 0.0000
# 4 0.0000 0.0000 0.0000 39.0729 0.0000 0.0000
# 5 0.0000 0.0000 0.0000 0.0000 16.0119 0.0000
# 6 0.0000 0.0000 0.0000 0.0000 0.0000 -9.2325
#
#
#
# Elastic Compliance Matrix: (Units=1/GPa)
#
#
# Indices 1 2 3 4 5 6 
#
# 1 0.015387 -0.000798 -0.002858 0.000000 0.000000 0.000000
# 2 -0.000798 0.011055 0.000857 0.000000 0.000000 0.000000
# 3 -0.002858 0.000857 0.019663 0.000000 0.000000 0.000000
# 4 0.000000 0.000000 0.000000 0.025593 0.000000 0.000000
# 5 0.000000 0.000000 0.000000 0.000000 0.062454 0.000000
# 6 0.000000 0.000000 0.000000 0.000000 0.000000 -0.108312
#
#
# Mechanical properties :
#
#
# Convention : Reuss Voigt Hill
#
# Bulk Modulus (GPa) = 24.68587 25.65850 25.17218
# Shear Modulus (GPa) = 111.26119 22.51089 66.88604
#
# Velocity S-wave (km/s) = 6.93228 3.11817 5.37492
# Velocity P-wave (km/s) = 8.64510 4.90373 7.02795
#
# Compressibility (1/GPa) = 0.04050901
#
# Stress axis : x y z
#
# Youngs Moduli (GPa) = 64.98811 90.45362 50.85783
#
# Poissons Ratio (x) = 0.07214 0.14536
# Poissons Ratio (y) = 0.05183 -0.04361
# Poissons Ratio (z) = 0.18575 -0.07756
#
# Static dielectric constant tensor:
#      x y z
#    x 1.872690 0.000000 0.000000 
#    y 0.000000 1.872870 0.000000 
#    z 0.000000 0.000000 2.013190 
# 
# From -- ./inp_files/3492.got.cif
#   From: 2010.05.17/outbox.cif.g08.bks.cpg/sg36_2_cif.got.tgz:3492.got - 2010.06.03 17:41:39.
