data_PCOD9352519
_publ_section_title
;
Structure prediction by ZEFSAII (Michael W. Deem and Ramdas Pophale) SiO2 
 PCOD9352519
Probable space group: C M C 21
;
_chemical_formula_sum "Si O2"
_cell_formula_units_Z 40
_cell_length_a 8.268090
_cell_length_b 25.629881
_cell_length_c 10.129579
_cell_angle_alpha 90.000000
_cell_angle_beta 90.000000
_cell_angle_gamma 90.000000
_cell_volume 2146.560735
_symmetry_space_group_name_H-M "C M C 21"
_symmetry_group_IT_number 36
_symmetry_cell_setting 'orthorhombic'
loop_
_space_group_symop_operation_xyz
x,y,z
-x,-y,1/2+z
x,-y,1/2+z
-x,y,z
1/2+x,1/2+y,z
1/2-x,1/2-y,1/2+z
1/2+x,1/2-y,1/2+z
1/2-x,1/2+y,z
loop_
_atom_site_type_symbol
_atom_site_label
_atom_site_fract_x
_atom_site_fract_y
_atom_site_fract_z
Si Si1 0.185034 0.321259 0.375000
Si Si2 0.685250 0.793440 0.866930
Si Si3 0.500000 0.552445 0.536318
Si Si4 0.693315 0.874323 0.099901
Si Si5 0.000000 0.954518 0.729295
Si Si6 0.323063 0.641038 0.132140
O O1 0.281949 0.267458 0.382188
O O2 0.228773 0.356154 0.249076
O O3 0.203126 0.352358 0.511437
O O4 0.000000 0.305372 0.355192
O O5 0.500000 0.801867 0.828233
O O6 0.788265 0.819686 0.751034
O O7 0.712596 0.824702 0.002634
O O8 0.666041 0.585305 0.558704
O O9 0.500000 0.504765 0.638195
O O10 0.500000 0.534143 0.384096
O O11 0.500000 0.890247 0.091302
O O12 0.848118 0.916649 0.692493
O O13 0.500000 0.653824 0.074319
#
# Coordination Sequence:
#
# PCOD9352519 Si02
#       6
#     8   8   4   8   4   8
#     4  11  23  36  60  96 132 174 217 257 314 394
#     4  11  21  38  62  91 130 177 215 260 324 384
#     4  12  24  48  74  94 128 172 218 278 347 366
#     4  10  24  42  63  96 133 171 216 272 322 395
#     4  10  26  42  74  96 120 170 222 272 333 392
#     4  10  21  40  58  91 129 161 212 267 316 381
#
# _framework density 18.634461000000002
#
# number of rings (size 3 to 8) (size 9 to 14) (size 15 to 20)
#    0.600    0.800    2.000    3.000    7.000    1.600 
#    0.000    3.000    0.000    0.000    0.000    0.000 
#    0.000    0.000    0.000    0.000    0.000    0.000 
#
# Total GULP energy -111510.603271 kJ/mol
# GULP energy per Si atom -5575.530164 kJ/mol
# Density = 1.859205 g / cm^3
# Si number density = 18.634461 Si / 1000 Ang^3
#
#
#
# Elastic Constant Matrix: (Units=GPa)
#
#
# Indices 1 2 3 4 5 6 
#
# 1 49.0277 39.9885 23.6385 0.0000 0.0000 0.0000
# 2 39.9885 82.3108 46.7939 0.0000 0.0000 0.0000
# 3 23.6385 46.7939 134.9109 0.0000 0.0000 0.0000
# 4 0.0000 0.0000 0.0000 35.5379 0.0000 0.0000
# 5 0.0000 0.0000 0.0000 0.0000 32.2241 0.0000
# 6 0.0000 0.0000 0.0000 0.0000 0.0000 15.7219
#
#
#
# Elastic Compliance Matrix: (Units=1/GPa)
#
#
# Indices 1 2 3 4 5 6 
#
# 1 0.033792 -0.016256 -0.000282 0.000000 0.000000 0.000000
# 2 -0.016256 0.022954 -0.005113 0.000000 0.000000 0.000000
# 3 -0.000282 -0.005113 0.009235 0.000000 0.000000 0.000000
# 4 0.000000 0.000000 0.000000 0.028139 0.000000 0.000000
# 5 0.000000 0.000000 0.000000 0.000000 0.031033 0.000000
# 6 0.000000 0.000000 0.000000 0.000000 0.000000 0.063606
#
#
# Mechanical properties :
#
#
# Convention : Reuss Voigt Hill
#
# Bulk Modulus (GPa) = 44.09724 54.12126 49.10925
# Shear Modulus (GPa) = 20.86628 27.08535 23.97582
#
# Velocity S-wave (km/s) = 3.34992 3.81663 3.59087
# Velocity P-wave (km/s) = 6.21919 6.96627 6.60330
#
# Compressibility (1/GPa) = 0.02267715
#
# Stress axis : x y z
#
# Youngs Moduli (GPa) = 29.59275 43.56597 108.28073
#
# Poissons Ratio (x) = 0.70823 0.03057
# Poissons Ratio (y) = 0.48107 0.55365
# Poissons Ratio (z) = 0.00835 0.22276
#
# Static dielectric constant tensor:
#      x y z
#    x 1.658490 0.000000 0.000000 
#    y 0.000000 1.616720 0.000000 
#    z 0.000000 0.000000 1.627280 
# 
# From -- ./inp_files/2540.got.cif
#   From: 2010.05.17/outbox.cif.g08.bks.cpg/sg36_2_cif.got.tgz:2540.got - 2010.06.03 17:41:39.
