data_PCOD9352911
_publ_section_title
;
Structure prediction by ZEFSAII (Michael W. Deem and Ramdas Pophale) SiO2 
 PCOD9352911
Probable space group: C M C 21
;
_chemical_formula_sum "Si O2"
_cell_formula_units_Z 48
_cell_length_a 8.358156
_cell_length_b 10.068751
_cell_length_c 23.268549
_cell_angle_alpha 90.000000
_cell_angle_beta 90.000000
_cell_angle_gamma 90.000000
_cell_volume 1958.192468
_symmetry_space_group_name_H-M "C M C 21"
_symmetry_group_IT_number 36
_symmetry_cell_setting 'orthorhombic'
loop_
_space_group_symop_operation_xyz
x,y,z
-x,-y,1/2+z
x,-y,1/2+z
-x,y,z
1/2+x,1/2+y,z
1/2-x,1/2-y,1/2+z
1/2+x,1/2-y,1/2+z
1/2-x,1/2+y,z
loop_
_atom_site_type_symbol
_atom_site_label
_atom_site_fract_x
_atom_site_fract_y
_atom_site_fract_z
Si Si1 0.000000 0.416889 0.598511
Si Si2 0.685379 0.535567 0.908308
Si Si3 0.500000 0.195349 0.532826
Si Si4 0.689192 0.728723 0.336938
Si Si5 0.000000 0.577110 0.708493
Si Si6 0.825898 0.290775 0.502763
Si Si7 0.000000 0.142765 0.142632
Si Si8 0.180604 0.972228 0.738674
O O1 0.146020 0.336898 0.568828
O O2 0.000000 0.560541 0.568524
O O3 0.000000 0.449847 0.665191
O O4 0.500000 0.542710 0.925828
O O5 0.719630 0.391747 0.882041
O O6 0.714422 0.644490 0.858191
O O7 0.795011 0.586226 0.960441
O O8 0.666563 0.205461 0.499613
O O9 0.500000 0.323139 0.576127
O O10 0.500000 0.759872 0.339216
O O11 0.720693 0.657463 0.276156
O O12 0.000000 0.714705 0.674506
O O13 0.834302 0.564726 0.742451
O O14 0.000000 0.230527 0.487391
O O15 0.147337 0.062824 0.171502
O O16 0.000000 0.015558 0.757881
#
# Coordination Sequence:
#
# PCOD9352911 Si02
#       8
#     4   8   4   8   4   8   4   8
#     4   9  24  40  61  94 121 161 218 249 310 391
#     4  11  24  41  64  92 126 169 212 264 319 377
#     4  11  20  44  63  87 133 158 204 269 306 379
#     4  10  24  42  62  93 129 163 215 264 313 386
#     4  11  20  42  63  90 125 163 208 257 312 379
#     4  10  23  40  62  91 121 162 207 257 315 377
#     4   9  22  40  63  93 123 164 208 257 316 373
#     4   9  22  40  61  92 124 159 205 258 312 377
#
# _framework density 24.5124
#
# number of rings (size 3 to 8) (size 9 to 14) (size 15 to 20)
#    1.000    1.000    0.833    1.500    5.833    1.333 
#    3.000    1.667    0.000    0.000    0.000    0.000 
#    0.000    0.000    0.000    0.000    0.000    0.000 
#
# Total GULP energy -134011.010400 kJ/mol
# GULP energy per Si atom -5583.792100 kJ/mol
# Density = 2.445661 g / cm^3
# Si number density = 24.512400 Si / 1000 Ang^3
#
#
#
# Elastic Constant Matrix: (Units=GPa)
#
#
# Indices 1 2 3 4 5 6 
#
# 1 164.1074 51.0631 17.2875 0.0000 0.0000 0.0000
# 2 51.0631 66.1955 -6.0276 0.0000 0.0000 0.0000
# 3 17.2875 -6.0276 58.8333 0.0000 0.0000 0.0000
# 4 0.0000 0.0000 0.0000 33.0991 0.0000 0.0000
# 5 0.0000 0.0000 0.0000 0.0000 26.7156 0.0000
# 6 0.0000 0.0000 0.0000 0.0000 0.0000 12.2226
#
#
#
# Elastic Compliance Matrix: (Units=1/GPa)
#
#
# Indices 1 2 3 4 5 6 
#
# 1 0.008587 -0.006918 -0.003232 0.000000 0.000000 0.000000
# 2 -0.006918 0.020823 0.004166 0.000000 0.000000 0.000000
# 3 -0.003232 0.004166 0.018374 0.000000 0.000000 0.000000
# 4 0.000000 0.000000 0.000000 0.030212 0.000000 0.000000
# 5 0.000000 0.000000 0.000000 0.000000 0.037431 0.000000
# 6 0.000000 0.000000 0.000000 0.000000 0.000000 0.081816
#
#
# Mechanical properties :
#
#
# Convention : Reuss Voigt Hill
#
# Bulk Modulus (GPa) = 27.92091 45.97581 36.94836
# Shear Modulus (GPa) = 22.60926 29.52832 26.06879
#
# Velocity S-wave (km/s) = 3.04033 3.47454 3.26466
# Velocity P-wave (km/s) = 4.87238 5.90707 5.41450
#
# Compressibility (1/GPa) = 0.03581546
#
# Stress axis : x y z
#
# Youngs Moduli (GPa) = 116.46056 48.02465 54.42578
#
# Poissons Ratio (x) = 0.33223 0.17590
# Poissons Ratio (y) = 0.80567 -0.22674
# Poissons Ratio (z) = 0.37638 -0.20008
#
# Static dielectric constant tensor:
#      x y z
#    x 1.944860 0.000000 0.000000 
#    y 0.000000 1.914370 0.000000 
#    z 0.000000 0.000000 1.979770 
# 
# From -- ./inp_files/16461.got.cif
#   From: 2010.05.17/outbox.cif.g08.bks.cpg/sg36_9_cif.got.tgz:16461.got - 2010.06.03 17:41:39.
