data_PCOD9352370
_publ_section_title
;
Structure prediction by ZEFSAII (Michael W. Deem and Ramdas Pophale) SiO2 
 PCOD9352370
Probable space group: C M C 21
;
_chemical_formula_sum "Si O2"
_cell_formula_units_Z 64
_cell_length_a 7.909701
_cell_length_b 20.216407
_cell_length_c 18.658355
_cell_angle_alpha 90.000000
_cell_angle_beta 90.000000
_cell_angle_gamma 90.000000
_cell_volume 2983.577964
_symmetry_space_group_name_H-M "C M C 21"
_symmetry_group_IT_number 36
_symmetry_cell_setting 'orthorhombic'
loop_
_space_group_symop_operation_xyz
x,y,z
-x,-y,1/2+z
x,-y,1/2+z
-x,y,z
1/2+x,1/2+y,z
1/2-x,1/2-y,1/2+z
1/2+x,1/2-y,1/2+z
1/2-x,1/2+y,z
loop_
_atom_site_type_symbol
_atom_site_label
_atom_site_fract_x
_atom_site_fract_y
_atom_site_fract_z
Si Si1 0.807651 0.576813 0.701650
Si Si2 0.694008 0.638623 0.558669
Si Si3 0.205233 0.801241 0.764472
Si Si4 0.801547 0.780515 0.604221
Si Si5 0.207254 0.881982 0.487010
Si Si6 0.793317 0.973283 0.954260
Si Si7 0.301050 0.668878 0.831765
Si Si8 0.204275 0.047423 0.291383
O O1 0.699200 0.598717 0.633566
O O2 0.782453 0.628117 0.767104
O O3 0.768774 0.504625 0.733157
O O4 0.000000 0.580792 0.677071
O O5 0.500000 0.653864 0.540438
O O6 0.783411 0.708232 0.570629
O O7 0.765648 0.590945 0.497254
O O8 0.267142 0.781752 0.684846
O O9 0.272940 0.746443 0.818876
O O10 0.254996 0.876754 0.779002
O O11 0.000000 0.797710 0.767678
O O12 0.730168 0.835966 0.551198
O O13 0.000000 0.795495 0.612158
O O14 0.260513 0.853898 0.409638
O O15 0.000000 0.879978 0.487569
O O16 0.258471 0.958373 0.491422
O O17 0.741848 0.973661 0.871275
O O18 0.000000 0.971618 0.955286
O O19 0.500000 0.653220 0.827875
O O20 0.000000 0.044696 0.288911
#
# Coordination Sequence:
#
# PCOD9352370 Si02
#       8
#     8   8   8   8   8   8   8   8
#     4  12  24  40  61  87 120 157 200 254 304 351
#     4  11  23  38  62  89 117 159 203 247 297 359
#     4  10  22  37  60  89 121 157 197 248 302 354
#     4  10  21  38  58  85 122 159 194 238 298 361
#     4   9  19  36  60  87 116 153 194 240 294 355
#     4   9  19  37  61  88 117 151 200 247 290 353
#     4  11  21  38  64  87 115 157 203 247 294 355
#     4  10  21  40  64  90 120 157 201 247 299 364
#
# _framework density 21.450755000000001
#
# number of rings (size 3 to 8) (size 9 to 14) (size 15 to 20)
#    0.000    1.750    2.500    1.875    3.500    0.500 
#    0.000    1.875    0.000    0.000    0.000    0.000 
#    0.000    0.000    0.000    0.000    0.000    0.000 
#
# Total GULP energy -178863.613325 kJ/mol
# GULP energy per Si atom -5589.487916 kJ/mol
# Density = 2.140193 g / cm^3
# Si number density = 21.450755 Si / 1000 Ang^3
#
#
#
# Elastic Constant Matrix: (Units=GPa)
#
#
# Indices 1 2 3 4 5 6 
#
# 1 25.2355 -6.9827 -2.7856 0.0000 0.0000 0.0000
# 2 -6.9827 99.4295 -3.1197 0.0000 0.0000 0.0000
# 3 -2.7856 -3.1197 26.9800 0.0000 0.0000 0.0000
# 4 0.0000 0.0000 0.0000 44.1670 0.0000 0.0000
# 5 0.0000 0.0000 0.0000 0.0000 6.4260 0.0000
# 6 0.0000 0.0000 0.0000 0.0000 0.0000 19.6549
#
#
#
# Elastic Compliance Matrix: (Units=1/GPa)
#
#
# Indices 1 2 3 4 5 6 
#
# 1 0.040968 0.003021 0.004579 0.000000 0.000000 0.000000
# 2 0.003021 0.010317 0.001505 0.000000 0.000000 0.000000
# 3 0.004579 0.001505 0.037711 0.000000 0.000000 0.000000
# 4 0.000000 0.000000 0.000000 0.022641 0.000000 0.000000
# 5 0.000000 0.000000 0.000000 0.000000 0.155617 0.000000
# 6 0.000000 0.000000 0.000000 0.000000 0.000000 0.050878
#
#
# Mechanical properties :
#
#
# Convention : Reuss Voigt Hill
#
# Bulk Modulus (GPa) = 9.32789 13.98545 11.65667
# Shear Modulus (GPa) = 14.89611 25.01845 19.95728
#
# Velocity S-wave (km/s) = 2.63807 3.41885 3.05352
# Velocity P-wave (km/s) = 3.69285 4.70305 4.22823
#
# Compressibility (1/GPa) = 0.10720543
#
# Stress axis : x y z
#
# Youngs Moduli (GPa) = 24.40927 96.92991 26.51731
#
# Poissons Ratio (x) = -0.29280 -0.12143
# Poissons Ratio (y) = -0.07373 -0.03990
# Poissons Ratio (z) = -0.11177 -0.14586
#
# Static dielectric constant tensor:
#      x y z
#    x 1.802180 0.000000 0.000000 
#    y 0.000000 1.747420 0.000000 
#    z 0.000000 0.000000 1.752650 
# 
# From -- ./inp_files/13878.got.cif
#   From: 2010.05.17/outbox.cif.g08.bks.cpg/sg36_7_cif.got.tgz:13878.got - 2010.06.03 17:41:39.
