data_PCOD9352048
_publ_section_title
;
Structure prediction by ZEFSAII (Michael W. Deem and Ramdas Pophale) SiO2 
 PCOD9352048
Probable space group: C M C 21
;
_chemical_formula_sum "Si O2"
_cell_formula_units_Z 64
_cell_length_a 8.843109
_cell_length_b 29.312367
_cell_length_c 12.383768
_cell_angle_alpha 90.000000
_cell_angle_beta 90.000000
_cell_angle_gamma 90.000000
_cell_volume 3210.026923
_symmetry_space_group_name_H-M "C M C 21"
_symmetry_group_IT_number 36
_symmetry_cell_setting 'orthorhombic'
loop_
_space_group_symop_operation_xyz
x,y,z
-x,-y,1/2+z
x,-y,1/2+z
-x,y,z
1/2+x,1/2+y,z
1/2-x,1/2-y,1/2+z
1/2+x,1/2-y,1/2+z
1/2-x,1/2+y,z
loop_
_atom_site_type_symbol
_atom_site_label
_atom_site_fract_x
_atom_site_fract_y
_atom_site_fract_z
Si Si1 0.323977 0.529865 0.794930
Si Si2 0.678292 0.670882 0.260267
Si Si3 0.322421 0.333078 0.382802
Si Si4 0.320466 0.818651 0.994018
Si Si5 0.828313 0.419219 0.477430
Si Si6 0.179832 0.273503 0.559966
Si Si7 0.320179 0.381774 0.158900
Si Si8 0.173159 0.932867 0.690777
O O1 0.500000 0.538821 0.826244
O O2 0.292141 0.566429 0.699122
O O3 0.311311 0.477401 0.763723
O O4 0.212662 0.542649 0.890853
O O5 0.500000 0.681886 0.264866
O O6 0.757643 0.683452 0.372430
O O7 0.750439 0.696383 0.157057
O O8 0.692978 0.616223 0.245713
O O9 0.500000 0.321893 0.385565
O O10 0.286169 0.377962 0.453128
O O11 0.229305 0.294347 0.443934
O O12 0.281871 0.349026 0.261661
O O13 0.500000 0.814235 0.993633
O O14 0.245904 0.777258 0.060736
O O15 0.269227 0.864679 0.055089
O O16 0.793483 0.436355 0.595871
O O17 0.000000 0.402988 0.465436
O O18 0.000000 0.273254 0.569793
O O19 0.500000 0.377348 0.139060
O O20 0.000000 0.933992 0.647373
#
# Coordination Sequence:
#
# PCOD9352048 Si02
#       8
#     8   8   8   8   8   8   8   8
#     4   9  20  39  63  90 122 168 219 263 313 382
#     4  11  24  44  68  95 129 167 216 267 320 382
#     4  10  20  38  64  90 120 159 207 260 311 373
#     4  12  27  44  64  91 131 174 214 261 324 389
#     4  11  21  34  56  88 124 160 203 262 320 372
#     4  12  25  42  66  95 127 162 209 263 321 383
#     4   9  20  40  64  90 125 164 213 266 314 371
#     4  10  21  39  65  91 122 166 213 262 315 382
#
# _framework density 19.937525999999998
#
# number of rings (size 3 to 8) (size 9 to 14) (size 15 to 20)
#    0.000    1.500    1.250    4.875    1.750    4.500 
#    0.000    5.000    0.000    0.000    0.000    0.000 
#    0.000    0.000    0.000    0.000    0.000    0.000 
#
# Total GULP energy -178774.403089 kJ/mol
# GULP energy per Si atom -5586.700097 kJ/mol
# Density = 1.989215 g / cm^3
# Si number density = 19.937526 Si / 1000 Ang^3
#
#
#
# Elastic Constant Matrix: (Units=GPa)
#
#
# Indices 1 2 3 4 5 6 
#
# 1 93.0068 33.7463 38.5626 0.0000 0.0000 0.0000
# 2 33.7463 83.9058 21.8758 0.0000 0.0000 0.0000
# 3 38.5626 21.8758 55.7974 0.0000 0.0000 0.0000
# 4 0.0000 0.0000 0.0000 13.0720 0.0000 0.0000
# 5 0.0000 0.0000 0.0000 0.0000 30.1251 0.0000
# 6 0.0000 0.0000 0.0000 0.0000 0.0000 16.8487
#
#
#
# Elastic Compliance Matrix: (Units=1/GPa)
#
#
# Indices 1 2 3 4 5 6 
#
# 1 0.016195 -0.004005 -0.009622 0.000000 0.000000 0.000000
# 2 -0.004005 0.014265 -0.002825 0.000000 0.000000 0.000000
# 3 -0.009622 -0.002825 0.025680 0.000000 0.000000 0.000000
# 4 0.000000 0.000000 0.000000 0.076499 0.000000 0.000000
# 5 0.000000 0.000000 0.000000 0.000000 0.033195 0.000000
# 6 0.000000 0.000000 0.000000 0.000000 0.000000 0.059352
#
#
# Mechanical properties :
#
#
# Convention : Reuss Voigt Hill
#
# Bulk Modulus (GPa) = 43.03767 46.78660 44.91213
# Shear Modulus (GPa) = 18.80868 21.24419 20.02643
#
# Velocity S-wave (km/s) = 3.07478 3.26780 3.17276
# Velocity P-wave (km/s) = 5.85140 6.14456 5.99977
#
# Compressibility (1/GPa) = 0.02323546
#
# Stress axis : x y z
#
# Youngs Moduli (GPa) = 61.74920 70.10011 38.94114
#
# Poissons Ratio (x) = 0.28072 0.37470
# Poissons Ratio (y) = 0.24728 0.11002
# Poissons Ratio (z) = 0.59417 0.19804
#
# Static dielectric constant tensor:
#      x y z
#    x 1.675810 0.000000 0.000000 
#    y 0.000000 1.718180 0.000000 
#    z 0.000000 0.000000 1.706660 
# 
# From -- ./inp_files/7262.got.cif
#   From: 2010.05.17/outbox.cif.g08.bks.cpg/sg36_4_cif.got.tgz:7262.got - 2010.06.03 17:41:39.
