data_PCOD9352181
_publ_section_title
;
Structure prediction by ZEFSAII (Michael W. Deem and Ramdas Pophale) SiO2 
 PCOD9352181
Probable space group: C M C 21
;
_chemical_formula_sum "Si O2"
_cell_formula_units_Z 48
_cell_length_a 27.532673
_cell_length_b 7.923160
_cell_length_c 8.400620
_cell_angle_alpha 90.000000
_cell_angle_beta 90.000000
_cell_angle_gamma 90.000000
_cell_volume 1832.559747
_symmetry_space_group_name_H-M "C M C 21"
_symmetry_group_IT_number 36
_symmetry_cell_setting 'orthorhombic'
loop_
_space_group_symop_operation_xyz
x,y,z
-x,-y,1/2+z
x,-y,1/2+z
-x,y,z
1/2+x,1/2+y,z
1/2-x,1/2-y,1/2+z
1/2+x,1/2-y,1/2+z
1/2-x,1/2+y,z
loop_
_atom_site_type_symbol
_atom_site_label
_atom_site_fract_x
_atom_site_fract_y
_atom_site_fract_z
Si Si1 0.394306 0.896464 0.810580
Si Si2 0.000000 0.615628 0.268844
Si Si3 0.897294 0.199423 0.276825
Si Si4 0.742193 0.432759 0.277226
Si Si5 0.202490 0.315494 0.982945
Si Si6 0.142025 0.101870 0.591773
Si Si7 0.500000 0.247925 0.900602
O O1 0.449327 0.843216 0.855840
O O2 0.352622 0.859200 0.939085
O O3 0.382187 0.770583 0.665944
O O4 0.394502 0.096096 0.767033
O O5 0.000000 0.412550 0.280734
O O6 0.000000 0.683846 0.085845
O O7 0.857563 0.139019 0.405926
O O8 0.949926 0.160067 0.356437
O O9 0.887172 0.070200 0.132690
O O10 0.767019 0.602310 0.338000
O O11 0.724003 0.367409 0.450428
O O12 0.693610 0.411066 0.175905
O O13 0.784247 0.362895 0.160784
#
# Coordination Sequence:
#
# PCOD9352181 Si02
#       7
#     8   4   8   8   8   8   4
#     4  10  25  44  75 104 142 194 241 301 367 437
#     4  10  20  45  73 105 144 183 248 301 360 441
#     4  11  25  45  70 105 147 186 246 301 364 439
#     4  11  25  42  66 102 138 191 236 301 359 441
#     4  11  25  43  70 101 142 188 244 296 373 437
#     4  11  25  46  70 104 146 190 245 303 364 437
#     4  10  22  43  73 105 144 195 238 305 366 443
#
# _framework density 26.192869000000002
#
# number of rings (size 3 to 8) (size 9 to 14) (size 15 to 20)
#    0.000    1.333    1.667    2.000    9.333    4.000 
#    3.000    0.000    0.000    0.000    0.000    0.000 
#    0.000    0.000    0.000    0.000    0.000    0.000 
#
# Total GULP energy -134126.233834 kJ/mol
# GULP energy per Si atom -5588.593076 kJ/mol
# Density = 2.613325 g / cm^3
# Si number density = 26.192869 Si / 1000 Ang^3
#
#
#
# Elastic Constant Matrix: (Units=GPa)
#
#
# Indices 1 2 3 4 5 6 
#
# 1 169.6661 30.6471 18.3095 0.0000 0.0000 0.0000
# 2 30.6471 127.9651 39.4936 0.0000 0.0000 0.0000
# 3 18.3095 39.4936 46.6469 0.0000 0.0000 0.0000
# 4 0.0000 0.0000 0.0000 44.8407 0.0000 0.0000
# 5 0.0000 0.0000 0.0000 0.0000 53.4915 0.0000
# 6 0.0000 0.0000 0.0000 0.0000 0.0000 43.0154
#
#
#
# Elastic Compliance Matrix: (Units=1/GPa)
#
#
# Indices 1 2 3 4 5 6 
#
# 1 0.006248 -0.001001 -0.001605 0.000000 0.000000 0.000000
# 2 -0.001001 0.010739 -0.008699 0.000000 0.000000 0.000000
# 3 -0.001605 -0.008699 0.029433 0.000000 0.000000 0.000000
# 4 0.000000 0.000000 0.000000 0.022301 0.000000 0.000000
# 5 0.000000 0.000000 0.000000 0.000000 0.018695 0.000000
# 6 0.000000 0.000000 0.000000 0.000000 0.000000 0.023247
#
#
# Mechanical properties :
#
#
# Convention : Reuss Voigt Hill
#
# Bulk Modulus (GPa) = 42.00016 57.90873 49.95444
# Shear Modulus (GPa) = 35.40808 45.32472 40.36640
#
# Velocity S-wave (km/s) = 3.68070 4.16435 3.92997
# Velocity P-wave (km/s) = 5.84236 6.72896 6.30128
#
# Compressibility (1/GPa) = 0.02380943
#
# Stress axis : x y z
#
# Youngs Moduli (GPa) = 160.05276 93.11604 33.97545
#
# Poissons Ratio (x) = 0.09321 0.05453
# Poissons Ratio (y) = 0.16022 0.29557
# Poissons Ratio (z) = 0.25686 0.81006
#
# Static dielectric constant tensor:
#      x y z
#    x 1.978260 0.000000 0.000000 
#    y 0.000000 2.130900 0.000000 
#    z 0.000000 0.000000 2.016700 
# 
# From -- ./inp_files/6030.got.cif
#   From: 2010.05.17/outbox.cif.g08.bks.cpg/sg36_4_cif.got.tgz:6030.got - 2010.06.03 17:41:39.
