data_PCOD9352692
_publ_section_title
;
Structure prediction by ZEFSAII (Michael W. Deem and Ramdas Pophale) SiO2 
 PCOD9352692
Probable space group: C M C 21
;
_chemical_formula_sum "Si O2"
_cell_formula_units_Z 64
_cell_length_a 17.640112
_cell_length_b 9.992777
_cell_length_c 19.644636
_cell_angle_alpha 90.000000
_cell_angle_beta 90.000000
_cell_angle_gamma 90.000000
_cell_volume 3462.832780
_symmetry_space_group_name_H-M "C M C 21"
_symmetry_group_IT_number 36
_symmetry_cell_setting 'orthorhombic'
loop_
_space_group_symop_operation_xyz
x,y,z
-x,-y,1/2+z
x,-y,1/2+z
-x,y,z
1/2+x,1/2+y,z
1/2-x,1/2-y,1/2+z
1/2+x,1/2-y,1/2+z
1/2-x,1/2+y,z
loop_
_atom_site_type_symbol
_atom_site_label
_atom_site_fract_x
_atom_site_fract_y
_atom_site_fract_z
Si Si1 0.305962 0.487173 0.834870
Si Si2 0.087183 0.970313 0.460369
Si Si3 0.410319 0.850493 0.636848
Si Si4 0.587958 0.784242 0.486670
Si Si5 0.319931 0.604340 0.689703
Si Si6 0.335508 0.176415 0.842998
Si Si7 0.862831 0.635138 0.692566
Si Si8 0.089669 0.109918 0.105195
O O1 0.359010 0.537432 0.895869
O O2 0.336859 0.535112 0.762059
O O3 0.300956 0.326477 0.837487
O O4 0.226232 0.560082 0.842527
O O5 0.104681 0.876322 0.524504
O O6 0.000000 0.949829 0.439644
O O7 0.093524 0.122849 0.487953
O O8 0.500000 0.815836 0.637857
O O9 0.382221 0.840515 0.558266
O O10 0.362016 0.744992 0.680295
O O11 0.397622 0.997448 0.666025
O O12 0.500000 0.820978 0.484033
O O13 0.623516 0.829113 0.415510
O O14 0.229130 0.624852 0.685603
O O15 0.355559 0.505118 0.634005
O O16 0.381213 0.158653 0.772436
O O17 0.893063 0.757005 0.647385
O O18 0.000000 0.073599 0.112007
#
# Coordination Sequence:
#
# PCOD9352692 Si02
#       8
#     8   8   8   8   8   8   8   8
#     4  10  22  39  61  87 120 155 200 245 298 351
#     4   9  19  38  61  86 116 153 201 248 289 348
#     4  11  23  41  62  90 124 159 199 249 301 356
#     4   9  19  39  62  85 115 156 200 242 293 354
#     4  11  22  39  62  88 118 158 201 243 295 359
#     4  10  22  40  62  86 119 158 197 246 294 356
#     4  11  24  39  60  91 125 156 198 249 307 348
#     4  11  21  39  62  89 119 155 200 246 293 354
#
# _framework density 18.481978999999999
#
# number of rings (size 3 to 8) (size 9 to 14) (size 15 to 20)
#    0.000    1.750    2.500    1.500    5.250    4.000 
#    2.250    0.000    0.000    0.000    0.000    0.000 
#    0.000    0.000    0.000    0.000    0.000    0.000 
#
# Total GULP energy -178569.542785 kJ/mol
# GULP energy per Si atom -5580.298212 kJ/mol
# Density = 1.843991 g / cm^3
# Si number density = 18.481979 Si / 1000 Ang^3
#
#
#
# Elastic Constant Matrix: (Units=GPa)
#
#
# Indices 1 2 3 4 5 6 
#
# 1 30.2379 -8.5103 14.1084 0.0000 0.0000 0.0000
# 2 -8.5103 35.1582 -0.2123 0.0000 0.0000 0.0000
# 3 14.1084 -0.2123 73.5970 0.0000 0.0000 0.0000
# 4 0.0000 0.0000 0.0000 30.2984 0.0000 0.0000
# 5 0.0000 0.0000 0.0000 0.0000 26.5552 0.0000
# 6 0.0000 0.0000 0.0000 0.0000 0.0000 22.8502
#
#
#
# Elastic Compliance Matrix: (Units=1/GPa)
#
#
# Indices 1 2 3 4 5 6 
#
# 1 0.039226 0.009450 -0.007492 0.000000 0.000000 0.000000
# 2 0.009450 0.030720 -0.001723 0.000000 0.000000 0.000000
# 3 -0.007492 -0.001723 0.015019 0.000000 0.000000 0.000000
# 4 0.000000 0.000000 0.000000 0.033005 0.000000 0.000000
# 5 0.000000 0.000000 0.000000 0.000000 0.037657 0.000000
# 6 0.000000 0.000000 0.000000 0.000000 0.000000 0.043763
#
#
# Mechanical properties :
#
#
# Convention : Reuss Voigt Hill
#
# Bulk Modulus (GPa) = 11.70491 16.64052 14.17272
# Shear Modulus (GPa) = 21.98770 24.84792 23.41781
#
# Velocity S-wave (km/s) = 3.45292 3.67064 3.56344
# Velocity P-wave (km/s) = 4.71633 5.19500 4.96144
#
# Compressibility (1/GPa) = 0.08543425
#
# Stress axis : x y z
#
# Youngs Moduli (GPa) = 25.49300 32.55220 66.58321
#
# Poissons Ratio (x) = -0.30761 0.49887
# Poissons Ratio (y) = -0.24090 0.11472
# Poissons Ratio (z) = 0.19100 0.05608
#
# Static dielectric constant tensor:
#      x y z
#    x 1.626490 0.000000 0.000000 
#    y 0.000000 1.621260 0.000000 
#    z 0.000000 0.000000 1.655390 
# 
# From -- ./inp_files/15022.got.cif
#   From: 2010.05.17/outbox.cif.g08.bks.cpg/sg36_8_cif.got.tgz:15022.got - 2010.06.03 17:41:39.
