data_PCOD9352878
_publ_section_title
;
Structure prediction by ZEFSAII (Michael W. Deem and Ramdas Pophale) SiO2 
 PCOD9352878
Probable space group: C M C 21
;
_chemical_formula_sum "Si O2"
_cell_formula_units_Z 60
_cell_length_a 17.966612
_cell_length_b 7.718278
_cell_length_c 18.026229
_cell_angle_alpha 90.000000
_cell_angle_beta 90.000000
_cell_angle_gamma 90.000000
_cell_volume 2499.720720
_symmetry_space_group_name_H-M "C M C 21"
_symmetry_group_IT_number 36
_symmetry_cell_setting 'orthorhombic'
loop_
_space_group_symop_operation_xyz
x,y,z
-x,-y,1/2+z
x,-y,1/2+z
-x,y,z
1/2+x,1/2+y,z
1/2-x,1/2-y,1/2+z
1/2+x,1/2-y,1/2+z
1/2-x,1/2+y,z
loop_
_atom_site_type_symbol
_atom_site_label
_atom_site_fract_x
_atom_site_fract_y
_atom_site_fract_z
Si Si1 0.107204 0.331778 0.972740
Si Si2 0.084534 0.014508 0.381525
Si Si3 0.912409 0.955284 0.214319
Si Si4 0.200148 0.829453 0.105360
Si Si5 0.735818 0.386702 0.497592
Si Si6 0.840258 0.618695 0.870893
Si Si7 0.355434 0.150876 0.697350
Si Si8 0.000000 0.422293 0.110498
O O1 0.088002 0.142905 0.939224
O O2 0.105343 0.479618 0.910208
O O3 0.192661 0.297500 0.995116
O O4 0.062597 0.379390 0.045118
O O5 0.000000 0.081772 0.379438
O O6 0.099735 0.930352 0.301416
O O7 0.134592 0.185163 0.390266
O O8 0.881753 0.147623 0.197252
O O9 0.000000 0.949475 0.197218
O O10 0.864983 0.827518 0.164716
O O11 0.197186 0.661777 0.052908
O O12 0.277775 0.852856 0.151012
O O13 0.187262 0.985188 0.047146
O O14 0.762348 0.413505 0.413825
O O15 0.837410 0.600292 0.782699
O O16 0.431086 0.056879 0.670561
#
# Coordination Sequence:
#
# PCOD9352878 Si02
#       8
#     8   8   8   8   8   8   8   4
#     4  12  25  45  75 103 146 200 240 314 381 451
#     4  10  24  45  72 109 141 192 253 304 372 451
#     4  10  22  44  72 102 151 196 244 305 377 454
#     4  12  23  43  73 107 144 194 250 303 379 446
#     4  12  24  45  67 107 144 186 252 309 371 453
#     4  11  27  45  74 104 150 191 254 313 377 448
#     4  11  24  43  73 106 145 200 245 309 376 460
#     4  12  22  46  72 104 148 200 252 296 396 450
#
# _framework density 24.002682
#
# number of rings (size 3 to 8) (size 9 to 14) (size 15 to 20)
#    0.000    0.800    5.333    0.800    3.733    2.133 
#    0.000    0.000    4.400    0.000    0.000    0.000 
#    0.000    0.000    0.000    0.000    0.000    0.000 
#
# Total GULP energy -167127.922469 kJ/mol
# GULP energy per Si atom -5570.930749 kJ/mol
# Density = 2.394805 g / cm^3
# Si number density = 24.002682 Si / 1000 Ang^3
#
#
#
# Elastic Constant Matrix: (Units=GPa)
#
#
# Indices 1 2 3 4 5 6 
#
# 1 106.4895 12.4199 84.9002 0.0000 0.0000 0.0000
# 2 12.4199 70.0877 50.2655 0.0000 0.0000 0.0000
# 3 84.9002 50.2655 178.8407 0.0000 0.0000 0.0000
# 4 0.0000 0.0000 0.0000 29.2682 0.0000 0.0000
# 5 0.0000 0.0000 0.0000 0.0000 47.4034 0.0000
# 6 0.0000 0.0000 0.0000 0.0000 0.0000 14.6397
#
#
#
# Elastic Compliance Matrix: (Units=1/GPa)
#
#
# Indices 1 2 3 4 5 6 
#
# 1 0.015663 0.003203 -0.008336 0.000000 0.000000 0.000000
# 2 0.003203 0.018525 -0.006727 0.000000 0.000000 0.000000
# 3 -0.008336 -0.006727 0.011439 0.000000 0.000000 0.000000
# 4 0.000000 0.000000 0.000000 0.034167 0.000000 0.000000
# 5 0.000000 0.000000 0.000000 0.000000 0.021096 0.000000
# 6 0.000000 0.000000 0.000000 0.000000 0.000000 0.068307
#
#
# Mechanical properties :
#
#
# Convention : Reuss Voigt Hill
#
# Bulk Modulus (GPa) = 45.64756 72.28766 58.96761
# Shear Modulus (GPa) = 24.97263 32.11774 28.54518
#
# Velocity S-wave (km/s) = 3.22904 3.66196 3.45229
# Velocity P-wave (km/s) = 5.74119 6.93266 6.36487
#
# Compressibility (1/GPa) = 0.02190698
#
# Stress axis : x y z
#
# Youngs Moduli (GPa) = 63.84548 53.98169 87.41680
#
# Poissons Ratio (x) = -0.17289 0.72868
# Poissons Ratio (y) = -0.20448 0.58805
# Poissons Ratio (z) = 0.53220 0.36314
#
# Static dielectric constant tensor:
#      x y z
#    x 2.070010 0.000000 0.000000 
#    y 0.000000 2.001530 0.000000 
#    z 0.000000 0.000000 1.905310 
# 
# From -- ./inp_files/14881.got.cif
#   From: 2010.05.17/outbox.cif.g08.bks.cpg/sg36_8_cif.got.tgz:14881.got - 2010.06.03 17:41:39.
