data_PCOD9352680
_publ_section_title
;
Structure prediction by ZEFSAII (Michael W. Deem and Ramdas Pophale) SiO2 
 PCOD9352680
Probable space group: C M C 21
;
_chemical_formula_sum "Si O2"
_cell_formula_units_Z 32
_cell_length_a 19.376008
_cell_length_b 9.827187
_cell_length_c 7.329890
_cell_angle_alpha 90.000000
_cell_angle_beta 90.000000
_cell_angle_gamma 90.000000
_cell_volume 1395.696478
_symmetry_space_group_name_H-M "C M C 21"
_symmetry_group_IT_number 36
_symmetry_cell_setting 'orthorhombic'
loop_
_space_group_symop_operation_xyz
x,y,z
-x,-y,1/2+z
x,-y,1/2+z
-x,y,z
1/2+x,1/2+y,z
1/2-x,1/2-y,1/2+z
1/2+x,1/2-y,1/2+z
1/2-x,1/2+y,z
loop_
_atom_site_type_symbol
_atom_site_label
_atom_site_fract_x
_atom_site_fract_y
_atom_site_fract_z
Si Si1 0.236652 0.798432 0.373730
Si Si2 0.699055 0.559705 0.520768
Si Si3 0.000000 0.361703 0.617183
Si Si4 0.890866 0.754582 0.834516
Si Si5 0.500000 0.183077 0.547045
O O1 0.236639 0.640272 0.424289
O O2 0.193624 0.853574 0.204745
O O3 0.317524 0.822321 0.328900
O O4 0.215017 0.901718 0.533897
O O5 0.632444 0.595126 0.399691
O O6 0.935774 0.308970 0.497421
O O7 0.000000 0.525199 0.609984
O O8 0.000000 0.313322 0.827753
O O9 0.933538 0.748013 0.648127
#
# Coordination Sequence:
#
# PCOD9352680 Si02
#       5
#     8   8   4   8   4
#     4  10  22  38  62  95 134 165 206 261 330 386
#     4  10  22  39  61  95 136 168 205 264 323 401
#     4  11  21  40  63  91 123 174 217 286 313 365
#     4   9  24  38  59  99 129 157 225 258 324 392
#     4  11  21  38  67  89 125 172 217 284 319 357
#
# _framework density 22.927623000000001
#
# number of rings (size 3 to 8) (size 9 to 14) (size 15 to 20)
#    1.500    0.500    2.500    1.500    3.500    2.000 
#    0.000    0.000    0.000    6.000    0.000    7.000 
#    0.000    0.000    0.000    0.000    0.000    0.000 
#
# Total GULP energy -89169.336658 kJ/mol
# GULP energy per Si atom -5573.083541 kJ/mol
# Density = 2.287544 g / cm^3
# Si number density = 22.927623 Si / 1000 Ang^3
#
#
#
# Elastic Constant Matrix: (Units=GPa)
#
#
# Indices 1 2 3 4 5 6 
#
# 1 73.6806 26.4760 15.7541 0.0000 0.0000 0.0000
# 2 26.4760 67.6869 2.4347 0.0000 0.0000 0.0000
# 3 15.7541 2.4347 154.9609 0.0000 0.0000 0.0000
# 4 0.0000 0.0000 0.0000 28.2035 0.0000 0.0000
# 5 0.0000 0.0000 0.0000 0.0000 37.1556 0.0000
# 6 0.0000 0.0000 0.0000 0.0000 0.0000 24.2068
#
#
#
# Elastic Compliance Matrix: (Units=1/GPa)
#
#
# Indices 1 2 3 4 5 6 
#
# 1 0.016153 -0.006263 -0.001544 0.000000 0.000000 0.000000
# 2 -0.006263 0.017210 0.000366 0.000000 0.000000 0.000000
# 3 -0.001544 0.000366 0.006604 0.000000 0.000000 0.000000
# 4 0.000000 0.000000 0.000000 0.035457 0.000000 0.000000
# 5 0.000000 0.000000 0.000000 0.000000 0.026914 0.000000
# 6 0.000000 0.000000 0.000000 0.000000 0.000000 0.041311
#
#
# Mechanical properties :
#
#
# Convention : Reuss Voigt Hill
#
# Bulk Modulus (GPa) = 39.86096 42.85089 41.35592
# Shear Modulus (GPa) = 29.95968 34.69077 32.32523
#
# Velocity S-wave (km/s) = 3.61876 3.89402 3.75891
# Velocity P-wave (km/s) = 5.90626 6.24084 6.07585
#
# Compressibility (1/GPa) = 0.02508720
#
# Stress axis : x y z
#
# Youngs Moduli (GPa) = 61.90977 58.10448 151.41348
#
# Poissons Ratio (x) = 0.36389 0.23374
# Poissons Ratio (y) = 0.38772 -0.05546
# Poissons Ratio (z) = 0.09557 -0.02128
#
# Static dielectric constant tensor:
#      x y z
#    x 1.833970 0.000000 0.000000 
#    y 0.000000 1.836230 0.000000 
#    z 0.000000 0.000000 2.012390 
# 
# From -- ./inp_files/5069.got.cif
#   From: 2010.05.17/outbox.cif.g08.bks.cpg/sg36_3_cif.got.tgz:5069.got - 2010.06.03 17:41:39.
