data_PCOD9352311
_publ_section_title
;
Structure prediction by ZEFSAII (Michael W. Deem and Ramdas Pophale) SiO2 
 PCOD9352311
Probable space group: C M C 21
;
_chemical_formula_sum "Si O2"
_cell_formula_units_Z 64
_cell_length_a 7.718590
_cell_length_b 15.791062
_cell_length_c 24.418888
_cell_angle_alpha 90.000000
_cell_angle_beta 90.000000
_cell_angle_gamma 90.000000
_cell_volume 2976.289650
_symmetry_space_group_name_H-M "C M C 21"
_symmetry_group_IT_number 36
_symmetry_cell_setting 'orthorhombic'
loop_
_space_group_symop_operation_xyz
x,y,z
-x,-y,1/2+z
x,-y,1/2+z
-x,y,z
1/2+x,1/2+y,z
1/2-x,1/2-y,1/2+z
1/2+x,1/2-y,1/2+z
1/2-x,1/2+y,z
loop_
_atom_site_type_symbol
_atom_site_label
_atom_site_fract_x
_atom_site_fract_y
_atom_site_fract_z
Si Si1 0.289938 0.390248 0.277290
Si Si2 0.710717 0.922042 0.001210
Si Si3 0.295615 0.650515 0.385528
Si Si4 0.199644 0.157297 0.897861
Si Si5 0.711868 0.420975 0.768057
Si Si6 0.299418 0.772468 0.078630
Si Si7 0.198267 0.607779 0.016503
Si Si8 0.794378 0.236044 0.198025
O O1 0.500000 0.387392 0.277831
O O2 0.232442 0.377091 0.340075
O O3 0.233965 0.482802 0.257003
O O4 0.228809 0.313228 0.239955
O O5 0.500000 0.922303 0.000226
O O6 0.774949 0.845098 0.039217
O O7 0.767975 0.906433 0.938950
O O8 0.768519 0.013102 0.023439
O O9 0.500000 0.667898 0.379731
O O10 0.206531 0.740893 0.394800
O O11 0.235937 0.607010 0.329365
O O12 0.296413 0.126985 0.951754
O O13 0.000000 0.129766 0.903854
O O14 0.500000 0.420586 0.767579
O O15 0.774332 0.350009 0.725577
O O16 0.500000 0.797301 0.086578
O O17 0.220380 0.760347 0.138742
O O18 0.293248 0.683301 0.047299
O O19 0.000000 0.609956 0.035675
O O20 0.000000 0.221834 0.190533
#
# Coordination Sequence:
#
# PCOD9352311 Si02
#       8
#     8   8   8   8   8   8   8   8
#     4  10  21  37  58  84 115 151 186 231 288 338
#     4  10  22  39  57  83 119 152 187 236 291 342
#     4  11  20  34  60  88 115 150 191 231 283 349
#     4  11  21  35  57  85 119 151 184 232 293 348
#     4   9  19  36  57  83 116 148 185 234 281 337
#     4  10  22  40  60  81 113 156 193 238 297 344
#     4  11  23  38  59  86 115 150 193 240 285 340
#     4  10  21  39  60  82 112 152 197 240 286 336
#
# _framework density 21.503283
#
# number of rings (size 3 to 8) (size 9 to 14) (size 15 to 20)
#    0.000    1.750    2.500    1.875    0.000    4.000 
#    0.000    1.875    0.000    0.000    0.000    0.000 
#    0.000    0.000    0.000    0.000    0.000    0.000 
#
# Total GULP energy -178839.824157 kJ/mol
# GULP energy per Si atom -5588.744505 kJ/mol
# Density = 2.145434 g / cm^3
# Si number density = 21.503283 Si / 1000 Ang^3
#
#
#
# Elastic Constant Matrix: (Units=GPa)
#
#
# Indices 1 2 3 4 5 6 
#
# 1 35.3176 -12.0964 -5.8214 0.0000 0.0000 0.0000
# 2 -12.0964 100.3152 4.8481 0.0000 0.0000 0.0000
# 3 -5.8214 4.8481 84.5836 0.0000 0.0000 0.0000
# 4 0.0000 0.0000 0.0000 -0.2295 0.0000 0.0000
# 5 0.0000 0.0000 0.0000 0.0000 13.0320 0.0000
# 6 0.0000 0.0000 0.0000 0.0000 0.0000 -15.5543
#
#
#
# Elastic Compliance Matrix: (Units=1/GPa)
#
#
# Indices 1 2 3 4 5 6 
#
# 1 0.029821 0.003506 0.001851 0.000000 0.000000 0.000000
# 2 0.003506 0.010409 -0.000355 0.000000 0.000000 0.000000
# 3 0.001851 -0.000355 0.011970 0.000000 0.000000 0.000000
# 4 0.000000 0.000000 0.000000 -4.356633 0.000000 0.000000
# 5 0.000000 0.000000 0.000000 0.000000 0.076734 0.000000
# 6 0.000000 0.000000 0.000000 0.000000 0.000000 -0.064291
#
#
# Mechanical properties :
#
#
# Convention : Reuss Voigt Hill
#
# Bulk Modulus (GPa) = 16.07594 21.56410 18.82002
# Shear Modulus (GPa) = -1.16788 15.00203 6.91708
#
# Velocity S-wave (km/s) = -0.73776 2.64420 1.79548
# Velocity P-wave (km/s) = 2.60126 4.40141 3.61517
#
# Compressibility (1/GPa) = 0.06220475
#
# Stress axis : x y z
#
# Youngs Moduli (GPa) = 33.53380 96.07472 83.53936
#
# Poissons Ratio (x) = -0.33688 -0.15467
# Poissons Ratio (y) = -0.11758 0.02968
# Poissons Ratio (z) = -0.06208 0.03413
#
# Static dielectric constant tensor:
#      x y z
#    x 1.811470 0.000000 0.000000 
#    y 0.000000 1.762610 0.000000 
#    z 0.000000 0.000000 1.752850 
# 
# From -- ./inp_files/16584.got.cif
#   From: 2010.05.17/outbox.cif.g08.bks.cpg/sg36_9_cif.got.tgz:16584.got - 2010.06.03 17:41:39.
