data_PCOD9352610
_publ_section_title
;
Structure prediction by ZEFSAII (Michael W. Deem and Ramdas Pophale) SiO2 
 PCOD9352610
Probable space group: C M C 21
;
_chemical_formula_sum "Si O2"
_cell_formula_units_Z 40
_cell_length_a 20.742579
_cell_length_b 9.245566
_cell_length_c 9.036256
_cell_angle_alpha 90.000000
_cell_angle_beta 90.000000
_cell_angle_gamma 90.000000
_cell_volume 1732.945011
_symmetry_space_group_name_H-M "C M C 21"
_symmetry_group_IT_number 36
_symmetry_cell_setting 'orthorhombic'
loop_
_space_group_symop_operation_xyz
x,y,z
-x,-y,1/2+z
x,-y,1/2+z
-x,y,z
1/2+x,1/2+y,z
1/2-x,1/2-y,1/2+z
1/2+x,1/2-y,1/2+z
1/2-x,1/2+y,z
loop_
_atom_site_type_symbol
_atom_site_label
_atom_site_fract_x
_atom_site_fract_y
_atom_site_fract_z
Si Si1 0.337828 0.938567 0.518690
Si Si2 0.767765 0.843191 0.994558
Si Si3 0.346796 0.472599 0.731310
Si Si4 0.426451 0.044997 0.298721
Si Si5 0.926307 0.155406 0.971294
O O1 0.278887 0.826963 0.507341
O O2 0.381173 0.916442 0.661862
O O3 0.303422 0.094087 0.510861
O O4 0.387777 0.920594 0.384463
O O5 0.809886 0.915022 0.124858
O O6 0.795863 0.891232 0.835978
O O7 0.387145 0.370068 0.622015
O O8 0.393089 0.559508 0.843261
O O9 0.500000 0.008835 0.256213
O O10 0.428850 0.180959 0.410541
O O11 0.000000 0.107306 0.994238
#
# Coordination Sequence:
#
# PCOD9352610 Si02
#       5
#     8   8   8   8   8
#     4  12  27  47  72 105 143 187 242 294 359 428
#     4  11  26  43  73 101 142 184 236 297 361 422
#     4  10  22  42  67 103 143 182 238 291 359 421
#     4  11  26  47  72 102 143 189 241 297 353 427
#     4  10  21  41  68 101 143 190 235 289 350 424
#
# _framework density 23.082093
#
# number of rings (size 3 to 8) (size 9 to 14) (size 15 to 20)
#    0.000    1.200    2.000    2.400    8.400    3.200 
#    0.000    2.000    0.000    0.000    0.000    0.000 
#    0.000    0.000    0.000    0.000    0.000    0.000 
#
# Total GULP energy -112006.260568 kJ/mol
# GULP energy per Si atom -5600.313028 kJ/mol
# Density = 2.302956 g / cm^3
# Si number density = 23.082093 Si / 1000 Ang^3
#
#
#
# Elastic Constant Matrix: (Units=GPa)
#
#
# Indices 1 2 3 4 5 6 
#
# 1 152.7145 38.8267 37.1578 0.0000 0.0000 0.0000
# 2 38.8267 57.4988 23.8872 0.0000 0.0000 0.0000
# 3 37.1578 23.8872 121.3869 0.0000 0.0000 0.0000
# 4 0.0000 0.0000 0.0000 23.2113 0.0000 0.0000
# 5 0.0000 0.0000 0.0000 0.0000 30.6446 0.0000
# 6 0.0000 0.0000 0.0000 0.0000 0.0000 31.6310
#
#
#
# Elastic Compliance Matrix: (Units=1/GPa)
#
#
# Indices 1 2 3 4 5 6 
#
# 1 0.008161 -0.004871 -0.001540 0.000000 0.000000 0.000000
# 2 -0.004871 0.021848 -0.002808 0.000000 0.000000 0.000000
# 3 -0.001540 -0.002808 0.009262 0.000000 0.000000 0.000000
# 4 0.000000 0.000000 0.000000 0.043082 0.000000 0.000000
# 5 0.000000 0.000000 0.000000 0.000000 0.032632 0.000000
# 6 0.000000 0.000000 0.000000 0.000000 0.000000 0.031615
#
#
# Mechanical properties :
#
#
# Convention : Reuss Voigt Hill
#
# Bulk Modulus (GPa) = 48.00138 59.03819 53.51979
# Shear Modulus (GPa) = 29.07268 32.54596 30.80932
#
# Velocity S-wave (km/s) = 3.55284 3.75908 3.65742
# Velocity P-wave (km/s) = 6.13770 6.66888 6.40879
#
# Compressibility (1/GPa) = 0.02083273
#
# Stress axis : x y z
#
# Youngs Moduli (GPa) = 122.52941 45.77133 107.96780
#
# Poissons Ratio (x) = 0.22297 0.16623
# Poissons Ratio (y) = 0.59689 0.30319
# Poissons Ratio (z) = 0.18865 0.12853
#
# Static dielectric constant tensor:
#      x y z
#    x 1.850640 0.000000 0.000000 
#    y 0.000000 1.904660 0.000000 
#    z 0.000000 0.000000 1.856210 
# 
# From -- ./inp_files/5459.got.cif
#   From: 2010.05.17/outbox.cif.g08.bks.cpg/sg36_3_cif.got.tgz:5459.got - 2010.06.03 17:41:39.
