data_PCOD9352387
_publ_section_title
;
Structure prediction by ZEFSAII (Michael W. Deem and Ramdas Pophale) SiO2 
 PCOD9352387
Probable space group: C M C 21
;
_chemical_formula_sum "Si O2"
_cell_formula_units_Z 48
_cell_length_a 8.502438
_cell_length_b 24.430098
_cell_length_c 12.334209
_cell_angle_alpha 90.000000
_cell_angle_beta 90.000000
_cell_angle_gamma 90.000000
_cell_volume 2562.005077
_symmetry_space_group_name_H-M "C M C 21"
_symmetry_group_IT_number 36
_symmetry_cell_setting 'orthorhombic'
loop_
_space_group_symop_operation_xyz
x,y,z
-x,-y,1/2+z
x,-y,1/2+z
-x,y,z
1/2+x,1/2+y,z
1/2-x,1/2-y,1/2+z
1/2+x,1/2-y,1/2+z
1/2-x,1/2+y,z
loop_
_atom_site_type_symbol
_atom_site_label
_atom_site_fract_x
_atom_site_fract_y
_atom_site_fract_z
Si Si1 0.811753 0.582441 0.662400
Si Si2 0.190290 0.167970 0.838530
Si Si3 0.189735 0.710027 0.278345
Si Si4 0.689830 0.641870 0.081640
Si Si5 0.190179 0.605513 0.417249
Si Si6 0.688482 0.537199 0.220042
O O1 0.746036 0.625091 0.749318
O O2 0.757892 0.597319 0.540570
O O3 0.758646 0.521395 0.692178
O O4 0.000000 0.585197 0.663974
O O5 0.243872 0.229343 0.809089
O O6 0.000000 0.168151 0.839715
O O7 0.244017 0.151027 0.959003
O O8 0.251332 0.688777 0.163026
O O9 0.237832 0.664133 0.366566
O O10 0.000000 0.710298 0.275283
O O11 0.500000 0.642735 0.082401
O O12 0.739795 0.583857 0.133679
O O13 0.257220 0.559542 0.336822
O O14 0.000000 0.602632 0.413907
O O15 0.500000 0.533803 0.218025
#
# Coordination Sequence:
#
# PCOD9352387 Si02
#       6
#     8   8   8   8   8   8
#     4  11  24  38  58  87 117 150 190 238 286 338
#     4  10  22  38  58  86 118 151 189 233 284 339
#     4   9  19  37  60  84 114 151 189 233 282 335
#     4   9  20  38  60  84 113 150 189 233 283 336
#     4   9  20  39  60  84 114 151 191 233 284 337
#     4  10  21  38  60  85 114 151 192 236 285 339
#
# _framework density 18.735326000000001
#
# number of rings (size 3 to 8) (size 9 to 14) (size 15 to 20)
#    0.000    2.333    0.000    1.000    4.667    3.333 
#    0.000    0.000    0.000    0.000    0.000    0.000 
#    0.000    0.000    0.000    0.000    0.000    0.000 
#
# Total GULP energy -134007.598708 kJ/mol
# GULP energy per Si atom -5583.649946 kJ/mol
# Density = 1.869268 g / cm^3
# Si number density = 18.735326 Si / 1000 Ang^3
#
#
#
# Elastic Constant Matrix: (Units=GPa)
#
#
# Indices 1 2 3 4 5 6 
#
# 1 8.6376 19.6923 25.3016 0.0000 0.0000 0.0000
# 2 19.6923 153.1038 114.2806 0.0000 0.0000 0.0000
# 3 25.3016 114.2806 210.0339 0.0000 0.0000 0.0000
# 4 0.0000 0.0000 0.0000 14.8214 0.0000 0.0000
# 5 0.0000 0.0000 0.0000 0.0000 20.2855 0.0000
# 6 0.0000 0.0000 0.0000 0.0000 0.0000 21.5988
#
#
#
# Elastic Compliance Matrix: (Units=1/GPa)
#
#
# Indices 1 2 3 4 5 6 
#
# 1 0.192178 -0.012524 -0.016336 0.000000 0.000000 0.000000
# 2 -0.012524 0.011815 -0.004920 0.000000 0.000000 0.000000
# 3 -0.016336 -0.004920 0.009406 0.000000 0.000000 0.000000
# 4 0.000000 0.000000 0.000000 0.067470 0.000000 0.000000
# 5 0.000000 0.000000 0.000000 0.000000 0.049296 0.000000
# 6 0.000000 0.000000 0.000000 0.000000 0.000000 0.046299
#
#
# Mechanical properties :
#
#
# Convention : Reuss Voigt Hill
#
# Bulk Modulus (GPa) = 6.85691 76.70271 41.77981
# Shear Modulus (GPa) = 10.14947 25.50786 17.82867
#
# Velocity S-wave (km/s) = 2.33003 3.69383 3.08816
# Velocity P-wave (km/s) = 3.30251 7.69556 5.92149
#
# Compressibility (1/GPa) = 0.14583831
#
# Stress axis : x y z
#
# Youngs Moduli (GPa) = 5.20351 84.64156 106.31701
#
# Poissons Ratio (x) = 1.06008 1.73680
# Poissons Ratio (y) = 0.06517 0.52304
# Poissons Ratio (z) = 0.08500 0.41640
#
# Static dielectric constant tensor:
#      x y z
#    x 1.640450 0.000000 0.000000 
#    y 0.000000 1.623040 0.000000 
#    z 0.000000 0.000000 1.629420 
# 
# From -- ./inp_files/6714.got.cif
#   From: 2010.05.17/outbox.cif.g08.bks.cpg/sg36_4_cif.got.tgz:6714.got - 2010.06.03 17:41:39.
