data_PCOD9352130
_publ_section_title
;
Structure prediction by ZEFSAII (Michael W. Deem and Ramdas Pophale) SiO2 
 PCOD9352130
Probable space group: C M C 21
;
_chemical_formula_sum "Si O2"
_cell_formula_units_Z 36
_cell_length_a 12.140887
_cell_length_b 31.874691
_cell_length_c 4.993266
_cell_angle_alpha 90.000000
_cell_angle_beta 90.000000
_cell_angle_gamma 90.000000
_cell_volume 1932.329137
_symmetry_space_group_name_H-M "C M C 21"
_symmetry_group_IT_number 36
_symmetry_cell_setting 'orthorhombic'
loop_
_space_group_symop_operation_xyz
x,y,z
-x,-y,1/2+z
x,-y,1/2+z
-x,y,z
1/2+x,1/2+y,z
1/2-x,1/2-y,1/2+z
1/2+x,1/2-y,1/2+z
1/2-x,1/2+y,z
loop_
_atom_site_type_symbol
_atom_site_label
_atom_site_fract_x
_atom_site_fract_y
_atom_site_fract_z
Si Si1 0.873883 0.104094 0.178980
Si Si2 0.000000 0.282197 0.728716
Si Si3 0.500000 0.157795 0.728372
Si Si4 0.000000 0.027236 0.994120
Si Si5 0.206858 0.767625 0.027473
Si Si6 0.248264 0.363632 0.168993
O O1 0.805989 0.106277 0.452456
O O2 0.000000 0.120980 0.217852
O O3 0.806147 0.128883 0.953910
O O4 0.897339 0.057171 0.070167
O O5 0.000000 0.320848 0.519304
O O6 0.101835 0.252655 0.666913
O O7 0.000000 0.304326 0.014380
O O8 0.384335 0.133485 0.689376
O O9 0.000000 0.012830 0.688495
O O10 0.297074 0.744787 0.217101
O O11 0.223563 0.816702 0.068204
#
# Coordination Sequence:
#
# PCOD9352130 Si02
#       6
#     8   4   4   4   8   8
#     4  10  24  38  62  93 126 145 193 240 313 366
#     4  12  22  38  51  80 102 151 216 271 302 365
#     4  12  24  38  59  74 118 163 214 245 294 349
#     4  10  20  40  68 100 128 152 182 234 310 396
#     4  12  23  38  54  76 109 158 215 263 314 336
#     4  12  22  41  55  88 119 164 203 265 296 363
#
# _framework density 18.630365000000001
#
# number of rings (size 3 to 8) (size 9 to 14) (size 15 to 20)
#    0.667    0.000    4.444    4.667    3.111    0.000 
#    0.000    0.000    0.000    0.000    0.000   15.556 
#    0.000    0.000    0.000    0.000    0.000    0.000 
#
# Total GULP energy -100416.763535 kJ/mol
# GULP energy per Si atom -5578.709085 kJ/mol
# Density = 1.858796 g / cm^3
# Si number density = 18.630365 Si / 1000 Ang^3
#
#
#
# Elastic Constant Matrix: (Units=GPa)
#
#
# Indices 1 2 3 4 5 6 
#
# 1 133.3708 7.8813 23.4355 0.0000 0.0000 0.0000
# 2 7.8813 35.7694 -10.6433 0.0000 0.0000 0.0000
# 3 23.4355 -10.6433 75.4415 0.0000 0.0000 0.0000
# 4 0.0000 0.0000 0.0000 22.0408 0.0000 0.0000
# 5 0.0000 0.0000 0.0000 0.0000 23.1494 0.0000
# 6 0.0000 0.0000 0.0000 0.0000 0.0000 -63.2949
#
#
#
# Elastic Compliance Matrix: (Units=1/GPa)
#
#
# Indices 1 2 3 4 5 6 
#
# 1 0.008167 -0.002666 -0.002913 0.000000 0.000000 0.000000
# 2 -0.002666 0.030052 0.005068 0.000000 0.000000 0.000000
# 3 -0.002913 0.005068 0.014875 0.000000 0.000000 0.000000
# 4 0.000000 0.000000 0.000000 0.045370 0.000000 0.000000
# 5 0.000000 0.000000 0.000000 0.000000 0.043198 0.000000
# 6 0.000000 0.000000 0.000000 0.000000 0.000000 -0.015799
#
#
# Mechanical properties :
#
#
# Convention : Reuss Voigt Hill
#
# Bulk Modulus (GPa) = 19.20425 31.76985 25.48705
# Shear Modulus (GPa) = 34.66333 11.30627 22.98480
#
# Velocity S-wave (km/s) = 4.31813 2.46615 3.51626
# Velocity P-wave (km/s) = 5.93229 5.01986 5.49504
#
# Compressibility (1/GPa) = 0.05207181
#
# Stress axis : x y z
#
# Youngs Moduli (GPa) = 122.43827 33.27520 67.22537
#
# Poissons Ratio (x) = 0.08873 0.19585
# Poissons Ratio (y) = 0.32647 -0.34071
# Poissons Ratio (z) = 0.35670 -0.16864
#
# Static dielectric constant tensor:
#      x y z
#    x 1.684010 0.000000 0.000000 
#    y 0.000000 1.625750 0.000000 
#    z 0.000000 0.000000 1.649100 
# 
# From -- ./inp_files/567.got.cif
#   From: 2010.05.17/outbox.cif.g08.bks.cpg/sg36_1_cif.got.tgz:567.got - 2010.06.03 17:41:39.
