data_PCOD9352883
_publ_section_title
;
Structure prediction by ZEFSAII (Michael W. Deem and Ramdas Pophale) SiO2 
 PCOD9352883
Probable space group: C M C 21
;
_chemical_formula_sum "Si O2"
_cell_formula_units_Z 64
_cell_length_a 21.741351
_cell_length_b 14.649260
_cell_length_c 9.076300
_cell_angle_alpha 90.000000
_cell_angle_beta 90.000000
_cell_angle_gamma 90.000000
_cell_volume 2890.753478
_symmetry_space_group_name_H-M "C M C 21"
_symmetry_group_IT_number 36
_symmetry_cell_setting 'orthorhombic'
loop_
_space_group_symop_operation_xyz
x,y,z
-x,-y,1/2+z
x,-y,1/2+z
-x,y,z
1/2+x,1/2+y,z
1/2-x,1/2-y,1/2+z
1/2+x,1/2-y,1/2+z
1/2-x,1/2+y,z
loop_
_atom_site_type_symbol
_atom_site_label
_atom_site_fract_x
_atom_site_fract_y
_atom_site_fract_z
Si Si1 0.885534 0.120071 0.427330
Si Si2 0.822043 0.426649 0.598102
Si Si3 0.070499 0.225558 0.911536
Si Si4 0.245165 0.629108 0.827249
Si Si5 0.254875 0.164527 0.358069
Si Si6 0.346636 0.867053 0.095578
Si Si7 0.066197 0.706579 0.070898
Si Si8 0.628665 0.554522 0.760736
O O1 0.817354 0.148991 0.372905
O O2 0.925433 0.210102 0.456335
O O3 0.886076 0.077392 0.591946
O O4 0.900952 0.040457 0.312416
O O5 0.764616 0.404441 0.493355
O O6 0.794757 0.405096 0.759838
O O7 0.852805 0.524898 0.570660
O O8 0.874955 0.355627 0.563581
O O9 0.105105 0.297385 0.021191
O O10 0.066985 0.263088 0.743264
O O11 0.105819 0.130499 0.879997
O O12 0.000000 0.211474 0.961443
O O13 0.269083 0.732241 0.809179
O O14 0.175607 0.634210 0.763701
O O15 0.296904 0.561402 0.764970
O O16 0.281920 0.157879 0.520258
O O17 0.000000 0.662032 0.043122
#
# Coordination Sequence:
#
# PCOD9352883 Si02
#       8
#     8   8   8   8   8   8   8   8
#     4  11  23  40  64  99 128 170 215 273 331 392
#     4  12  24  40  64  98 131 171 216 269 332 393
#     4  10  23  44  68  90 124 177 225 268 325 397
#     4  12  24  38  63  98 135 169 207 271 335 395
#     4  12  22  41  63  94 136 170 213 262 333 403
#     4  12  23  40  65  96 130 166 216 272 325 395
#     4  10  22  45  68  89 125 178 227 266 324 397
#     4  11  23  40  65  96 131 167 217 269 333 394
#
# _framework density 22.139557
#
# number of rings (size 3 to 8) (size 9 to 14) (size 15 to 20)
#    0.000    0.750    5.000    3.750    1.750    1.000 
#    0.000    0.625    0.000    0.000    0.000    0.000 
#    0.000    0.000    0.000    0.000    0.000    0.000 
#
# Total GULP energy -178447.492180 kJ/mol
# GULP energy per Si atom -5576.484131 kJ/mol
# Density = 2.208917 g / cm^3
# Si number density = 22.139557 Si / 1000 Ang^3
#
#
#
# Elastic Constant Matrix: (Units=GPa)
#
#
# Indices 1 2 3 4 5 6 
#
# 1 73.2308 10.8312 6.0627 0.0000 0.0000 0.0000
# 2 10.8312 86.1411 3.6834 0.0000 0.0000 0.0000
# 3 6.0627 3.6834 55.1134 0.0000 0.0000 0.0000
# 4 0.0000 0.0000 0.0000 29.7894 0.0000 0.0000
# 5 0.0000 0.0000 0.0000 0.0000 16.5812 0.0000
# 6 0.0000 0.0000 0.0000 0.0000 0.0000 -525.1208
#
#
#
# Elastic Compliance Matrix: (Units=1/GPa)
#
#
# Indices 1 2 3 4 5 6 
#
# 1 0.014026 -0.001702 -0.001429 0.000000 0.000000 0.000000
# 2 -0.001702 0.011849 -0.000605 0.000000 0.000000 0.000000
# 3 -0.001429 -0.000605 0.018342 0.000000 0.000000 0.000000
# 4 0.000000 0.000000 0.000000 0.033569 0.000000 0.000000
# 5 0.000000 0.000000 0.000000 0.000000 0.060309 0.000000
# 6 0.000000 0.000000 0.000000 0.000000 0.000000 -0.001904
#
#
# Mechanical properties :
#
#
# Convention : Reuss Voigt Hill
#
# Bulk Modulus (GPa) = 27.21528 28.40444 27.80986
# Shear Modulus (GPa) = 32.06964 -82.82284 -25.37660
#
# Velocity S-wave (km/s) = 3.81007 -6.12296 -3.38925
# Velocity P-wave (km/s) = 5.62804 6.09344 1.65153
#
# Compressibility (1/GPa) = 0.03674407
#
# Stress axis : x y z
#
# Youngs Moduli (GPa) = 71.29834 84.39692 54.51966
#
# Poissons Ratio (x) = 0.14368 0.07791
# Poissons Ratio (y) = 0.12138 0.03296
# Poissons Ratio (z) = 0.10189 0.05103
#
# Static dielectric constant tensor:
#      x y z
#    x 1.767730 0.000000 0.000000 
#    y 0.000000 1.901840 0.000000 
#    z 0.000000 0.000000 1.820900 
# 
# From -- ./inp_files/5651.got.cif
#   From: 2010.05.17/outbox.cif.g08.bks.cpg/sg36_3_cif.got.tgz:5651.got - 2010.06.03 17:41:39.
