data_PCOD9352630
_publ_section_title
;
Structure prediction by ZEFSAII (Michael W. Deem and Ramdas Pophale) SiO2 
 PCOD9352630
Probable space group: C M C 21
;
_chemical_formula_sum "Si O2"
_cell_formula_units_Z 60
_cell_length_a 12.464316
_cell_length_b 26.602457
_cell_length_c 7.893510
_cell_angle_alpha 90.000000
_cell_angle_beta 90.000000
_cell_angle_gamma 90.000000
_cell_volume 2617.341337
_symmetry_space_group_name_H-M "C M C 21"
_symmetry_group_IT_number 36
_symmetry_cell_setting 'orthorhombic'
loop_
_space_group_symop_operation_xyz
x,y,z
-x,-y,1/2+z
x,-y,1/2+z
-x,y,z
1/2+x,1/2+y,z
1/2-x,1/2-y,1/2+z
1/2+x,1/2-y,1/2+z
1/2-x,1/2+y,z
loop_
_atom_site_type_symbol
_atom_site_label
_atom_site_fract_x
_atom_site_fract_y
_atom_site_fract_z
Si Si1 0.160898 0.070311 0.711720
Si Si2 0.344487 0.790822 0.124256
Si Si3 0.116450 0.393945 0.282551
Si Si4 0.691097 0.103173 0.151063
Si Si5 0.616569 0.325440 0.671613
Si Si6 0.887929 0.176456 0.566848
Si Si7 0.500000 0.152012 0.369421
Si Si8 0.880807 0.036395 0.096826
O O1 0.287889 0.078864 0.687036
O O2 0.115275 0.124747 0.669422
O O3 0.124167 0.023687 0.600861
O O4 0.133318 0.055684 0.904714
O O5 0.370892 0.833619 0.263811
O O6 0.377152 0.734533 0.162371
O O7 0.216765 0.791805 0.103969
O O8 0.406621 0.812264 0.961892
O O9 0.130163 0.409096 0.476414
O O10 0.000000 0.405694 0.208166
O O11 0.776050 0.148205 0.104767
O O12 0.598323 0.118908 0.280320
O O13 0.777809 0.059471 0.195404
O O14 0.500000 0.340115 0.595947
O O15 0.615909 0.338494 0.870233
O O16 0.000000 0.203955 0.600744
O O17 0.000000 0.050595 0.161253
#
# Coordination Sequence:
#
# PCOD9352630 Si02
#       8
#     8   8   8   8   8   8   4   8
#     4  10  24  42  70 104 138 180 229 286 352 409
#     4  11  23  42  67  94 133 179 225 289 345 412
#     4  10  21  43  66  92 135 179 224 276 347 413
#     4  11  25  40  67  97 134 179 226 284 341 414
#     4  11  23  40  64  97 135 173 230 284 346 413
#     4  10  22  42  67 100 137 178 229 282 346 417
#     4  12  22  44  64  94 138 172 236 284 344 404
#     4  11  23  43  69 103 140 179 232 285 350 416
#
# _framework density 22.924025
#
# number of rings (size 3 to 8) (size 9 to 14) (size 15 to 20)
#    0.000    1.333    3.333    1.600    3.733    0.000 
#    2.400    0.667    0.000    0.000    0.000    0.000 
#    0.000    0.000    0.000    0.000    0.000    0.000 
#
# Total GULP energy -167065.061390 kJ/mol
# GULP energy per Si atom -5568.835380 kJ/mol
# Density = 2.287185 g / cm^3
# Si number density = 22.924025 Si / 1000 Ang^3
#
#
#
# Elastic Constant Matrix: (Units=GPa)
#
#
# Indices 1 2 3 4 5 6 
#
# 1 218.8587 14.0283 -2.0646 0.0000 0.0000 0.0000
# 2 14.0283 51.8883 -10.1520 0.0000 0.0000 0.0000
# 3 -2.0646 -10.1520 25.7645 0.0000 0.0000 0.0000
# 4 0.0000 0.0000 0.0000 -1.7462 0.0000 0.0000
# 5 0.0000 0.0000 0.0000 0.0000 19.2402 0.0000
# 6 0.0000 0.0000 0.0000 0.0000 0.0000 -0.2542
#
#
#
# Elastic Compliance Matrix: (Units=1/GPa)
#
#
# Indices 1 2 3 4 5 6 
#
# 1 0.004650 -0.001283 -0.000133 0.000000 0.000000 0.000000
# 2 -0.001283 0.021236 0.008265 0.000000 0.000000 0.000000
# 3 -0.000133 0.008265 0.042059 0.000000 0.000000 0.000000
# 4 0.000000 0.000000 0.000000 -0.572682 0.000000 0.000000
# 5 0.000000 0.000000 0.000000 0.000000 0.051974 0.000000
# 6 0.000000 0.000000 0.000000 0.000000 0.000000 -3.933569
#
#
# Mechanical properties :
#
#
# Convention : Reuss Voigt Hill
#
# Bulk Modulus (GPa) = 12.24851 33.34831 22.79841
# Shear Modulus (GPa) = -1.14343 23.09462 10.97560
#
# Velocity S-wave (km/s) = -0.70702 3.17747 2.19048
# Velocity P-wave (km/s) = 2.16522 5.29534 4.04529
#
# Compressibility (1/GPa) = 0.08164256
#
# Stress axis : x y z
#
# Youngs Moduli (GPa) = 215.04660 47.08960 23.77611
#
# Poissons Ratio (x) = 0.06043 0.00316
# Poissons Ratio (y) = 0.27595 -0.19651
# Poissons Ratio (z) = 0.02860 -0.38919
#
# Static dielectric constant tensor:
#      x y z
#    x 1.954400 0.000000 0.000000 
#    y 0.000000 1.843070 0.000000 
#    z 0.000000 0.000000 1.902340 
# 
# From -- ./inp_files/3490.got.cif
#   From: 2010.05.17/outbox.cif.g08.bks.cpg/sg36_2_cif.got.tgz:3490.got - 2010.06.03 17:41:39.
