data_PCOD9352842
_publ_section_title
;
Structure prediction by ZEFSAII (Michael W. Deem and Ramdas Pophale) SiO2 
 PCOD9352842
Probable space group: C M C 21
;
_chemical_formula_sum "Si O2"
_cell_formula_units_Z 64
_cell_length_a 24.135788
_cell_length_b 8.348941
_cell_length_c 14.316220
_cell_angle_alpha 90.000000
_cell_angle_beta 90.000000
_cell_angle_gamma 90.000000
_cell_volume 2884.836725
_symmetry_space_group_name_H-M "C M C 21"
_symmetry_group_IT_number 36
_symmetry_cell_setting 'orthorhombic'
loop_
_space_group_symop_operation_xyz
x,y,z
-x,-y,1/2+z
x,-y,1/2+z
-x,y,z
1/2+x,1/2+y,z
1/2-x,1/2-y,1/2+z
1/2+x,1/2-y,1/2+z
1/2-x,1/2+y,z
loop_
_atom_site_type_symbol
_atom_site_label
_atom_site_fract_x
_atom_site_fract_y
_atom_site_fract_z
Si Si1 0.179082 0.603117 0.401090
Si Si2 0.064779 0.887919 0.976220
Si Si3 0.206330 0.184986 0.627822
Si Si4 0.097431 0.078003 0.692703
Si Si5 0.314380 0.975266 0.199110
Si Si6 0.563923 0.265299 0.379558
Si Si7 0.380254 0.729363 0.296590
Si Si8 0.713107 0.754282 0.431269
O O1 0.198916 0.558832 0.297218
O O2 0.114892 0.649993 0.406328
O O3 0.220444 0.744247 0.429552
O O4 0.193199 0.434980 0.448564
O O5 0.074170 0.066659 0.933943
O O6 0.000000 0.857402 0.974020
O O7 0.090555 0.767075 0.898726
O O8 0.080955 0.888229 0.085882
O O9 0.163991 0.091315 0.692993
O O10 0.268429 0.146128 0.659486
O O11 0.186996 0.368457 0.635677
O O12 0.198041 0.142968 0.519140
O O13 0.071578 0.197226 0.768919
O O14 0.088057 0.902160 0.735215
O O15 0.370051 0.879684 0.227802
O O16 0.500000 0.215194 0.397148
O O17 0.317773 0.697693 0.337016
#
# Coordination Sequence:
#
# PCOD9352842 Si02
#       8
#     8   8   8   8   8   8   8   8
#     4  11  23  40  64  91 135 168 215 271 332 403
#     4  10  22  42  70  99 126 171 234 281 332 401
#     4  12  22  38  62  95 136 169 225 265 333 406
#     4  11  21  39  68  94 129 174 220 286 320 397
#     4  11  23  39  59  93 130 179 212 271 334 411
#     4  10  23  42  68  97 130 179 223 275 336 394
#     4  10  23  40  63  96 137 169 221 270 348 395
#     4  11  24  38  62  99 131 177 213 271 343 395
#
# _framework density 22.184964000000001
#
# number of rings (size 3 to 8) (size 9 to 14) (size 15 to 20)
#    0.000    1.250    2.500    4.125    3.500    3.500 
#    0.000    2.500    0.000    0.000    0.000    0.000 
#    0.000    0.000    0.000    0.000    0.000    0.000 
#
# Total GULP energy -178227.216795 kJ/mol
# GULP energy per Si atom -5569.600525 kJ/mol
# Density = 2.213447 g / cm^3
# Si number density = 22.184964 Si / 1000 Ang^3
#
#
#
# Elastic Constant Matrix: (Units=GPa)
#
#
# Indices 1 2 3 4 5 6 
#
# 1 72.5479 39.7382 6.2791 0.0000 0.0000 0.0000
# 2 39.7382 68.7127 7.5863 0.0000 0.0000 0.0000
# 3 6.2791 7.5863 76.1259 0.0000 0.0000 0.0000
# 4 0.0000 0.0000 0.0000 18.9993 0.0000 0.0000
# 5 0.0000 0.0000 0.0000 0.0000 22.4068 0.0000
# 6 0.0000 0.0000 0.0000 0.0000 0.0000 26.3271
#
#
#
# Elastic Compliance Matrix: (Units=1/GPa)
#
#
# Indices 1 2 3 4 5 6 
#
# 1 0.020194 -0.011623 -0.000507 0.000000 0.000000 0.000000
# 2 -0.011623 0.021405 -0.001174 0.000000 0.000000 0.000000
# 3 -0.000507 -0.001174 0.013295 0.000000 0.000000 0.000000
# 4 0.000000 0.000000 0.000000 0.052634 0.000000 0.000000
# 5 0.000000 0.000000 0.000000 0.000000 0.044629 0.000000
# 6 0.000000 0.000000 0.000000 0.000000 0.000000 0.037984
#
#
# Mechanical properties :
#
#
# Convention : Reuss Voigt Hill
#
# Bulk Modulus (GPa) = 35.35465 36.06595 35.71030
# Shear Modulus (GPa) = 22.10646 24.46550 23.28598
#
# Velocity S-wave (km/s) = 3.16010 3.32444 3.24331
# Velocity P-wave (km/s) = 5.41165 5.57029 5.49154
#
# Compressibility (1/GPa) = 0.02828482
#
# Stress axis : x y z
#
# Youngs Moduli (GPa) = 49.51883 46.71853 75.21610
#
# Poissons Ratio (x) = 0.54300 0.03817
# Poissons Ratio (y) = 0.57555 0.08833
# Poissons Ratio (z) = 0.02513 0.05487
#
# Static dielectric constant tensor:
#      x y z
#    x 1.829940 0.000000 0.000000 
#    y 0.000000 1.879280 0.000000 
#    z 0.000000 0.000000 1.942330 
# 
# From -- ./inp_files/12973.got.cif
#   From: 2010.05.17/outbox.cif.g08.bks.cpg/sg36_7_cif.got.tgz:12973.got - 2010.06.03 17:41:39.
