data_PCOD9352667
_publ_section_title
;
Structure prediction by ZEFSAII (Michael W. Deem and Ramdas Pophale) SiO2 
 PCOD9352667
Probable space group: C M C 21
;
_chemical_formula_sum "Si O2"
_cell_formula_units_Z 64
_cell_length_a 32.334487
_cell_length_b 8.869351
_cell_length_c 10.489676
_cell_angle_alpha 90.000000
_cell_angle_beta 90.000000
_cell_angle_gamma 90.000000
_cell_volume 3008.291326
_symmetry_space_group_name_H-M "C M C 21"
_symmetry_group_IT_number 36
_symmetry_cell_setting 'orthorhombic'
loop_
_space_group_symop_operation_xyz
x,y,z
-x,-y,1/2+z
x,-y,1/2+z
-x,y,z
1/2+x,1/2+y,z
1/2-x,1/2-y,1/2+z
1/2+x,1/2-y,1/2+z
1/2-x,1/2+y,z
loop_
_atom_site_type_symbol
_atom_site_label
_atom_site_fract_x
_atom_site_fract_y
_atom_site_fract_z
Si Si1 0.589270 0.630729 0.943460
Si Si2 0.320955 0.961312 0.399870
Si Si3 0.913472 0.516078 0.358443
Si Si4 0.260708 0.190722 0.073895
Si Si5 0.256162 0.446316 0.227733
Si Si6 0.182180 0.824624 0.407820
Si Si7 0.048220 0.622276 0.102857
Si Si8 0.450502 0.532373 0.681318
O O1 0.585180 0.809537 0.909583
O O2 0.638695 0.607185 0.948492
O O3 0.569518 0.539734 0.823206
O O4 0.568516 0.582411 0.077072
O O5 0.303976 0.876832 0.526282
O O6 0.286240 0.905512 0.300494
O O7 0.368581 0.936381 0.366473
O O8 0.320567 0.143359 0.406278
O O9 0.941380 0.426955 0.459597
O O10 0.927171 0.529088 0.211334
O O11 0.256372 0.367695 0.089785
O O12 0.250180 0.123767 0.212559
O O13 0.221744 0.141545 0.992743
O O14 0.300799 0.397898 0.278476
O O15 0.056896 0.799343 0.124731
O O16 0.000000 0.598033 0.128708
O O17 0.500000 0.508756 0.692471
#
# Coordination Sequence:
#
# PCOD9352667 Si02
#       8
#     8   8   8   8   8   8   8   8
#     4  10  23  41  65  92 129 166 213 263 317 385
#     4  10  22  38  58  89 119 157 209 257 310 359
#     4  10  23  41  67  94 125 167 212 264 323 383
#     4  11  22  37  60  83 119 165 205 249 305 366
#     4  11  22  38  60  82 120 165 204 250 306 365
#     4  10  22  38  56  89 119 156 209 256 308 362
#     4  10  22  41  64  94 127 161 209 264 324 391
#     4  10  22  42  64  93 128 167 207 261 327 389
#
# _framework density 21.274533000000002
#
# number of rings (size 3 to 8) (size 9 to 14) (size 15 to 20)
#    0.000    1.750    2.500    0.750    3.500    3.500 
#    2.250    0.000    0.000    0.000    0.000    0.000 
#    0.000    0.000    0.000    0.000    0.000    0.000 
#
# Total GULP energy -178229.182951 kJ/mol
# GULP energy per Si atom -5569.661967 kJ/mol
# Density = 2.122611 g / cm^3
# Si number density = 21.274533 Si / 1000 Ang^3
#
#
#
# Elastic Constant Matrix: (Units=GPa)
#
#
# Indices 1 2 3 4 5 6 
#
# 1 104.1472 24.8173 15.4855 0.0000 0.0000 0.0000
# 2 24.8173 44.4626 9.8440 0.0000 0.0000 0.0000
# 3 15.4855 9.8440 36.1177 0.0000 0.0000 0.0000
# 4 0.0000 0.0000 0.0000 36.0791 0.0000 0.0000
# 5 0.0000 0.0000 0.0000 0.0000 16.4981 0.0000
# 6 0.0000 0.0000 0.0000 0.0000 0.0000 29.5994
#
#
#
# Elastic Compliance Matrix: (Units=1/GPa)
#
#
# Indices 1 2 3 4 5 6 
#
# 1 0.011448 -0.005644 -0.003370 0.000000 0.000000 0.000000
# 2 -0.005644 0.026717 -0.004862 0.000000 0.000000 0.000000
# 3 -0.003370 -0.004862 0.030457 0.000000 0.000000 0.000000
# 4 0.000000 0.000000 0.000000 0.027717 0.000000 0.000000
# 5 0.000000 0.000000 0.000000 0.000000 0.060613 0.000000
# 6 0.000000 0.000000 0.000000 0.000000 0.000000 0.033784
#
#
# Mechanical properties :
#
#
# Convention : Reuss Voigt Hill
#
# Bulk Modulus (GPa) = 24.46736 31.66901 28.06818
# Shear Modulus (GPa) = 21.54131 25.40736 23.47433
#
# Velocity S-wave (km/s) = 3.18550 3.45956 3.32535
# Velocity P-wave (km/s) = 5.00555 5.55664 5.28828
#
# Compressibility (1/GPa) = 0.04087078
#
# Stress axis : x y z
#
# Youngs Moduli (GPa) = 87.35391 37.42890 32.83271
#
# Poissons Ratio (x) = 0.21123 0.11065
# Poissons Ratio (y) = 0.49298 0.15964
# Poissons Ratio (z) = 0.29439 0.18199
#
# Static dielectric constant tensor:
#      x y z
#    x 1.736030 0.000000 0.000000 
#    y 0.000000 1.762030 0.000000 
#    z 0.000000 0.000000 1.980200 
# 
# From -- ./inp_files/9757.got.cif
#   From: 2010.05.17/outbox.cif.g08.bks.cpg/sg36_5_cif.got.tgz:9757.got - 2010.06.03 17:41:39.
