data_PCOD9352872
_publ_section_title
;
Structure prediction by ZEFSAII (Michael W. Deem and Ramdas Pophale) SiO2 
 PCOD9352872
Probable space group: C M C 21
;
_chemical_formula_sum "Si O2"
_cell_formula_units_Z 56
_cell_length_a 21.329999
_cell_length_b 14.628585
_cell_length_c 8.801245
_cell_angle_alpha 90.000000
_cell_angle_beta 90.000000
_cell_angle_gamma 90.000000
_cell_volume 2746.232265
_symmetry_space_group_name_H-M "C M C 21"
_symmetry_group_IT_number 36
_symmetry_cell_setting 'orthorhombic'
loop_
_space_group_symop_operation_xyz
x,y,z
-x,-y,1/2+z
x,-y,1/2+z
-x,y,z
1/2+x,1/2+y,z
1/2-x,1/2-y,1/2+z
1/2+x,1/2-y,1/2+z
1/2-x,1/2+y,z
loop_
_atom_site_type_symbol
_atom_site_label
_atom_site_fract_x
_atom_site_fract_y
_atom_site_fract_z
Si Si1 0.571373 0.979848 0.068440
Si Si2 0.427316 0.723205 0.596610
Si Si3 0.735977 0.428760 0.755763
Si Si4 0.792531 0.266462 0.140826
Si Si5 0.634737 0.846902 0.854583
Si Si6 0.815577 0.897375 0.084083
Si Si7 0.116543 0.632363 0.864525
O O1 0.500000 0.015147 0.072780
O O2 0.586345 0.927237 0.226205
O O3 0.581046 0.904528 0.938036
O O4 0.617122 0.060331 0.005592
O O5 0.500000 0.708416 0.623739
O O6 0.396880 0.784763 0.728885
O O7 0.387685 0.629569 0.597994
O O8 0.418579 0.780706 0.439503
O O9 0.712535 0.341081 0.662468
O O10 0.809559 0.412284 0.791118
O O11 0.716272 0.522913 0.680661
O O12 0.700015 0.423251 0.913464
O O13 0.723109 0.305554 0.120758
O O14 0.823280 0.320807 0.283813
O O15 0.831214 0.290956 0.989776
#
# Coordination Sequence:
#
# PCOD9352872 Si02
#       7
#     8   8   8   8   8   8   8
#     4  11  21  37  60  96 137 177 217 262 328 412
#     4  12  24  42  65  94 136 182 225 273 331 405
#     4  11  23  43  68  99 130 167 220 287 339 390
#     4  10  22  44  68  98 133 166 224 285 339 398
#     4  10  23  39  65  98 130 172 214 271 338 401
#     4  11  25  41  70 100 132 174 221 279 340 399
#     4  11  23  40  64  93 135 178 225 275 335 399
#
# _framework density 20.391575
#
# number of rings (size 3 to 8) (size 9 to 14) (size 15 to 20)
#    0.000    1.143    2.857    3.429    2.000    3.429 
#    0.000    0.714    0.000    0.000    0.000    0.000 
#    0.000    0.000    0.000    0.000    0.000    0.000 
#
# Total GULP energy -156370.231316 kJ/mol
# GULP energy per Si atom -5584.651118 kJ/mol
# Density = 2.034516 g / cm^3
# Si number density = 20.391575 Si / 1000 Ang^3
#
#
#
# Elastic Constant Matrix: (Units=GPa)
#
#
# Indices 1 2 3 4 5 6 
#
# 1 87.3355 28.7096 46.1973 0.0000 0.0000 0.0000
# 2 28.7096 49.1243 44.6458 0.0000 0.0000 0.0000
# 3 46.1973 44.6458 92.8069 0.0000 0.0000 0.0000
# 4 0.0000 0.0000 0.0000 35.6011 0.0000 0.0000
# 5 0.0000 0.0000 0.0000 0.0000 -36.1177 0.0000
# 6 0.0000 0.0000 0.0000 0.0000 0.0000 5.6270
#
#
#
# Elastic Compliance Matrix: (Units=1/GPa)
#
#
# Indices 1 2 3 4 5 6 
#
# 1 0.015919 -0.003735 -0.006128 0.000000 0.000000 0.000000
# 2 -0.003735 0.037046 -0.015963 0.000000 0.000000 0.000000
# 3 -0.006128 -0.015963 0.021504 0.000000 0.000000 0.000000
# 4 0.000000 0.000000 0.000000 0.028089 0.000000 0.000000
# 5 0.000000 0.000000 0.000000 0.000000 -0.027687 0.000000
# 6 0.000000 0.000000 0.000000 0.000000 0.000000 0.177714
#
#
# Mechanical properties :
#
#
# Convention : Reuss Voigt Hill
#
# Bulk Modulus (GPa) = 43.82091 52.04136 47.93113
# Shear Modulus (GPa) = 16.03377 8.33633 12.18505
#
# Velocity S-wave (km/s) = 2.80714 2.02411 2.44714
# Velocity P-wave (km/s) = 5.66066 5.57127 5.61614
#
# Compressibility (1/GPa) = 0.02282016
#
# Stress axis : x y z
#
# Youngs Moduli (GPa) = 62.81785 26.99315 46.50240
#
# Poissons Ratio (x) = 0.10081 0.28495
# Poissons Ratio (y) = 0.23460 0.74230
# Poissons Ratio (z) = 0.38492 0.43088
#
# Static dielectric constant tensor:
#      x y z
#    x 1.741420 0.000000 0.000000 
#    y 0.000000 1.562470 0.000000 
#    z 0.000000 0.000000 1.770970 
# 
# From -- ./inp_files/5202.got.cif
#   From: 2010.05.17/outbox.cif.g08.bks.cpg/sg36_3_cif.got.tgz:5202.got - 2010.06.03 17:41:39.
