data_PCOD9352733
_publ_section_title
;
Structure prediction by ZEFSAII (Michael W. Deem and Ramdas Pophale) SiO2 
 PCOD9352733
Probable space group: C M C 21
;
_chemical_formula_sum "Si O2"
_cell_formula_units_Z 48
_cell_length_a 26.135678
_cell_length_b 5.559231
_cell_length_c 14.115230
_cell_angle_alpha 90.000000
_cell_angle_beta 90.000000
_cell_angle_gamma 90.000000
_cell_volume 2050.862058
_symmetry_space_group_name_H-M "C M C 21"
_symmetry_group_IT_number 36
_symmetry_cell_setting 'orthorhombic'
loop_
_space_group_symop_operation_xyz
x,y,z
-x,-y,1/2+z
x,-y,1/2+z
-x,y,z
1/2+x,1/2+y,z
1/2-x,1/2-y,1/2+z
1/2+x,1/2-y,1/2+z
1/2-x,1/2+y,z
loop_
_atom_site_type_symbol
_atom_site_label
_atom_site_fract_x
_atom_site_fract_y
_atom_site_fract_z
Si Si1 0.853509 0.640721 0.369550
Si Si2 0.646491 0.859279 0.080287
Si Si3 0.719346 0.150952 0.974919
Si Si4 0.630225 0.500000 0.224919
Si Si5 0.059100 0.700519 0.087040
Si Si6 0.059101 0.700519 0.862797
O O1 0.851994 0.755887 0.474919
O O2 0.817812 0.406662 0.385784
O O3 0.837470 0.808744 0.284658
O O4 0.911064 0.551805 0.351029
O O5 0.662530 0.691255 0.165179
O O6 0.588936 0.948194 0.098808
O O7 0.682188 0.093337 0.064053
O O8 0.743125 0.415336 0.974919
O O9 0.592363 0.381229 0.148437
O O10 0.592363 0.618771 0.301400
O O11 0.000000 0.690505 0.115064
O O12 0.061642 0.758044 0.974919
O O13 0.000000 0.690505 0.834772
#
# Coordination Sequence:
#
# PCOD9352733 Si02
#       6
#     8   8   8   8   8   8
#     4   9  23  40  65  92 132 173 221 276 337 405
#     4   9  23  40  65  92 132 173 221 276 337 405
#     4  10  24  46  77  96 131 182 232 286 356 410
#     4  12  21  36  64  98 136 170 222 278 337 398
#     4  10  22  40  62  93 136 179 220 268 334 407
#     4  10  22  40  62  93 136 179 220 268 334 407
#
# _framework density 23.404790999999999
#
# number of rings (size 3 to 8) (size 9 to 14) (size 15 to 20)
#    1.000    1.000    0.000    2.500    4.667    4.000 
#    0.000    5.000    0.000    0.000    0.000    0.000 
#    0.000    0.000    0.000    0.000    0.000    0.000 
#
# Total GULP energy -133967.610199 kJ/mol
# GULP energy per Si atom -5581.983758 kJ/mol
# Density = 2.335152 g / cm^3
# Si number density = 23.404791 Si / 1000 Ang^3
#
#
#
# Elastic Constant Matrix: (Units=GPa)
#
#
# Indices 1 2 3 4 5 6 
#
# 1 77.0597 28.6783 -4.9778 0.0000 0.0000 0.0000
# 2 28.6783 69.9394 33.4177 0.0000 0.0000 0.0000
# 3 -4.9778 33.4177 74.6124 0.0000 0.0000 0.0000
# 4 0.0000 0.0000 0.0000 44.7669 0.0000 0.0000
# 5 0.0000 0.0000 0.0000 0.0000 -0.1742 0.0000
# 6 0.0000 0.0000 0.0000 0.0000 0.0000 23.4950
#
#
#
# Elastic Compliance Matrix: (Units=1/GPa)
#
#
# Indices 1 2 3 4 5 6 
#
# 1 0.016849 -0.009473 0.005367 0.000000 0.000000 0.000000
# 2 -0.009473 0.023517 -0.011165 0.000000 0.000000 0.000000
# 3 0.005367 -0.011165 0.018761 0.000000 0.000000 0.000000
# 4 0.000000 0.000000 0.000000 0.022338 0.000000 0.000000
# 5 0.000000 0.000000 0.000000 0.000000 -5.740663 0.000000
# 6 0.000000 0.000000 0.000000 0.000000 0.000000 0.042562
#
#
# Mechanical properties :
#
#
# Convention : Reuss Voigt Hill
#
# Bulk Modulus (GPa) = 34.98317 37.31644 36.14980
# Shear Modulus (GPa) = -0.89661 24.58377 11.84358
#
# Velocity S-wave (km/s) = -0.61961 3.24446 2.25196
# Velocity P-wave (km/s) = 3.80363 5.47850 4.71601
#
# Compressibility (1/GPa) = 0.02858518
#
# Stress axis : x y z
#
# Youngs Moduli (GPa) = 59.34988 42.52175 53.30109
#
# Poissons Ratio (x) = 0.40282 -0.28607
# Poissons Ratio (y) = 0.56224 0.59511
# Poissons Ratio (z) = -0.31854 0.47476
#
# Static dielectric constant tensor:
#      x y z
#    x 1.884160 0.000000 0.000000 
#    y 0.000000 1.974180 0.000000 
#    z 0.000000 0.000000 1.890590 
# 
# From -- ./inp_files/13057.got.cif
#   From: 2010.05.17/outbox.cif.g08.bks.cpg/sg36_7_cif.got.tgz:13057.got - 2010.06.03 17:41:39.
