data_PCOD9352460
_publ_section_title
;
Structure prediction by ZEFSAII (Michael W. Deem and Ramdas Pophale) SiO2 
 PCOD9352460
Probable space group: C M C 21
;
_chemical_formula_sum "Si O2"
_cell_formula_units_Z 48
_cell_length_a 8.620251
_cell_length_b 24.618552
_cell_length_c 12.205638
_cell_angle_alpha 90.000000
_cell_angle_beta 90.000000
_cell_angle_gamma 90.000000
_cell_volume 2590.257275
_symmetry_space_group_name_H-M "C M C 21"
_symmetry_group_IT_number 36
_symmetry_cell_setting 'orthorhombic'
loop_
_space_group_symop_operation_xyz
x,y,z
-x,-y,1/2+z
x,-y,1/2+z
-x,y,z
1/2+x,1/2+y,z
1/2-x,1/2-y,1/2+z
1/2+x,1/2-y,1/2+z
1/2-x,1/2+y,z
loop_
_atom_site_type_symbol
_atom_site_label
_atom_site_fract_x
_atom_site_fract_y
_atom_site_fract_z
Si Si1 0.687396 0.112613 0.735110
Si Si2 0.313950 0.670211 0.320723
Si Si3 0.685797 0.289011 0.369192
Si Si4 0.187066 0.860962 0.576173
Si Si5 0.312960 0.958955 0.441885
Si Si6 0.812097 0.418413 0.989042
O O1 0.500000 0.116698 0.737424
O O2 0.756639 0.169526 0.775713
O O3 0.733857 0.067573 0.825597
O O4 0.734771 0.096196 0.613144
O O5 0.500000 0.670313 0.321828
O O6 0.254466 0.729645 0.353046
O O7 0.261432 0.655277 0.197412
O O8 0.252331 0.625541 0.405002
O O9 0.500000 0.286077 0.367478
O O10 0.734405 0.316645 0.484560
O O11 0.251221 0.918574 0.535223
O O12 0.000000 0.863405 0.575161
O O13 0.500000 0.958508 0.446200
O O14 0.260893 0.020683 0.458028
O O15 0.000000 0.417131 0.984840
#
# Coordination Sequence:
#
# PCOD9352460 Si02
#       6
#     8   8   8   8   8   8
#     4   9  19  37  58  84 117 150 185 233 285 331
#     4  11  24  39  57  85 117 150 189 235 284 336
#     4  10  21  39  61  84 110 148 192 234 283 340
#     4   9  21  40  59  81 114 150 185 232 286 333
#     4   9  19  36  61  87 112 148 191 231 277 335
#     4  10  22  37  58  87 118 150 188 235 281 331
#
# _framework density 18.530978000000001
#
# number of rings (size 3 to 8) (size 9 to 14) (size 15 to 20)
#    0.000    2.333    0.000    1.000    4.667    3.333 
#    0.000    0.000    0.000    0.000    0.000    0.000 
#    0.000    0.000    0.000    0.000    0.000    0.000 
#
# Total GULP energy -134006.796698 kJ/mol
# GULP energy per Si atom -5583.616529 kJ/mol
# Density = 1.848880 g / cm^3
# Si number density = 18.530978 Si / 1000 Ang^3
#
#
#
# Elastic Constant Matrix: (Units=GPa)
#
#
# Indices 1 2 3 4 5 6 
#
# 1 13.9325 36.3691 32.2274 0.0000 0.0000 0.0000
# 2 36.3691 218.0616 117.1408 0.0000 0.0000 0.0000
# 3 32.2274 117.1408 150.6626 0.0000 0.0000 0.0000
# 4 0.0000 0.0000 0.0000 14.7025 0.0000 0.0000
# 5 0.0000 0.0000 0.0000 0.0000 28.0114 0.0000
# 6 0.0000 0.0000 0.0000 0.0000 0.0000 31.3558
#
#
#
# Elastic Compliance Matrix: (Units=1/GPa)
#
#
# Indices 1 2 3 4 5 6 
#
# 1 0.165803 -0.014770 -0.023982 0.000000 0.000000 0.000000
# 2 -0.014770 0.009191 -0.003986 0.000000 0.000000 0.000000
# 3 -0.023982 -0.003986 0.014867 0.000000 0.000000 0.000000
# 4 0.000000 0.000000 0.000000 0.068016 0.000000 0.000000
# 5 0.000000 0.000000 0.000000 0.000000 0.035700 0.000000
# 6 0.000000 0.000000 0.000000 0.000000 0.000000 0.031892
#
#
# Mechanical properties :
#
#
# Convention : Reuss Voigt Hill
#
# Bulk Modulus (GPa) = 9.58008 83.79238 46.68623
# Shear Modulus (GPa) = 11.21728 27.94188 19.57958
#
# Velocity S-wave (km/s) = 2.46301 3.88731 3.25404
# Velocity P-wave (km/s) = 3.64274 8.09098 6.27429
#
# Compressibility (1/GPa) = 0.10438322
#
# Stress axis : x y z
#
# Youngs Moduli (GPa) = 6.03124 108.80445 67.26445
#
# Poissons Ratio (x) = 1.60708 1.61314
# Poissons Ratio (y) = 0.08908 0.26815
# Poissons Ratio (z) = 0.14464 0.43374
#
# Static dielectric constant tensor:
#      x y z
#    x 1.633040 0.000000 0.000000 
#    y 0.000000 1.601750 0.000000 
#    z 0.000000 0.000000 1.631290 
# 
# From -- ./inp_files/6726.got.cif
#   From: 2010.05.17/outbox.cif.g08.bks.cpg/sg36_4_cif.got.tgz:6726.got - 2010.06.03 17:41:39.
