data_PCOD9352813
_publ_section_title
;
Structure prediction by ZEFSAII (Michael W. Deem and Ramdas Pophale) SiO2 
 PCOD9352813
Probable space group: C M C 21
;
_chemical_formula_sum "Si O2"
_cell_formula_units_Z 64
_cell_length_a 22.209717
_cell_length_b 9.077665
_cell_length_c 15.934386
_cell_angle_alpha 90.000000
_cell_angle_beta 90.000000
_cell_angle_gamma 90.000000
_cell_volume 3212.569337
_symmetry_space_group_name_H-M "C M C 21"
_symmetry_group_IT_number 36
_symmetry_cell_setting 'orthorhombic'
loop_
_space_group_symop_operation_xyz
x,y,z
-x,-y,1/2+z
x,-y,1/2+z
-x,y,z
1/2+x,1/2+y,z
1/2-x,1/2-y,1/2+z
1/2+x,1/2-y,1/2+z
1/2-x,1/2+y,z
loop_
_atom_site_type_symbol
_atom_site_label
_atom_site_fract_x
_atom_site_fract_y
_atom_site_fract_z
Si Si1 0.066435 0.665013 0.319170
Si Si2 0.338027 0.951192 0.403240
Si Si3 0.764703 0.269173 0.682986
Si Si4 0.885868 0.084773 0.930916
Si Si5 0.218639 0.016788 0.803361
Si Si6 0.891129 0.398382 0.634734
Si Si7 0.431462 0.728443 0.471162
Si Si8 0.838333 0.661909 0.555997
O O1 0.117741 0.565012 0.358632
O O2 0.075658 0.823674 0.362375
O O3 0.076686 0.647846 0.220336
O O4 0.000000 0.611681 0.341513
O O5 0.280477 0.930541 0.346152
O O6 0.378322 0.807814 0.418793
O O7 0.318783 0.037562 0.487904
O O8 0.795625 0.133151 0.730572
O O9 0.731836 0.366579 0.754074
O O10 0.820250 0.358715 0.644284
O O11 0.716376 0.214969 0.614640
O O12 0.830190 0.022006 0.876457
O O13 0.919774 0.945831 0.970306
O O14 0.863872 0.200232 0.002352
O O15 0.921463 0.304864 0.561111
O O16 0.888433 0.572224 0.610427
O O17 0.500000 0.757550 0.442425
#
# Coordination Sequence:
#
# PCOD9352813 Si02
#       8
#     8   8   8   8   8   8   8   8
#     4  11  21  42  66  88 123 167 216 262 308 369
#     4  10  22  42  63  93 124 165 218 259 311 383
#     4  12  22  39  59  93 128 165 198 259 321 384
#     4  11  25  40  65  96 128 164 208 268 326 375
#     4  12  23  39  63  94 129 158 208 258 325 382
#     4  11  23  41  61  91 126 172 214 256 314 386
#     4  11  25  42  63  92 127 172 217 262 315 376
#     4  10  24  39  62  93 129 165 208 256 328 381
#
# _framework density 19.921748999999998
#
# number of rings (size 3 to 8) (size 9 to 14) (size 15 to 20)
#    0.000    1.000    3.750    2.625    7.000    0.000 
#    0.000    1.875    0.000    0.000    0.000    0.000 
#    0.000    0.000    0.000    0.000    0.000    0.000 
#
# Total GULP energy -178641.856871 kJ/mol
# GULP energy per Si atom -5582.558027 kJ/mol
# Density = 1.987641 g / cm^3
# Si number density = 19.921749 Si / 1000 Ang^3
#
#
#
# Elastic Constant Matrix: (Units=GPa)
#
#
# Indices 1 2 3 4 5 6 
#
# 1 81.3426 10.4495 32.6630 0.0000 0.0000 0.0000
# 2 10.4495 91.8761 22.4393 0.0000 0.0000 0.0000
# 3 32.6630 22.4393 64.3870 0.0000 0.0000 0.0000
# 4 0.0000 0.0000 0.0000 25.4269 0.0000 0.0000
# 5 0.0000 0.0000 0.0000 0.0000 15.5968 0.0000
# 6 0.0000 0.0000 0.0000 0.0000 0.0000 20.2186
#
#
#
# Elastic Compliance Matrix: (Units=1/GPa)
#
#
# Indices 1 2 3 4 5 6 
#
# 1 0.015441 0.000172 -0.007893 0.000000 0.000000 0.000000
# 2 0.000172 0.011899 -0.004234 0.000000 0.000000 0.000000
# 3 -0.007893 -0.004234 0.021011 0.000000 0.000000 0.000000
# 4 0.000000 0.000000 0.000000 0.039328 0.000000 0.000000
# 5 0.000000 0.000000 0.000000 0.000000 0.064116 0.000000
# 6 0.000000 0.000000 0.000000 0.000000 0.000000 0.049459
#
#
# Mechanical properties :
#
#
# Convention : Reuss Voigt Hill
#
# Bulk Modulus (GPa) = 40.91643 40.96767 40.94205
# Shear Modulus (GPa) = 21.43062 23.71872 22.57467
#
# Velocity S-wave (km/s) = 3.28341 3.45424 3.36991
# Velocity P-wave (km/s) = 5.91249 6.04301 5.97811
#
# Compressibility (1/GPa) = 0.02444006
#
# Stress axis : x y z
#
# Youngs Moduli (GPa) = 64.76261 84.04239 47.59503
#
# Poissons Ratio (x) = -0.01442 0.37566
# Poissons Ratio (y) = -0.01111 0.20151
# Poissons Ratio (z) = 0.51116 0.35582
#
# Static dielectric constant tensor:
#      x y z
#    x 1.672380 0.000000 0.000000 
#    y 0.000000 1.719520 0.000000 
#    z 0.000000 0.000000 1.726380 
# 
# From -- ./inp_files/12978.got.cif
#   From: 2010.05.17/outbox.cif.g08.bks.cpg/sg36_7_cif.got.tgz:12978.got - 2010.06.03 17:41:39.
