data_PCOD9352360
_publ_section_title
;
Structure prediction by ZEFSAII (Michael W. Deem and Ramdas Pophale) SiO2 
 PCOD9352360
Probable space group: C M C 21
;
_chemical_formula_sum "Si O2"
_cell_formula_units_Z 64
_cell_length_a 8.573617
_cell_length_b 29.141403
_cell_length_c 14.610660
_cell_angle_alpha 90.000000
_cell_angle_beta 90.000000
_cell_angle_gamma 90.000000
_cell_volume 3650.432903
_symmetry_space_group_name_H-M "C M C 21"
_symmetry_group_IT_number 36
_symmetry_cell_setting 'orthorhombic'
loop_
_space_group_symop_operation_xyz
x,y,z
-x,-y,1/2+z
x,-y,1/2+z
-x,y,z
1/2+x,1/2+y,z
1/2-x,1/2-y,1/2+z
1/2+x,1/2-y,1/2+z
1/2-x,1/2+y,z
loop_
_atom_site_type_symbol
_atom_site_label
_atom_site_fract_x
_atom_site_fract_y
_atom_site_fract_z
Si Si1 0.188648 0.423889 0.465700
Si Si2 0.312456 0.676697 0.465693
Si Si3 0.190050 0.499673 0.319658
Si Si4 0.312699 0.248543 0.818353
Si Si5 0.309950 0.999676 0.611735
Si Si6 0.685582 0.678731 0.965700
Si Si7 0.812699 0.748547 0.113041
Si Si8 0.811836 0.574239 0.465693
O O1 0.234135 0.454640 0.377672
O O2 0.234134 0.454642 0.553725
O O3 0.261263 0.373849 0.465702
O O4 0.000000 0.419822 0.465700
O O5 0.500000 0.674772 0.465693
O O6 0.264339 0.706508 0.376996
O O7 0.264338 0.706506 0.554393
O O8 0.248178 0.625667 0.465691
O O9 0.246005 0.499997 0.215696
O O10 0.238447 0.544348 0.377579
O O11 0.000000 0.500052 0.318261
O O12 0.500000 0.246822 0.817201
O O13 0.251403 0.205460 0.877003
O O14 0.250000 0.249997 0.715696
O O15 0.500000 0.000056 0.613132
O O16 0.261553 0.044351 0.553810
O O17 0.500000 0.681967 0.965700
O O18 0.751405 0.705462 0.054394
O O19 0.000000 0.746826 0.114193
O O20 0.000000 0.575143 0.465693
#
# Coordination Sequence:
#
# PCOD9352360 Si02
#       8
#     8   8   8   8   8   8   8   8
#     4   9  17  31  51  73  99 132 172 216 259 303
#     4   9  20  36  52  74 107 138 164 206 261 312
#     4   8  15  29  48  71  99 130 167 212 256 300
#     4  10  21  38  57  78 105 138 177 219 266 316
#     4   8  15  29  48  71  99 130 167 212 256 300
#     4  11  22  36  54  78 109 142 178 218 261 314
#     4  10  21  38  57  78 105 138 177 219 266 316
#     4   9  17  29  49  75  97 126 172 212 245 299
#
# _framework density 17.532167000000001
#
# number of rings (size 3 to 8) (size 9 to 14) (size 15 to 20)
#    0.000    2.750    0.000    4.125    0.000    5.000 
#    0.000    5.000    0.000    1.500    0.000    0.000 
#    0.000    0.000    0.000    0.000    0.000    0.000 
#
# Total GULP energy -178452.316351 kJ/mol
# GULP energy per Si atom -5576.634886 kJ/mol
# Density = 1.749226 g / cm^3
# Si number density = 17.532167 Si / 1000 Ang^3
#
#
#
# Elastic Constant Matrix: (Units=GPa)
#
#
# Indices 1 2 3 4 5 6 
#
# 1 41.7796 40.6879 42.3025 0.0000 0.0000 0.0000
# 2 40.6879 193.6500 110.5524 0.0000 0.0000 0.0000
# 3 42.3025 110.5524 204.6098 0.0000 0.0000 0.0000
# 4 0.0000 0.0000 0.0000 6.2251 0.0000 0.0000
# 5 0.0000 0.0000 0.0000 0.0000 19.8826 0.0000
# 6 0.0000 0.0000 0.0000 0.0000 0.0000 32.8601
#
#
#
# Elastic Compliance Matrix: (Units=1/GPa)
#
#
# Indices 1 2 3 4 5 6 
#
# 1 0.032616 -0.004343 -0.004397 0.000000 0.000000 0.000000
# 2 -0.004343 0.008046 -0.003449 0.000000 0.000000 0.000000
# 3 -0.004397 -0.003449 0.007660 0.000000 0.000000 0.000000
# 4 0.000000 0.000000 0.000000 0.160640 0.000000 0.000000
# 5 0.000000 0.000000 0.000000 0.000000 0.050295 0.000000
# 6 0.000000 0.000000 0.000000 0.000000 0.000000 0.030432
#
#
# Mechanical properties :
#
#
# Convention : Reuss Voigt Hill
#
# Bulk Modulus (GPa) = 41.76396 91.90279 66.83337
# Shear Modulus (GPa) = 15.52560 28.22667 21.87613
#
# Velocity S-wave (km/s) = 2.97905 4.01682 3.53621
# Velocity P-wave (km/s) = 5.97545 8.60503 7.40785
#
# Compressibility (1/GPa) = 0.02394409
#
# Stress axis : x y z
#
# Youngs Moduli (GPa) = 30.65934 124.29217 130.54821
#
# Poissons Ratio (x) = 0.53980 0.57400
# Poissons Ratio (y) = 0.13315 0.45029
# Poissons Ratio (z) = 0.13480 0.42871
#
# Static dielectric constant tensor:
#      x y z
#    x 1.596730 0.000000 0.000000 
#    y 0.000000 1.568790 0.000000 
#    z 0.000000 0.000000 1.592320 
# 
# From -- ./inp_files/11198.got.cif
#   From: 2010.05.17/outbox.cif.g08.bks.cpg/sg36_6_cif.got.tgz:11198.got - 2010.06.03 17:41:39.
