data_PCOD9352359
_publ_section_title
;
Structure prediction by ZEFSAII (Michael W. Deem and Ramdas Pophale) SiO2 
 PCOD9352359
Probable space group: C M C 21
;
_chemical_formula_sum "Si O2"
_cell_formula_units_Z 64
_cell_length_a 7.665912
_cell_length_b 25.738159
_cell_length_c 14.722833
_cell_angle_alpha 90.000000
_cell_angle_beta 90.000000
_cell_angle_gamma 90.000000
_cell_volume 2904.910089
_symmetry_space_group_name_H-M "C M C 21"
_symmetry_group_IT_number 36
_symmetry_cell_setting 'orthorhombic'
loop_
_space_group_symop_operation_xyz
x,y,z
-x,-y,1/2+z
x,-y,1/2+z
-x,y,z
1/2+x,1/2+y,z
1/2-x,1/2-y,1/2+z
1/2+x,1/2-y,1/2+z
1/2-x,1/2+y,z
loop_
_atom_site_type_symbol
_atom_site_label
_atom_site_fract_x
_atom_site_fract_y
_atom_site_fract_z
Si Si1 0.793615 0.920865 0.642980
Si Si2 0.285468 0.764372 0.669215
Si Si3 0.710143 0.143961 0.303398
Si Si4 0.788397 0.998467 0.495584
Si Si5 0.296899 0.350957 0.193648
Si Si6 0.197882 0.330509 0.509522
Si Si7 0.200378 0.908339 0.361733
Si Si8 0.798954 0.383670 0.996649
O O1 0.758577 0.908138 0.747430
O O2 0.697965 0.876068 0.585715
O O3 0.000000 0.913765 0.626309
O O4 0.745326 0.974845 0.595327
O O5 0.500000 0.764971 0.666684
O O6 0.229625 0.807122 0.743275
O O7 0.223447 0.707222 0.694593
O O8 0.229537 0.782452 0.567941
O O9 0.500000 0.145796 0.307035
O O10 0.775920 0.142829 0.406100
O O11 0.711482 0.054715 0.480901
O O12 0.000000 0.002476 0.491029
O O13 0.726313 0.955624 0.421915
O O14 0.500000 0.345626 0.220368
O O15 0.218682 0.391185 0.266256
O O16 0.290399 0.370872 0.091239
O O17 0.294033 0.356816 0.425308
O O18 0.000000 0.319360 0.481036
O O19 0.000000 0.923915 0.345905
O O20 0.000000 0.367788 0.006715
#
# Coordination Sequence:
#
# PCOD9352359 Si02
#       8
#     8   8   8   8   8   8   8   8
#     4   9  17  31  54  82 106 133 176 223 262 307
#     4   8  16  33  56  79 106 143 179 212 262 320
#     4   9  19  36  55  78 109 143 179 219 264 316
#     4   9  19  36  55  77 107 140 176 220 269 318
#     4  10  21  38  57  77 107 145 180 218 265 315
#     4   9  16  29  52  80 110 140 171 214 264 313
#     4   9  19  35  56  81 105 138 186 228 263 310
#     4  11  24  38  53  78 110 142 177 218 267 321
#
# _framework density 22.031663999999999
#
# number of rings (size 3 to 8) (size 9 to 14) (size 15 to 20)
#    0.000    2.750    0.000    2.625    0.000    6.000 
#    0.000    8.125    0.000    0.000    0.000    0.000 
#    0.000    0.000    0.000    0.000    0.000    0.000 
#
# Total GULP energy -178453.454120 kJ/mol
# GULP energy per Si atom -5576.670441 kJ/mol
# Density = 2.198152 g / cm^3
# Si number density = 22.031664 Si / 1000 Ang^3
#
#
#
# Elastic Constant Matrix: (Units=GPa)
#
#
# Indices 1 2 3 4 5 6 
#
# 1 42.5450 -4.3161 -5.5047 0.0000 0.0000 0.0000
# 2 -4.3161 76.0771 32.1418 0.0000 0.0000 0.0000
# 3 -5.5047 32.1418 125.3141 0.0000 0.0000 0.0000
# 4 0.0000 0.0000 0.0000 22.9794 0.0000 0.0000
# 5 0.0000 0.0000 0.0000 0.0000 36.9141 0.0000
# 6 0.0000 0.0000 0.0000 0.0000 0.0000 3.6565
#
#
#
# Elastic Compliance Matrix: (Units=1/GPa)
#
#
# Indices 1 2 3 4 5 6 
#
# 1 0.023709 0.001015 0.000781 0.000000 0.000000 0.000000
# 2 0.001015 0.014786 -0.003748 0.000000 0.000000 0.000000
# 3 0.000781 -0.003748 0.008976 0.000000 0.000000 0.000000
# 4 0.000000 0.000000 0.000000 0.043517 0.000000 0.000000
# 5 0.000000 0.000000 0.000000 0.000000 0.027090 0.000000
# 6 0.000000 0.000000 0.000000 0.000000 0.000000 0.273489
#
#
# Mechanical properties :
#
#
# Convention : Reuss Voigt Hill
#
# Bulk Modulus (GPa) = 22.95343 32.06423 27.50883
# Shear Modulus (GPa) = 12.19538 27.48434 19.83986
#
# Velocity S-wave (km/s) = 2.35529 3.53582 3.00412
# Velocity P-wave (km/s) = 4.22345 5.59059 4.95440
#
# Compressibility (1/GPa) = 0.04356647
#
# Stress axis : x y z
#
# Youngs Moduli (GPa) = 42.17883 67.63366 111.41417
#
# Poissons Ratio (x) = -0.06865 -0.08703
# Poissons Ratio (y) = -0.04281 0.41755
# Poissons Ratio (z) = -0.03295 0.25347
#
# Static dielectric constant tensor:
#      x y z
#    x 1.832180 0.000000 0.000000 
#    y 0.000000 1.816600 0.000000 
#    z 0.000000 0.000000 1.834960 
# 
# From -- ./inp_files/10900.got.cif
#   From: 2010.05.17/outbox.cif.g08.bks.cpg/sg36_6_cif.got.tgz:10900.got - 2010.06.03 17:41:39.
