data_PCOD9352962
_publ_section_title
;
Structure prediction by ZEFSAII (Michael W. Deem and Ramdas Pophale) SiO2 
 PCOD9352962
Probable space group: C M C 21
;
_chemical_formula_sum "Si O2"
_cell_formula_units_Z 60
_cell_length_a 30.048202
_cell_length_b 15.853458
_cell_length_c 5.255697
_cell_angle_alpha 90.000000
_cell_angle_beta 90.000000
_cell_angle_gamma 90.000000
_cell_volume 2503.645387
_symmetry_space_group_name_H-M "C M C 21"
_symmetry_group_IT_number 36
_symmetry_cell_setting 'orthorhombic'
loop_
_space_group_symop_operation_xyz
x,y,z
-x,-y,1/2+z
x,-y,1/2+z
-x,y,z
1/2+x,1/2+y,z
1/2-x,1/2-y,1/2+z
1/2+x,1/2-y,1/2+z
1/2-x,1/2+y,z
loop_
_atom_site_type_symbol
_atom_site_label
_atom_site_fract_x
_atom_site_fract_y
_atom_site_fract_z
Si Si1 0.624981 0.305392 0.970920
Si Si2 0.905580 0.554547 0.376804
Si Si3 0.159656 0.348963 0.209828
Si Si4 0.696086 0.274637 0.342378
Si Si5 0.500000 0.055905 0.486386
Si Si6 0.231955 0.382175 0.540494
Si Si7 0.188908 0.051371 0.297741
Si Si8 0.553103 0.445222 0.977902
O O1 0.625051 0.210328 0.861651
O O2 0.661158 0.362420 0.817437
O O3 0.646907 0.298501 0.249653
O O4 0.580075 0.358076 0.969246
O O5 0.905060 0.521265 0.088596
O O6 0.864355 0.608884 0.470908
O O7 0.952998 0.599690 0.430069
O O8 0.188888 0.412028 0.383793
O O9 0.194081 0.282480 0.091662
O O10 0.726302 0.356985 0.362548
O O11 0.715264 0.208430 0.140338
O O12 0.500000 0.980096 0.273974
O O13 0.257655 0.432042 0.763024
O O14 0.176644 0.001795 0.550994
O O15 0.564316 0.497933 0.231888
O O16 0.500000 0.430451 0.976449
#
# Coordination Sequence:
#
# PCOD9352962 Si02
#       8
#     8   8   8   8   4   8   8   8
#     4  11  24  41  65  98 133 173 229 279 325 410
#     4  10  23  43  67  97 129 165 213 262 330 404
#     4  11  25  39  68  92 131 179 218 279 338 388
#     4  11  21  40  65  87 124 179 221 270 337 387
#     4   8  16  38  68  88 120 162 194 244 312 398
#     4  11  22  40  60  86 127 176 222 271 322 401
#     4  12  26  40  62  94 128 174 226 277 324 376
#     4  10  23  44  72 100 136 182 219 272 346 401
#
# _framework density 23.965057000000002
#
# number of rings (size 3 to 8) (size 9 to 14) (size 15 to 20)
#    0.000    1.333    2.667    2.400    7.467    1.067 
#    1.200    0.000    1.467    0.000    0.000    0.000 
#    0.000    0.000    0.000    0.000    0.000    0.000 
#
# Total GULP energy -167676.167304 kJ/mol
# GULP energy per Si atom -5589.205577 kJ/mol
# Density = 2.391051 g / cm^3
# Si number density = 23.965057 Si / 1000 Ang^3
#
#
#
# Elastic Constant Matrix: (Units=GPa)
#
#
# Indices 1 2 3 4 5 6 
#
# 1 86.8336 16.0591 8.7027 0.0000 0.0000 0.0000
# 2 16.0591 45.3812 15.1062 0.0000 0.0000 0.0000
# 3 8.7027 15.1062 110.5448 0.0000 0.0000 0.0000
# 4 0.0000 0.0000 0.0000 33.5797 0.0000 0.0000
# 5 0.0000 0.0000 0.0000 0.0000 29.5166 0.0000
# 6 0.0000 0.0000 0.0000 0.0000 0.0000 40.6795
#
#
#
# Elastic Compliance Matrix: (Units=1/GPa)
#
#
# Indices 1 2 3 4 5 6 
#
# 1 0.012339 -0.004236 -0.000393 0.000000 0.000000 0.000000
# 2 -0.004236 0.024540 -0.003020 0.000000 0.000000 0.000000
# 3 -0.000393 -0.003020 0.009490 0.000000 0.000000 0.000000
# 4 0.000000 0.000000 0.000000 0.029780 0.000000 0.000000
# 5 0.000000 0.000000 0.000000 0.000000 0.033879 0.000000
# 6 0.000000 0.000000 0.000000 0.000000 0.000000 0.024582
#
#
# Mechanical properties :
#
#
# Convention : Reuss Voigt Hill
#
# Bulk Modulus (GPa) = 32.18342 35.83284 34.00813
# Shear Modulus (GPa) = 31.19856 34.28127 32.73992
#
# Velocity S-wave (km/s) = 3.61201 3.78626 3.70016
# Velocity P-wave (km/s) = 5.55463 5.83943 5.69881
#
# Compressibility (1/GPa) = 0.03107190
#
# Stress axis : x y z
#
# Youngs Moduli (GPa) = 81.04393 40.75023 105.37748
#
# Poissons Ratio (x) = 0.17261 0.04137
# Poissons Ratio (y) = 0.34328 0.31824
# Poissons Ratio (z) = 0.03181 0.12306
#
# Static dielectric constant tensor:
#      x y z
#    x 1.959970 0.000000 0.000000 
#    y 0.000000 1.933300 0.000000 
#    z 0.000000 0.000000 1.970210 
# 
# From -- ./inp_files/1773.got.cif
#   From: 2010.05.17/outbox.cif.g08.bks.cpg/sg36_1_cif.got.tgz:1773.got - 2010.06.03 17:41:39.
