data_PCOD9352354
_publ_section_title
;
Structure prediction by ZEFSAII (Michael W. Deem and Ramdas Pophale) SiO2 
 PCOD9352354
Probable space group: C M C 21
;
_chemical_formula_sum "Si O2"
_cell_formula_units_Z 64
_cell_length_a 20.863594
_cell_length_b 19.217219
_cell_length_c 7.806603
_cell_angle_alpha 90.000000
_cell_angle_beta 90.000000
_cell_angle_gamma 90.000000
_cell_volume 3129.981398
_symmetry_space_group_name_H-M "C M C 21"
_symmetry_group_IT_number 36
_symmetry_cell_setting 'orthorhombic'
loop_
_space_group_symop_operation_xyz
x,y,z
-x,-y,1/2+z
x,-y,1/2+z
-x,y,z
1/2+x,1/2+y,z
1/2-x,1/2-y,1/2+z
1/2+x,1/2-y,1/2+z
1/2-x,1/2+y,z
loop_
_atom_site_type_symbol
_atom_site_label
_atom_site_fract_x
_atom_site_fract_y
_atom_site_fract_z
Si Si1 0.320502 0.101799 0.659190
Si Si2 0.624509 0.667276 0.316988
Si Si3 0.681456 0.828956 0.621588
Si Si4 0.774795 0.467369 0.507575
Si Si5 0.574726 0.817741 0.340187
Si Si6 0.573909 0.584834 0.644602
Si Si7 0.373346 0.555837 0.014690
Si Si8 0.261055 0.218280 0.439664
O O1 0.289016 0.068419 0.826969
O O2 0.390664 0.128496 0.711350
O O3 0.282324 0.169228 0.594901
O O4 0.312369 0.039339 0.525882
O O5 0.587895 0.739011 0.278280
O O6 0.599267 0.635812 0.496191
O O7 0.619004 0.613954 0.160680
O O8 0.698732 0.685024 0.350367
O O9 0.700027 0.909412 0.641456
O O10 0.615829 0.823337 0.516181
O O11 0.683285 0.786858 0.798671
O O12 0.736869 0.792127 0.506625
O O13 0.698705 0.475152 0.525250
O O14 0.500000 0.830666 0.361855
O O15 0.500000 0.600619 0.681851
O O16 0.580616 0.508055 0.562122
O O17 0.612455 0.583673 0.823849
#
# Coordination Sequence:
#
# PCOD9352354 Si02
#       8
#     8   8   8   8   8   8   8   8
#     4  11  24  39  69  97 137 170 213 285 336 411
#     4  11  23  42  69  94 132 181 224 283 336 399
#     4  10  21  37  67  94 131 164 214 275 336 411
#     4  11  21  38  61 100 122 159 217 276 343 390
#     4  10  24  47  65  91 132 179 225 274 338 408
#     4  12  26  39  57  92 136 185 231 265 319 404
#     4  12  23  38  65  94 132 180 218 279 333 398
#     4  11  20  40  63 102 132 168 212 279 355 399
#
# _framework density 20.447405
#
# number of rings (size 3 to 8) (size 9 to 14) (size 15 to 20)
#    0.000    1.000    2.500    6.000    0.000    2.500 
#    0.000    3.125    0.000    0.000    0.000    0.000 
#    0.000    0.000    0.000    0.000    0.000    0.000 
#
# Total GULP energy -178895.884796 kJ/mol
# GULP energy per Si atom -5590.496400 kJ/mol
# Density = 2.040087 g / cm^3
# Si number density = 20.447405 Si / 1000 Ang^3
#
#
#
# Elastic Constant Matrix: (Units=GPa)
#
#
# Indices 1 2 3 4 5 6 
#
# 1 129.2780 41.5771 32.8698 0.0000 0.0000 0.0000
# 2 41.5771 90.1523 39.3546 0.0000 0.0000 0.0000
# 3 32.8698 39.3546 114.7101 0.0000 0.0000 0.0000
# 4 0.0000 0.0000 0.0000 36.6616 0.0000 0.0000
# 5 0.0000 0.0000 0.0000 0.0000 15.6945 0.0000
# 6 0.0000 0.0000 0.0000 0.0000 0.0000 14.0531
#
#
#
# Elastic Compliance Matrix: (Units=1/GPa)
#
#
# Indices 1 2 3 4 5 6 
#
# 1 0.009269 -0.003664 -0.001399 0.000000 0.000000 0.000000
# 2 -0.003664 0.014495 -0.003923 0.000000 0.000000 0.000000
# 3 -0.001399 -0.003923 0.010464 0.000000 0.000000 0.000000
# 4 0.000000 0.000000 0.000000 0.027277 0.000000 0.000000
# 5 0.000000 0.000000 0.000000 0.000000 0.063717 0.000000
# 6 0.000000 0.000000 0.000000 0.000000 0.000000 0.071159
#
#
# Mechanical properties :
#
#
# Convention : Reuss Voigt Hill
#
# Bulk Modulus (GPa) = 61.51457 62.41594 61.96526
# Shear Modulus (GPa) = 22.75090 27.97108 25.36099
#
# Velocity S-wave (km/s) = 3.33927 3.70260 3.52562
# Velocity P-wave (km/s) = 6.70949 6.99073 6.85155
#
# Compressibility (1/GPa) = 0.01625631
#
# Stress axis : x y z
#
# Youngs Moduli (GPa) = 107.88144 68.99073 95.56255
#
# Poissons Ratio (x) = 0.25280 0.13369
# Poissons Ratio (y) = 0.39530 0.37488
# Poissons Ratio (z) = 0.15093 0.27064
#
# Static dielectric constant tensor:
#      x y z
#    x 1.688260 0.000000 0.000000 
#    y 0.000000 1.748220 0.000000 
#    z 0.000000 0.000000 1.823400 
# 
# From -- ./inp_files/5393.got.cif
#   From: 2010.05.17/outbox.cif.g08.bks.cpg/sg36_3_cif.got.tgz:5393.got - 2010.06.03 17:41:39.
