data_PCOD9352411
_publ_section_title
;
Structure prediction by ZEFSAII (Michael W. Deem and Ramdas Pophale) SiO2 
 PCOD9352411
Probable space group: C M C 21
;
_chemical_formula_sum "Si O2"
_cell_formula_units_Z 44
_cell_length_a 9.734552
_cell_length_b 23.599922
_cell_length_c 8.063310
_cell_angle_alpha 90.000000
_cell_angle_beta 90.000000
_cell_angle_gamma 90.000000
_cell_volume 1852.421845
_symmetry_space_group_name_H-M "C M C 21"
_symmetry_group_IT_number 36
_symmetry_cell_setting 'orthorhombic'
loop_
_space_group_symop_operation_xyz
x,y,z
-x,-y,1/2+z
x,-y,1/2+z
-x,y,z
1/2+x,1/2+y,z
1/2-x,1/2-y,1/2+z
1/2+x,1/2-y,1/2+z
1/2-x,1/2+y,z
loop_
_atom_site_type_symbol
_atom_site_label
_atom_site_fract_x
_atom_site_fract_y
_atom_site_fract_z
Si Si1 0.341696 0.672478 0.089960
Si Si2 0.153411 0.642608 0.585823
Si Si3 0.657834 0.736197 0.736020
Si Si4 0.500000 0.495672 0.185333
Si Si5 0.349010 0.080056 0.941723
Si Si6 0.277807 0.458011 0.933169
O O1 0.500000 0.664868 0.141336
O O2 0.249206 0.707682 0.217517
O O3 0.270053 0.614078 0.035946
O O4 0.340941 0.709580 0.919719
O O5 0.267266 0.689674 0.620922
O O6 0.193203 0.599341 0.441285
O O7 0.000000 0.667215 0.561958
O O8 0.148672 0.604982 0.754992
O O9 0.500000 0.746203 0.686347
O O10 0.380030 0.459275 0.090272
O O11 0.619736 0.531159 0.282762
O O12 0.500000 0.091155 0.014416
O O13 0.317802 0.013554 0.941661
#
# Coordination Sequence:
#
# PCOD9352411 Si02
#       6
#     8   8   8   4   8   8
#     4  10  22  40  63  88 116 153 198 244 295 351
#     4  10  21  38  62  87 119 157 196 240 296 354
#     4  10  22  40  63  88 116 153 198 244 295 351
#     4  10  24  34  62  86 128 150 206 242 288 344
#     4  10  21  38  62  87 119 157 196 240 296 354
#     4  11  21  40  58  90 122 160 196 242 294 348
#
# _framework density 23.752689
#
# number of rings (size 3 to 8) (size 9 to 14) (size 15 to 20)
#    0.000    1.818    1.818    1.636    5.091    2.182 
#    3.273    0.000    0.000    0.000    0.000    0.000 
#    0.000    0.000    0.000    0.000    0.000    0.000 
#
# Total GULP energy -122558.695925 kJ/mol
# GULP energy per Si atom -5570.849815 kJ/mol
# Density = 2.369863 g / cm^3
# Si number density = 23.752689 Si / 1000 Ang^3
#
#
#
# Elastic Constant Matrix: (Units=GPa)
#
#
# Indices 1 2 3 4 5 6 
#
# 1 200.8389 49.3903 28.3918 0.0000 0.0000 0.0000
# 2 49.3903 110.4056 17.6383 0.0000 0.0000 0.0000
# 3 28.3918 17.6383 21.8185 0.0000 0.0000 0.0000
# 4 0.0000 0.0000 0.0000 38.0445 0.0000 0.0000
# 5 0.0000 0.0000 0.0000 0.0000 27.0825 0.0000
# 6 0.0000 0.0000 0.0000 0.0000 0.0000 -2.5349
#
#
#
# Elastic Compliance Matrix: (Units=1/GPa)
#
#
# Indices 1 2 3 4 5 6 
#
# 1 0.006385 -0.001756 -0.006889 0.000000 0.000000 0.000000
# 2 -0.001756 0.010884 -0.006514 0.000000 0.000000 0.000000
# 3 -0.006889 -0.006514 0.060063 0.000000 0.000000 0.000000
# 4 0.000000 0.000000 0.000000 0.026285 0.000000 0.000000
# 5 0.000000 0.000000 0.000000 0.000000 0.036924 0.000000
# 6 0.000000 0.000000 0.000000 0.000000 0.000000 -0.394488
#
#
# Mechanical properties :
#
#
# Convention : Reuss Voigt Hill
#
# Bulk Modulus (GPa) = 21.27012 58.21153 39.74082
# Shear Modulus (GPa) = -24.04311 28.36125 2.15907
#
# Velocity S-wave (km/s) = -3.18500 3.45921 0.95444
# Velocity P-wave (km/s) = 2.13340 6.36517 4.24052
#
# Compressibility (1/GPa) = 0.04701431
#
# Stress axis : x y z
#
# Youngs Moduli (GPa) = 156.62365 91.88177 16.64922
#
# Poissons Ratio (x) = 0.16131 0.11470
# Poissons Ratio (y) = 0.27498 0.10845
# Poissons Ratio (z) = 1.07897 0.59850
#
# Static dielectric constant tensor:
#      x y z
#    x 1.854250 0.000000 0.000000 
#    y 0.000000 1.868550 0.000000 
#    z 0.000000 0.000000 1.964890 
# 
# From -- ./inp_files/2584.got.cif
#   From: 2010.05.17/outbox.cif.g08.bks.cpg/sg36_2_cif.got.tgz:2584.got - 2010.06.03 17:41:39.
