data_PCOD9352118
_publ_section_title
;
Structure prediction by ZEFSAII (Michael W. Deem and Ramdas Pophale) SiO2 
 PCOD9352118
Probable space group: C M C 21
;
_chemical_formula_sum "Si O2"
_cell_formula_units_Z 48
_cell_length_a 23.030221
_cell_length_b 7.966621
_cell_length_c 10.511372
_cell_angle_alpha 90.000000
_cell_angle_beta 90.000000
_cell_angle_gamma 90.000000
_cell_volume 1928.553399
_symmetry_space_group_name_H-M "C M C 21"
_symmetry_group_IT_number 36
_symmetry_cell_setting 'orthorhombic'
loop_
_space_group_symop_operation_xyz
x,y,z
-x,-y,1/2+z
x,-y,1/2+z
-x,y,z
1/2+x,1/2+y,z
1/2-x,1/2-y,1/2+z
1/2+x,1/2-y,1/2+z
1/2-x,1/2+y,z
loop_
_atom_site_type_symbol
_atom_site_label
_atom_site_fract_x
_atom_site_fract_y
_atom_site_fract_z
Si Si1 0.381826 0.240308 0.858650
Si Si2 0.748813 0.222413 0.603942
Si Si3 0.564531 0.630261 0.116690
Si Si4 0.827324 0.462155 0.739877
Si Si5 0.326101 0.535422 0.967160
Si Si6 0.435251 0.243051 0.135122
O O1 0.419958 0.245794 0.731445
O O2 0.343565 0.070804 0.863279
O O3 0.343329 0.411933 0.852931
O O4 0.420710 0.246265 0.984292
O O5 0.774180 0.334299 0.719021
O O6 0.695027 0.111090 0.648060
O O7 0.725145 0.330269 0.484399
O O8 0.802410 0.105751 0.565147
O O9 0.500000 0.662631 0.065288
O O10 0.615178 0.625963 0.012127
O O11 0.564780 0.439729 0.171863
O O12 0.884833 0.362143 0.701508
O O13 0.500000 0.176022 0.157582
#
# Coordination Sequence:
#
# PCOD9352118 Si02
#       6
#     8   8   8   8   8   8
#     4  11  22  40  68  99 120 172 217 255 332 381
#     4  10  21  42  64  87 137 164 212 263 321 376
#     4  10  20  40  65  92 127 164 208 263 316 376
#     4  11  22  41  65  96 127 171 210 268 317 378
#     4  10  21  42  61  94 125 167 208 268 313 375
#     4  10  23  45  65  94 136 164 210 273 315 376
#
# _framework density 24.889123999999999
#
# number of rings (size 3 to 8) (size 9 to 14) (size 15 to 20)
#    0.000    1.667    5.000    0.500    0.000    3.333 
#    3.000    0.000    0.000    0.000    0.000    0.000 
#    0.000    0.000    0.000    0.000    0.000    0.000 
#
# Total GULP energy -133985.740238 kJ/mol
# GULP energy per Si atom -5582.739177 kJ/mol
# Density = 2.483247 g / cm^3
# Si number density = 24.889124 Si / 1000 Ang^3
#
#
#
# Elastic Constant Matrix: (Units=GPa)
#
#
# Indices 1 2 3 4 5 6 
#
# 1 180.0118 17.3682 22.4297 0.0000 0.0000 0.0000
# 2 17.3682 58.8636 11.3399 0.0000 0.0000 0.0000
# 3 22.4297 11.3399 27.7170 0.0000 0.0000 0.0000
# 4 0.0000 0.0000 0.0000 37.0078 0.0000 0.0000
# 5 0.0000 0.0000 0.0000 0.0000 27.9940 0.0000
# 6 0.0000 0.0000 0.0000 0.0000 0.0000 29.1364
#
#
#
# Elastic Compliance Matrix: (Units=1/GPa)
#
#
# Indices 1 2 3 4 5 6 
#
# 1 0.006226 -0.000941 -0.004653 0.000000 0.000000 0.000000
# 2 -0.000941 0.018584 -0.006842 0.000000 0.000000 0.000000
# 3 -0.004653 -0.006842 0.042644 0.000000 0.000000 0.000000
# 4 0.000000 0.000000 0.000000 0.027021 0.000000 0.000000
# 5 0.000000 0.000000 0.000000 0.000000 0.035722 0.000000
# 6 0.000000 0.000000 0.000000 0.000000 0.000000 0.034321
#
#
# Mechanical properties :
#
#
# Convention : Reuss Voigt Hill
#
# Bulk Modulus (GPa) = 23.48431 40.98534 32.23483
# Shear Modulus (GPa) = 24.55982 33.19127 28.87555
#
# Velocity S-wave (km/s) = 3.14470 3.65576 3.40982
# Velocity P-wave (km/s) = 4.75831 5.85853 5.33685
#
# Compressibility (1/GPa) = 0.04258162
#
# Stress axis : x y z
#
# Youngs Moduli (GPa) = 160.62338 53.80950 23.44995
#
# Poissons Ratio (x) = 0.05061 0.10912
# Poissons Ratio (y) = 0.15107 0.16045
# Poissons Ratio (z) = 0.74743 0.36818
#
# Static dielectric constant tensor:
#      x y z
#    x 2.002290 0.000000 0.000000 
#    y 0.000000 2.006970 0.000000 
#    z 0.000000 0.000000 2.005840 
# 
# From -- ./inp_files/9412.got.cif
#   From: 2010.05.17/outbox.cif.g08.bks.cpg/sg36_5_cif.got.tgz:9412.got - 2010.06.03 17:41:39.
