data_PCOD9352012
_publ_section_title
;
Structure prediction by ZEFSAII (Michael W. Deem and Ramdas Pophale) SiO2 
 PCOD9352012
Probable space group: C M C 21
;
_chemical_formula_sum "Si O2"
_cell_formula_units_Z 48
_cell_length_a 16.085550
_cell_length_b 8.768756
_cell_length_c 16.296781
_cell_angle_alpha 90.000000
_cell_angle_beta 90.000000
_cell_angle_gamma 90.000000
_cell_volume 2298.665247
_symmetry_space_group_name_H-M "C M C 21"
_symmetry_group_IT_number 36
_symmetry_cell_setting 'orthorhombic'
loop_
_space_group_symop_operation_xyz
x,y,z
-x,-y,1/2+z
x,-y,1/2+z
-x,y,z
1/2+x,1/2+y,z
1/2-x,1/2-y,1/2+z
1/2+x,1/2-y,1/2+z
1/2-x,1/2+y,z
loop_
_atom_site_type_symbol
_atom_site_label
_atom_site_fract_x
_atom_site_fract_y
_atom_site_fract_z
Si Si1 0.325627 0.238729 0.020250
Si Si2 0.000000 0.237738 0.025674
Si Si3 0.679900 0.245951 0.829108
Si Si4 0.500000 0.394033 0.343129
Si Si5 0.830573 0.069325 0.765168
Si Si6 0.500000 0.762790 0.338757
Si Si7 0.500000 0.100733 0.021108
Si Si8 0.834652 0.928739 0.584708
O O1 0.330414 0.420911 0.027925
O O2 0.247066 0.172022 0.068572
O O3 0.314581 0.196747 0.924129
O O4 0.413311 0.171700 0.052658
O O5 0.000000 0.419931 0.031375
O O6 0.000000 0.186806 0.930503
O O7 0.917323 0.166512 0.065479
O O8 0.685458 0.427948 0.825978
O O9 0.587758 0.202694 0.796701
O O10 0.753018 0.179398 0.774920
O O11 0.583121 0.355794 0.293008
O O12 0.500000 0.579352 0.354466
O O13 0.837743 0.995632 0.676079
O O14 0.500000 0.850014 0.425113
#
# Coordination Sequence:
#
# PCOD9352012 Si02
#       8
#     8   4   8   4   8   4   4   8
#     4  11  22  41  64  90 123 164 211 260 310 374
#     4  12  23  39  64  90 120 165 213 258 308 379
#     4  10  20  38  61  85 117 162 206 250 305 373
#     4  10  21  40  63  86 119 166 209 248 308 378
#     4  11  23  39  60  90 124 160 203 258 316 366
#     4   8  18  37  59  84 115 151 199 256 302 353
#     4  10  22  38  62  92 118 152 209 262 304 358
#     4  12  24  40  62  93 129 164 205 264 320 366
#
# _framework density 20.881684
#
# number of rings (size 3 to 8) (size 9 to 14) (size 15 to 20)
#    0.000    1.333    0.000    8.000    0.000    4.000 
#    0.000    0.833    0.000    2.000    0.000    0.000 
#    0.000    0.000    0.000    0.000    0.000    0.000 
#
# Total GULP energy -134145.910483 kJ/mol
# GULP energy per Si atom -5589.412937 kJ/mol
# Density = 2.083416 g / cm^3
# Si number density = 20.881684 Si / 1000 Ang^3
#
#
#
# Elastic Constant Matrix: (Units=GPa)
#
#
# Indices 1 2 3 4 5 6 
#
# 1 183.8439 56.1820 7.8268 0.0000 0.0000 0.0000
# 2 56.1820 63.9023 -14.8942 0.0000 0.0000 0.0000
# 3 7.8268 -14.8942 55.1594 0.0000 0.0000 0.0000
# 4 0.0000 0.0000 0.0000 -5.0148 0.0000 0.0000
# 5 0.0000 0.0000 0.0000 0.0000 4.6299 0.0000
# 6 0.0000 0.0000 0.0000 0.0000 0.0000 69.5056
#
#
#
# Elastic Compliance Matrix: (Units=1/GPa)
#
#
# Indices 1 2 3 4 5 6 
#
# 1 0.007938 -0.007728 -0.003213 0.000000 0.000000 0.000000
# 2 -0.007728 0.024223 0.007637 0.000000 0.000000 0.000000
# 3 -0.003213 0.007637 0.020647 0.000000 0.000000 0.000000
# 4 0.000000 0.000000 0.000000 -0.199411 0.000000 0.000000
# 5 0.000000 0.000000 0.000000 0.000000 0.215986 0.000000
# 6 0.000000 0.000000 0.000000 0.000000 0.000000 0.014387
#
#
# Mechanical properties :
#
#
# Convention : Reuss Voigt Hill
#
# Bulk Modulus (GPa) = 21.64439 44.57053 33.10746
# Shear Modulus (GPa) = 47.26940 30.74356 39.00648
#
# Velocity S-wave (km/s) = 4.76297 3.84118 4.32670
# Velocity P-wave (km/s) = 6.37461 6.40809 6.39137
#
# Compressibility (1/GPa) = 0.04620135
#
# Stress axis : x y z
#
# Youngs Moduli (GPa) = 125.98113 41.28322 48.43236
#
# Poissons Ratio (x) = 0.31902 0.15561
# Poissons Ratio (y) = 0.97353 -0.36989
# Poissons Ratio (z) = 0.40477 -0.31529
#
# Static dielectric constant tensor:
#      x y z
#    x 1.762620 0.000000 0.000000 
#    y 0.000000 1.714910 0.000000 
#    z 0.000000 0.000000 1.753040 
# 
# From -- ./inp_files/12525.got.cif
#   From: 2010.05.17/outbox.cif.g08.bks.cpg/sg36_7_cif.got.tgz:12525.got - 2010.06.03 17:41:39.
