data_PCOD9352789
_publ_section_title
;
Structure prediction by ZEFSAII (Michael W. Deem and Ramdas Pophale) SiO2 
 PCOD9352789
Probable space group: C M C 21
;
_chemical_formula_sum "Si O2"
_cell_formula_units_Z 48
_cell_length_a 22.452381
_cell_length_b 9.694191
_cell_length_c 8.411137
_cell_angle_alpha 90.000000
_cell_angle_beta 90.000000
_cell_angle_gamma 90.000000
_cell_volume 1830.748480
_symmetry_space_group_name_H-M "C M C 21"
_symmetry_group_IT_number 36
_symmetry_cell_setting 'orthorhombic'
loop_
_space_group_symop_operation_xyz
x,y,z
-x,-y,1/2+z
x,-y,1/2+z
-x,y,z
1/2+x,1/2+y,z
1/2-x,1/2-y,1/2+z
1/2+x,1/2-y,1/2+z
1/2-x,1/2+y,z
loop_
_atom_site_type_symbol
_atom_site_label
_atom_site_fract_x
_atom_site_fract_y
_atom_site_fract_z
Si Si1 0.413066 0.792279 0.039520
Si Si2 0.778260 0.795654 0.478569
Si Si3 0.602343 0.956864 0.738711
Si Si4 0.073098 0.793140 0.044700
Si Si5 0.758190 0.543745 0.292218
Si Si6 0.566828 0.456145 0.741907
O O1 0.437161 0.644378 0.089467
O O2 0.425014 0.899528 0.182166
O O3 0.343341 0.759463 0.020407
O O4 0.429942 0.871940 0.878489
O O5 0.743679 0.658615 0.425900
O O6 0.755772 0.883270 0.626590
O O7 0.774872 0.902564 0.332130
O O8 0.599893 0.854547 0.586716
O O9 0.670634 0.982536 0.788881
O O10 0.094456 0.866027 0.882555
O O11 0.000000 0.781682 0.042173
O O12 0.092319 0.899663 0.183632
O O13 0.500000 0.487301 0.794912
#
# Coordination Sequence:
#
# PCOD9352789 Si02
#       6
#     8   8   8   8   8   8
#     4  11  24  40  63  92 123 168 215 268 327 390
#     4  11  24  41  64  92 126 165 211 264 326 391
#     4  11  23  41  63  91 126 167 218 271 327 390
#     4  10  22  41  66  95 131 175 221 272 329 390
#     4  11  23  42  62  90 125 165 210 266 327 390
#     4  10  22  41  64  96 135 174 221 273 326 389
#
# _framework density 26.218783999999999
#
# number of rings (size 3 to 8) (size 9 to 14) (size 15 to 20)
#    0.000    1.333    0.000    6.000    0.000    9.333 
#    0.000    0.000    0.000    0.000    0.000    0.000 
#    0.000    0.000    0.000    0.000    0.000    0.000 
#
# Total GULP energy -134439.119876 kJ/mol
# GULP energy per Si atom -5601.629995 kJ/mol
# Density = 2.615911 g / cm^3
# Si number density = 26.218784 Si / 1000 Ang^3
#
#
#
# Elastic Constant Matrix: (Units=GPa)
#
#
# Indices 1 2 3 4 5 6 
#
# 1 77.4586 7.0986 9.5331 0.0000 0.0000 0.0000
# 2 7.0986 153.1211 14.1518 0.0000 0.0000 0.0000
# 3 9.5331 14.1518 84.0324 0.0000 0.0000 0.0000
# 4 0.0000 0.0000 0.0000 65.3427 0.0000 0.0000
# 5 0.0000 0.0000 0.0000 0.0000 23.6394 0.0000
# 6 0.0000 0.0000 0.0000 0.0000 0.0000 41.4303
#
#
#
# Elastic Compliance Matrix: (Units=1/GPa)
#
#
# Indices 1 2 3 4 5 6 
#
# 1 0.013127 -0.000478 -0.001409 0.000000 0.000000 0.000000
# 2 -0.000478 0.006651 -0.001066 0.000000 0.000000 0.000000
# 3 -0.001409 -0.001066 0.012239 0.000000 0.000000 0.000000
# 4 0.000000 0.000000 0.000000 0.015304 0.000000 0.000000
# 5 0.000000 0.000000 0.000000 0.000000 0.042302 0.000000
# 6 0.000000 0.000000 0.000000 0.000000 0.000000 0.024137
#
#
# Mechanical properties :
#
#
# Convention : Reuss Voigt Hill
#
# Bulk Modulus (GPa) = 38.29602 41.79768 40.04685
# Shear Modulus (GPa) = 38.94947 45.00439 41.97693
#
# Velocity S-wave (km/s) = 3.85847 4.14755 4.00562
# Velocity P-wave (km/s) = 5.87269 6.23801 6.05810
#
# Compressibility (1/GPa) = 0.02611238
#
# Stress axis : x y z
#
# Youngs Moduli (GPa) = 76.17698 150.34277 81.70283
#
# Poissons Ratio (x) = 0.07192 0.11509
# Poissons Ratio (y) = 0.03644 0.08709
# Poissons Ratio (z) = 0.10731 0.16025
#
# Static dielectric constant tensor:
#      x y z
#    x 2.000510 0.000000 0.000000 
#    y 0.000000 1.971610 0.000000 
#    z 0.000000 0.000000 2.138640 
# 
# From -- ./inp_files/5974.got.cif
#   From: 2010.05.17/outbox.cif.g08.bks.cpg/sg36_3_cif.got.tgz:5974.got - 2010.06.03 17:41:39.
