data_PCOD9352251
_publ_section_title
;
Structure prediction by ZEFSAII (Michael W. Deem and Ramdas Pophale) SiO2 
 PCOD9352251
Probable space group: C M C 21
;
_chemical_formula_sum "Si O2"
_cell_formula_units_Z 64
_cell_length_a 7.673776
_cell_length_b 10.019195
_cell_length_c 34.500986
_cell_angle_alpha 90.000000
_cell_angle_beta 90.000000
_cell_angle_gamma 90.000000
_cell_volume 2652.610314
_symmetry_space_group_name_H-M "C M C 21"
_symmetry_group_IT_number 36
_symmetry_cell_setting 'orthorhombic'
loop_
_space_group_symop_operation_xyz
x,y,z
-x,-y,1/2+z
x,-y,1/2+z
-x,y,z
1/2+x,1/2+y,z
1/2-x,1/2-y,1/2+z
1/2+x,1/2-y,1/2+z
1/2-x,1/2+y,z
loop_
_atom_site_type_symbol
_atom_site_label
_atom_site_fract_x
_atom_site_fract_y
_atom_site_fract_z
Si Si1 0.288536 0.657656 0.477960
Si Si2 0.788576 0.461865 0.102229
Si Si3 0.211595 0.579037 0.185146
Si Si4 0.796131 0.329012 0.230354
Si Si5 0.703731 0.906600 0.431154
Si Si6 0.795610 0.710870 0.056755
Si Si7 0.798278 0.170366 0.303132
Si Si8 0.797156 0.916851 0.346232
O O1 0.500000 0.655606 0.478728
O O2 0.229706 0.763503 0.445418
O O3 0.228594 0.511833 0.465724
O O4 0.222902 0.715529 0.518869
O O5 0.735190 0.519645 0.143789
O O6 0.724314 0.568028 0.069914
O O7 0.723083 0.315386 0.091888
O O8 0.000000 0.458462 0.101697
O O9 0.274124 0.472612 0.217655
O O10 0.279801 0.725497 0.194845
O O11 0.000000 0.583828 0.185808
O O12 0.717426 0.249500 0.266800
O O13 0.000000 0.350761 0.238873
O O14 0.500000 0.893493 0.423439
O O15 0.785445 0.955211 0.391160
O O16 0.000000 0.689512 0.049142
O O17 0.792236 0.276241 0.338063
O O18 0.000000 0.143339 0.293373
O O19 0.721438 0.031860 0.318337
O O20 0.000000 0.899398 0.337026
#
# Coordination Sequence:
#
# PCOD9352251 Si02
#       8
#     8   8   8   8   8   8   8   8
#     4  10  22  39  57  81 112 143 181 227 271 323
#     4  10  21  37  56  82 115 147 184 230 277 328
#     4  10  21  36  56  83 113 146 186 231 277 329
#     4  10  21  37  57  82 112 147 188 232 279 332
#     4  11  23  39  60  84 112 147 183 225 278 330
#     4  10  21  37  57  81 110 145 183 224 272 325
#     4  10  22  39  57  81 114 148 185 232 281 330
#     4  11  23  38  58  84 112 145 186 229 275 331
#
# _framework density 24.127178000000001
#
# number of rings (size 3 to 8) (size 9 to 14) (size 15 to 20)
#    0.000    1.750    0.000    3.750    0.000    8.500 
#    0.000    0.000    0.000    0.000    0.000    0.000 
#    0.000    0.000    0.000    0.000    0.000    0.000 
#
# Total GULP energy -179005.666451 kJ/mol
# GULP energy per Si atom -5593.927077 kJ/mol
# Density = 2.407226 g / cm^3
# Si number density = 24.127178 Si / 1000 Ang^3
#
#
#
# Elastic Constant Matrix: (Units=GPa)
#
#
# Indices 1 2 3 4 5 6 
#
# 1 49.4039 -8.0646 0.9075 0.0000 0.0000 0.0000
# 2 -8.0646 87.4825 -20.6415 0.0000 0.0000 0.0000
# 3 0.9075 -20.6415 61.6908 0.0000 0.0000 0.0000
# 4 0.0000 0.0000 0.0000 43.6997 0.0000 0.0000
# 5 0.0000 0.0000 0.0000 0.0000 17.5530 0.0000
# 6 0.0000 0.0000 0.0000 0.0000 0.0000 6.3610
#
#
#
# Elastic Compliance Matrix: (Units=1/GPa)
#
#
# Indices 1 2 3 4 5 6 
#
# 1 0.020558 0.001980 0.000360 0.000000 0.000000 0.000000
# 2 0.001980 0.012601 0.004187 0.000000 0.000000 0.000000
# 3 0.000360 0.004187 0.017606 0.000000 0.000000 0.000000
# 4 0.000000 0.000000 0.000000 0.022883 0.000000 0.000000
# 5 0.000000 0.000000 0.000000 0.000000 0.056970 0.000000
# 6 0.000000 0.000000 0.000000 0.000000 0.000000 0.157208
#
#
# Mechanical properties :
#
#
# Convention : Reuss Voigt Hill
#
# Bulk Modulus (GPa) = 15.66909 15.88665 15.77787
# Shear Modulus (GPa) = 16.88931 28.61445 22.75188
#
# Velocity S-wave (km/s) = 2.64864 3.44755 3.07416
# Velocity P-wave (km/s) = 3.98274 4.73775 4.37656
#
# Compressibility (1/GPa) = 0.06381992
#
# Stress axis : x y z
#
# Youngs Moduli (GPa) = 48.64299 79.35639 56.80008
#
# Poissons Ratio (x) = -0.15713 -0.02046
# Poissons Ratio (y) = -0.09632 -0.23784
# Poissons Ratio (z) = -0.01752 -0.33229
#
# Static dielectric constant tensor:
#      x y z
#    x 1.885430 0.000000 0.000000 
#    y 0.000000 1.866850 0.000000 
#    z 0.000000 0.000000 1.975830 
# 
# From -- ./inp_files/17323.got.cif
#   From: 2010.05.17/outbox.cif.g08.bks.cpg/sg36_9_cif.got.tgz:17323.got - 2010.06.03 17:41:39.
