data_PCOD9352409
_publ_section_title
;
Structure prediction by ZEFSAII (Michael W. Deem and Ramdas Pophale) SiO2 
 PCOD9352409
Probable space group: C M C 21
;
_chemical_formula_sum "Si O2"
_cell_formula_units_Z 64
_cell_length_a 12.852618
_cell_length_b 12.434162
_cell_length_c 18.085703
_cell_angle_alpha 90.000000
_cell_angle_beta 90.000000
_cell_angle_gamma 90.000000
_cell_volume 2890.303946
_symmetry_space_group_name_H-M "C M C 21"
_symmetry_group_IT_number 36
_symmetry_cell_setting 'orthorhombic'
loop_
_space_group_symop_operation_xyz
x,y,z
-x,-y,1/2+z
x,-y,1/2+z
-x,y,z
1/2+x,1/2+y,z
1/2-x,1/2-y,1/2+z
1/2+x,1/2-y,1/2+z
1/2-x,1/2+y,z
loop_
_atom_site_type_symbol
_atom_site_label
_atom_site_fract_x
_atom_site_fract_y
_atom_site_fract_z
Si Si1 0.614572 0.785212 0.927340
Si Si2 0.884819 0.368764 0.759508
Si Si3 0.336614 0.538804 0.901155
Si Si4 0.663560 0.327992 0.985335
Si Si5 0.663560 0.672008 0.652957
Si Si6 0.115181 0.368764 0.378784
Si Si7 0.336614 0.538804 0.237137
Si Si8 0.614572 0.214788 0.710952
O O1 0.500000 0.817040 0.953539
O O2 0.630276 0.830434 0.844058
O O3 0.619719 0.655825 0.919526
O O4 0.711131 0.820662 0.976703
O O5 0.877964 0.263056 0.708350
O O6 0.788913 0.444035 0.737808
O O7 0.000000 0.416892 0.751934
O O8 0.211087 0.555965 0.900484
O O9 0.366479 0.500000 0.819146
O O10 0.367342 0.445793 0.957461
O O11 0.632422 0.307629 0.069146
O O12 0.622036 0.236944 0.929942
O O13 0.632658 0.554207 0.680830
O O14 0.788869 0.679338 0.661589
O O15 0.130276 0.330434 0.294234
O O16 0.000000 0.416892 0.386358
O O17 0.380281 0.655825 0.218766
O O18 0.500000 0.182960 0.684752
#
# Coordination Sequence:
#
# PCOD9352409 Si02
#       8
#     8   8   8   8   8   8   8   8
#     4  10  21  38  62  87 113 151 196 239 285 345
#     4  10  21  38  62  87 113 151 196 239 285 345
#     4  11  19  36  60  90 115 148 195 239 284 342
#     4  11  23  39  57  83 121 155 187 241 300 340
#     4  11  23  39  57  83 121 155 187 241 300 340
#     4  10  21  38  62  87 113 151 196 239 285 345
#     4  11  19  36  60  90 115 148 195 239 284 342
#     4  10  21  38  62  87 113 151 196 239 285 345
#
# _framework density 22.143001000000002
#
# number of rings (size 3 to 8) (size 9 to 14) (size 15 to 20)
#    0.000    1.500    5.000    1.500    0.000    8.000 
#    0.000    0.000    0.000    0.000    0.000    0.000 
#    0.000    0.000    0.000    0.000    0.000    0.000 
#
# Total GULP energy -179112.153271 kJ/mol
# GULP energy per Si atom -5597.254790 kJ/mol
# Density = 2.209260 g / cm^3
# Si number density = 22.143001 Si / 1000 Ang^3
#
#
#
# Elastic Constant Matrix: (Units=GPa)
#
#
# Indices 1 2 3 4 5 6 
#
# 1 113.1247 -5.5287 8.8683 0.0000 0.0000 0.0000
# 2 -5.5287 95.5031 10.3382 0.0000 0.0000 0.0000
# 3 8.8683 10.3382 64.8823 0.0000 0.0000 0.0000
# 4 0.0000 0.0000 0.0000 21.3107 0.0000 0.0000
# 5 0.0000 0.0000 0.0000 0.0000 2.2125 0.0000
# 6 0.0000 0.0000 0.0000 0.0000 0.0000 -9.7529
#
#
#
# Elastic Compliance Matrix: (Units=1/GPa)
#
#
# Indices 1 2 3 4 5 6 
#
# 1 0.008977 0.000664 -0.001333 0.000000 0.000000 0.000000
# 2 0.000664 0.010704 -0.001796 0.000000 0.000000 0.000000
# 3 -0.001333 -0.001796 0.015881 0.000000 0.000000 0.000000
# 4 0.000000 0.000000 0.000000 0.046925 0.000000 0.000000
# 5 0.000000 0.000000 0.000000 0.000000 0.451974 0.000000
# 6 0.000000 0.000000 0.000000 0.000000 0.000000 -0.102533
#
#
# Mechanical properties :
#
#
# Convention : Reuss Voigt Hill
#
# Bulk Modulus (GPa) = 32.64642 33.42951 33.03797
# Shear Modulus (GPa) = 11.18399 20.07620 15.63009
#
# Velocity S-wave (km/s) = 2.24984 3.01435 2.65970
# Velocity P-wave (km/s) = 4.63945 5.21967 4.93809
#
# Compressibility (1/GPa) = 0.03063123
#
# Stress axis : x y z
#
# Youngs Moduli (GPa) = 111.39909 93.42523 62.96870
#
# Poissons Ratio (x) = -0.06203 0.08392
# Poissons Ratio (y) = -0.07396 0.11311
# Poissons Ratio (z) = 0.14847 0.16782
#
# Static dielectric constant tensor:
#      x y z
#    x 1.878490 0.000000 0.000000 
#    y 0.000000 1.785630 0.000000 
#    z 0.000000 0.000000 1.746470 
# 
# From -- ./inp_files/14701.got.cif
#   From: 2010.05.17/outbox.cif.g08.bks.cpg/sg36_8_cif.got.tgz:14701.got - 2010.06.03 17:41:39.
