data_PCOD9352267
_publ_section_title
;
Structure prediction by ZEFSAII (Michael W. Deem and Ramdas Pophale) SiO2 
 PCOD9352267
Probable space group: C M C 21
;
_chemical_formula_sum "Si O2"
_cell_formula_units_Z 64
_cell_length_a 8.608818
_cell_length_b 24.336797
_cell_length_c 15.838389
_cell_angle_alpha 90.000000
_cell_angle_beta 90.000000
_cell_angle_gamma 90.000000
_cell_volume 3318.317606
_symmetry_space_group_name_H-M "C M C 21"
_symmetry_group_IT_number 36
_symmetry_cell_setting 'orthorhombic'
loop_
_space_group_symop_operation_xyz
x,y,z
-x,-y,1/2+z
x,-y,1/2+z
-x,y,z
1/2+x,1/2+y,z
1/2-x,1/2-y,1/2+z
1/2+x,1/2-y,1/2+z
1/2-x,1/2+y,z
loop_
_atom_site_type_symbol
_atom_site_label
_atom_site_fract_x
_atom_site_fract_y
_atom_site_fract_z
Si Si1 0.686311 0.301736 0.898650
Si Si2 0.313019 0.610591 0.738313
Si Si3 0.686029 0.611210 0.067841
Si Si4 0.187800 0.119627 0.551015
Si Si5 0.186749 0.501286 0.303104
Si Si6 0.813690 0.623967 0.248807
Si Si7 0.687907 0.678726 0.901426
Si Si8 0.186129 0.500680 0.499958
O O1 0.500000 0.300375 0.898136
O O2 0.745065 0.333778 0.816121
O O3 0.750653 0.240371 0.901587
O O4 0.738292 0.336545 0.980865
O O5 0.500000 0.610675 0.740801
O O6 0.264461 0.633114 0.646916
O O7 0.257213 0.548149 0.749608
O O8 0.257201 0.646150 0.817979
O O9 0.500000 0.612153 0.073116
O O10 0.757356 0.634152 0.153945
O O11 0.742506 0.548922 0.053233
O O12 0.735566 0.646055 0.985732
O O13 0.253478 0.059882 0.528313
O O14 0.000000 0.116859 0.548464
O O15 0.236402 0.561929 0.274132
O O16 0.229365 0.493091 0.401359
O O17 0.000000 0.498912 0.296486
O O18 0.000000 0.626174 0.252875
O O19 0.500000 0.679680 0.899829
O O20 0.000000 0.499051 0.507073
#
# Coordination Sequence:
#
# PCOD9352267 Si02
#       8
#     8   8   8   8   8   8   8   8
#     4  11  24  41  62  89 120 157 206 255 301 356
#     4  10  21  39  62  88 118 156 197 243 300 358
#     4  11  23  40  62  92 124 160 203 248 301 361
#     4  10  22  39  61  89 120 155 198 246 299 358
#     4  10  21  36  58  89 122 156 196 241 297 358
#     4  11  23  41  63  90 123 162 201 247 306 361
#     4  10  23  42  62  85 119 159 202 249 302 356
#     4  11  21  36  60  90 124 159 197 243 300 360
#
# _framework density 19.286881000000001
#
# number of rings (size 3 to 8) (size 9 to 14) (size 15 to 20)
#    0.000    1.500    2.500    2.250    0.000    7.000 
#    0.000    1.250    0.000    0.000    0.000    0.000 
#    0.000    0.000    0.000    0.000    0.000    0.000 
#
# Total GULP energy -178890.068758 kJ/mol
# GULP energy per Si atom -5590.314649 kJ/mol
# Density = 1.924298 g / cm^3
# Si number density = 19.286881 Si / 1000 Ang^3
#
#
#
# Elastic Constant Matrix: (Units=GPa)
#
#
# Indices 1 2 3 4 5 6 
#
# 1 10.6612 10.1194 12.5683 0.0000 0.0000 0.0000
# 2 10.1194 117.1054 32.4256 0.0000 0.0000 0.0000
# 3 12.5683 32.4256 105.3236 0.0000 0.0000 0.0000
# 4 0.0000 0.0000 0.0000 3.3709 0.0000 0.0000
# 5 0.0000 0.0000 0.0000 0.0000 18.8497 0.0000
# 6 0.0000 0.0000 0.0000 0.0000 0.0000 31.8536
#
#
#
# Elastic Compliance Matrix: (Units=1/GPa)
#
#
# Indices 1 2 3 4 5 6 
#
# 1 0.113679 -0.006633 -0.011523 0.000000 0.000000 0.000000
# 2 -0.006633 0.009722 -0.002202 0.000000 0.000000 0.000000
# 3 -0.011523 -0.002202 0.011547 0.000000 0.000000 0.000000
# 4 0.000000 0.000000 0.000000 0.296660 0.000000 0.000000
# 5 0.000000 0.000000 0.000000 0.000000 0.053051 0.000000
# 6 0.000000 0.000000 0.000000 0.000000 0.000000 0.031394
#
#
# Mechanical properties :
#
#
# Convention : Reuss Voigt Hill
#
# Bulk Modulus (GPa) = 10.61201 38.14632 24.37916
# Shear Modulus (GPa) = 8.50081 22.67994 15.59037
#
# Velocity S-wave (km/s) = 2.10170 3.43290 2.84622
# Velocity P-wave (km/s) = 3.37693 5.96107 4.84448
#
# Compressibility (1/GPa) = 0.09423289
#
# Stress axis : x y z
#
# Youngs Moduli (GPa) = 8.79673 102.85871 86.59918
#
# Poissons Ratio (x) = 0.68222 0.99792
# Poissons Ratio (y) = 0.05835 0.19066
# Poissons Ratio (z) = 0.10137 0.22646
#
# Static dielectric constant tensor:
#      x y z
#    x 1.650570 0.000000 0.000000 
#    y 0.000000 1.623740 0.000000 
#    z 0.000000 0.000000 1.688040 
# 
# From -- ./inp_files/10921.got.cif
#   From: 2010.05.17/outbox.cif.g08.bks.cpg/sg36_6_cif.got.tgz:10921.got - 2010.06.03 17:41:39.
