data_PCOD9352747
_publ_section_title
;
Structure prediction by ZEFSAII (Michael W. Deem and Ramdas Pophale) SiO2 
 PCOD9352747
Probable space group: C M C 21
;
_chemical_formula_sum "Si O2"
_cell_formula_units_Z 48
_cell_length_a 8.633384
_cell_length_b 14.462636
_cell_length_c 17.506633
_cell_angle_alpha 90.000000
_cell_angle_beta 90.000000
_cell_angle_gamma 90.000000
_cell_volume 2185.904285
_symmetry_space_group_name_H-M "C M C 21"
_symmetry_group_IT_number 36
_symmetry_cell_setting 'orthorhombic'
loop_
_space_group_symop_operation_xyz
x,y,z
-x,-y,1/2+z
x,-y,1/2+z
-x,y,z
1/2+x,1/2+y,z
1/2-x,1/2-y,1/2+z
1/2+x,1/2-y,1/2+z
1/2-x,1/2+y,z
loop_
_atom_site_type_symbol
_atom_site_label
_atom_site_fract_x
_atom_site_fract_y
_atom_site_fract_z
Si Si1 0.179490 0.949550 0.500000
Si Si2 0.680171 0.810499 0.609647
Si Si3 0.683137 0.083695 0.840361
Si Si4 0.320233 0.861571 0.038933
Si Si5 0.819563 0.793553 0.883050
Si Si6 0.181467 0.934971 0.743195
O O1 0.219408 0.045539 0.541160
O O2 0.000000 0.925241 0.510428
O O3 0.287528 0.869200 0.532980
O O4 0.220959 0.958494 0.411125
O O5 0.500000 0.791548 0.618999
O O6 0.771806 0.714900 0.600622
O O7 0.742246 0.877651 0.675227
O O8 0.500000 0.067180 0.851179
O O9 0.710963 0.193407 0.845844
O O10 0.738515 0.031763 0.764386
O O11 0.500000 0.885574 0.045640
O O12 0.285896 0.816688 0.955635
O O13 0.801573 0.869619 0.817498
O O14 0.000000 0.795017 0.909190
O O15 0.000000 0.948622 0.727632
#
# Coordination Sequence:
#
# PCOD9352747 Si02
#       6
#     8   8   8   8   8   8
#     4  12  24  41  66  97 130 170 220 271 323 385
#     4  12  26  45  66  94 134 174 218 272 329 386
#     4  11  22  39  65  97 130 170 217 266 321 382
#     4  12  24  40  67  98 130 170 219 267 324 389
#     4  10  22  40  65  94 131 170 213 264 320 383
#     4  11  24  43  65  94 133 174 217 268 325 385
#
# _framework density 21.958877000000001
#
# number of rings (size 3 to 8) (size 9 to 14) (size 15 to 20)
#    0.000    0.667    3.333    5.500    0.000    2.667 
#    0.000    5.000    0.000    0.000    0.000    0.000 
#    0.000    0.000    0.000    0.000    0.000    0.000 
#
# Total GULP energy -134385.310305 kJ/mol
# GULP energy per Si atom -5599.387929 kJ/mol
# Density = 2.190890 g / cm^3
# Si number density = 21.958877 Si / 1000 Ang^3
#
#
#
# Elastic Constant Matrix: (Units=GPa)
#
#
# Indices 1 2 3 4 5 6 
#
# 1 79.6236 -6.9622 3.3549 0.0000 0.0000 0.0000
# 2 -6.9622 67.6213 -17.4446 0.0000 0.0000 0.0000
# 3 3.3549 -17.4446 20.5251 0.0000 0.0000 0.0000
# 4 0.0000 0.0000 0.0000 10.3856 0.0000 0.0000
# 5 0.0000 0.0000 0.0000 0.0000 32.3135 0.0000
# 6 0.0000 0.0000 0.0000 0.0000 0.0000 31.3960
#
#
#
# Elastic Compliance Matrix: (Units=1/GPa)
#
#
# Indices 1 2 3 4 5 6 
#
# 1 0.012698 0.000989 -0.001235 0.000000 0.000000 0.000000
# 2 0.000989 0.019018 0.016002 0.000000 0.000000 0.000000
# 3 -0.001235 0.016002 0.062523 0.000000 0.000000 0.000000
# 4 0.000000 0.000000 0.000000 0.096287 0.000000 0.000000
# 5 0.000000 0.000000 0.000000 0.000000 0.030947 0.000000
# 6 0.000000 0.000000 0.000000 0.000000 0.000000 0.031851
#
#
# Mechanical properties :
#
#
# Convention : Reuss Voigt Hill
#
# Bulk Modulus (GPa) = 7.95224 13.96292 10.95758
# Shear Modulus (GPa) = 18.95882 27.40715 23.18299
#
# Velocity S-wave (km/s) = 2.94152 3.53670 3.25275
# Velocity P-wave (km/s) = 3.89435 4.80105 4.37128
#
# Compressibility (1/GPa) = 0.12575066
#
# Stress axis : x y z
#
# Youngs Moduli (GPa) = 78.75514 52.58119 15.99402
#
# Poissons Ratio (x) = -0.05199 0.01976
# Poissons Ratio (y) = -0.07786 -0.25594
# Poissons Ratio (z) = 0.09728 -0.84142
#
# Static dielectric constant tensor:
#      x y z
#    x 1.735290 0.000000 0.000000 
#    y 0.000000 1.809810 0.000000 
#    z 0.000000 0.000000 1.841240 
# 
# From -- ./inp_files/13493.got.cif
#   From: 2010.05.17/outbox.cif.g08.bks.cpg/sg36_7_cif.got.tgz:13493.got - 2010.06.03 17:41:39.
