data_PCOD9352593
_publ_section_title
;
Structure prediction by ZEFSAII (Michael W. Deem and Ramdas Pophale) SiO2 
 PCOD9352593
Probable space group: C M C 21
;
_chemical_formula_sum "Si O2"
_cell_formula_units_Z 48
_cell_length_a 8.355813
_cell_length_b 27.446129
_cell_length_c 10.224448
_cell_angle_alpha 90.000000
_cell_angle_beta 90.000000
_cell_angle_gamma 90.000000
_cell_volume 2344.820935
_symmetry_space_group_name_H-M "C M C 21"
_symmetry_group_IT_number 36
_symmetry_cell_setting 'orthorhombic'
loop_
_space_group_symop_operation_xyz
x,y,z
-x,-y,1/2+z
x,-y,1/2+z
-x,y,z
1/2+x,1/2+y,z
1/2-x,1/2-y,1/2+z
1/2+x,1/2-y,1/2+z
1/2-x,1/2+y,z
loop_
_atom_site_type_symbol
_atom_site_label
_atom_site_fract_x
_atom_site_fract_y
_atom_site_fract_z
Si Si1 0.815542 0.969244 0.918230
Si Si2 0.809357 0.637320 0.479434
Si Si3 0.805524 0.286223 0.760707
Si Si4 0.191524 0.174215 0.754738
Si Si5 0.693677 0.141385 0.033337
Si Si6 0.813014 0.463950 0.640430
O O1 0.773809 0.912496 0.936422
O O2 0.779057 0.981974 0.768183
O O3 0.000000 0.978247 0.949031
O O4 0.711578 0.000551 0.018575
O O5 0.755813 0.681829 0.385934
O O6 0.769592 0.649463 0.628772
O O7 0.000000 0.631323 0.462286
O O8 0.751673 0.230494 0.763596
O O9 0.755772 0.314924 0.629919
O O10 0.000000 0.285470 0.761459
O O11 0.236447 0.148222 0.889729
O O12 0.000000 0.173745 0.738062
O O13 0.500000 0.141740 0.024832
O O14 0.741089 0.090069 0.097849
O O15 0.000000 0.460819 0.675443
#
# Coordination Sequence:
#
# PCOD9352593 Si02
#       6
#     8   8   8   8   8   8
#     4  12  26  44  67  98 131 161 205 268 324 370
#     4  11  22  42  66  90 125 171 216 255 309 383
#     4   9  19  39  64  90 123 163 212 263 310 370
#     4  11  23  37  59  95 132 164 206 263 318 365
#     4  10  21  41  65  89 122 166 212 254 304 375
#     4  11  24  45  71  94 123 169 215 255 313 387
#
# _framework density 20.470645000000001
#
# number of rings (size 3 to 8) (size 9 to 14) (size 15 to 20)
#    0.000    1.333    1.667    4.000    2.333    1.333 
#    0.000    3.333    0.000    0.000    0.000    0.000 
#    0.000    0.000    0.000    0.000    0.000    0.000 
#
# Total GULP energy -134256.198285 kJ/mol
# GULP energy per Si atom -5594.008262 kJ/mol
# Density = 2.042405 g / cm^3
# Si number density = 20.470645 Si / 1000 Ang^3
#
#
#
# Elastic Constant Matrix: (Units=GPa)
#
#
# Indices 1 2 3 4 5 6 
#
# 1 21.4580 -7.3300 -8.8900 0.0000 0.0000 0.0000
# 2 -7.3300 41.2226 2.0212 0.0000 0.0000 0.0000
# 3 -8.8900 2.0212 110.0295 0.0000 0.0000 0.0000
# 4 0.0000 0.0000 0.0000 37.6855 0.0000 0.0000
# 5 0.0000 0.0000 0.0000 0.0000 47.9966 0.0000
# 6 0.0000 0.0000 0.0000 0.0000 0.0000 20.9620
#
#
#
# Elastic Compliance Matrix: (Units=1/GPa)
#
#
# Indices 1 2 3 4 5 6 
#
# 1 0.051301 0.008927 0.003981 0.000000 0.000000 0.000000
# 2 0.008927 0.025834 0.000247 0.000000 0.000000 0.000000
# 3 0.003981 0.000247 0.009406 0.000000 0.000000 0.000000
# 4 0.000000 0.000000 0.000000 0.026535 0.000000 0.000000
# 5 0.000000 0.000000 0.000000 0.000000 0.020835 0.000000
# 6 0.000000 0.000000 0.000000 0.000000 0.000000 0.047705
#
#
# Mechanical properties :
#
#
# Convention : Reuss Voigt Hill
#
# Bulk Modulus (GPa) = 8.86131 16.03474 12.44803
# Shear Modulus (GPa) = 25.91696 33.78941 29.85318
#
# Velocity S-wave (km/s) = 3.56203 4.06720 3.82297
# Velocity P-wave (km/s) = 4.61038 5.46866 5.05775
#
# Compressibility (1/GPa) = 0.11285007
#
# Stress axis : x y z
#
# Youngs Moduli (GPa) = 19.49261 38.70905 106.31978
#
# Poissons Ratio (x) = -0.34555 -0.42326
# Poissons Ratio (y) = -0.17401 -0.02623
# Poissons Ratio (z) = -0.07760 -0.00955
#
# Static dielectric constant tensor:
#      x y z
#    x 1.690700 0.000000 0.000000 
#    y 0.000000 1.709640 0.000000 
#    z 0.000000 0.000000 1.690870 
# 
# From -- ./inp_files/2678.got.cif
#   From: 2010.05.17/outbox.cif.g08.bks.cpg/sg36_2_cif.got.tgz:2678.got - 2010.06.03 17:41:39.
