data_PCOD9352920
_publ_section_title
;
Structure prediction by ZEFSAII (Michael W. Deem and Ramdas Pophale) SiO2 
 PCOD9352920
Probable space group: C M C 21
;
_chemical_formula_sum "Si O2"
_cell_formula_units_Z 40
_cell_length_a 25.502238
_cell_length_b 4.882349
_cell_length_c 12.942974
_cell_angle_alpha 90.000000
_cell_angle_beta 90.000000
_cell_angle_gamma 90.000000
_cell_volume 1611.540386
_symmetry_space_group_name_H-M "C M C 21"
_symmetry_group_IT_number 36
_symmetry_cell_setting 'orthorhombic'
loop_
_space_group_symop_operation_xyz
x,y,z
-x,-y,1/2+z
x,-y,1/2+z
-x,y,z
1/2+x,1/2+y,z
1/2-x,1/2-y,1/2+z
1/2+x,1/2-y,1/2+z
1/2-x,1/2+y,z
loop_
_atom_site_type_symbol
_atom_site_label
_atom_site_fract_x
_atom_site_fract_y
_atom_site_fract_z
Si Si1 0.286767 0.698900 0.413680
Si Si2 0.439000 0.504547 0.114054
Si Si3 0.128165 0.173330 0.804307
Si Si4 0.283868 0.712726 0.656162
Si Si5 0.937932 0.508625 0.970897
O O1 0.237174 0.497227 0.392533
O O2 0.336543 0.555140 0.361922
O O3 0.297707 0.717872 0.535999
O O4 0.500000 0.447249 0.131174
O O5 0.411060 0.464758 0.222780
O O6 0.432531 0.805881 0.068544
O O7 0.423769 0.302075 0.019290
O O8 0.169136 0.314915 0.726075
O O9 0.098359 0.379308 0.881478
O O10 0.266812 0.400453 0.674885
O O11 0.000000 0.510086 0.939271
#
# Coordination Sequence:
#
# PCOD9352920 Si02
#       5
#     8   8   8   8   8
#     4  10  23  41  60  89 129 166 206 258 312 370
#     4  10  24  44  64  93 130 164 207 265 324 383
#     4  12  23  40  70  96 122 170 221 260 316 384
#     4  10  23  41  60  89 129 166 206 258 312 370
#     4  10  24  44  64  93 130 164 207 265 324 383
#
# _framework density 24.820972000000001
#
# number of rings (size 3 to 8) (size 9 to 14) (size 15 to 20)
#    0.000    1.600    0.000    3.000    0.000   12.800 
#    0.000    6.000    0.000    0.000    0.000    0.000 
#    0.000    0.000    0.000    0.000    0.000    0.000 
#
# Total GULP energy -111993.214243 kJ/mol
# GULP energy per Si atom -5599.660712 kJ/mol
# Density = 2.476448 g / cm^3
# Si number density = 24.820972 Si / 1000 Ang^3
#
#
#
# Elastic Constant Matrix: (Units=GPa)
#
#
# Indices 1 2 3 4 5 6 
#
# 1 108.3577 4.8679 57.9753 0.0000 0.0000 0.0000
# 2 4.8679 67.8847 -5.6824 0.0000 0.0000 0.0000
# 3 57.9753 -5.6824 131.0710 0.0000 0.0000 0.0000
# 4 0.0000 0.0000 0.0000 20.6338 0.0000 0.0000
# 5 0.0000 0.0000 0.0000 0.0000 65.1572 0.0000
# 6 0.0000 0.0000 0.0000 0.0000 0.0000 25.2884
#
#
#
# Elastic Compliance Matrix: (Units=1/GPa)
#
#
# Indices 1 2 3 4 5 6 
#
# 1 0.012209 -0.001332 -0.005458 0.000000 0.000000 0.000000
# 2 -0.001332 0.014930 0.001237 0.000000 0.000000 0.000000
# 3 -0.005458 0.001237 0.010097 0.000000 0.000000 0.000000
# 4 0.000000 0.000000 0.000000 0.048464 0.000000 0.000000
# 5 0.000000 0.000000 0.000000 0.000000 0.015347 0.000000
# 6 0.000000 0.000000 0.000000 0.000000 0.000000 0.039544
#
#
# Mechanical properties :
#
#
# Convention : Reuss Voigt Hill
#
# Bulk Modulus (GPa) = 38.27239 46.84835 42.56037
# Shear Modulus (GPa) = 31.17048 38.89273 35.03160
#
# Velocity S-wave (km/s) = 3.54759 3.96274 3.76090
# Velocity P-wave (km/s) = 5.67744 6.31294 6.00361
#
# Compressibility (1/GPa) = 0.02612850
#
# Stress axis : x y z
#
# Youngs Moduli (GPa) = 81.90851 66.97960 99.03724
#
# Poissons Ratio (x) = 0.08924 0.54054
# Poissons Ratio (y) = 0.10913 -0.12247
# Poissons Ratio (z) = 0.44705 -0.08283
#
# Static dielectric constant tensor:
#      x y z
#    x 1.992990 0.000000 0.000000 
#    y 0.000000 1.920650 0.000000 
#    z 0.000000 0.000000 1.975930 
# 
# From -- ./inp_files/13015.got.cif
#   From: 2010.05.17/outbox.cif.g08.bks.cpg/sg36_7_cif.got.tgz:13015.got - 2010.06.03 17:41:39.
