data_PCOD9352795
_publ_section_title
;
Structure prediction by ZEFSAII (Michael W. Deem and Ramdas Pophale) SiO2 
 PCOD9352795
Probable space group: C M C 21
;
_chemical_formula_sum "Si O2"
_cell_formula_units_Z 64
_cell_length_a 8.782879
_cell_length_b 24.033164
_cell_length_c 15.249505
_cell_angle_alpha 90.000000
_cell_angle_beta 90.000000
_cell_angle_gamma 90.000000
_cell_volume 3218.871179
_symmetry_space_group_name_H-M "C M C 21"
_symmetry_group_IT_number 36
_symmetry_cell_setting 'orthorhombic'
loop_
_space_group_symop_operation_xyz
x,y,z
-x,-y,1/2+z
x,-y,1/2+z
-x,y,z
1/2+x,1/2+y,z
1/2-x,1/2-y,1/2+z
1/2+x,1/2-y,1/2+z
1/2-x,1/2+y,z
loop_
_atom_site_type_symbol
_atom_site_label
_atom_site_fract_x
_atom_site_fract_y
_atom_site_fract_z
Si Si1 0.171984 0.623345 0.201510
Si Si2 0.818095 0.302701 0.166703
Si Si3 0.178931 0.258707 0.498949
Si Si4 0.817099 0.926117 0.156093
Si Si5 0.816399 0.000036 0.486596
Si Si6 0.823127 0.872843 0.523181
Si Si7 0.822732 0.730737 0.321149
Si Si8 0.322563 0.006065 0.298375
O O1 0.296374 0.631654 0.127122
O O2 0.184350 0.671573 0.272701
O O3 0.188044 0.563220 0.244257
O O4 0.000000 0.627635 0.162608
O O5 0.757161 0.365328 0.154325
O O6 0.747308 0.275594 0.254228
O O7 0.000000 0.302281 0.171962
O O8 0.763646 0.265851 0.083852
O O9 0.225994 0.322850 0.483851
O O10 0.232562 0.227863 0.411615
O O11 0.000000 0.253550 0.513502
O O12 0.000000 0.921021 0.155342
O O13 0.765475 0.959224 0.243048
O O14 0.770634 0.962594 0.070338
O O15 0.774158 0.935250 0.499642
O O16 0.000000 0.002788 0.481514
O O17 0.744836 0.016960 0.394389
O O18 0.000000 0.865745 0.500268
O O19 0.000000 0.744110 0.338166
O O20 0.500000 0.990432 0.305331
#
# Coordination Sequence:
#
# PCOD9352795 Si02
#       8
#     8   8   8   8   8   8   8   8
#     4  10  22  41  66  95 128 165 211 267 327 384
#     4  12  26  45  67  96 131 171 217 269 326 387
#     4  12  26  44  66  97 132 173 217 265 322 387
#     4  11  24  45  67  93 130 173 216 265 322 385
#     4  10  24  43  65  95 128 169 216 263 320 381
#     4  11  22  41  68  95 125 167 216 270 322 378
#     4  11  24  44  68  97 131 171 216 267 323 385
#     4  11  24  41  65  98 131 169 213 264 322 383
#
# _framework density 19.882746000000001
#
# number of rings (size 3 to 8) (size 9 to 14) (size 15 to 20)
#    0.000    1.000    2.500    3.750    3.500    3.000 
#    0.000    0.000    0.000    0.000    0.000    0.000 
#    0.000    0.000    0.000    0.000    0.000    0.000 
#
# Total GULP energy -178964.780823 kJ/mol
# GULP energy per Si atom -5592.649401 kJ/mol
# Density = 1.983749 g / cm^3
# Si number density = 19.882746 Si / 1000 Ang^3
#
#
#
# Elastic Constant Matrix: (Units=GPa)
#
#
# Indices 1 2 3 4 5 6 
#
# 1 62.2903 27.8085 -3.1315 0.0000 0.0000 0.0000
# 2 27.8085 72.3122 -14.9864 0.0000 0.0000 0.0000
# 3 -3.1315 -14.9864 48.9940 0.0000 0.0000 0.0000
# 4 0.0000 0.0000 0.0000 14.7584 0.0000 0.0000
# 5 0.0000 0.0000 0.0000 0.0000 30.0574 0.0000
# 6 0.0000 0.0000 0.0000 0.0000 0.0000 22.4549
#
#
#
# Elastic Compliance Matrix: (Units=1/GPa)
#
#
# Indices 1 2 3 4 5 6 
#
# 1 0.019438 -0.007706 -0.001115 0.000000 0.000000 0.000000
# 2 -0.007706 0.017820 0.004958 0.000000 0.000000 0.000000
# 3 -0.001115 0.004958 0.021856 0.000000 0.000000 0.000000
# 4 0.000000 0.000000 0.000000 0.067758 0.000000 0.000000
# 5 0.000000 0.000000 0.000000 0.000000 0.033270 0.000000
# 6 0.000000 0.000000 0.000000 0.000000 0.000000 0.044534
#
#
# Mechanical properties :
#
#
# Convention : Reuss Voigt Hill
#
# Bulk Modulus (GPa) = 19.45950 22.55309 21.00630
# Shear Modulus (GPa) = 21.78360 25.04787 23.41573
#
# Velocity S-wave (km/s) = 3.31358 3.55319 3.43547
# Velocity P-wave (km/s) = 4.94451 5.31048 5.13076
#
# Compressibility (1/GPa) = 0.05138877
#
# Stress axis : x y z
#
# Youngs Moduli (GPa) = 51.44530 56.11668 45.75390
#
# Poissons Ratio (x) = 0.43245 0.05101
# Poissons Ratio (y) = 0.39645 -0.22686
# Poissons Ratio (z) = 0.05735 -0.27824
#
# Static dielectric constant tensor:
#      x y z
#    x 1.680090 0.000000 0.000000 
#    y 0.000000 1.701800 0.000000 
#    z 0.000000 0.000000 1.674750 
# 
# From -- ./inp_files/10984.got.cif
#   From: 2010.05.17/outbox.cif.g08.bks.cpg/sg36_6_cif.got.tgz:10984.got - 2010.06.03 17:41:39.
