data_PCOD9352297
_publ_section_title
;
Structure prediction by ZEFSAII (Michael W. Deem and Ramdas Pophale) SiO2 
 PCOD9352297
Probable space group: C M C 21
;
_chemical_formula_sum "Si O2"
_cell_formula_units_Z 48
_cell_length_a 14.686366
_cell_length_b 18.929781
_cell_length_c 7.867902
_cell_angle_alpha 90.000000
_cell_angle_beta 90.000000
_cell_angle_gamma 90.000000
_cell_volume 2187.353012
_symmetry_space_group_name_H-M "C M C 21"
_symmetry_group_IT_number 36
_symmetry_cell_setting 'orthorhombic'
loop_
_space_group_symop_operation_xyz
x,y,z
-x,-y,1/2+z
x,-y,1/2+z
-x,y,z
1/2+x,1/2+y,z
1/2-x,1/2-y,1/2+z
1/2+x,1/2-y,1/2+z
1/2-x,1/2+y,z
loop_
_atom_site_type_symbol
_atom_site_label
_atom_site_fract_x
_atom_site_fract_y
_atom_site_fract_z
Si Si1 0.500000 0.655657 0.380471
Si Si2 0.803412 0.969936 0.217667
Si Si3 0.000000 0.760996 0.389493
Si Si4 0.802149 0.890104 0.854994
Si Si5 0.692810 0.229826 0.544361
Si Si6 0.000000 0.687977 0.019410
Si Si7 0.194063 0.648930 0.902417
Si Si8 0.000000 0.917334 0.253119
O O1 0.596734 0.635001 0.302232
O O2 0.500000 0.739407 0.410839
O O3 0.500000 0.614959 0.562253
O O4 0.739901 0.922924 0.339149
O O5 0.908401 0.961846 0.280217
O O6 0.771316 0.050767 0.221994
O O7 0.804967 0.935645 0.031240
O O8 0.090324 0.740648 0.487382
O O9 0.000000 0.845433 0.361385
O O10 0.000000 0.718690 0.210752
O O11 0.741578 0.824470 0.913934
O O12 0.745761 0.303960 0.530553
O O13 0.695487 0.195186 0.728711
O O14 0.091951 0.646187 0.974593
#
# Coordination Sequence:
#
# PCOD9352297 Si02
#       8
#     4   8   4   8   8   4   8   4
#     4   9  17  34  56  83 118 150 179 231 293 339
#     4  10  21  37  57  83 119 154 190 237 288 345
#     4  11  21  38  61  87 119 151 193 246 294 341
#     4  10  21  37  57  83 119 154 190 237 288 345
#     4  11  22  38  60  87 118 154 196 242 289 345
#     4  11  21  38  61  87 119 151 193 246 294 341
#     4  11  22  38  60  87 118 154 196 242 289 345
#     4   9  17  34  56  83 118 150 179 231 293 339
#
# _framework density 21.944331999999999
#
# number of rings (size 3 to 8) (size 9 to 14) (size 15 to 20)
#    0.000    1.667    3.333    2.000    0.000    2.667 
#    0.000    0.833    0.000    0.000    0.000    0.000 
#    0.000    0.000    0.000    0.000    0.000    0.000 
#
# Total GULP energy -134282.765959 kJ/mol
# GULP energy per Si atom -5595.115248 kJ/mol
# Density = 2.189439 g / cm^3
# Si number density = 21.944332 Si / 1000 Ang^3
#
#
#
# Elastic Constant Matrix: (Units=GPa)
#
#
# Indices 1 2 3 4 5 6 
#
# 1 132.7436 21.8589 11.6217 0.0000 0.0000 0.0000
# 2 21.8589 83.5743 -0.1790 0.0000 0.0000 0.0000
# 3 11.6217 -0.1790 74.6173 0.0000 0.0000 0.0000
# 4 0.0000 0.0000 0.0000 37.5596 0.0000 0.0000
# 5 0.0000 0.0000 0.0000 0.0000 12.1478 0.0000
# 6 0.0000 0.0000 0.0000 0.0000 0.0000 2.6299
#
#
#
# Elastic Compliance Matrix: (Units=1/GPa)
#
#
# Indices 1 2 3 4 5 6 
#
# 1 0.007987 -0.002092 -0.001249 0.000000 0.000000 0.000000
# 2 -0.002092 0.012513 0.000356 0.000000 0.000000 0.000000
# 3 -0.001249 0.000356 0.013597 0.000000 0.000000 0.000000
# 4 0.000000 0.000000 0.000000 0.026624 0.000000 0.000000
# 5 0.000000 0.000000 0.000000 0.000000 0.082320 0.000000
# 6 0.000000 0.000000 0.000000 0.000000 0.000000 0.380245
#
#
# Mechanical properties :
#
#
# Convention : Reuss Voigt Hill
#
# Bulk Modulus (GPa) = 35.55226 39.72651 37.63939
# Shear Modulus (GPa) = 9.28277 27.64302 18.46290
#
# Velocity S-wave (km/s) = 2.05896 3.55306 2.90375
# Velocity P-wave (km/s) = 4.67854 5.91396 5.33215
#
# Compressibility (1/GPa) = 0.02812761
#
# Stress axis : x y z
#
# Youngs Moduli (GPa) = 125.20170 79.91528 73.54509
#
# Poissons Ratio (x) = 0.16716 0.09186
# Poissons Ratio (y) = 0.26189 -0.02617
# Poissons Ratio (z) = 0.15638 -0.02843
#
# Static dielectric constant tensor:
#      x y z
#    x 1.766030 0.000000 0.000000 
#    y 0.000000 1.786290 0.000000 
#    z 0.000000 0.000000 1.878970 
# 
# From -- ./inp_files/4111.got.cif
#   From: 2010.05.17/outbox.cif.g08.bks.cpg/sg36_3_cif.got.tgz:4111.got - 2010.06.03 17:41:39.
