data_PCOD9352846
_publ_section_title
;
Structure prediction by ZEFSAII (Michael W. Deem and Ramdas Pophale) SiO2 
 PCOD9352846
Probable space group: C M C 21
;
_chemical_formula_sum "Si O2"
_cell_formula_units_Z 40
_cell_length_a 14.647129
_cell_length_b 7.252341
_cell_length_c 14.635312
_cell_angle_alpha 90.000000
_cell_angle_beta 90.000000
_cell_angle_gamma 90.000000
_cell_volume 1554.650275
_symmetry_space_group_name_H-M "C M C 21"
_symmetry_group_IT_number 36
_symmetry_cell_setting 'orthorhombic'
loop_
_space_group_symop_operation_xyz
x,y,z
-x,-y,1/2+z
x,-y,1/2+z
-x,y,z
1/2+x,1/2+y,z
1/2-x,1/2-y,1/2+z
1/2+x,1/2-y,1/2+z
1/2-x,1/2+y,z
loop_
_atom_site_type_symbol
_atom_site_label
_atom_site_fract_x
_atom_site_fract_y
_atom_site_fract_z
Si Si1 0.139471 0.953892 0.766220
Si Si2 0.901145 0.770600 0.421766
Si Si3 0.337975 0.056063 0.810453
Si Si4 0.603949 0.345264 0.083995
Si Si5 0.783639 0.527378 0.009996
O O1 0.111946 0.044312 0.862587
O O2 0.249133 0.979827 0.759371
O O3 0.098429 0.069560 0.684364
O O4 0.120082 0.736133 0.765021
O O5 0.899055 0.614527 0.340446
O O6 0.833056 0.669521 0.492686
O O7 0.000000 0.777106 0.466438
O O8 0.298131 0.121584 0.909838
O O9 0.500000 0.330972 0.046961
O O10 0.680021 0.477239 0.036166
O O11 0.654861 0.148144 0.077874
#
# Coordination Sequence:
#
# PCOD9352846 Si02
#       5
#     8   8   8   8   8
#     4  12  21  42  73 104 141 187 244 299 366 431
#     4  10  23  42  71 108 139 188 250 298 359 436
#     4  10  22  42  72  99 136 194 240 302 355 427
#     4  12  26  46  72 108 149 195 239 302 382 442
#     4  10  24  46  72  99 147 190 237 305 356 434
#
# _framework density 25.729261000000001
#
# number of rings (size 3 to 8) (size 9 to 14) (size 15 to 20)
#    1.200    0.000    2.000    4.800    0.000    1.600 
#    0.000    8.000    0.000    0.000    0.000    0.000 
#    0.000    0.000    0.000    0.000    0.000    0.000 
#
# Total GULP energy -111691.180267 kJ/mol
# GULP energy per Si atom -5584.559013 kJ/mol
# Density = 2.567070 g / cm^3
# Si number density = 25.729261 Si / 1000 Ang^3
#
#
#
# Elastic Constant Matrix: (Units=GPa)
#
#
# Indices 1 2 3 4 5 6 
#
# 1 177.2799 10.3158 27.7087 0.0000 0.0000 0.0000
# 2 10.3158 129.6915 1.3659 0.0000 0.0000 0.0000
# 3 27.7087 1.3659 68.4229 0.0000 0.0000 0.0000
# 4 0.0000 0.0000 0.0000 37.8021 0.0000 0.0000
# 5 0.0000 0.0000 0.0000 0.0000 24.6709 0.0000
# 6 0.0000 0.0000 0.0000 0.0000 0.0000 14.4047
#
#
#
# Elastic Compliance Matrix: (Units=1/GPa)
#
#
# Indices 1 2 3 4 5 6 
#
# 1 0.006049 -0.000455 -0.002440 0.000000 0.000000 0.000000
# 2 -0.000455 0.007747 0.000030 0.000000 0.000000 0.000000
# 3 -0.002440 0.000030 0.015603 0.000000 0.000000 0.000000
# 4 0.000000 0.000000 0.000000 0.026454 0.000000 0.000000
# 5 0.000000 0.000000 0.000000 0.000000 0.040534 0.000000
# 6 0.000000 0.000000 0.000000 0.000000 0.000000 0.069422
#
#
# Mechanical properties :
#
#
# Convention : Reuss Voigt Hill
#
# Bulk Modulus (GPa) = 42.25503 50.46389 46.35946
# Shear Modulus (GPa) = 27.86642 37.77582 32.82112
#
# Velocity S-wave (km/s) = 3.29456 3.83587 3.57548
# Velocity P-wave (km/s) = 5.56155 6.26694 5.92475
#
# Compressibility (1/GPa) = 0.02366582
#
# Stress axis : x y z
#
# Youngs Moduli (GPa) = 165.32388 129.09030 64.09163
#
# Poissons Ratio (x) = 0.05879 0.15641
# Poissons Ratio (y) = 0.07529 -0.00191
# Poissons Ratio (z) = 0.40346 -0.00385
#
# Static dielectric constant tensor:
#      x y z
#    x 2.144230 0.000000 0.000000 
#    y 0.000000 2.091450 0.000000 
#    z 0.000000 0.000000 2.126130 
# 
# From -- ./inp_files/11954.got.cif
#   From: 2010.05.17/outbox.cif.g08.bks.cpg/sg36_6_cif.got.tgz:11954.got - 2010.06.03 17:41:39.
