data_PCOD9352252
_publ_section_title
;
Structure prediction by ZEFSAII (Michael W. Deem and Ramdas Pophale) SiO2 
 PCOD9352252
Probable space group: C M C 21
;
_chemical_formula_sum "Si O2"
_cell_formula_units_Z 48
_cell_length_a 8.484351
_cell_length_b 19.498879
_cell_length_c 15.672715
_cell_angle_alpha 90.000000
_cell_angle_beta 90.000000
_cell_angle_gamma 90.000000
_cell_volume 2592.820834
_symmetry_space_group_name_H-M "C M C 21"
_symmetry_group_IT_number 36
_symmetry_cell_setting 'orthorhombic'
loop_
_space_group_symop_operation_xyz
x,y,z
-x,-y,1/2+z
x,-y,1/2+z
-x,y,z
1/2+x,1/2+y,z
1/2-x,1/2-y,1/2+z
1/2+x,1/2-y,1/2+z
1/2-x,1/2+y,z
loop_
_atom_site_type_symbol
_atom_site_label
_atom_site_fract_x
_atom_site_fract_y
_atom_site_fract_z
Si Si1 0.187406 0.922049 0.348510
Si Si2 0.690661 0.079496 0.658970
Si Si3 0.190806 0.424896 0.848599
Si Si4 0.309293 0.173453 0.501622
Si Si5 0.691517 0.922551 0.654711
Si Si6 0.310992 0.171953 0.999774
O O1 0.243726 0.905165 0.252624
O O2 0.254343 0.868801 0.416627
O O3 0.000000 0.921655 0.351622
O O4 0.249330 0.998708 0.368294
O O5 0.500000 0.080378 0.663692
O O6 0.741274 0.132480 0.586446
O O7 0.737688 0.001296 0.635818
O O8 0.242163 0.370156 0.918933
O O9 0.241132 0.406983 0.751892
O O10 0.000000 0.427592 0.849533
O O11 0.500000 0.174682 0.501115
O O12 0.248290 0.250472 0.500184
O O13 0.500000 0.920905 0.653791
O O14 0.747157 0.869802 0.583260
O O15 0.500000 0.171780 0.001069
#
# Coordination Sequence:
#
# PCOD9352252 Si02
#       6
#     8   8   8   8   8   8
#     4  11  22  36  56  82 109 140 185 234 275 318
#     4   9  18  36  59  80 105 141 184 226 274 329
#     4   9  18  37  61  81 106 141 180 222 273 331
#     4  10  21  36  56  83 114 147 181 221 271 329
#     4   8  16  33  58  81 100 135 183 221 261 321
#     4  11  22  36  54  79 114 152 185 220 270 328
#
# _framework density 18.512657999999998
#
# number of rings (size 3 to 8) (size 9 to 14) (size 15 to 20)
#    0.000    2.333    0.000    4.000    0.000    5.333 
#    0.000   11.667    0.000    0.000    0.000    0.000 
#    0.000    0.000    0.000    0.000    0.000    0.000 
#
# Total GULP energy -133983.989068 kJ/mol
# GULP energy per Si atom -5582.666211 kJ/mol
# Density = 1.847052 g / cm^3
# Si number density = 18.512658 Si / 1000 Ang^3
#
#
#
# Elastic Constant Matrix: (Units=GPa)
#
#
# Indices 1 2 3 4 5 6 
#
# 1 24.2385 32.2838 32.2776 0.0000 0.0000 0.0000
# 2 32.2838 181.6038 149.7365 0.0000 0.0000 0.0000
# 3 32.2776 149.7365 166.6065 0.0000 0.0000 0.0000
# 4 0.0000 0.0000 0.0000 -4.3679 0.0000 0.0000
# 5 0.0000 0.0000 0.0000 0.0000 12.4579 0.0000
# 6 0.0000 0.0000 0.0000 0.0000 0.0000 31.6000
#
#
#
# Elastic Compliance Matrix: (Units=1/GPa)
#
#
# Indices 1 2 3 4 5 6 
#
# 1 0.056315 -0.003921 -0.007386 0.000000 0.000000 0.000000
# 2 -0.003921 0.021536 -0.018596 0.000000 0.000000 0.000000
# 3 -0.007386 -0.018596 0.024146 0.000000 0.000000 0.000000
# 4 0.000000 0.000000 0.000000 -0.228941 0.000000 0.000000
# 5 0.000000 0.000000 0.000000 0.000000 0.080270 0.000000
# 6 0.000000 0.000000 0.000000 0.000000 0.000000 0.031646
#
#
# Mechanical properties :
#
#
# Convention : Reuss Voigt Hill
#
# Bulk Modulus (GPa) = 23.70165 89.00494 56.35329
# Shear Modulus (GPa) = 84.97145 18.48139 51.72642
#
# Velocity S-wave (km/s) = 6.78224 3.16303 5.29167
# Velocity P-wave (km/s) = 8.61176 7.84359 8.23664
#
# Compressibility (1/GPa) = 0.04219116
#
# Stress axis : x y z
#
# Youngs Moduli (GPa) = 17.75719 46.43300 41.41439
#
# Poissons Ratio (x) = 0.18207 0.30589
# Poissons Ratio (y) = 0.06963 0.77014
# Poissons Ratio (z) = 0.13116 0.86347
#
# Static dielectric constant tensor:
#      x y z
#    x 1.637490 0.000000 0.000000 
#    y 0.000000 1.601960 0.000000 
#    z 0.000000 0.000000 1.637220 
# 
# From -- ./inp_files/10365.got.cif
#   From: 2010.05.17/outbox.cif.g08.bks.cpg/sg36_6_cif.got.tgz:10365.got - 2010.06.03 17:41:39.
