data_PCOD9352687
_publ_section_title
;
Structure prediction by ZEFSAII (Michael W. Deem and Ramdas Pophale) SiO2 
 PCOD9352687
Probable space group: C M C 21
;
_chemical_formula_sum "Si O2"
_cell_formula_units_Z 40
_cell_length_a 14.497346
_cell_length_b 22.269463
_cell_length_c 5.341162
_cell_angle_alpha 90.000000
_cell_angle_beta 90.000000
_cell_angle_gamma 90.000000
_cell_volume 1724.384059
_symmetry_space_group_name_H-M "C M C 21"
_symmetry_group_IT_number 36
_symmetry_cell_setting 'orthorhombic'
loop_
_space_group_symop_operation_xyz
x,y,z
-x,-y,1/2+z
x,-y,1/2+z
-x,y,z
1/2+x,1/2+y,z
1/2-x,1/2-y,1/2+z
1/2+x,1/2-y,1/2+z
1/2-x,1/2+y,z
loop_
_atom_site_type_symbol
_atom_site_label
_atom_site_fract_x
_atom_site_fract_y
_atom_site_fract_z
Si Si1 0.500000 0.432873 0.930910
Si Si2 0.160674 0.782730 0.214648
Si Si3 0.000000 0.146288 0.938615
Si Si4 0.797036 0.651658 0.418733
Si Si5 0.500000 0.238895 0.919419
Si Si6 0.295580 0.468798 0.862099
Si Si7 0.500000 0.840812 0.925579
O O1 0.500000 0.387207 0.698608
O O2 0.500000 0.398616 0.198213
O O3 0.406166 0.469582 0.894456
O O4 0.194879 0.716049 0.279936
O O5 0.244889 0.827425 0.169791
O O6 0.093436 0.775888 0.972656
O O7 0.090249 0.812296 0.409046
O O8 0.735935 0.598975 0.305863
O O9 0.901178 0.627746 0.447371
O O10 0.500000 0.192143 0.155065
O O11 0.500000 0.205453 0.658061
O O12 0.262116 0.489845 0.135098
#
# Coordination Sequence:
#
# PCOD9352687 Si02
#       7
#     4   8   4   8   4   8   4
#     4  12  24  48  72 106 145 185 228 291 360 432
#     4  10  22  38  67 109 142 185 225 294 364 440
#     4  11  24  41  72 111 148 181 222 283 374 452
#     4  11  24  42  70 104 143 188 239 295 358 416
#     4   9  20  38  58  97 141 177 218 267 362 433
#     4  12  28  49  73 102 140 192 247 289 342 419
#     4  10  22  41  62  92 136 179 224 293 344 407
#
# _framework density 23.196688000000002
#
# number of rings (size 3 to 8) (size 9 to 14) (size 15 to 20)
#    0.000    1.200    2.000    3.600    2.800    9.600 
#    0.000    1.000    0.000    0.000    0.000    0.000 
#    0.000    0.000    0.000    0.000    0.000    0.000 
#
# Total GULP energy -111842.079540 kJ/mol
# GULP energy per Si atom -5592.103977 kJ/mol
# Density = 2.314389 g / cm^3
# Si number density = 23.196688 Si / 1000 Ang^3
#
#
#
# Elastic Constant Matrix: (Units=GPa)
#
#
# Indices 1 2 3 4 5 6 
#
# 1 116.5328 4.9312 -0.6830 0.0000 0.0000 0.0000
# 2 4.9312 74.0352 30.7174 0.0000 0.0000 0.0000
# 3 -0.6830 30.7174 127.7077 0.0000 0.0000 0.0000
# 4 0.0000 0.0000 0.0000 40.3266 0.0000 0.0000
# 5 0.0000 0.0000 0.0000 0.0000 10.7426 0.0000
# 6 0.0000 0.0000 0.0000 0.0000 0.0000 23.9465
#
#
#
# Elastic Compliance Matrix: (Units=1/GPa)
#
#
# Indices 1 2 3 4 5 6 
#
# 1 0.008610 -0.000658 0.000204 0.000000 0.000000 0.000000
# 2 -0.000658 0.015055 -0.003625 0.000000 0.000000 0.000000
# 3 0.000204 -0.003625 0.008703 0.000000 0.000000 0.000000
# 4 0.000000 0.000000 0.000000 0.024798 0.000000 0.000000
# 5 0.000000 0.000000 0.000000 0.000000 0.093087 0.000000
# 6 0.000000 0.000000 0.000000 0.000000 0.000000 0.041760
#
#
# Mechanical properties :
#
#
# Convention : Reuss Voigt Hill
#
# Bulk Modulus (GPa) = 41.30293 43.13408 42.21850
# Shear Modulus (GPa) = 24.01072 33.89049 28.95060
#
# Velocity S-wave (km/s) = 3.22078 3.82646 3.53661
# Velocity P-wave (km/s) = 5.62809 6.17719 5.90902
#
# Compressibility (1/GPa) = 0.02421136
#
# Stress axis : x y z
#
# Youngs Moduli (GPa) = 116.13955 66.42396 114.89895
#
# Poissons Ratio (x) = 0.04373 -0.02348
# Poissons Ratio (y) = 0.07645 0.41647
# Poissons Ratio (z) = -0.02374 0.24076
#
# Static dielectric constant tensor:
#      x y z
#    x 1.935180 0.000000 0.000000 
#    y 0.000000 1.840980 0.000000 
#    z 0.000000 0.000000 1.910040 
# 
# From -- ./inp_files/762.got.cif
#   From: 2010.05.17/outbox.cif.g08.bks.cpg/sg36_1_cif.got.tgz:762.got - 2010.06.03 17:41:39.
