data_PCOD9352481
_publ_section_title
;
Structure prediction by ZEFSAII (Michael W. Deem and Ramdas Pophale) SiO2 
 PCOD9352481
Probable space group: C M C 21
;
_chemical_formula_sum "Si O2"
_cell_formula_units_Z 64
_cell_length_a 14.948562
_cell_length_b 17.313285
_cell_length_c 11.287073
_cell_angle_alpha 90.000000
_cell_angle_beta 90.000000
_cell_angle_gamma 90.000000
_cell_volume 2921.192851
_symmetry_space_group_name_H-M "C M C 21"
_symmetry_group_IT_number 36
_symmetry_cell_setting 'orthorhombic'
loop_
_space_group_symop_operation_xyz
x,y,z
-x,-y,1/2+z
x,-y,1/2+z
-x,y,z
1/2+x,1/2+y,z
1/2-x,1/2-y,1/2+z
1/2+x,1/2-y,1/2+z
1/2-x,1/2+y,z
loop_
_atom_site_type_symbol
_atom_site_label
_atom_site_fract_x
_atom_site_fract_y
_atom_site_fract_z
Si Si1 0.351365 0.989420 0.707040
Si Si2 0.717567 0.818053 0.972783
Si Si3 0.104247 0.209575 0.348425
Si Si4 0.336856 0.560001 0.229920
Si Si5 0.716897 0.835924 0.225517
Si Si6 0.104000 0.189606 0.846650
Si Si7 0.594592 0.040843 0.464906
Si Si8 0.102633 0.971757 0.469386
O O1 0.312308 0.076012 0.714218
O O2 0.394774 0.982755 0.576355
O O3 0.269596 0.929700 0.716667
O O4 0.406270 0.985606 0.828911
O O5 0.822181 0.818431 0.943573
O O6 0.652168 0.766804 0.893029
O O7 0.678949 0.903626 0.970323
O O8 0.704736 0.789360 0.105013
O O9 0.113752 0.141767 0.249544
O O10 0.150095 0.291042 0.313141
O O11 0.000000 0.216934 0.380509
O O12 0.353819 0.511854 0.352368
O O13 0.364103 0.519339 0.105212
O O14 0.822398 0.836196 0.251325
O O15 0.106542 0.120066 0.941995
O O16 0.000000 0.200096 0.811988
O O17 0.500000 0.082727 0.488432
O O18 0.000000 0.998110 0.466531
#
# Coordination Sequence:
#
# PCOD9352481 Si02
#       8
#     8   8   8   8   8   8   8   8
#     4  11  23  42  66  95 134 172 216 275 327 392
#     4  10  22  41  64  93 126 172 215 277 324 388
#     4  11  24  42  66  96 128 171 220 270 328 396
#     4  12  23  41  63  94 135 171 213 269 329 388
#     4  10  23  42  65  89 128 172 217 268 330 381
#     4  10  21  39  62  92 126 169 219 265 320 391
#     4  11  23  42  68  97 129 175 224 273 331 390
#     4  11  23  37  61  94 130 174 217 263 322 394
#
# _framework density 21.908857999999999
#
# number of rings (size 3 to 8) (size 9 to 14) (size 15 to 20)
#    0.000    1.250    2.500    3.375    1.750    4.500 
#    0.000    0.000    0.000    0.000    0.000    0.000 
#    0.000    0.000    0.000    0.000    0.000    0.000 
#
# Total GULP energy -178188.890738 kJ/mol
# GULP energy per Si atom -5568.402836 kJ/mol
# Density = 2.185899 g / cm^3
# Si number density = 21.908858 Si / 1000 Ang^3
#
#
#
# Elastic Constant Matrix: (Units=GPa)
#
#
# Indices 1 2 3 4 5 6 
#
# 1 157.7579 10.8192 17.3383 0.0000 0.0000 0.0000
# 2 10.8192 38.2509 -1.7437 0.0000 0.0000 0.0000
# 3 17.3383 -1.7437 89.0399 0.0000 0.0000 0.0000
# 4 0.0000 0.0000 0.0000 19.7305 0.0000 0.0000
# 5 0.0000 0.0000 0.0000 0.0000 293.3744 0.0000
# 6 0.0000 0.0000 0.0000 0.0000 0.0000 17.3730
#
#
#
# Elastic Compliance Matrix: (Units=1/GPa)
#
#
# Indices 1 2 3 4 5 6 
#
# 1 0.006617 -0.001932 -0.001326 0.000000 0.000000 0.000000
# 2 -0.001932 0.026731 0.000900 0.000000 0.000000 0.000000
# 3 -0.001326 0.000900 0.011507 0.000000 0.000000 0.000000
# 4 0.000000 0.000000 0.000000 0.050683 0.000000 0.000000
# 5 0.000000 0.000000 0.000000 0.000000 0.003409 0.000000
# 6 0.000000 0.000000 0.000000 0.000000 0.000000 0.057560
#
#
# Mechanical properties :
#
#
# Convention : Reuss Voigt Hill
#
# Bulk Modulus (GPa) = 24.91460 37.54180 31.22820
# Shear Modulus (GPa) = 28.63639 83.33794 55.98716
#
# Velocity S-wave (km/s) = 3.61926 6.17422 5.06064
# Velocity P-wave (km/s) = 5.37234 8.24625 6.95927
#
# Compressibility (1/GPa) = 0.04013711
#
# Stress axis : x y z
#
# Youngs Moduli (GPa) = 151.12356 37.41021 86.90503
#
# Poissons Ratio (x) = 0.07228 0.11527
# Poissons Ratio (y) = 0.29198 -0.07819
# Poissons Ratio (z) = 0.20044 -0.03366
#
# Static dielectric constant tensor:
#      x y z
#    x 1.703240 0.000000 0.000000 
#    y 0.000000 1.820190 0.000000 
#    z 0.000000 0.000000 1.890820 
# 
# From -- ./inp_files/8637.got.cif
#   From: 2010.05.17/outbox.cif.g08.bks.cpg/sg36_5_cif.got.tgz:8637.got - 2010.06.03 17:41:39.
