data_PCOD9352032
_publ_section_title
;
Structure prediction by ZEFSAII (Michael W. Deem and Ramdas Pophale) SiO2 
 PCOD9352032
Probable space group: C M C 21
;
_chemical_formula_sum "Si O2"
_cell_formula_units_Z 52
_cell_length_a 18.120444
_cell_length_b 8.441300
_cell_length_c 13.666725
_cell_angle_alpha 90.000000
_cell_angle_beta 90.000000
_cell_angle_gamma 90.000000
_cell_volume 2090.463676
_symmetry_space_group_name_H-M "C M C 21"
_symmetry_group_IT_number 36
_symmetry_cell_setting 'orthorhombic'
loop_
_space_group_symop_operation_xyz
x,y,z
-x,-y,1/2+z
x,-y,1/2+z
-x,y,z
1/2+x,1/2+y,z
1/2-x,1/2-y,1/2+z
1/2+x,1/2-y,1/2+z
1/2-x,1/2+y,z
loop_
_atom_site_type_symbol
_atom_site_label
_atom_site_fract_x
_atom_site_fract_y
_atom_site_fract_z
Si Si1 0.000000 0.760094 0.270391
Si Si2 0.814076 0.181726 0.942129
Si Si3 0.500000 0.071989 0.897593
Si Si4 0.696189 0.043981 0.699554
Si Si5 0.659195 0.317660 0.221011
Si Si6 0.500000 0.398808 0.777163
Si Si7 0.663796 0.944514 0.422760
Si Si8 0.416595 0.276089 0.605884
O O1 0.000000 0.594378 0.332082
O O2 0.926642 0.778374 0.206318
O O3 0.000000 0.930200 0.328341
O O4 0.832336 0.119423 0.833470
O O5 0.731454 0.140846 0.975295
O O6 0.821019 0.369621 0.928938
O O7 0.875934 0.133161 0.019370
O O8 0.500000 0.234764 0.835167
O O9 0.421260 0.078384 0.951290
O O10 0.779055 0.082504 0.665581
O O11 0.674804 0.106001 0.809001
O O12 0.635110 0.128723 0.633392
O O13 0.691900 0.858007 0.710370
O O14 0.430573 0.383095 0.702005
O O15 0.500000 0.225949 0.577518
#
# Coordination Sequence:
#
# PCOD9352032 Si02
#       8
#     4   8   4   8   8   4   8   8
#     4  12  22  39  66 103 124 175 233 285 339 409
#     4  10  22  39  64  94 137 177 227 273 360 416
#     4  12  20  43  70 103 136 173 239 292 342 410
#     4  10  20  38  62  93 128 170 226 282 344 401
#     4  10  23  37  68  96 130 172 230 285 336 418
#     4  10  24  38  70 100 136 176 228 291 349 409
#     4  10  21  40  67  94 131 178 231 288 341 417
#     4  10  22  39  65  94 137 184 219 285 361 414
#
# _framework density 24.874863999999999
#
# number of rings (size 3 to 8) (size 9 to 14) (size 15 to 20)
#    0.462    1.231    4.615    0.000    5.385    3.692 
#    0.000    0.000    1.692    0.000    0.000    0.000 
#    0.000    0.000    0.000    0.000    0.000    0.000 
#
# Total GULP energy -145127.982482 kJ/mol
# GULP energy per Si atom -5581.845480 kJ/mol
# Density = 2.481825 g / cm^3
# Si number density = 24.874864 Si / 1000 Ang^3
#
#
#
# Elastic Constant Matrix: (Units=GPa)
#
#
# Indices 1 2 3 4 5 6 
#
# 1 246.2608 9.7591 21.1789 0.0000 0.0000 0.0000
# 2 9.7591 56.2386 4.0767 0.0000 0.0000 0.0000
# 3 21.1789 4.0767 71.2057 0.0000 0.0000 0.0000
# 4 0.0000 0.0000 0.0000 14.4662 0.0000 0.0000
# 5 0.0000 0.0000 0.0000 0.0000 35.6936 0.0000
# 6 0.0000 0.0000 0.0000 0.0000 0.0000 29.0805
#
#
#
# Elastic Compliance Matrix: (Units=1/GPa)
#
#
# Indices 1 2 3 4 5 6 
#
# 1 0.004190 -0.000639 -0.001210 0.000000 0.000000 0.000000
# 2 -0.000639 0.017953 -0.000838 0.000000 0.000000 0.000000
# 3 -0.001210 -0.000838 0.014452 0.000000 0.000000 0.000000
# 4 0.000000 0.000000 0.000000 0.069127 0.000000 0.000000
# 5 0.000000 0.000000 0.000000 0.000000 0.028016 0.000000
# 6 0.000000 0.000000 0.000000 0.000000 0.000000 0.034387
#
#
# Mechanical properties :
#
#
# Convention : Reuss Voigt Hill
#
# Bulk Modulus (GPa) = 32.02949 49.30383 40.66666
# Shear Modulus (GPa) = 27.18786 38.42742 32.80764
#
# Velocity S-wave (km/s) = 3.30962 3.93470 3.63562
# Velocity P-wave (km/s) = 5.24490 6.36445 5.83160
#
# Compressibility (1/GPa) = 0.03122123
#
# Stress axis : x y z
#
# Youngs Moduli (GPa) = 238.65728 55.70083 69.19666
#
# Poissons Ratio (x) = 0.03562 0.08370
# Poissons Ratio (y) = 0.15260 0.05796
# Poissons Ratio (z) = 0.28870 0.04666
#
# Static dielectric constant tensor:
#      x y z
#    x 2.031620 0.000000 0.000000 
#    y 0.000000 1.959070 0.000000 
#    z 0.000000 0.000000 2.101130 
# 
# From -- ./inp_files/14868.got.cif
#   From: 2010.05.17/outbox.cif.g08.bks.cpg/sg36_8_cif.got.tgz:14868.got - 2010.06.03 17:41:39.
