data_PCOD9352986
_publ_section_title
;
Structure prediction by ZEFSAII (Michael W. Deem and Ramdas Pophale) SiO2 
 PCOD9352986
Probable space group: C M C 21
;
_chemical_formula_sum "Si O2"
_cell_formula_units_Z 48
_cell_length_a 17.737481
_cell_length_b 15.169760
_cell_length_c 8.770563
_cell_angle_alpha 90.000000
_cell_angle_beta 90.000000
_cell_angle_gamma 90.000000
_cell_volume 2359.924590
_symmetry_space_group_name_H-M "C M C 21"
_symmetry_group_IT_number 36
_symmetry_cell_setting 'orthorhombic'
loop_
_space_group_symop_operation_xyz
x,y,z
-x,-y,1/2+z
x,-y,1/2+z
-x,y,z
1/2+x,1/2+y,z
1/2-x,1/2-y,1/2+z
1/2+x,1/2-y,1/2+z
1/2-x,1/2+y,z
loop_
_atom_site_type_symbol
_atom_site_label
_atom_site_fract_x
_atom_site_fract_y
_atom_site_fract_z
Si Si1 0.380438 0.288015 0.696900
Si Si2 0.915538 0.740702 0.347476
Si Si3 0.913683 0.595731 0.781542
Si Si4 0.728260 0.128144 0.272020
Si Si5 0.815872 0.508536 0.526725
Si Si6 0.500000 0.386704 0.185657
Si Si7 0.500000 0.578908 0.325481
O O1 0.392245 0.272236 0.516462
O O2 0.409742 0.201179 0.782817
O O3 0.293847 0.303286 0.739624
O O4 0.428287 0.371644 0.751800
O O5 0.853044 0.675461 0.281880
O O6 0.929802 0.825287 0.239145
O O7 0.000000 0.699402 0.359261
O O8 0.874964 0.564722 0.625107
O O9 0.000000 0.566894 0.791255
O O10 0.863737 0.551358 0.911598
O O11 0.728426 0.055671 0.139040
O O12 0.735611 0.074770 0.429933
O O13 0.500000 0.476936 0.279808
O O14 0.500000 0.406695 0.007034
#
# Coordination Sequence:
#
# PCOD9352986 Si02
#       7
#     8   8   8   8   8   4   4
#     4  12  25  42  73  98 145 180 237 292 357 421
#     4  10  23  47  70 103 139 187 228 300 356 427
#     4  11  22  41  68  98 135 180 229 285 351 420
#     4  11  26  44  70 100 141 185 234 288 357 416
#     4  10  25  43  62 102 138 182 230 287 348 425
#     4  10  26  44  76  97 136 179 235 287 360 415
#     4  12  24  48  68 107 128 187 231 293 350 431
#
# _framework density 20.339634
#
# number of rings (size 3 to 8) (size 9 to 14) (size 15 to 20)
#    0.500    0.667    3.333    1.500    4.667    6.000 
#    3.000    0.000    0.000    0.000    0.000    0.000 
#    0.000    0.000    0.000    0.000    0.000    0.000 
#
# Total GULP energy -134136.246095 kJ/mol
# GULP energy per Si atom -5589.010254 kJ/mol
# Density = 2.029334 g / cm^3
# Si number density = 20.339634 Si / 1000 Ang^3
#
#
#
# Elastic Constant Matrix: (Units=GPa)
#
#
# Indices 1 2 3 4 5 6 
#
# 1 78.3865 1.1544 11.2202 0.0000 0.0000 0.0000
# 2 1.1544 79.2927 15.3636 0.0000 0.0000 0.0000
# 3 11.2202 15.3636 75.8815 0.0000 0.0000 0.0000
# 4 0.0000 0.0000 0.0000 -80.1520 0.0000 0.0000
# 5 0.0000 0.0000 0.0000 0.0000 18.8611 0.0000
# 6 0.0000 0.0000 0.0000 0.0000 0.0000 -2.7327
#
#
#
# Elastic Compliance Matrix: (Units=1/GPa)
#
#
# Indices 1 2 3 4 5 6 
#
# 1 0.013036 0.000191 -0.001966 0.000000 0.000000 0.000000
# 2 0.000191 0.013129 -0.002687 0.000000 0.000000 0.000000
# 3 -0.001966 -0.002687 0.014013 0.000000 0.000000 0.000000
# 4 0.000000 0.000000 0.000000 -0.012476 0.000000 0.000000
# 5 0.000000 0.000000 0.000000 0.000000 0.053019 0.000000
# 6 0.000000 0.000000 0.000000 0.000000 0.000000 -0.365934
#
#
# Mechanical properties :
#
#
# Convention : Reuss Voigt Hill
#
# Bulk Modulus (GPa) = 31.99479 32.11525 32.05502
# Shear Modulus (GPa) = -18.80610 0.91677 -8.94467
#
# Velocity S-wave (km/s) = -3.04403 0.67209 -2.09933
# Velocity P-wave (km/s) = 1.84651 4.05291 3.14926
#
# Compressibility (1/GPa) = 0.03125509
#
# Stress axis : x y z
#
# Youngs Moduli (GPa) = 76.71109 76.16583 71.36176
#
# Poissons Ratio (x) = -0.01456 0.14032
# Poissons Ratio (y) = -0.01467 0.19171
# Poissons Ratio (z) = 0.15083 0.20462
#
# Static dielectric constant tensor:
#      x y z
#    x 1.706070 0.000000 0.000000 
#    y 0.000000 1.713340 0.000000 
#    z 0.000000 0.000000 1.717740 
# 
# From -- ./inp_files/4692.got.cif
#   From: 2010.05.17/outbox.cif.g08.bks.cpg/sg36_3_cif.got.tgz:4692.got - 2010.06.03 17:41:39.
