data_PCOD9352836
_publ_section_title
;
Structure prediction by ZEFSAII (Michael W. Deem and Ramdas Pophale) SiO2 
 PCOD9352836
Probable space group: C M C 21
;
_chemical_formula_sum "Si O2"
_cell_formula_units_Z 64
_cell_length_a 28.346068
_cell_length_b 12.374726
_cell_length_c 7.833739
_cell_angle_alpha 90.000000
_cell_angle_beta 90.000000
_cell_angle_gamma 90.000000
_cell_volume 2747.878424
_symmetry_space_group_name_H-M "C M C 21"
_symmetry_group_IT_number 36
_symmetry_cell_setting 'orthorhombic'
loop_
_space_group_symop_operation_xyz
x,y,z
-x,-y,1/2+z
x,-y,1/2+z
-x,y,z
1/2+x,1/2+y,z
1/2-x,1/2-y,1/2+z
1/2+x,1/2-y,1/2+z
1/2-x,1/2+y,z
loop_
_atom_site_type_symbol
_atom_site_label
_atom_site_fract_x
_atom_site_fract_y
_atom_site_fract_z
Si Si1 0.893602 0.948476 0.346510
Si Si2 0.445593 0.113821 0.589618
Si Si3 0.708109 0.105809 0.142826
Si Si4 0.736890 0.866326 0.027964
Si Si5 0.343540 0.619753 0.521787
Si Si6 0.555570 0.354159 0.668156
Si Si7 0.174335 0.317791 0.314429
Si Si8 0.886476 0.539287 0.284583
O O1 0.879691 0.884250 0.177646
O O2 0.920171 0.879042 0.486481
O O3 0.847496 0.002979 0.431855
O O4 0.923891 0.054776 0.294755
O O5 0.500000 0.112840 0.530326
O O6 0.439299 0.225055 0.694615
O O7 0.433200 0.005496 0.693713
O O8 0.405403 0.105352 0.444946
O O9 0.731865 0.137248 0.322504
O O10 0.721074 0.984206 0.094796
O O11 0.651784 0.109709 0.183358
O O12 0.714548 0.163328 0.960391
O O13 0.790812 0.860913 0.086820
O O14 0.699164 0.795634 0.133376
O O15 0.352087 0.712527 0.382694
O O16 0.500000 0.374371 0.656286
O O17 0.142790 0.427069 0.316992
#
# Coordination Sequence:
#
# PCOD9352836 Si02
#       8
#     8   8   8   8   8   8   8   8
#     4  10  23  44  66  90 129 169 211 276 340 379
#     4  11  23  37  62  95 127 165 204 260 331 391
#     4  11  21  39  65  87 123 176 213 259 318 376
#     4  11  22  41  61  93 129 167 221 264 318 377
#     4  11  25  43  62  95 130 168 218 277 330 390
#     4  10  22  42  68  96 124 165 220 268 327 399
#     4  11  24  41  63  95 123 176 223 258 322 382
#     4  11  20  41  60  87 131 164 207 260 306 396
#
# _framework density 23.290696000000001
#
# number of rings (size 3 to 8) (size 9 to 14) (size 15 to 20)
#    0.000    1.250    3.750    3.000    3.500    0.000 
#    2.250    0.000    0.000    6.000    0.000    0.000 
#    0.000    0.000    0.000    0.000    0.000    0.000 
#
# Total GULP energy -178630.090603 kJ/mol
# GULP energy per Si atom -5582.190331 kJ/mol
# Density = 2.323768 g / cm^3
# Si number density = 23.290696 Si / 1000 Ang^3
#
#
#
# Elastic Constant Matrix: (Units=GPa)
#
#
# Indices 1 2 3 4 5 6 
#
# 1 73.4454 2.0518 -6.2744 0.0000 0.0000 0.0000
# 2 2.0518 37.6165 -17.8491 0.0000 0.0000 0.0000
# 3 -6.2744 -17.8491 62.8888 0.0000 0.0000 0.0000
# 4 0.0000 0.0000 0.0000 27.3011 0.0000 0.0000
# 5 0.0000 0.0000 0.0000 0.0000 34.5195 0.0000
# 6 0.0000 0.0000 0.0000 0.0000 0.0000 25.2172
#
#
#
# Elastic Compliance Matrix: (Units=1/GPa)
#
#
# Indices 1 2 3 4 5 6 
#
# 1 0.013733 -0.000114 0.001338 0.000000 0.000000 0.000000
# 2 -0.000114 0.030722 0.008708 0.000000 0.000000 0.000000
# 3 0.001338 0.008708 0.018506 0.000000 0.000000 0.000000
# 4 0.000000 0.000000 0.000000 0.036629 0.000000 0.000000
# 5 0.000000 0.000000 0.000000 0.000000 0.028969 0.000000
# 6 0.000000 0.000000 0.000000 0.000000 0.000000 0.039656
#
#
# Mechanical properties :
#
#
# Convention : Reuss Voigt Hill
#
# Bulk Modulus (GPa) = 12.07369 14.42303 13.24836
# Shear Modulus (GPa) = 28.41557 30.47571 29.44564
#
# Velocity S-wave (km/s) = 3.49670 3.62123 3.55951
# Velocity P-wave (km/s) = 4.63656 4.86729 4.75332
#
# Compressibility (1/GPa) = 0.08282470
#
# Stress axis : x y z
#
# Youngs Moduli (GPa) = 72.81711 32.54952 54.03624
#
# Poissons Ratio (x) = 0.00372 -0.07228
# Poissons Ratio (y) = 0.00833 -0.47056
# Poissons Ratio (z) = -0.09741 -0.28345
#
# Static dielectric constant tensor:
#      x y z
#    x 1.899990 0.000000 0.000000 
#    y 0.000000 2.013100 0.000000 
#    z 0.000000 0.000000 1.957600 
# 
# From -- ./inp_files/6075.got.cif
#   From: 2010.05.17/outbox.cif.g08.bks.cpg/sg36_4_cif.got.tgz:6075.got - 2010.06.03 17:41:39.
