data_PCOD9352639
_publ_section_title
;
Structure prediction by ZEFSAII (Michael W. Deem and Ramdas Pophale) SiO2 
 PCOD9352639
Probable space group: C M C 21
;
_chemical_formula_sum "Si O2"
_cell_formula_units_Z 52
_cell_length_a 7.716046
_cell_length_b 21.246120
_cell_length_c 14.603148
_cell_angle_alpha 90.000000
_cell_angle_beta 90.000000
_cell_angle_gamma 90.000000
_cell_volume 2393.982244
_symmetry_space_group_name_H-M "C M C 21"
_symmetry_group_IT_number 36
_symmetry_cell_setting 'orthorhombic'
loop_
_space_group_symop_operation_xyz
x,y,z
-x,-y,1/2+z
x,-y,1/2+z
-x,y,z
1/2+x,1/2+y,z
1/2-x,1/2-y,1/2+z
1/2+x,1/2-y,1/2+z
1/2-x,1/2+y,z
loop_
_atom_site_type_symbol
_atom_site_label
_atom_site_fract_x
_atom_site_fract_y
_atom_site_fract_z
Si Si1 0.206274 0.031171 0.562640
Si Si2 0.000000 0.830627 0.671554
Si Si3 0.706963 0.459745 0.270449
Si Si4 0.207545 0.718498 0.279721
Si Si5 0.687773 0.895030 0.578400
Si Si6 0.292133 0.344137 0.395239
Si Si7 0.705279 0.088683 0.375380
O O1 0.270367 0.045014 0.665667
O O2 0.242550 0.079347 0.480997
O O3 0.000000 0.022942 0.566021
O O4 0.289849 0.964456 0.536850
O O5 0.842606 0.780339 0.696548
O O6 0.847697 0.882025 0.643838
O O7 0.500000 0.451979 0.266390
O O8 0.770561 0.402355 0.333200
O O9 0.740034 0.527222 0.317396
O O10 0.233290 0.778967 0.343394
O O11 0.267355 0.654654 0.332823
O O12 0.000000 0.716426 0.258783
O O13 0.500000 0.890937 0.623775
O O14 0.704745 0.847438 0.493947
O O15 0.500000 0.351714 0.412337
O O16 0.500000 0.091330 0.371743
#
# Coordination Sequence:
#
# PCOD9352639 Si02
#       7
#     8   4   8   8   8   8   8
#     4  11  22  39  64 101 135 175 227 285 349 409
#     4  12  24  44  68 102 126 180 228 286 332 404
#     4  10  22  39  68  95 128 174 223 281 341 402
#     4  10  25  45  69  98 139 182 228 279 346 414
#     4  12  24  41  68 102 136 177 233 284 339 415
#     4  10  21  46  69  97 136 182 228 281 344 415
#     4  11  23  40  63  97 134 175 220 282 343 404
#
# _framework density 21.721129000000001
#
# number of rings (size 3 to 8) (size 9 to 14) (size 15 to 20)
#    0.000    1.231    3.077    2.308    5.385    2.462 
#    2.769    0.000    0.000    0.000    0.000    0.000 
#    0.000    0.000    0.000    0.000    0.000    0.000 
#
# Total GULP energy -144774.030592 kJ/mol
# GULP energy per Si atom -5568.231946 kJ/mol
# Density = 2.167169 g / cm^3
# Si number density = 21.721129 Si / 1000 Ang^3
#
#
#
# Elastic Constant Matrix: (Units=GPa)
#
#
# Indices 1 2 3 4 5 6 
#
# 1 112.0476 14.7326 14.3842 0.0000 0.0000 0.0000
# 2 14.7326 104.0778 32.0739 0.0000 0.0000 0.0000
# 3 14.3842 32.0739 86.7951 0.0000 0.0000 0.0000
# 4 0.0000 0.0000 0.0000 38.0015 0.0000 0.0000
# 5 0.0000 0.0000 0.0000 0.0000 21.1821 0.0000
# 6 0.0000 0.0000 0.0000 0.0000 0.0000 -29.1036
#
#
#
# Elastic Compliance Matrix: (Units=1/GPa)
#
#
# Indices 1 2 3 4 5 6 
#
# 1 0.009199 -0.000939 -0.001177 0.000000 0.000000 0.000000
# 2 -0.000939 0.010939 -0.003887 0.000000 0.000000 0.000000
# 3 -0.001177 -0.003887 0.013153 0.000000 0.000000 0.000000
# 4 0.000000 0.000000 0.000000 0.026315 0.000000 0.000000
# 5 0.000000 0.000000 0.000000 0.000000 0.047210 0.000000
# 6 0.000000 0.000000 0.000000 0.000000 0.000000 -0.034360
#
#
# Mechanical properties :
#
#
# Convention : Reuss Voigt Hill
#
# Bulk Modulus (GPa) = 46.98316 47.25576 47.11946
# Shear Modulus (GPa) = 54.61059 22.13131 38.37095
#
# Velocity S-wave (km/s) = 5.01959 3.19546 4.20757
# Velocity P-wave (km/s) = 7.43452 5.95126 6.73386
#
# Compressibility (1/GPa) = 0.02128422
#
# Stress axis : x y z
#
# Youngs Moduli (GPa) = 108.70219 91.41664 76.02953
#
# Poissons Ratio (x) = 0.08587 0.08952
# Poissons Ratio (y) = 0.10211 0.29550
# Poissons Ratio (z) = 0.12799 0.35530
#
# Static dielectric constant tensor:
#      x y z
#    x 1.811360 0.000000 0.000000 
#    y 0.000000 1.798470 0.000000 
#    z 0.000000 0.000000 1.889740 
# 
# From -- ./inp_files/10522.got.cif
#   From: 2010.05.17/outbox.cif.g08.bks.cpg/sg36_6_cif.got.tgz:10522.got - 2010.06.03 17:41:39.
