data_PCOD9352182
_publ_section_title
;
Structure prediction by ZEFSAII (Michael W. Deem and Ramdas Pophale) SiO2 
 PCOD9352182
Probable space group: C M C 21
;
_chemical_formula_sum "Si O2"
_cell_formula_units_Z 28
_cell_length_a 9.815767
_cell_length_b 16.462059
_cell_length_c 7.289998
_cell_angle_alpha 90.000000
_cell_angle_beta 90.000000
_cell_angle_gamma 90.000000
_cell_volume 1177.974269
_symmetry_space_group_name_H-M "C M C 21"
_symmetry_group_IT_number 36
_symmetry_cell_setting 'orthorhombic'
loop_
_space_group_symop_operation_xyz
x,y,z
-x,-y,1/2+z
x,-y,1/2+z
-x,y,z
1/2+x,1/2+y,z
1/2-x,1/2-y,1/2+z
1/2+x,1/2-y,1/2+z
1/2-x,1/2+y,z
loop_
_atom_site_type_symbol
_atom_site_label
_atom_site_fract_x
_atom_site_fract_y
_atom_site_fract_z
Si Si1 0.500000 0.189654 0.984261
Si Si2 0.761372 0.610701 0.434184
Si Si3 0.500000 0.240445 0.372272
Si Si4 0.345767 0.933218 0.306154
Si Si5 0.500000 0.668241 0.219899
O O1 0.500000 0.239964 0.798184
O O2 0.500000 0.249813 0.153091
O O3 0.630063 0.129671 0.973761
O O4 0.815558 0.522742 0.372901
O O5 0.743631 0.600051 0.653789
O O6 0.631017 0.627960 0.310673
O O7 0.868164 0.683997 0.410487
O O8 0.500000 0.318972 0.501813
O O9 0.500000 0.935023 0.222159
#
# Coordination Sequence:
#
# PCOD9352182 Si02
#       5
#     4   8   4   8   4
#     4  10  23  45  81 108 138 201 259 310 370 471
#     4  12  24  46  76 109 153 192 263 318 375 464
#     4  12  23  49  75 100 149 199 255 301 371 481
#     4  10  20  45  80 110 135 202 270 310 366 462
#     4  12  30  46  68 120 157 190 238 335 409 428
#
# _framework density 23.769617
#
# number of rings (size 3 to 8) (size 9 to 14) (size 15 to 20)
#    0.857    0.000    5.714    1.714    4.000    1.143 
#    5.143    0.000    0.000    0.000    0.000    0.000 
#    0.000    0.000    0.000    0.000    0.000    0.000 
#
# Total GULP energy -78271.204404 kJ/mol
# GULP energy per Si atom -5590.800315 kJ/mol
# Density = 2.371552 g / cm^3
# Si number density = 23.769617 Si / 1000 Ang^3
#
#
#
# Elastic Constant Matrix: (Units=GPa)
#
#
# Indices 1 2 3 4 5 6 
#
# 1 87.2159 24.7586 38.5575 0.0000 0.0000 0.0000
# 2 24.7586 72.7085 22.1245 0.0000 0.0000 0.0000
# 3 38.5575 22.1245 146.9198 0.0000 0.0000 0.0000
# 4 0.0000 0.0000 0.0000 54.8386 0.0000 0.0000
# 5 0.0000 0.0000 0.0000 0.0000 18.7802 0.0000
# 6 0.0000 0.0000 0.0000 0.0000 0.0000 45.7068
#
#
#
# Elastic Compliance Matrix: (Units=1/GPa)
#
#
# Indices 1 2 3 4 5 6 
#
# 1 0.013904 -0.003798 -0.003077 0.000000 0.000000 0.000000
# 2 -0.003798 0.015452 -0.001330 0.000000 0.000000 0.000000
# 3 -0.003077 -0.001330 0.007814 0.000000 0.000000 0.000000
# 4 0.000000 0.000000 0.000000 0.018235 0.000000 0.000000
# 5 0.000000 0.000000 0.000000 0.000000 0.053248 0.000000
# 6 0.000000 0.000000 0.000000 0.000000 0.000000 0.021879
#
#
# Mechanical properties :
#
#
# Convention : Reuss Voigt Hill
#
# Bulk Modulus (GPa) = 48.17088 53.08061 50.62574
# Shear Modulus (GPa) = 32.49652 38.62536 35.56094
#
# Velocity S-wave (km/s) = 3.70150 4.03549 3.87210
# Velocity P-wave (km/s) = 6.21111 6.64028 6.42928
#
# Compressibility (1/GPa) = 0.02075943
#
# Stress axis : x y z
#
# Youngs Moduli (GPa) = 71.91959 64.71791 127.97115
#
# Poissons Ratio (x) = 0.24582 0.39378
# Poissons Ratio (y) = 0.27318 0.17020
# Poissons Ratio (z) = 0.22130 0.08608
#
# Static dielectric constant tensor:
#      x y z
#    x 1.925950 0.000000 0.000000 
#    y 0.000000 1.872130 0.000000 
#    z 0.000000 0.000000 1.961850 
# 
# From -- ./inp_files/2258.got.cif
#   From: 2010.05.17/outbox.cif.g08.bks.cpg/sg36_2_cif.got.tgz:2258.got - 2010.06.03 17:41:39.
