data_PCOD9352783
_publ_section_title
;
Structure prediction by ZEFSAII (Michael W. Deem and Ramdas Pophale) SiO2 
 PCOD9352783
Probable space group: C M C 21
;
_chemical_formula_sum "Si O2"
_cell_formula_units_Z 64
_cell_length_a 17.727725
_cell_length_b 8.450191
_cell_length_c 19.993667
_cell_angle_alpha 90.000000
_cell_angle_beta 90.000000
_cell_angle_gamma 90.000000
_cell_volume 2995.104545
_symmetry_space_group_name_H-M "C M C 21"
_symmetry_group_IT_number 36
_symmetry_cell_setting 'orthorhombic'
loop_
_space_group_symop_operation_xyz
x,y,z
-x,-y,1/2+z
x,-y,1/2+z
-x,y,z
1/2+x,1/2+y,z
1/2-x,1/2-y,1/2+z
1/2+x,1/2-y,1/2+z
1/2-x,1/2+y,z
loop_
_atom_site_type_symbol
_atom_site_label
_atom_site_fract_x
_atom_site_fract_y
_atom_site_fract_z
Si Si1 0.826163 0.112162 0.987530
Si Si2 0.338911 0.016919 0.519200
Si Si3 0.412545 0.477671 0.615289
Si Si4 0.825871 0.470611 0.775770
Si Si5 0.661163 0.602773 0.743151
Si Si6 0.085128 0.976393 0.868080
Si Si7 0.085115 0.396599 0.394219
Si Si8 0.412396 0.893359 0.153175
O O1 0.834985 0.299252 0.997756
O O2 0.853603 0.063030 0.914217
O O3 0.741356 0.062591 0.005014
O O4 0.879764 0.022532 0.040696
O O5 0.364055 0.017962 0.596252
O O6 0.398961 0.931713 0.471526
O O7 0.500000 0.525319 0.616832
O O8 0.362784 0.577841 0.666670
O O9 0.407019 0.294461 0.639366
O O10 0.741125 0.523655 0.760041
O O11 0.834311 0.286149 0.761214
O O12 0.853345 0.511987 0.850044
O O13 0.879930 0.565683 0.725284
O O14 0.600384 0.519858 0.791388
O O15 0.000000 0.024713 0.887241
O O16 0.092371 0.789133 0.879139
O O17 0.000000 0.447133 0.376353
O O18 0.500000 0.938149 0.147770
#
# Coordination Sequence:
#
# PCOD9352783 Si02
#       8
#     8   8   8   8   8   8   8   8
#     4  11  23  40  63  91 124 161 202 248 299 356
#     4  11  23  40  63  91 124 161 202 248 299 356
#     4  10  22  41  64  91 124 160 199 247 302 358
#     4  12  25  41  63  90 122 160 203 250 300 357
#     4  12  25  41  63  90 122 160 203 250 300 357
#     4  11  24  42  64  90 122 159 200 249 303 359
#     4  11  24  42  64  90 122 159 200 249 303 359
#     4  10  22  41  64  91 124 160 199 247 302 358
#
# _framework density 21.368203000000001
#
# number of rings (size 3 to 8) (size 9 to 14) (size 15 to 20)
#    0.000    1.000    0.000    6.750    0.000   10.500 
#    0.000    0.000    0.000    0.000    0.000    0.000 
#    0.000    0.000    0.000    0.000    0.000    0.000 
#
# Total GULP energy -179197.003293 kJ/mol
# GULP energy per Si atom -5599.906353 kJ/mol
# Density = 2.131957 g / cm^3
# Si number density = 21.368203 Si / 1000 Ang^3
#
#
#
# Elastic Constant Matrix: (Units=GPa)
#
#
# Indices 1 2 3 4 5 6 
#
# 1 87.9819 2.6281 -17.6501 0.0000 0.0000 0.0000
# 2 2.6281 31.5962 -10.8714 0.0000 0.0000 0.0000
# 3 -17.6501 -10.8714 36.0143 0.0000 0.0000 0.0000
# 4 0.0000 0.0000 0.0000 31.6330 0.0000 0.0000
# 5 0.0000 0.0000 0.0000 0.0000 41.8301 0.0000
# 6 0.0000 0.0000 0.0000 0.0000 0.0000 -4.0866
#
#
#
# Elastic Compliance Matrix: (Units=1/GPa)
#
#
# Indices 1 2 3 4 5 6 
#
# 1 0.012646 0.001206 0.006562 0.000000 0.000000 0.000000
# 2 0.001206 0.035433 0.011287 0.000000 0.000000 0.000000
# 3 0.006562 0.011287 0.034390 0.000000 0.000000 0.000000
# 4 0.000000 0.000000 0.000000 0.031613 0.000000 0.000000
# 5 0.000000 0.000000 0.000000 0.000000 0.023906 0.000000
# 6 0.000000 0.000000 0.000000 0.000000 0.000000 -0.244701
#
#
# Mechanical properties :
#
#
# Convention : Reuss Voigt Hill
#
# Bulk Modulus (GPa) = 8.29343 11.53394 9.91369
# Shear Modulus (GPa) = -47.78727 25.97435 -10.90646
#
# Velocity S-wave (km/s) = -4.73416 3.49027 -2.26167
# Velocity P-wave (km/s) = 5.09837 4.65318 1.47332
#
# Compressibility (1/GPa) = 0.12057732
#
# Stress axis : x y z
#
# Youngs Moduli (GPa) = 79.07434 28.22267 29.07850
#
# Poissons Ratio (x) = -0.03403 -0.19081
# Poissons Ratio (y) = -0.09535 -0.32820
# Poissons Ratio (z) = -0.51887 -0.31854
#
# Static dielectric constant tensor:
#      x y z
#    x 1.751770 0.000000 0.000000 
#    y 0.000000 1.735980 0.000000 
#    z 0.000000 0.000000 1.722920 
# 
# From -- ./inp_files/16233.got.cif
#   From: 2010.05.17/outbox.cif.g08.bks.cpg/sg36_9_cif.got.tgz:16233.got - 2010.06.03 17:41:39.
