data_PCOD9352221
_publ_section_title
;
Structure prediction by ZEFSAII (Michael W. Deem and Ramdas Pophale) SiO2 
 PCOD9352221
Probable space group: C M C 21
;
_chemical_formula_sum "Si O2"
_cell_formula_units_Z 64
_cell_length_a 7.784414
_cell_length_b 32.944771
_cell_length_c 10.845273
_cell_angle_alpha 90.000000
_cell_angle_beta 90.000000
_cell_angle_gamma 90.000000
_cell_volume 2781.332476
_symmetry_space_group_name_H-M "C M C 21"
_symmetry_group_IT_number 36
_symmetry_cell_setting 'orthorhombic'
loop_
_space_group_symop_operation_xyz
x,y,z
-x,-y,1/2+z
x,-y,1/2+z
-x,y,z
1/2+x,1/2+y,z
1/2-x,1/2-y,1/2+z
1/2+x,1/2-y,1/2+z
1/2-x,1/2+y,z
loop_
_atom_site_type_symbol
_atom_site_label
_atom_site_fract_x
_atom_site_fract_y
_atom_site_fract_z
Si Si1 0.800035 0.957733 0.944260
Si Si2 0.309253 0.252753 0.665098
Si Si3 0.300548 0.169097 0.296268
Si Si4 0.797966 0.711293 0.904132
Si Si5 0.708512 0.371553 0.043875
Si Si6 0.793742 0.580367 0.192232
Si Si7 0.292510 0.627510 0.819974
Si Si8 0.802520 0.952881 0.435620
O O1 0.782047 0.946739 0.801215
O O2 0.000000 0.960311 0.983310
O O3 0.729488 0.917458 0.011604
O O4 0.722366 0.002652 0.955385
O O5 0.500000 0.236297 0.645886
O O6 0.309492 0.295683 0.736961
O O7 0.246913 0.263447 0.527066
O O8 0.217861 0.225816 0.772378
O O9 0.500000 0.179481 0.275257
O O10 0.271289 0.159525 0.440134
O O11 0.262278 0.126699 0.229515
O O12 0.760688 0.663217 0.912878
O O13 0.000000 0.716514 0.891293
O O14 0.500000 0.371742 0.036991
O O15 0.761953 0.361220 0.181746
O O16 0.703972 0.568595 0.067020
O O17 0.000000 0.574589 0.183668
O O18 0.500000 0.625402 0.823554
O O19 0.226184 0.582110 0.848670
O O20 0.000000 0.959914 0.394155
#
# Coordination Sequence:
#
# PCOD9352221 Si02
#       8
#     8   8   8   8   8   8   8   8
#     4   9  19  35  58  84 114 152 200 251 295 352
#     4  11  25  44  68  97 128 164 210 260 312 373
#     4  10  21  38  62  89 120 158 200 247 306 369
#     4  11  26  45  66  96 130 167 211 258 318 381
#     4   9  19  36  59  89 123 161 206 256 306 363
#     4  10  21  36  54  80 115 150 190 239 296 362
#     4  10  22  39  61  90 125 163 207 256 311 369
#     4  10  21  35  58  85 113 153 200 249 298 353
#
# _framework density 23.010553999999999
#
# number of rings (size 3 to 8) (size 9 to 14) (size 15 to 20)
#    0.000    2.000    0.000    2.250    3.500    7.000 
#    0.000    0.000    0.000    0.000    0.000    0.000 
#    0.000    0.000    0.000    0.000    0.000    0.000 
#
# Total GULP energy -178615.371366 kJ/mol
# GULP energy per Si atom -5581.730355 kJ/mol
# Density = 2.295818 g / cm^3
# Si number density = 23.010554 Si / 1000 Ang^3
#
#
#
# Elastic Constant Matrix: (Units=GPa)
#
#
# Indices 1 2 3 4 5 6 
#
# 1 31.5216 6.2729 -4.3212 0.0000 0.0000 0.0000
# 2 6.2729 84.2505 25.7345 0.0000 0.0000 0.0000
# 3 -4.3212 25.7345 99.5812 0.0000 0.0000 0.0000
# 4 0.0000 0.0000 0.0000 -4.3478 0.0000 0.0000
# 5 0.0000 0.0000 0.0000 0.0000 10.9154 0.0000
# 6 0.0000 0.0000 0.0000 0.0000 0.0000 93.4515
#
#
#
# Elastic Compliance Matrix: (Units=1/GPa)
#
#
# Indices 1 2 3 4 5 6 
#
# 1 0.032647 -0.003109 0.002220 0.000000 0.000000 0.000000
# 2 -0.003109 0.013183 -0.003542 0.000000 0.000000 0.000000
# 3 0.002220 -0.003542 0.011054 0.000000 0.000000 0.000000
# 4 0.000000 0.000000 0.000000 -0.230002 0.000000 0.000000
# 5 0.000000 0.000000 0.000000 0.000000 0.091614 0.000000
# 6 0.000000 0.000000 0.000000 0.000000 0.000000 0.010701
#
#
# Mechanical properties :
#
#
# Convention : Reuss Voigt Hill
#
# Bulk Modulus (GPa) = 20.82349 30.08062 25.45206
# Shear Modulus (GPa) = -108.84854 32.51497 -38.16679
#
# Velocity S-wave (km/s) = -6.88523 3.76313 -4.07709
# Velocity P-wave (km/s) = 7.35795 5.65530 3.32844
#
# Compressibility (1/GPa) = 0.04802270
#
# Stress axis : x y z
#
# Youngs Moduli (GPa) = 30.63042 75.85725 90.46780
#
# Poissons Ratio (x) = 0.23583 -0.20085
# Poissons Ratio (y) = 0.09523 0.32041
# Poissons Ratio (z) = -0.06800 0.26866
#
# Static dielectric constant tensor:
#      x y z
#    x 1.876690 0.000000 0.000000 
#    y 0.000000 1.914490 0.000000 
#    z 0.000000 0.000000 1.859150 
# 
# From -- ./inp_files/7251.got.cif
#   From: 2010.05.17/outbox.cif.g08.bks.cpg/sg36_4_cif.got.tgz:7251.got - 2010.06.03 17:41:39.
