data_PCOD9352923
_publ_section_title
;
Structure prediction by ZEFSAII (Michael W. Deem and Ramdas Pophale) SiO2 
 PCOD9352923
Probable space group: C M C 21
;
_chemical_formula_sum "Si O2"
_cell_formula_units_Z 40
_cell_length_a 21.758875
_cell_length_b 9.278179
_cell_length_c 7.519384
_cell_angle_alpha 90.000000
_cell_angle_beta 90.000000
_cell_angle_gamma 90.000000
_cell_volume 1518.033823
_symmetry_space_group_name_H-M "C M C 21"
_symmetry_group_IT_number 36
_symmetry_cell_setting 'orthorhombic'
loop_
_space_group_symop_operation_xyz
x,y,z
-x,-y,1/2+z
x,-y,1/2+z
-x,y,z
1/2+x,1/2+y,z
1/2-x,1/2-y,1/2+z
1/2+x,1/2-y,1/2+z
1/2-x,1/2+y,z
loop_
_atom_site_type_symbol
_atom_site_label
_atom_site_fract_x
_atom_site_fract_y
_atom_site_fract_z
Si Si1 0.245954 0.198817 0.740580
Si Si2 0.800386 0.535620 0.052586
Si Si3 0.567772 0.876896 0.613644
Si Si4 0.930423 0.160162 0.280222
Si Si5 0.887686 0.152260 0.897958
O O1 0.236581 0.363785 0.691106
O O2 0.179859 0.149165 0.812806
O O3 0.265404 0.114898 0.560460
O O4 0.294740 0.132748 0.876981
O O5 0.872044 0.524398 0.101528
O O6 0.500000 0.945900 0.619581
O O7 0.571525 0.775320 0.439167
O O8 0.576726 0.774337 0.785339
O O9 0.000000 0.159370 0.208447
O O10 0.916485 0.004542 0.365134
O O11 0.887916 0.181949 0.108184
#
# Coordination Sequence:
#
# PCOD9352923 Si02
#       5
#     8   8   8   8   8
#     4  11  25  42  68 100 137 177 227 279 351 413
#     4  11  25  45  70 100 136 179 227 287 345 414
#     4  10  23  41  62  93 133 179 231 281 334 411
#     4  11  20  32  57  94 130 175 221 277 346 405
#     4  11  21  34  61  93 136 172 218 282 348 405
#
# _framework density 26.349872999999999
#
# number of rings (size 3 to 8) (size 9 to 14) (size 15 to 20)
#    0.000    1.200    2.000    4.200    8.400    0.000 
#    0.000    1.000    0.000    0.000    0.000    0.000 
#    0.000    0.000    0.000    0.000    0.000    0.000 
#
# Total GULP energy -112151.469932 kJ/mol
# GULP energy per Si atom -5607.573497 kJ/mol
# Density = 2.628990 g / cm^3
# Si number density = 26.349873 Si / 1000 Ang^3
#
#
#
# Elastic Constant Matrix: (Units=GPa)
#
#
# Indices 1 2 3 4 5 6 
#
# 1 149.2554 44.1583 -7.2643 0.0000 0.0000 0.0000
# 2 44.1583 92.8979 11.3204 0.0000 0.0000 0.0000
# 3 -7.2643 11.3204 148.7635 0.0000 0.0000 0.0000
# 4 0.0000 0.0000 0.0000 24.3615 0.0000 0.0000
# 5 0.0000 0.0000 0.0000 0.0000 40.7387 0.0000
# 6 0.0000 0.0000 0.0000 0.0000 0.0000 23.5119
#
#
#
# Elastic Compliance Matrix: (Units=1/GPa)
#
#
# Indices 1 2 3 4 5 6 
#
# 1 0.007863 -0.003820 0.000675 0.000000 0.000000 0.000000
# 2 -0.003820 0.012721 -0.001155 0.000000 0.000000 0.000000
# 3 0.000675 -0.001155 0.006843 0.000000 0.000000 0.000000
# 4 0.000000 0.000000 0.000000 0.041048 0.000000 0.000000
# 5 0.000000 0.000000 0.000000 0.000000 0.024547 0.000000
# 6 0.000000 0.000000 0.000000 0.000000 0.000000 0.042532
#
#
# Mechanical properties :
#
#
# Convention : Reuss Voigt Hill
#
# Bulk Modulus (GPa) = 53.11444 54.14953 53.63198
# Shear Modulus (GPa) = 33.23840 40.56926 36.90383
#
# Velocity S-wave (km/s) = 3.55551 3.92808 3.74643
# Velocity P-wave (km/s) = 6.08742 6.41622 6.25398
#
# Compressibility (1/GPa) = 0.01882727
#
# Stress axis : x y z
#
# Youngs Moduli (GPa) = 127.18019 78.61087 146.13736
#
# Poissons Ratio (x) = 0.30027 -0.09859
# Poissons Ratio (y) = 0.48580 0.16872
# Poissons Ratio (z) = -0.08580 0.09076
#
# Static dielectric constant tensor:
#      x y z
#    x 2.028720 0.000000 0.000000 
#    y 0.000000 1.956290 0.000000 
#    z 0.000000 0.000000 2.199420 
# 
# From -- ./inp_files/5086.got.cif
#   From: 2010.05.17/outbox.cif.g08.bks.cpg/sg36_3_cif.got.tgz:5086.got - 2010.06.03 17:41:39.
