data_PCOD9352806
_publ_section_title
;
Structure prediction by ZEFSAII (Michael W. Deem and Ramdas Pophale) SiO2 
 PCOD9352806
Probable space group: C M C 21
;
_chemical_formula_sum "Si O2"
_cell_formula_units_Z 40
_cell_length_a 17.529069
_cell_length_b 14.963481
_cell_length_c 6.301120
_cell_angle_alpha 90.000000
_cell_angle_beta 90.000000
_cell_angle_gamma 90.000000
_cell_volume 1652.757884
_symmetry_space_group_name_H-M "C M C 21"
_symmetry_group_IT_number 36
_symmetry_cell_setting 'orthorhombic'
loop_
_space_group_symop_operation_xyz
x,y,z
-x,-y,1/2+z
x,-y,1/2+z
-x,y,z
1/2+x,1/2+y,z
1/2-x,1/2-y,1/2+z
1/2+x,1/2-y,1/2+z
1/2-x,1/2+y,z
loop_
_atom_site_type_symbol
_atom_site_label
_atom_site_fract_x
_atom_site_fract_y
_atom_site_fract_z
Si Si1 0.872819 0.014291 0.066780
Si Si2 0.084373 0.805739 0.463149
Si Si3 0.177680 0.284704 0.622047
Si Si4 0.086559 0.627498 0.740315
Si Si5 0.228066 0.611084 0.508603
O O1 0.861593 0.120536 0.063923
O O2 0.904943 0.998814 0.314152
O O3 0.797659 0.954274 0.052725
O O4 0.114322 0.777077 0.236216
O O5 0.079808 0.714940 0.592588
O O6 0.000000 0.845648 0.462280
O O7 0.131490 0.333696 0.439532
O O8 0.244334 0.211600 0.582265
O O9 0.206811 0.364026 0.770634
O O10 0.151692 0.572139 0.618353
O O11 0.000000 0.592581 0.775449
#
# Coordination Sequence:
#
# PCOD9352806 Si02
#       5
#     8   8   8   8   8
#     4  12  27  43  65 100 139 183 231 277 341 412
#     4  10  23  42  64  98 143 183 222 278 351 423
#     4  11  20  39  66  95 130 177 232 286 336 412
#     4  10  22  41  69 101 134 177 232 292 348 404
#     4  11  23  37  67  94 132 178 235 281 341 405
#
# _framework density 24.201972999999999
#
# number of rings (size 3 to 8) (size 9 to 14) (size 15 to 20)
#    0.000    1.200    4.000    1.800    5.600    1.600 
#    0.000    0.000    0.000    1.200    0.000    0.000 
#    0.000    0.000    0.000    0.000    0.000    0.000 
#
# Total GULP energy -111375.305324 kJ/mol
# GULP energy per Si atom -5568.765266 kJ/mol
# Density = 2.414689 g / cm^3
# Si number density = 24.201973 Si / 1000 Ang^3
#
#
#
# Elastic Constant Matrix: (Units=GPa)
#
#
# Indices 1 2 3 4 5 6 
#
# 1 141.7605 19.6725 52.8942 0.0000 0.0000 0.0000
# 2 19.6725 54.5074 -16.0137 0.0000 0.0000 0.0000
# 3 52.8942 -16.0137 100.8273 0.0000 0.0000 0.0000
# 4 0.0000 0.0000 0.0000 2.6556 0.0000 0.0000
# 5 0.0000 0.0000 0.0000 0.0000 15.8345 0.0000
# 6 0.0000 0.0000 0.0000 0.0000 0.0000 55.0242
#
#
#
# Elastic Compliance Matrix: (Units=1/GPa)
#
#
# Indices 1 2 3 4 5 6 
#
# 1 0.010117 -0.005466 -0.006175 0.000000 0.000000 0.000000
# 2 -0.005466 0.022197 0.006393 0.000000 0.000000 0.000000
# 3 -0.006175 0.006393 0.014173 0.000000 0.000000 0.000000
# 4 0.000000 0.000000 0.000000 0.376568 0.000000 0.000000
# 5 0.000000 0.000000 0.000000 0.000000 0.063153 0.000000
# 6 0.000000 0.000000 0.000000 0.000000 0.000000 0.018174
#
#
# Mechanical properties :
#
#
# Convention : Reuss Voigt Hill
#
# Bulk Modulus (GPa) = 27.78560 45.57791 36.68175
# Shear Modulus (GPa) = 9.48993 30.73900 20.11446
#
# Velocity S-wave (km/s) = 1.98233 3.56772 2.88602
# Velocity P-wave (km/s) = 4.09209 5.98704 5.12786
#
# Compressibility (1/GPa) = 0.03598987
#
# Stress axis : x y z
#
# Youngs Moduli (GPa) = 98.84556 45.05151 70.55750
#
# Poissons Ratio (x) = 0.24623 0.43572
# Poissons Ratio (y) = 0.54025 -0.45105
# Poissons Ratio (z) = 0.61041 -0.28800
#
# Static dielectric constant tensor:
#      x y z
#    x 2.010650 0.000000 0.000000 
#    y 0.000000 1.908550 0.000000 
#    z 0.000000 0.000000 2.102550 
# 
# From -- ./inp_files/1026.got.cif
#   From: 2010.05.17/outbox.cif.g08.bks.cpg/sg36_1_cif.got.tgz:1026.got - 2010.06.03 17:41:39.
