data_PCOD9352529
_publ_section_title
;
Structure prediction by ZEFSAII (Michael W. Deem and Ramdas Pophale) SiO2 
 PCOD9352529
Probable space group: C M C 21
;
_chemical_formula_sum "Si O2"
_cell_formula_units_Z 56
_cell_length_a 23.040859
_cell_length_b 8.027623
_cell_length_c 14.585759
_cell_angle_alpha 90.000000
_cell_angle_beta 90.000000
_cell_angle_gamma 90.000000
_cell_volume 2697.830550
_symmetry_space_group_name_H-M "C M C 21"
_symmetry_group_IT_number 36
_symmetry_cell_setting 'orthorhombic'
loop_
_space_group_symop_operation_xyz
x,y,z
-x,-y,1/2+z
x,-y,1/2+z
-x,y,z
1/2+x,1/2+y,z
1/2-x,1/2-y,1/2+z
1/2+x,1/2-y,1/2+z
1/2-x,1/2+y,z
loop_
_atom_site_type_symbol
_atom_site_label
_atom_site_fract_x
_atom_site_fract_y
_atom_site_fract_z
Si Si1 0.937089 0.659478 0.688790
Si Si2 0.681089 0.962242 0.114236
Si Si3 0.193205 0.160296 0.617350
Si Si4 0.193205 0.160297 0.394423
Si Si5 0.181088 0.537759 0.397537
Si Si6 0.437089 0.159479 0.322983
Si Si7 0.391455 0.500000 0.255886
O O1 0.878221 0.633192 0.632557
O O2 0.938076 0.500000 0.755887
O O3 0.000000 0.660446 0.640151
O O4 0.929069 0.835006 0.739850
O O5 0.740396 0.875812 0.145890
O O6 0.677770 0.152230 0.148671
O O7 0.688435 0.977324 0.005886
O O8 0.188124 0.146830 0.505886
O O9 0.150203 0.035836 0.668985
O O10 0.177770 0.347771 0.363102
O O11 0.259604 0.124189 0.365883
O O12 0.150203 0.035837 0.342787
O O13 0.121779 0.633193 0.379217
O O14 0.500000 0.160448 0.371621
O O15 0.429069 0.335006 0.271922
#
# Coordination Sequence:
#
# PCOD9352529 Si02
#       7
#     8   8   8   8   8   8   8
#     4  11  24  41  61  89 122 163 211 254 302 372
#     4  10  21  40  62  90 128 163 206 263 314 371
#     4  10  22  38  62  97 128 160 210 263 316 383
#     4  10  22  38  62  97 128 160 210 263 316 383
#     4  10  21  40  62  90 128 163 206 263 314 371
#     4  11  24  41  61  89 122 163 211 254 302 372
#     4  12  23  40  70  90 127 168 206 260 326 364
#
# _framework density 20.757418999999999
#
# number of rings (size 3 to 8) (size 9 to 14) (size 15 to 20)
#    0.000    1.429    2.857    2.143    2.000    6.286 
#    0.000    0.000    0.000    2.571    0.000    0.000 
#    0.000    0.000    0.000    0.000    0.000    0.000 
#
# Total GULP energy -156355.566044 kJ/mol
# GULP energy per Si atom -5584.127359 kJ/mol
# Density = 2.071017 g / cm^3
# Si number density = 20.757419 Si / 1000 Ang^3
#
#
#
# Elastic Constant Matrix: (Units=GPa)
#
#
# Indices 1 2 3 4 5 6 
#
# 1 142.0796 51.6087 18.9809 0.0000 0.0000 0.0000
# 2 51.6087 143.3786 16.5486 0.0000 0.0000 0.0000
# 3 18.9809 16.5486 33.6139 0.0000 0.0000 0.0000
# 4 0.0000 0.0000 0.0000 29.1798 0.0000 0.0000
# 5 0.0000 0.0000 0.0000 0.0000 3.8427 0.0000
# 6 0.0000 0.0000 0.0000 0.0000 0.0000 -50.8346
#
#
#
# Elastic Compliance Matrix: (Units=1/GPa)
#
#
# Indices 1 2 3 4 5 6 
#
# 1 0.008464 -0.002645 -0.003477 0.000000 0.000000 0.000000
# 2 -0.002645 0.008221 -0.002554 0.000000 0.000000 0.000000
# 3 -0.003477 -0.002554 0.032970 0.000000 0.000000 0.000000
# 4 0.000000 0.000000 0.000000 0.034270 0.000000 0.000000
# 5 0.000000 0.000000 0.000000 0.000000 0.260234 0.000000
# 6 0.000000 0.000000 0.000000 0.000000 0.000000 -0.019672
#
#
# Mechanical properties :
#
#
# Convention : Reuss Voigt Hill
#
# Bulk Modulus (GPa) = 30.95656 54.81652 42.88654
# Shear Modulus (GPa) = 14.18006 11.89984 13.03995
#
# Velocity S-wave (km/s) = 2.61652 2.39693 2.50912
# Velocity P-wave (km/s) = 4.90653 5.84173 5.39444
#
# Compressibility (1/GPa) = 0.03230334
#
# Stress axis : x y z
#
# Youngs Moduli (GPa) = 118.15270 121.63348 30.33040
#
# Poissons Ratio (x) = 0.32174 0.10546
# Poissons Ratio (y) = 0.31253 0.07746
# Poissons Ratio (z) = 0.41081 0.31064
#
# Static dielectric constant tensor:
#      x y z
#    x 1.738480 0.000000 0.000000 
#    y 0.000000 1.770190 0.000000 
#    z 0.000000 0.000000 1.748460 
# 
# From -- ./inp_files/12845.got.cif
#   From: 2010.05.17/outbox.cif.g08.bks.cpg/sg36_7_cif.got.tgz:12845.got - 2010.06.03 17:41:39.
