data_PCOD9352644
_publ_section_title
;
Structure prediction by ZEFSAII (Michael W. Deem and Ramdas Pophale) SiO2 
 PCOD9352644
Probable space group: C M C 21
;
_chemical_formula_sum "Si O2"
_cell_formula_units_Z 40
_cell_length_a 29.798927
_cell_length_b 9.398461
_cell_length_c 5.116038
_cell_angle_alpha 90.000000
_cell_angle_beta 90.000000
_cell_angle_gamma 90.000000
_cell_volume 1432.818339
_symmetry_space_group_name_H-M "C M C 21"
_symmetry_group_IT_number 36
_symmetry_cell_setting 'orthorhombic'
loop_
_space_group_symop_operation_xyz
x,y,z
-x,-y,1/2+z
x,-y,1/2+z
-x,y,z
1/2+x,1/2+y,z
1/2-x,1/2-y,1/2+z
1/2+x,1/2-y,1/2+z
1/2-x,1/2+y,z
loop_
_atom_site_type_symbol
_atom_site_label
_atom_site_fract_x
_atom_site_fract_y
_atom_site_fract_z
Si Si1 0.595994 0.903647 0.311240
Si Si2 0.750005 0.834069 0.864529
Si Si3 0.904009 0.096353 0.918255
Si Si4 0.330233 0.249953 0.114818
Si Si5 0.500000 0.904400 0.416230
Si Si6 0.000000 0.095594 0.813243
O O1 0.637423 0.807265 0.392728
O O2 0.547513 0.831660 0.360730
O O3 0.597574 0.030525 0.524965
O O4 0.729926 0.749779 0.114286
O O5 0.704054 0.876656 0.714402
O O6 0.795925 0.876488 0.015131
O O7 0.862590 0.192767 0.836765
O O8 0.902425 0.030527 0.204532
O O9 0.952490 0.168335 0.868768
O O10 0.500000 0.965556 0.708200
O O11 0.000000 0.965545 0.021262
#
# Coordination Sequence:
#
# PCOD9352644 Si02
#       6
#     8   8   8   8   4   4
#     4  10  22  35  59  84 109 146 183 219 273 328
#     4   8  20  36  56  74 112 142 172 240 274 294
#     4  10  22  35  59  84 109 146 183 219 273 328
#     4  10  22  39  60  76 116 143 184 226 276 320
#     4   8  16  35  50  79 116 134 172 231 260 311
#     4   8  16  35  50  79 116 134 172 231 260 311
#
# _framework density 27.917005
#
# number of rings (size 3 to 8) (size 9 to 14) (size 15 to 20)
#    1.200    1.600    0.000    0.000    5.600    0.800 
#    0.000    6.000    0.000   14.400    0.000    0.000 
#    0.000    0.000    0.000    0.000    0.000    0.000 
#
# Total GULP energy -111504.154526 kJ/mol
# GULP energy per Si atom -5575.207726 kJ/mol
# Density = 2.785346 g / cm^3
# Si number density = 27.917005 Si / 1000 Ang^3
#
#
#
# Elastic Constant Matrix: (Units=GPa)
#
#
# Indices 1 2 3 4 5 6 
#
# 1 266.9600 48.1593 12.5434 0.0000 0.0000 0.0000
# 2 48.1593 61.4985 54.3355 0.0000 0.0000 0.0000
# 3 12.5434 54.3355 160.5964 0.0000 0.0000 0.0000
# 4 0.0000 0.0000 0.0000 51.9735 0.0000 0.0000
# 5 0.0000 0.0000 0.0000 0.0000 5.8933 0.0000
# 6 0.0000 0.0000 0.0000 0.0000 0.0000 -12.4532
#
#
#
# Elastic Compliance Matrix: (Units=1/GPa)
#
#
# Indices 1 2 3 4 5 6 
#
# 1 0.004520 -0.004604 0.001205 0.000000 0.000000 0.000000
# 2 -0.004604 0.027883 -0.009074 0.000000 0.000000 0.000000
# 3 0.001205 -0.009074 0.009203 0.000000 0.000000 0.000000
# 4 0.000000 0.000000 0.000000 0.019241 0.000000 0.000000
# 5 0.000000 0.000000 0.000000 0.000000 0.169684 0.000000
# 6 0.000000 0.000000 0.000000 0.000000 0.000000 -0.080300
#
#
# Mechanical properties :
#
#
# Convention : Reuss Voigt Hill
#
# Bulk Modulus (GPa) = 60.02796 79.90347 69.96571
# Shear Modulus (GPa) = 27.66564 34.01716 30.84140
#
# Velocity S-wave (km/s) = 3.15142 3.49450 3.32739
# Velocity P-wave (km/s) = 5.89838 6.70567 6.31494
#
# Compressibility (1/GPa) = 0.01665890
#
# Stress axis : x y z
#
# Youngs Moduli (GPa) = 221.24949 35.86412 108.66198
#
# Poissons Ratio (x) = 0.16511 -0.13089
# Poissons Ratio (y) = 1.01857 0.98603
# Poissons Ratio (z) = -0.26651 0.32544
#
# Static dielectric constant tensor:
#      x y z
#    x 2.151450 0.000000 0.000000 
#    y 0.000000 2.443560 0.000000 
#    z 0.000000 0.000000 0.078500 
# 
# From -- ./inp_files/1842.got.cif
#   From: 2010.05.17/outbox.cif.g08.bks.cpg/sg36_1_cif.got.tgz:1842.got - 2010.06.03 17:41:39.
