data_PCOD9352750
_publ_section_title
;
Structure prediction by ZEFSAII (Michael W. Deem and Ramdas Pophale) SiO2 
 PCOD9352750
Probable space group: C M C 21
;
_chemical_formula_sum "Si O2"
_cell_formula_units_Z 56
_cell_length_a 11.098156
_cell_length_b 23.109185
_cell_length_c 10.881571
_cell_angle_alpha 90.000000
_cell_angle_beta 90.000000
_cell_angle_gamma 90.000000
_cell_volume 2790.789334
_symmetry_space_group_name_H-M "C M C 21"
_symmetry_group_IT_number 36
_symmetry_cell_setting 'orthorhombic'
loop_
_space_group_symop_operation_xyz
x,y,z
-x,-y,1/2+z
x,-y,1/2+z
-x,y,z
1/2+x,1/2+y,z
1/2-x,1/2-y,1/2+z
1/2+x,1/2-y,1/2+z
1/2-x,1/2+y,z
loop_
_atom_site_type_symbol
_atom_site_label
_atom_site_fract_x
_atom_site_fract_y
_atom_site_fract_z
Si Si1 0.500000 0.051916 0.858580
Si Si2 0.133693 0.876750 0.879761
Si Si3 0.239789 0.910617 0.627549
Si Si4 0.639996 0.682532 0.943024
Si Si5 0.636839 0.467734 0.097815
Si Si6 0.711584 0.123774 0.745467
Si Si7 0.635385 0.182499 0.492229
Si Si8 0.000000 0.547539 0.146435
O O1 0.614283 0.093324 0.833415
O O2 0.500000 0.003378 0.749576
O O3 0.500000 0.028935 0.000000
O O4 0.157254 0.901407 0.745987
O O5 0.000000 0.848871 0.887882
O O6 0.135020 0.929173 0.975883
O O7 0.249572 0.838450 0.914285
O O8 0.207313 0.859375 0.536906
O O9 0.379461 0.915156 0.662992
O O10 0.205917 0.973074 0.573529
O O11 0.500000 0.665257 0.931232
O O12 0.642470 0.748088 0.990543
O O13 0.708427 0.671337 0.815198
O O14 0.500000 0.479667 0.135873
O O15 0.704285 0.428407 0.197643
O O16 0.651313 0.153636 0.626545
O O17 0.500000 0.166606 0.446971
#
# Coordination Sequence:
#
# PCOD9352750 Si02
#       8
#     4   8   8   8   8   8   8   4
#     4  12  24  46  68 102 140 184 228 281 352 427
#     4  10  24  44  67  99 133 174 225 280 342 415
#     4  12  25  42  64 100 134 171 220 278 343 409
#     4  11  25  44  67  98 132 172 228 279 335 404
#     4  10  22  40  65  97 131 172 212 267 344 412
#     4  11  22  43  70  95 130 177 224 275 345 412
#     4  10  24  45  71  98 131 180 228 287 348 411
#     4  12  28  42  68 104 144 182 232 289 350 427
#
# _framework density 20.066008
#
# number of rings (size 3 to 8) (size 9 to 14) (size 15 to 20)
#    0.000    1.143    3.571    1.714    7.000    0.571 
#    2.571    0.000    0.000    0.000    0.000    0.000 
#    0.000    0.000    0.000    0.000    0.000    0.000 
#
# Total GULP energy -156394.382386 kJ/mol
# GULP energy per Si atom -5585.513657 kJ/mol
# Density = 2.002034 g / cm^3
# Si number density = 20.066008 Si / 1000 Ang^3
#
#
#
# Elastic Constant Matrix: (Units=GPa)
#
#
# Indices 1 2 3 4 5 6 
#
# 1 160.3516 46.6408 20.3401 0.0000 0.0000 0.0000
# 2 46.6408 74.2268 4.3626 0.0000 0.0000 0.0000
# 3 20.3401 4.3626 55.6218 0.0000 0.0000 0.0000
# 4 0.0000 0.0000 0.0000 12.1486 0.0000 0.0000
# 5 0.0000 0.0000 0.0000 0.0000 18.4164 0.0000
# 6 0.0000 0.0000 0.0000 0.0000 0.0000 21.9765
#
#
#
# Elastic Compliance Matrix: (Units=1/GPa)
#
#
# Indices 1 2 3 4 5 6 
#
# 1 0.007971 -0.004860 -0.002534 0.000000 0.000000 0.000000
# 2 -0.004860 0.016498 0.000483 0.000000 0.000000 0.000000
# 3 -0.002534 0.000483 0.018867 0.000000 0.000000 0.000000
# 4 0.000000 0.000000 0.000000 0.082314 0.000000 0.000000
# 5 0.000000 0.000000 0.000000 0.000000 0.054300 0.000000
# 6 0.000000 0.000000 0.000000 0.000000 0.000000 0.045503
#
#
# Mechanical properties :
#
#
# Convention : Reuss Voigt Hill
#
# Bulk Modulus (GPa) = 33.88091 48.09861 40.98976
# Shear Modulus (GPa) = 20.07130 25.09874 22.58502
#
# Velocity S-wave (km/s) = 3.16613 3.54051 3.35854
# Velocity P-wave (km/s) = 5.50338 6.38247 5.95916
#
# Compressibility (1/GPa) = 0.02951514
#
# Stress axis : x y z
#
# Youngs Moduli (GPa) = 125.45049 60.61508 53.00195
#
# Poissons Ratio (x) = 0.29458 0.13430
# Poissons Ratio (y) = 0.60967 -0.02561
# Poissons Ratio (z) = 0.31787 -0.02929
#
# Static dielectric constant tensor:
#      x y z
#    x 1.733070 0.000000 0.000000 
#    y 0.000000 1.657210 0.000000 
#    z 0.000000 0.000000 1.739160 
# 
# From -- ./inp_files/7866.got.cif
#   From: 2010.05.17/outbox.cif.g08.bks.cpg/sg36_4_cif.got.tgz:7866.got - 2010.06.03 17:41:39.
