data_PCOD9352776
_publ_section_title
;
Structure prediction by ZEFSAII (Michael W. Deem and Ramdas Pophale) SiO2 
 PCOD9352776
Probable space group: C M C 21
;
_chemical_formula_sum "Si O2"
_cell_formula_units_Z 64
_cell_length_a 8.938564
_cell_length_b 30.907464
_cell_length_c 12.153654
_cell_angle_alpha 90.000000
_cell_angle_beta 90.000000
_cell_angle_gamma 90.000000
_cell_volume 3357.669877
_symmetry_space_group_name_H-M "C M C 21"
_symmetry_group_IT_number 36
_symmetry_cell_setting 'orthorhombic'
loop_
_space_group_symop_operation_xyz
x,y,z
-x,-y,1/2+z
x,-y,1/2+z
-x,y,z
1/2+x,1/2+y,z
1/2-x,1/2-y,1/2+z
1/2+x,1/2-y,1/2+z
1/2-x,1/2+y,z
loop_
_atom_site_type_symbol
_atom_site_label
_atom_site_fract_x
_atom_site_fract_y
_atom_site_fract_z
Si Si1 0.819809 0.622974 0.162840
Si Si2 0.676691 0.554917 0.741189
Si Si3 0.822186 0.806384 0.251417
Si Si4 0.176404 0.955580 0.799247
Si Si5 0.179279 0.707958 0.303794
Si Si6 0.179281 0.622129 0.904740
Si Si7 0.822920 0.576506 0.509068
Si Si8 0.322830 0.333791 0.001580
O O1 0.746393 0.582079 0.223991
O O2 0.779405 0.668244 0.222762
O O3 0.000000 0.618553 0.170811
O O4 0.779428 0.623784 0.033656
O O5 0.500000 0.564719 0.736534
O O6 0.696489 0.503481 0.751252
O O7 0.747633 0.581359 0.842105
O O8 0.753554 0.569643 0.628671
O O9 0.788456 0.755488 0.257434
O O10 0.734919 0.835451 0.339253
O O11 0.791130 0.822426 0.127921
O O12 0.000000 0.812012 0.271226
O O13 0.000000 0.947247 0.811997
O O14 0.253761 0.954938 0.918355
O O15 0.268294 0.702330 0.417155
O O16 0.000000 0.705099 0.322747
O O17 0.000000 0.619178 0.897008
O O18 0.771424 0.623953 0.471073
O O19 0.000000 0.572959 0.512524
O O20 0.500000 0.341802 0.990154
#
# Coordination Sequence:
#
# PCOD9352776 Si02
#       8
#     8   8   8   8   8   8   8   8
#     4  10  23  42  63  90 127 166 206 258 312 368
#     4  11  25  44  65  92 127 166 209 259 314 373
#     4  10  23  41  63  90 126 168 209 259 316 372
#     4  11  25  43  66  94 125 165 209 256 314 376
#     4  10  22  41  63  90 125 168 211 258 314 369
#     4  11  24  41  64  93 126 167 211 257 315 373
#     4  12  24  41  67  94 125 163 208 263 314 372
#     4  11  22  39  65  93 123 163 209 262 317 371
#
# _framework density 19.060839000000001
#
# number of rings (size 3 to 8) (size 9 to 14) (size 15 to 20)
#    0.000    1.250    2.500    2.625    3.500    4.000 
#    0.000    0.000    0.000    0.000    0.000    0.000 
#    0.000    0.000    0.000    0.000    0.000    0.000 
#
# Total GULP energy -178873.590756 kJ/mol
# GULP energy per Si atom -5589.799711 kJ/mol
# Density = 1.901746 g / cm^3
# Si number density = 19.060839 Si / 1000 Ang^3
#
#
#
# Elastic Constant Matrix: (Units=GPa)
#
#
# Indices 1 2 3 4 5 6 
#
# 1 62.0888 51.3327 50.9765 0.0000 0.0000 0.0000
# 2 51.3327 96.3204 40.8837 0.0000 0.0000 0.0000
# 3 50.9765 40.8837 120.2889 0.0000 0.0000 0.0000
# 4 0.0000 0.0000 0.0000 22.2637 0.0000 0.0000
# 5 0.0000 0.0000 0.0000 0.0000 27.7006 0.0000
# 6 0.0000 0.0000 0.0000 0.0000 0.0000 26.7920
#
#
#
# Elastic Compliance Matrix: (Units=1/GPa)
#
#
# Indices 1 2 3 4 5 6 
#
# 1 0.037800 -0.015595 -0.010718 0.000000 0.000000 0.000000
# 2 -0.015595 0.018567 0.000299 0.000000 0.000000 0.000000
# 3 -0.010718 0.000299 0.012754 0.000000 0.000000 0.000000
# 4 0.000000 0.000000 0.000000 0.044916 0.000000 0.000000
# 5 0.000000 0.000000 0.000000 0.000000 0.036100 0.000000
# 6 0.000000 0.000000 0.000000 0.000000 0.000000 0.037325
#
#
# Mechanical properties :
#
#
# Convention : Reuss Voigt Hill
#
# Bulk Modulus (GPa) = 58.51296 62.78710 60.65003
# Shear Modulus (GPa) = 20.39249 24.38492 22.38871
#
# Velocity S-wave (km/s) = 3.27442 3.58064 3.43095
# Velocity P-wave (km/s) = 6.71271 7.07860 6.89808
#
# Compressibility (1/GPa) = 0.01709023
#
# Stress axis : x y z
#
# Youngs Moduli (GPa) = 26.45525 53.86020 78.40630
#
# Poissons Ratio (x) = 0.83997 0.84039
# Poissons Ratio (y) = 0.41258 -0.02342
# Poissons Ratio (z) = 0.28356 -0.01609
#
# Static dielectric constant tensor:
#      x y z
#    x 1.637510 0.000000 0.000000 
#    y 0.000000 1.663850 0.000000 
#    z 0.000000 0.000000 1.635250 
# 
# From -- ./inp_files/7106.got.cif
#   From: 2010.05.17/outbox.cif.g08.bks.cpg/sg36_4_cif.got.tgz:7106.got - 2010.06.03 17:41:39.
