data_PCOD9352111
_publ_section_title
;
Structure prediction by ZEFSAII (Michael W. Deem and Ramdas Pophale) SiO2 
 PCOD9352111
Probable space group: C M C 21
;
_chemical_formula_sum "Si O2"
_cell_formula_units_Z 48
_cell_length_a 23.976016
_cell_length_b 11.966226
_cell_length_c 8.539039
_cell_angle_alpha 90.000000
_cell_angle_beta 90.000000
_cell_angle_gamma 90.000000
_cell_volume 2449.871005
_symmetry_space_group_name_H-M "C M C 21"
_symmetry_group_IT_number 36
_symmetry_cell_setting 'orthorhombic'
loop_
_space_group_symop_operation_xyz
x,y,z
-x,-y,1/2+z
x,-y,1/2+z
-x,y,z
1/2+x,1/2+y,z
1/2-x,1/2-y,1/2+z
1/2+x,1/2-y,1/2+z
1/2-x,1/2+y,z
loop_
_atom_site_type_symbol
_atom_site_label
_atom_site_fract_x
_atom_site_fract_y
_atom_site_fract_z
Si Si1 0.841441 0.974427 0.970860
Si Si2 0.064726 0.622034 0.177906
Si Si3 0.327842 0.259599 0.770008
Si Si4 0.132997 0.165701 0.775041
Si Si5 0.565466 0.877959 0.301037
Si Si6 0.764905 0.167877 0.969944
O O1 0.834330 0.885531 0.832574
O O2 0.880611 0.076618 0.913035
O O3 0.863739 0.906243 0.117197
O O4 0.782435 0.038400 0.999337
O O5 0.096802 0.725562 0.252400
O O6 0.082088 0.500801 0.240510
O O7 0.000000 0.633460 0.220142
O O8 0.069091 0.625536 0.989727
O O9 0.388501 0.208130 0.737954
O O10 0.289072 0.264286 0.616892
O O11 0.296881 0.192445 0.910706
O O12 0.195118 0.201383 0.824955
O O13 0.500000 0.857636 0.258149
#
# Coordination Sequence:
#
# PCOD9352111 Si02
#       6
#     8   8   8   8   8   8
#     4  10  20  40  62  87 132 162 208 267 322 392
#     4  10  22  42  66  96 132 173 223 277 324 390
#     4  12  22  42  66  93 129 175 213 273 336 394
#     4  10  20  42  61  90 129 167 211 270 331 384
#     4  10  24  43  66  95 131 174 223 275 329 391
#     4  10  24  37  62  95 130 165 216 268 332 395
#
# _framework density 19.592867999999999
#
# number of rings (size 3 to 8) (size 9 to 14) (size 15 to 20)
#    1.000    0.667    3.333    1.000    2.333    1.333 
#    3.000    1.667    0.000    0.000    0.000    0.000 
#    0.000    0.000    0.000    0.000    0.000    0.000 
#
# Total GULP energy -133714.219504 kJ/mol
# GULP energy per Si atom -5571.425813 kJ/mol
# Density = 1.954827 g / cm^3
# Si number density = 19.592868 Si / 1000 Ang^3
#
#
#
# Elastic Constant Matrix: (Units=GPa)
#
#
# Indices 1 2 3 4 5 6 
#
# 1 69.7904 54.2293 21.6549 0.0000 0.0000 0.0000
# 2 54.2293 101.5686 18.7588 0.0000 0.0000 0.0000
# 3 21.6549 18.7588 61.0409 0.0000 0.0000 0.0000
# 4 0.0000 0.0000 0.0000 36.6010 0.0000 0.0000
# 5 0.0000 0.0000 0.0000 0.0000 20.3752 0.0000
# 6 0.0000 0.0000 0.0000 0.0000 0.0000 27.7840
#
#
#
# Elastic Compliance Matrix: (Units=1/GPa)
#
#
# Indices 1 2 3 4 5 6 
#
# 1 0.025985 -0.012904 -0.005253 0.000000 0.000000 0.000000
# 2 -0.012904 0.016846 -0.000599 0.000000 0.000000 0.000000
# 3 -0.005253 -0.000599 0.018430 0.000000 0.000000 0.000000
# 4 0.000000 0.000000 0.000000 0.027322 0.000000 0.000000
# 5 0.000000 0.000000 0.000000 0.000000 0.049079 0.000000
# 6 0.000000 0.000000 0.000000 0.000000 0.000000 0.035992
#
#
# Mechanical properties :
#
#
# Convention : Reuss Voigt Hill
#
# Bulk Modulus (GPa) = 42.10675 46.85399 44.48037
# Shear Modulus (GPa) = 22.82248 26.13584 24.47916
#
# Velocity S-wave (km/s) = 3.41667 3.65629 3.53851
# Velocity P-wave (km/s) = 6.09117 6.46454 6.28063
#
# Compressibility (1/GPa) = 0.02374916
#
# Stress axis : x y z
#
# Youngs Moduli (GPa) = 38.48352 59.36206 54.25885
#
# Poissons Ratio (x) = 0.76599 0.28502
# Poissons Ratio (y) = 0.49658 0.03251
# Poissons Ratio (z) = 0.20215 0.03557
#
# Static dielectric constant tensor:
#      x y z
#    x 1.700420 0.000000 0.000000 
#    y 0.000000 1.687210 0.000000 
#    z 0.000000 0.000000 1.739390 
# 
# From -- ./inp_files/5766.got.cif
#   From: 2010.05.17/outbox.cif.g08.bks.cpg/sg36_3_cif.got.tgz:5766.got - 2010.06.03 17:41:39.
