data_PCOD9352289
_publ_section_title
;
Structure prediction by ZEFSAII (Michael W. Deem and Ramdas Pophale) SiO2 
 PCOD9352289
Probable space group: C M C 21
;
_chemical_formula_sum "Si O2"
_cell_formula_units_Z 56
_cell_length_a 19.096606
_cell_length_b 19.149314
_cell_length_c 7.912562
_cell_angle_alpha 90.000000
_cell_angle_beta 90.000000
_cell_angle_gamma 90.000000
_cell_volume 2893.520305
_symmetry_space_group_name_H-M "C M C 21"
_symmetry_group_IT_number 36
_symmetry_cell_setting 'orthorhombic'
loop_
_space_group_symop_operation_xyz
x,y,z
-x,-y,1/2+z
x,-y,1/2+z
-x,y,z
1/2+x,1/2+y,z
1/2-x,1/2-y,1/2+z
1/2+x,1/2-y,1/2+z
1/2-x,1/2+y,z
loop_
_atom_site_type_symbol
_atom_site_label
_atom_site_fract_x
_atom_site_fract_y
_atom_site_fract_z
Si Si1 0.915324 0.555017 0.240040
Si Si2 0.714818 0.398649 0.174033
Si Si3 0.632045 0.905030 0.115776
Si Si4 0.580712 0.680698 0.565355
Si Si5 0.832432 0.963132 0.480777
Si Si6 0.078033 0.934264 0.772997
Si Si7 0.417092 0.163793 0.952014
O O1 0.899488 0.585178 0.427630
O O2 0.876066 0.482134 0.201272
O O3 0.000000 0.542482 0.228889
O O4 0.891490 0.608549 0.092985
O O5 0.788976 0.375697 0.102715
O O6 0.722440 0.422622 0.367520
O O7 0.646409 0.349638 0.169970
O O8 0.699145 0.468602 0.067393
O O9 0.598204 0.855821 0.258457
O O10 0.500000 0.682287 0.636898
O O11 0.576997 0.626855 0.409087
O O12 0.601538 0.757380 0.502102
O O13 0.868796 0.917669 0.623535
O O14 0.893097 0.995223 0.360289
O O15 0.000000 0.946527 0.707687
O O16 0.500000 0.160236 0.970063
#
# Coordination Sequence:
#
# PCOD9352289 Si02
#       7
#     8   8   8   8   8   8   8
#     4  11  22  38  65  95 119 153 200 251 312 369
#     4  10  21  37  55  88 119 158 197 245 306 357
#     4  12  22  38  63  93 123 155 195 253 314 362
#     4   9  20  41  59  78 120 165 202 249 298 355
#     4   9  18  31  51  78 115 148 191 247 290 350
#     4   9  16  29  52  78 105 146 197 247 295 339
#     4  10  22  42  63  86 119 159 202 250 304 366
#
# _framework density 19.353587999999998
#
# number of rings (size 3 to 8) (size 9 to 14) (size 15 to 20)
#    0.000    2.000    1.429    2.571    0.000    4.000 
#    5.143    0.000    0.000    0.000    0.000    0.000 
#    0.000    0.000    0.000    0.000    0.000    0.000 
#
# Total GULP energy -155948.170959 kJ/mol
# GULP energy per Si atom -5569.577534 kJ/mol
# Density = 1.930954 g / cm^3
# Si number density = 19.353588 Si / 1000 Ang^3
#
#
#
# Elastic Constant Matrix: (Units=GPa)
#
#
# Indices 1 2 3 4 5 6 
#
# 1 41.3131 11.9889 3.4144 0.0000 0.0000 0.0000
# 2 11.9889 52.6411 -1.4878 0.0000 0.0000 0.0000
# 3 3.4144 -1.4878 66.8434 0.0000 0.0000 0.0000
# 4 0.0000 0.0000 0.0000 8.8579 0.0000 0.0000
# 5 0.0000 0.0000 0.0000 0.0000 22.6362 0.0000
# 6 0.0000 0.0000 0.0000 0.0000 0.0000 3.1808
#
#
#
# Elastic Compliance Matrix: (Units=1/GPa)
#
#
# Indices 1 2 3 4 5 6 
#
# 1 0.026061 -0.005977 -0.001464 0.000000 0.000000 0.000000
# 2 -0.005977 0.020379 0.000759 0.000000 0.000000 0.000000
# 3 -0.001464 0.000759 0.015052 0.000000 0.000000 0.000000
# 4 0.000000 0.000000 0.000000 0.112894 0.000000 0.000000
# 5 0.000000 0.000000 0.000000 0.000000 0.044177 0.000000
# 6 0.000000 0.000000 0.000000 0.000000 0.000000 0.314389
#
#
# Mechanical properties :
#
#
# Convention : Reuss Voigt Hill
#
# Bulk Modulus (GPa) = 20.77790 20.95870 20.86830
# Shear Modulus (GPa) = 8.89112 16.72711 12.80912
#
# Velocity S-wave (km/s) = 2.14570 2.94307 2.57543
# Velocity P-wave (km/s) = 4.11071 4.73305 4.43281
#
# Compressibility (1/GPa) = 0.04812807
#
# Stress axis : x y z
#
# Youngs Moduli (GPa) = 38.37180 49.06965 66.43626
#
# Poissons Ratio (x) = 0.29327 0.09728
# Poissons Ratio (y) = 0.22934 -0.05042
# Poissons Ratio (z) = 0.05618 -0.03724
#
# Static dielectric constant tensor:
#      x y z
#    x 1.734290 0.000000 0.000000 
#    y 0.000000 1.680410 0.000000 
#    z 0.000000 0.000000 1.690890 
# 
# From -- ./inp_files/5286.got.cif
#   From: 2010.05.17/outbox.cif.g08.bks.cpg/sg36_3_cif.got.tgz:5286.got - 2010.06.03 17:41:39.
