data_PCOD9352602
_publ_section_title
;
Structure prediction by ZEFSAII (Michael W. Deem and Ramdas Pophale) SiO2 
 PCOD9352602
Probable space group: C M C 21
;
_chemical_formula_sum "Si O2"
_cell_formula_units_Z 48
_cell_length_a 8.813074
_cell_length_b 24.108872
_cell_length_c 12.144945
_cell_angle_alpha 90.000000
_cell_angle_beta 90.000000
_cell_angle_gamma 90.000000
_cell_volume 2580.476214
_symmetry_space_group_name_H-M "C M C 21"
_symmetry_group_IT_number 36
_symmetry_cell_setting 'orthorhombic'
loop_
_space_group_symop_operation_xyz
x,y,z
-x,-y,1/2+z
x,-y,1/2+z
-x,y,z
1/2+x,1/2+y,z
1/2-x,1/2-y,1/2+z
1/2+x,1/2-y,1/2+z
1/2-x,1/2+y,z
loop_
_atom_site_type_symbol
_atom_site_label
_atom_site_fract_x
_atom_site_fract_y
_atom_site_fract_z
Si Si1 0.181468 0.287648 0.771710
Si Si2 0.681358 0.539851 0.318682
Si Si3 0.819956 0.394090 0.621659
Si Si4 0.681560 0.355495 0.969667
Si Si5 0.681419 0.585766 0.884033
Si Si6 0.318924 0.830550 0.206744
O O1 0.212502 0.335102 0.680369
O O2 0.253861 0.309965 0.884866
O O3 0.251820 0.229657 0.735896
O O4 0.000000 0.282886 0.783984
O O5 0.500000 0.542433 0.298367
O O6 0.765993 0.559757 0.209050
O O7 0.715440 0.584921 0.413696
O O8 0.720276 0.477954 0.355328
O O9 0.734149 0.400540 0.507166
O O10 0.000000 0.398079 0.603919
O O11 0.500000 0.349834 0.978846
O O12 0.756562 0.348935 0.088017
O O13 0.500000 0.592021 0.874882
O O14 0.761586 0.626431 0.798313
O O15 0.500000 0.828271 0.205392
#
# Coordination Sequence:
#
# PCOD9352602 Si02
#       6
#     8   8   8   8   8   8
#     4  10  22  42  65  90 122 162 205 253 308 367
#     4   9  21  41  65  90 120 163 206 247 303 367
#     4  10  22  40  64  93 124 158 201 253 309 365
#     4  10  21  41  66  92 123 160 203 253 306 367
#     4  11  24  41  63  91 125 164 207 252 302 363
#     4  12  26  41  61  92 126 163 206 254 308 363
#
# _framework density 18.601217999999999
#
# number of rings (size 3 to 8) (size 9 to 14) (size 15 to 20)
#    0.000    1.667    0.000    3.500    4.667    4.000 
#    0.000    0.000    0.000    0.000    0.000    0.000 
#    0.000    0.000    0.000    0.000    0.000    0.000 
#
# Total GULP energy -134190.522694 kJ/mol
# GULP energy per Si atom -5591.271779 kJ/mol
# Density = 1.855888 g / cm^3
# Si number density = 18.601218 Si / 1000 Ang^3
#
#
#
# Elastic Constant Matrix: (Units=GPa)
#
#
# Indices 1 2 3 4 5 6 
#
# 1 91.5845 68.6897 73.4273 0.0000 0.0000 0.0000
# 2 68.6897 114.7415 76.3452 0.0000 0.0000 0.0000
# 3 73.4273 76.3452 149.9554 0.0000 0.0000 0.0000
# 4 0.0000 0.0000 0.0000 12.0932 0.0000 0.0000
# 5 0.0000 0.0000 0.0000 0.0000 42.6157 0.0000
# 6 0.0000 0.0000 0.0000 0.0000 0.0000 29.3750
#
#
#
# Elastic Compliance Matrix: (Units=1/GPa)
#
#
# Indices 1 2 3 4 5 6 
#
# 1 0.023412 -0.009660 -0.006546 0.000000 0.000000 0.000000
# 2 -0.009660 0.017166 -0.004009 0.000000 0.000000 0.000000
# 3 -0.006546 -0.004009 0.011915 0.000000 0.000000 0.000000
# 4 0.000000 0.000000 0.000000 0.082691 0.000000 0.000000
# 5 0.000000 0.000000 0.000000 0.000000 0.023466 0.000000
# 6 0.000000 0.000000 0.000000 0.000000 0.000000 0.034043
#
#
# Mechanical properties :
#
#
# Convention : Reuss Voigt Hill
#
# Bulk Modulus (GPa) = 82.90122 88.13400 85.51761
# Shear Modulus (GPa) = 21.08418 26.00473 23.54446
#
# Velocity S-wave (km/s) = 3.37038 3.74306 3.56160
# Velocity P-wave (km/s) = 7.73371 8.13414 7.93645
#
# Compressibility (1/GPa) = 0.01206255
#
# Stress axis : x y z
#
# Youngs Moduli (GPa) = 42.71238 58.25457 83.92724
#
# Poissons Ratio (x) = 0.56276 0.54938
# Poissons Ratio (y) = 0.41262 0.33648
# Poissons Ratio (z) = 0.27959 0.23356
#
# Static dielectric constant tensor:
#      x y z
#    x 1.618200 0.000000 0.000000 
#    y 0.000000 1.622300 0.000000 
#    z 0.000000 0.000000 1.600820 
# 
# From -- ./inp_files/6727.got.cif
#   From: 2010.05.17/outbox.cif.g08.bks.cpg/sg36_4_cif.got.tgz:6727.got - 2010.06.03 17:41:39.
