data_PCOD9352568
_publ_section_title
;
Structure prediction by ZEFSAII (Michael W. Deem and Ramdas Pophale) SiO2 
 PCOD9352568
Probable space group: C M C 21
;
_chemical_formula_sum "Si O2"
_cell_formula_units_Z 56
_cell_length_a 14.113151
_cell_length_b 30.478296
_cell_length_c 4.998545
_cell_angle_alpha 90.000000
_cell_angle_beta 90.000000
_cell_angle_gamma 90.000000
_cell_volume 2150.098108
_symmetry_space_group_name_H-M "C M C 21"
_symmetry_group_IT_number 36
_symmetry_cell_setting 'orthorhombic'
loop_
_space_group_symop_operation_xyz
x,y,z
-x,-y,1/2+z
x,-y,1/2+z
-x,y,z
1/2+x,1/2+y,z
1/2-x,1/2-y,1/2+z
1/2+x,1/2-y,1/2+z
1/2-x,1/2+y,z
loop_
_atom_site_type_symbol
_atom_site_label
_atom_site_fract_x
_atom_site_fract_y
_atom_site_fract_z
Si Si1 0.111725 0.622640 0.651340
Si Si2 0.712131 0.613776 0.009688
Si Si3 0.114822 0.527224 0.420054
Si Si4 0.896418 0.143794 0.517699
Si Si5 0.389434 0.472524 0.334430
Si Si6 0.866982 0.237774 0.318615
Si Si7 0.854983 0.288503 0.820862
O O1 0.181746 0.623812 0.907806
O O2 0.137229 0.576966 0.499413
O O3 0.127338 0.664489 0.457331
O O4 0.000000 0.620458 0.725215
O O5 0.646290 0.643180 0.813902
O O6 0.679780 0.565461 0.925604
O O7 0.678062 0.622496 0.310496
O O8 0.147610 0.508132 0.139054
O O9 0.000000 0.525976 0.414597
O O10 0.907941 0.193358 0.428015
O O11 0.000000 0.121791 0.505327
O O12 0.375268 0.514148 0.527930
O O13 0.500000 0.459666 0.376120
O O14 0.886907 0.277865 0.521630
O O15 0.755932 0.224241 0.313971
O O16 0.896200 0.253184 0.027572
#
# Coordination Sequence:
#
# PCOD9352568 Si02
#       7
#     8   8   8   8   8   8   8
#     4  11  26  46  73 106 145 197 251 298 356 429
#     4  12  26  44  69 104 146 186 236 298 359 430
#     4   9  20  40  64  93 133 180 233 292 345 402
#     4  12  25  44  72 104 136 180 233 290 368 444
#     4  10  21  40  67 100 138 182 234 295 365 433
#     4  10  22  41  69  99 135 182 225 289 361 427
#     4  10  22  41  67 100 137 181 231 288 349 419
#
# _framework density 26.045324999999998
#
# number of rings (size 3 to 8) (size 9 to 14) (size 15 to 20)
#    0.000    1.429    1.429    3.000    4.000    5.714 
#    0.000    5.000    0.000    0.000    0.000    0.000 
#    0.000    0.000    0.000    0.000    0.000    0.000 
#
# Total GULP energy -156937.882048 kJ/mol
# GULP energy per Si atom -5604.924359 kJ/mol
# Density = 2.598604 g / cm^3
# Si number density = 26.045325 Si / 1000 Ang^3
#
#
#
# Elastic Constant Matrix: (Units=GPa)
#
#
# Indices 1 2 3 4 5 6 
#
# 1 160.7145 18.6120 14.4638 0.0000 0.0000 0.0000
# 2 18.6120 113.2587 -5.4342 0.0000 0.0000 0.0000
# 3 14.4638 -5.4342 75.5475 0.0000 0.0000 0.0000
# 4 0.0000 0.0000 0.0000 38.7489 0.0000 0.0000
# 5 0.0000 0.0000 0.0000 0.0000 -20.4481 0.0000
# 6 0.0000 0.0000 0.0000 0.0000 0.0000 50.7957
#
#
#
# Elastic Compliance Matrix: (Units=1/GPa)
#
#
# Indices 1 2 3 4 5 6 
#
# 1 0.006472 -0.001127 -0.001320 0.000000 0.000000 0.000000
# 2 -0.001127 0.009056 0.000867 0.000000 0.000000 0.000000
# 3 -0.001320 0.000867 0.013552 0.000000 0.000000 0.000000
# 4 0.000000 0.000000 0.000000 0.025807 0.000000 0.000000
# 5 0.000000 0.000000 0.000000 0.000000 -0.048904 0.000000
# 6 0.000000 0.000000 0.000000 0.000000 0.000000 0.019687
#
#
# Mechanical properties :
#
#
# Convention : Reuss Voigt Hill
#
# Bulk Modulus (GPa) = 38.58022 44.97820 41.77921
# Shear Modulus (GPa) = 133.44536 35.27789 84.36163
#
# Velocity S-wave (km/s) = 7.16569 3.68432 5.69742
# Velocity P-wave (km/s) = 9.12730 5.95026 7.70433
#
# Compressibility (1/GPa) = 0.02592002
#
# Stress axis : x y z
#
# Youngs Moduli (GPa) = 154.52349 110.42252 73.79092
#
# Poissons Ratio (x) = 0.12443 0.09741
# Poissons Ratio (y) = 0.17412 -0.06399
# Poissons Ratio (z) = 0.20398 -0.09575
#
# Static dielectric constant tensor:
#      x y z
#    x 2.083850 0.000000 0.000000 
#    y 0.000000 2.013890 0.000000 
#    z 0.000000 0.000000 1.976510 
# 
# From -- ./inp_files/938.got.cif
#   From: 2010.05.17/outbox.cif.g08.bks.cpg/sg36_1_cif.got.tgz:938.got - 2010.06.03 17:41:39.
