data_PCOD9352274
_publ_section_title
;
Structure prediction by ZEFSAII (Michael W. Deem and Ramdas Pophale) SiO2 
 PCOD9352274
Probable space group: C M C 21
;
_chemical_formula_sum "Si O2"
_cell_formula_units_Z 56
_cell_length_a 24.075289
_cell_length_b 10.008714
_cell_length_c 9.582309
_cell_angle_alpha 90.000000
_cell_angle_beta 90.000000
_cell_angle_gamma 90.000000
_cell_volume 2308.978877
_symmetry_space_group_name_H-M "C M C 21"
_symmetry_group_IT_number 36
_symmetry_cell_setting 'orthorhombic'
loop_
_space_group_symop_operation_xyz
x,y,z
-x,-y,1/2+z
x,-y,1/2+z
-x,y,z
1/2+x,1/2+y,z
1/2-x,1/2-y,1/2+z
1/2+x,1/2-y,1/2+z
1/2-x,1/2+y,z
loop_
_atom_site_type_symbol
_atom_site_label
_atom_site_fract_x
_atom_site_fract_y
_atom_site_fract_z
Si Si1 0.280865 0.770470 0.742940
Si Si2 0.255503 0.978700 0.436386
Si Si3 0.160574 0.791979 0.690518
Si Si4 0.366419 0.010263 0.594822
Si Si5 0.061570 0.445407 0.341242
Si Si6 0.938056 0.126128 0.313996
Si Si7 0.652030 0.649762 0.508122
O O1 0.305900 0.962726 0.545829
O O2 0.225069 0.796322 0.649750
O O3 0.280368 0.901348 0.839370
O O4 0.334165 0.728496 0.649451
O O5 0.234453 0.860125 0.336137
O O6 0.335205 0.732141 0.361519
O O7 0.199407 0.037443 0.504414
O O8 0.138307 0.671442 0.597768
O O9 0.112278 0.904413 0.703915
O O10 0.414190 0.957710 0.494575
O O11 0.391902 0.985659 0.746873
O O12 0.056974 0.288141 0.304056
O O13 0.000000 0.503488 0.327322
O O14 0.909552 0.102158 0.465333
O O15 0.000000 0.070518 0.296374
#
# Coordination Sequence:
#
# PCOD9352274 Si02
#       7
#     8   8   8   8   8   8   8
#     4  11  22  41  60  95 136 176 229 283 343 422
#     4  11  24  37  63  92 133 177 224 284 347 414
#     4   8  18  35  56  89 125 169 217 270 338 397
#     4  11  20  37  56  92 133 183 223 281 348 415
#     4  10  21  36  61  93 136 182 232 280 338 418
#     4   8  16  33  57  85 121 170 226 274 328 401
#     4   9  20  37  59  92 125 175 223 278 346 409
#
# _framework density 24.253146000000001
#
# number of rings (size 3 to 8) (size 9 to 14) (size 15 to 20)
#    0.857    1.429    1.429    2.143    0.000    5.143 
#    0.000    0.000    0.000    1.714    0.000    0.000 
#    0.000    0.000    0.000    0.000    0.000    0.000 
#
# Total GULP energy -155890.540529 kJ/mol
# GULP energy per Si atom -5567.519305 kJ/mol
# Density = 2.419794 g / cm^3
# Si number density = 24.253146 Si / 1000 Ang^3
#
#
#
# Elastic Constant Matrix: (Units=GPa)
#
#
# Indices 1 2 3 4 5 6 
#
# 1 189.4568 5.6375 12.1674 0.0000 0.0000 0.0000
# 2 5.6375 59.4657 21.0151 0.0000 0.0000 0.0000
# 3 12.1674 21.0151 54.8898 0.0000 0.0000 0.0000
# 4 0.0000 0.0000 0.0000 38.3745 0.0000 0.0000
# 5 0.0000 0.0000 0.0000 0.0000 23.1839 0.0000
# 6 0.0000 0.0000 0.0000 0.0000 0.0000 24.6200
#
#
#
# Elastic Compliance Matrix: (Units=1/GPa)
#
#
# Indices 1 2 3 4 5 6 
#
# 1 0.005355 -0.000102 -0.001148 0.000000 0.000000 0.000000
# 2 -0.000102 0.019450 -0.007424 0.000000 0.000000 0.000000
# 3 -0.001148 -0.007424 0.021315 0.000000 0.000000 0.000000
# 4 0.000000 0.000000 0.000000 0.026059 0.000000 0.000000
# 5 0.000000 0.000000 0.000000 0.000000 0.043133 0.000000
# 6 0.000000 0.000000 0.000000 0.000000 0.000000 0.040617
#
#
# Mechanical properties :
#
#
# Convention : Reuss Voigt Hill
#
# Bulk Modulus (GPa) = 34.75593 42.38359 38.56976
# Shear Modulus (GPa) = 27.34214 34.90185 31.12200
#
# Velocity S-wave (km/s) = 3.36127 3.79762 3.58608
# Velocity P-wave (km/s) = 5.42455 6.06157 5.75189
#
# Compressibility (1/GPa) = 0.02877207
#
# Stress axis : x y z
#
# Youngs Moduli (GPa) = 186.74105 51.41469 46.91502
#
# Poissons Ratio (x) = 0.00524 0.05386
# Poissons Ratio (y) = 0.01904 0.34829
# Poissons Ratio (z) = 0.21438 0.38170
#
# Static dielectric constant tensor:
#      x y z
#    x 2.041090 0.000000 0.000000 
#    y 0.000000 2.109610 0.000000 
#    z 0.000000 0.000000 1.999040 
# 
# From -- ./inp_files/9495.got.cif
#   From: 2010.05.17/outbox.cif.g08.bks.cpg/sg36_5_cif.got.tgz:9495.got - 2010.06.03 17:41:39.
