data_PCOD9352615
_publ_section_title
;
Structure prediction by ZEFSAII (Michael W. Deem and Ramdas Pophale) SiO2 
 PCOD9352615
Probable space group: C M C 21
;
_chemical_formula_sum "Si O2"
_cell_formula_units_Z 40
_cell_length_a 9.989585
_cell_length_b 14.855691
_cell_length_c 12.626211
_cell_angle_alpha 90.000000
_cell_angle_beta 90.000000
_cell_angle_gamma 90.000000
_cell_volume 1873.757338
_symmetry_space_group_name_H-M "C M C 21"
_symmetry_group_IT_number 36
_symmetry_cell_setting 'orthorhombic'
loop_
_space_group_symop_operation_xyz
x,y,z
-x,-y,1/2+z
x,-y,1/2+z
-x,y,z
1/2+x,1/2+y,z
1/2-x,1/2-y,1/2+z
1/2+x,1/2-y,1/2+z
1/2-x,1/2+y,z
loop_
_atom_site_type_symbol
_atom_site_label
_atom_site_fract_x
_atom_site_fract_y
_atom_site_fract_z
Si Si1 0.342806 0.899279 0.446270
Si Si2 0.150323 0.143905 0.580461
Si Si3 0.351550 0.565722 0.138399
Si Si4 0.651503 0.715763 0.794539
Si Si5 0.224727 0.403692 0.859681
O O1 0.500000 0.876007 0.454778
O O2 0.265887 0.901629 0.559465
O O3 0.253958 0.833669 0.373012
O O4 0.333907 0.999336 0.392848
O O5 0.208552 0.201981 0.675938
O O6 0.217553 0.136978 0.467814
O O7 0.000000 0.176695 0.563793
O O8 0.147957 0.041844 0.622923
O O9 0.500000 0.599752 0.106732
O O10 0.326379 0.582071 0.262296
O O11 0.500000 0.675708 0.800250
O O12 0.638588 0.820951 0.817503
#
# Coordination Sequence:
#
# PCOD9352615 Si02
#       5
#     8   8   8   8   8
#     4  11  25  44  65  97 135 174 223 280 335 389
#     4   9  20  40  66  96 131 170 217 270 326 399
#     4  10  21  41  70  97 129 176 224 271 330 402
#     4  11  24  44  67  96 133 175 222 270 331 400
#     4  11  23  41  68 102 130 173 218 279 336 388
#
# _framework density 21.347480999999998
#
# number of rings (size 3 to 8) (size 9 to 14) (size 15 to 20)
#    0.000    1.600    2.000    1.800    2.800    4.800 
#    0.000    1.000    0.000    0.000    0.000    0.000 
#    0.000    0.000    0.000    0.000    0.000    0.000 
#
# Total GULP energy -111563.009840 kJ/mol
# GULP energy per Si atom -5578.150492 kJ/mol
# Density = 2.129889 g / cm^3
# Si number density = 21.347481 Si / 1000 Ang^3
#
#
#
# Elastic Constant Matrix: (Units=GPa)
#
#
# Indices 1 2 3 4 5 6 
#
# 1 131.1245 33.2006 58.3967 0.0000 0.0000 0.0000
# 2 33.2006 86.8912 48.4193 0.0000 0.0000 0.0000
# 3 58.3967 48.4193 143.1093 0.0000 0.0000 0.0000
# 4 0.0000 0.0000 0.0000 14.5892 0.0000 0.0000
# 5 0.0000 0.0000 0.0000 0.0000 -8.6472 0.0000
# 6 0.0000 0.0000 0.0000 0.0000 0.0000 -28.6048
#
#
#
# Elastic Compliance Matrix: (Units=1/GPa)
#
#
# Indices 1 2 3 4 5 6 
#
# 1 0.009548 -0.001820 -0.003280 0.000000 0.000000 0.000000
# 2 -0.001820 0.014530 -0.004173 0.000000 0.000000 0.000000
# 3 -0.003280 -0.004173 0.009738 0.000000 0.000000 0.000000
# 4 0.000000 0.000000 0.000000 0.068544 0.000000 0.000000
# 5 0.000000 0.000000 0.000000 0.000000 -0.115645 0.000000
# 6 0.000000 0.000000 0.000000 0.000000 0.000000 -0.034959
#
#
# Mechanical properties :
#
#
# Convention : Reuss Voigt Hill
#
# Bulk Modulus (GPa) = 65.49491 71.23978 68.36734
# Shear Modulus (GPa) = -203.19046 10.20801 -96.49122
#
# Velocity S-wave (km/s) = -9.76673 2.18911 -6.73041
# Velocity P-wave (km/s) = 9.82030 6.31139 5.32000
#
# Compressibility (1/GPa) = 0.01526836
#
# Stress axis : x y z
#
# Youngs Moduli (GPa) = 104.73247 68.82492 102.68914
#
# Poissons Ratio (x) = 0.12529 0.33685
# Poissons Ratio (y) = 0.19065 0.42853
# Poissons Ratio (z) = 0.34355 0.28721
#
# Static dielectric constant tensor:
#      x y z
#    x 1.813540 0.000000 0.000000 
#    y 0.000000 1.803560 0.000000 
#    z 0.000000 0.000000 1.793180 
# 
# From -- ./inp_files/6510.got.cif
#   From: 2010.05.17/outbox.cif.g08.bks.cpg/sg36_4_cif.got.tgz:6510.got - 2010.06.03 17:41:39.
