data_PCOD9352355
_publ_section_title
;
Structure prediction by ZEFSAII (Michael W. Deem and Ramdas Pophale) SiO2 
 PCOD9352355
Probable space group: C M C 21
;
_chemical_formula_sum "Si O2"
_cell_formula_units_Z 64
_cell_length_a 17.932972
_cell_length_b 5.364329
_cell_length_c 30.325670
_cell_angle_alpha 90.000000
_cell_angle_beta 90.000000
_cell_angle_gamma 90.000000
_cell_volume 2917.279773
_symmetry_space_group_name_H-M "C M C 21"
_symmetry_group_IT_number 36
_symmetry_cell_setting 'orthorhombic'
loop_
_space_group_symop_operation_xyz
x,y,z
-x,-y,1/2+z
x,-y,1/2+z
-x,y,z
1/2+x,1/2+y,z
1/2-x,1/2-y,1/2+z
1/2+x,1/2-y,1/2+z
1/2-x,1/2+y,z
loop_
_atom_site_type_symbol
_atom_site_label
_atom_site_fract_x
_atom_site_fract_y
_atom_site_fract_z
Si Si1 0.412838 0.896555 0.517400
Si Si2 0.235004 0.986407 0.179178
Si Si3 0.334924 0.021547 0.337480
Si Si4 0.410449 0.396878 0.462578
Si Si5 0.415435 0.888015 0.252208
Si Si6 0.081350 0.887784 0.195126
Si Si7 0.790117 0.480946 0.082577
Si Si8 0.336764 0.521544 0.372165
O O1 0.500000 0.903166 0.526551
O O2 0.396237 0.128536 0.484710
O O3 0.367716 0.946250 0.561702
O O4 0.396119 0.629650 0.495281
O O5 0.254460 0.738664 0.205175
O O6 0.150155 0.952811 0.164073
O O7 0.285735 0.980272 0.135767
O O8 0.351733 0.931558 0.288261
O O9 0.369592 0.797337 0.366116
O O10 0.249495 0.047420 0.355344
O O11 0.368937 0.296338 0.342842
O O12 0.500000 0.407160 0.450713
O O13 0.355181 0.434707 0.421360
O O14 0.500000 0.915086 0.271264
O O15 0.413317 0.611810 0.231069
O O16 0.409766 0.113944 0.216644
O O17 0.000000 0.902093 0.174431
O O18 0.735352 0.705980 0.068286
#
# Coordination Sequence:
#
# PCOD9352355 Si02
#       8
#     8   8   8   8   8   8   8   8
#     4  10  21  40  62  90 122 158 203 248 298 352
#     4  10  21  40  60  90 128 155 197 243 299 358
#     4  10  21  38  53  80 121 153 199 241 297 358
#     4  10  21  38  61  86 117 158 203 248 296 352
#     4  10  21  38  61  86 117 158 203 248 296 352
#     4  10  21  40  62  90 122 158 203 248 298 352
#     4  10  21  40  60  90 128 155 197 243 299 358
#     4  10  21  38  53  80 121 153 199 241 297 358
#
# _framework density 21.938244999999998
#
# number of rings (size 3 to 8) (size 9 to 14) (size 15 to 20)
#    0.000    2.000    0.000    3.000    0.000    1.000 
#   27.000    5.000    0.000    0.000    0.000    0.000 
#    0.000    0.000    0.000    0.000    0.000    0.000 
#
# Total GULP energy -178358.586744 kJ/mol
# GULP energy per Si atom -5573.705836 kJ/mol
# Density = 2.188831 g / cm^3
# Si number density = 21.938245 Si / 1000 Ang^3
#
#
#
# Elastic Constant Matrix: (Units=GPa)
#
#
# Indices 1 2 3 4 5 6 
#
# 1 52.3189 -1.1996 33.4508 0.0000 0.0000 0.0000
# 2 -1.1996 134.3462 -8.5991 0.0000 0.0000 0.0000
# 3 33.4508 -8.5991 43.3550 0.0000 0.0000 0.0000
# 4 0.0000 0.0000 0.0000 18.4758 0.0000 0.0000
# 5 0.0000 0.0000 0.0000 0.0000 30.0673 0.0000
# 6 0.0000 0.0000 0.0000 0.0000 0.0000 24.0479
#
#
#
# Elastic Compliance Matrix: (Units=1/GPa)
#
#
# Indices 1 2 3 4 5 6 
#
# 1 0.038042 -0.001559 -0.029660 0.000000 0.000000 0.000000
# 2 -0.001559 0.007603 0.002711 0.000000 0.000000 0.000000
# 3 -0.029660 0.002711 0.046488 0.000000 0.000000 0.000000
# 4 0.000000 0.000000 0.000000 0.054125 0.000000 0.000000
# 5 0.000000 0.000000 0.000000 0.000000 0.033259 0.000000
# 6 0.000000 0.000000 0.000000 0.000000 0.000000 0.041584
#
#
# Mechanical properties :
#
#
# Convention : Reuss Voigt Hill
#
# Bulk Modulus (GPa) = 28.47757 30.81382 29.64569
# Shear Modulus (GPa) = 17.25199 28.27608 22.76403
#
# Velocity S-wave (km/s) = 2.80730 3.59401 3.22474
# Velocity P-wave (km/s) = 4.84942 5.59453 5.23525
#
# Compressibility (1/GPa) = 0.03511535
#
# Stress axis : x y z
#
# Youngs Moduli (GPa) = 26.28701 131.52627 21.51106
#
# Poissons Ratio (x) = 0.20503 0.63803
# Poissons Ratio (y) = 0.04098 -0.05831
# Poissons Ratio (z) = 0.77968 -0.35653
#
# Static dielectric constant tensor:
#      x y z
#    x 1.797610 0.000000 0.000000 
#    y 0.000000 1.909800 0.000000 
#    z 0.000000 0.000000 1.782170 
# 
# From -- ./inp_files/17428.got.cif
#   From: 2010.05.17/outbox.cif.g08.bks.cpg/sg36_9_cif.got.tgz:17428.got - 2010.06.03 17:41:39.
