data_PCOD9352133
_publ_section_title
;
Structure prediction by ZEFSAII (Michael W. Deem and Ramdas Pophale) SiO2 
 PCOD9352133
Probable space group: C M C 21
;
_chemical_formula_sum "Si O2"
_cell_formula_units_Z 48
_cell_length_a 16.201443
_cell_length_b 9.444496
_cell_length_c 14.136554
_cell_angle_alpha 90.000000
_cell_angle_beta 90.000000
_cell_angle_gamma 90.000000
_cell_volume 2163.097228
_symmetry_space_group_name_H-M "C M C 21"
_symmetry_group_IT_number 36
_symmetry_cell_setting 'orthorhombic'
loop_
_space_group_symop_operation_xyz
x,y,z
-x,-y,1/2+z
x,-y,1/2+z
-x,y,z
1/2+x,1/2+y,z
1/2-x,1/2-y,1/2+z
1/2+x,1/2-y,1/2+z
1/2-x,1/2+y,z
loop_
_atom_site_type_symbol
_atom_site_label
_atom_site_fract_x
_atom_site_fract_y
_atom_site_fract_z
Si Si1 0.334610 0.039273 0.855760
Si Si2 0.171103 0.134993 0.409371
Si Si3 0.593251 0.188419 0.471559
Si Si4 0.400836 0.305240 0.106712
Si Si5 0.099640 0.522988 0.646143
Si Si6 0.095661 0.895313 0.312518
O O1 0.325630 0.200404 0.885768
O O2 0.354831 0.032436 0.745410
O O3 0.254560 0.948174 0.884490
O O4 0.406443 0.956576 0.911472
O O5 0.144434 0.123352 0.518559
O O6 0.104949 0.056817 0.342354
O O7 0.500000 0.236026 0.492208
O O8 0.630431 0.141568 0.571728
O O9 0.630774 0.304221 0.400605
O O10 0.500000 0.331137 0.098352
O O11 0.369962 0.360491 0.209081
O O12 0.387982 0.135715 0.106293
O O13 0.000000 0.539111 0.658613
O O14 0.000000 0.852172 0.305968
#
# Coordination Sequence:
#
# PCOD9352133 Si02
#       6
#     8   8   8   8   8   8
#     4  12  25  42  62  95 133 178 227 274 331 398
#     4  12  27  44  64  95 137 181 230 274 339 400
#     4  10  20  40  69  99 132 170 219 274 333 400
#     4  10  21  42  71 101 132 173 221 277 342 404
#     4  10  21  40  71 102 130 175 225 274 335 406
#     4  10  22  42  69 100 136 173 220 285 340 398
#
# _framework density 22.190401999999999
#
# number of rings (size 3 to 8) (size 9 to 14) (size 15 to 20)
#    0.000    1.333    3.333    2.000    0.000    4.667 
#    0.000    3.333    0.000    0.000    0.000    0.000 
#    0.000    0.000    0.000    0.000    0.000    0.000 
#
# Total GULP energy -134071.662849 kJ/mol
# GULP energy per Si atom -5586.319285 kJ/mol
# Density = 2.213990 g / cm^3
# Si number density = 22.190402 Si / 1000 Ang^3
#
#
#
# Elastic Constant Matrix: (Units=GPa)
#
#
# Indices 1 2 3 4 5 6 
#
# 1 43.9997 14.2905 38.8143 0.0000 0.0000 0.0000
# 2 14.2905 92.6039 17.1822 0.0000 0.0000 0.0000
# 3 38.8143 17.1822 148.8222 0.0000 0.0000 0.0000
# 4 0.0000 0.0000 0.0000 30.3087 0.0000 0.0000
# 5 0.0000 0.0000 0.0000 0.0000 25.5126 0.0000
# 6 0.0000 0.0000 0.0000 0.0000 0.0000 15.4596
#
#
#
# Elastic Compliance Matrix: (Units=1/GPa)
#
#
# Indices 1 2 3 4 5 6 
#
# 1 0.030474 -0.003299 -0.007567 0.000000 0.000000 0.000000
# 2 -0.003299 0.011392 -0.000455 0.000000 0.000000 0.000000
# 3 -0.007567 -0.000455 0.008746 0.000000 0.000000 0.000000
# 4 0.000000 0.000000 0.000000 0.032994 0.000000 0.000000
# 5 0.000000 0.000000 0.000000 0.000000 0.039196 0.000000
# 6 0.000000 0.000000 0.000000 0.000000 0.000000 0.064685
#
#
# Mechanical properties :
#
#
# Convention : Reuss Voigt Hill
#
# Bulk Modulus (GPa) = 35.75220 47.33333 41.54276
# Shear Modulus (GPa) = 22.78407 28.59877 25.69142
#
# Velocity S-wave (km/s) = 3.20778 3.59387 3.40630
# Velocity P-wave (km/s) = 5.46501 6.21273 5.85083
#
# Compressibility (1/GPa) = 0.02797031
#
# Stress axis : x y z
#
# Youngs Moduli (GPa) = 32.81478 87.77979 114.34419
#
# Poissons Ratio (x) = 0.28956 0.86525
# Poissons Ratio (y) = 0.10825 0.05202
# Poissons Ratio (z) = 0.24831 0.03994
#
# Static dielectric constant tensor:
#      x y z
#    x 1.925760 0.000000 0.000000 
#    y 0.000000 1.790740 0.000000 
#    z 0.000000 0.000000 1.809310 
# 
# From -- ./inp_files/12503.got.cif
#   From: 2010.05.17/outbox.cif.g08.bks.cpg/sg36_7_cif.got.tgz:12503.got - 2010.06.03 17:41:39.
