data_PCOD9352635
_publ_section_title
;
Structure prediction by ZEFSAII (Michael W. Deem and Ramdas Pophale) SiO2 
 PCOD9352635
Probable space group: C M C 21
;
_chemical_formula_sum "Si O2"
_cell_formula_units_Z 56
_cell_length_a 32.239377
_cell_length_b 5.659979
_cell_length_c 13.890461
_cell_angle_alpha 90.000000
_cell_angle_beta 90.000000
_cell_angle_gamma 90.000000
_cell_volume 2534.650714
_symmetry_space_group_name_H-M "C M C 21"
_symmetry_group_IT_number 36
_symmetry_cell_setting 'orthorhombic'
loop_
_space_group_symop_operation_xyz
x,y,z
-x,-y,1/2+z
x,-y,1/2+z
-x,y,z
1/2+x,1/2+y,z
1/2-x,1/2-y,1/2+z
1/2+x,1/2-y,1/2+z
1/2-x,1/2+y,z
loop_
_atom_site_type_symbol
_atom_site_label
_atom_site_fract_x
_atom_site_fract_y
_atom_site_fract_z
Si Si1 0.657679 0.041412 0.703200
Si Si2 0.000000 0.417267 0.062964
Si Si3 0.166648 0.748559 0.499242
Si Si4 0.080214 0.499688 0.439908
Si Si5 0.632299 0.380440 0.877771
Si Si6 0.084589 0.748336 0.251157
Si Si7 0.774172 0.361246 0.828944
Si Si8 0.000000 0.079591 0.671129
O O1 0.671023 0.199287 0.612337
O O2 0.649708 0.191951 0.801215
O O3 0.614703 0.900083 0.680409
O O4 0.693753 0.868072 0.739129
O O5 0.000000 0.668335 0.116556
O O6 0.000000 0.173684 0.120636
O O7 0.958189 0.425425 0.002074
O O8 0.121978 0.634076 0.472329
O O9 0.201489 0.635588 0.431147
O O10 0.163194 0.015214 0.457619
O O11 0.093629 0.227618 0.436371
O O12 0.068918 0.562713 0.330144
O O13 0.615906 0.583428 0.808171
O O14 0.045127 0.899454 0.220679
O O15 0.749173 0.608822 0.823231
#
# Coordination Sequence:
#
# PCOD9352635 Si02
#       8
#     8   4   8   8   8   8   8   4
#     4  11  24  46  75 110 147 204 256 312 390 470
#     4  12  29  43  64 110 154 188 255 315 364 440
#     4  11  24  45  76 109 148 205 253 313 391 470
#     4  10  23  44  71 101 143 199 253 312 376 448
#     4  10  21  44  74 106 146 197 262 313 369 457
#     4  10  23  44  72  99 143 201 248 313 376 446
#     4  12  27  50  74 110 154 186 247 319 384 466
#     4  12  29  43  64 110 152 190 253 315 364 444
#
# _framework density 22.093774
#
# number of rings (size 3 to 8) (size 9 to 14) (size 15 to 20)
#    0.000    1.143    4.286    2.143   10.000    2.857 
#    0.000    0.000    0.000    0.000    0.000    0.000 
#    0.000    0.000    0.000    0.000    0.000    0.000 
#
# Total GULP energy -156174.305729 kJ/mol
# GULP energy per Si atom -5577.653776 kJ/mol
# Density = 2.204349 g / cm^3
# Si number density = 22.093774 Si / 1000 Ang^3
#
#
#
# Elastic Constant Matrix: (Units=GPa)
#
#
# Indices 1 2 3 4 5 6 
#
# 1 102.3647 43.8670 44.5424 0.0000 0.0000 0.0000
# 2 43.8670 119.7942 43.1983 0.0000 0.0000 0.0000
# 3 44.5424 43.1983 96.0708 0.0000 0.0000 0.0000
# 4 0.0000 0.0000 0.0000 36.6949 0.0000 0.0000
# 5 0.0000 0.0000 0.0000 0.0000 -9.9313 0.0000
# 6 0.0000 0.0000 0.0000 0.0000 0.0000 48.0675
#
#
#
# Elastic Compliance Matrix: (Units=1/GPa)
#
#
# Indices 1 2 3 4 5 6 
#
# 1 0.013149 -0.003123 -0.004692 0.000000 0.000000 0.000000
# 2 -0.003123 0.010705 -0.003366 0.000000 0.000000 0.000000
# 3 -0.004692 -0.003366 0.014098 0.000000 0.000000 0.000000
# 4 0.000000 0.000000 0.000000 0.027252 0.000000 0.000000
# 5 0.000000 0.000000 0.000000 0.000000 -0.100692 0.000000
# 6 0.000000 0.000000 0.000000 0.000000 0.000000 0.020804
#
#
# Mechanical properties :
#
#
# Convention : Reuss Voigt Hill
#
# Bulk Modulus (GPa) = 64.14227 64.60499 64.37363
# Shear Modulus (GPa) = 388.39239 27.40771 207.90005
#
# Velocity S-wave (km/s) = 13.27307 3.52592 9.71098
# Velocity P-wave (km/s) = 16.24789 6.77354 12.44739
#
# Compressibility (1/GPa) = 0.01559034
#
# Stress axis : x y z
#
# Youngs Moduli (GPa) = 76.05122 93.41557 70.93315
#
# Poissons Ratio (x) = 0.29173 0.33283
# Poissons Ratio (y) = 0.23751 0.23873
# Poissons Ratio (z) = 0.35685 0.31439
#
# Static dielectric constant tensor:
#      x y z
#    x 2.044770 0.000000 0.000000 
#    y 0.000000 1.852350 0.000000 
#    z 0.000000 0.000000 1.827320 
# 
# From -- ./inp_files/13186.got.cif
#   From: 2010.05.17/outbox.cif.g08.bks.cpg/sg36_7_cif.got.tgz:13186.got - 2010.06.03 17:41:39.
