data_PCOD9352005
_publ_section_title
;
Structure prediction by ZEFSAII (Michael W. Deem and Ramdas Pophale) SiO2 
 PCOD9352005
Probable space group: C M C 21
;
_chemical_formula_sum "Si O2"
_cell_formula_units_Z 64
_cell_length_a 8.127031
_cell_length_b 23.244557
_cell_length_c 16.630816
_cell_angle_alpha 90.000000
_cell_angle_beta 90.000000
_cell_angle_gamma 90.000000
_cell_volume 3141.714733
_symmetry_space_group_name_H-M "C M C 21"
_symmetry_group_IT_number 36
_symmetry_cell_setting 'orthorhombic'
loop_
_space_group_symop_operation_xyz
x,y,z
-x,-y,1/2+z
x,-y,1/2+z
-x,y,z
1/2+x,1/2+y,z
1/2-x,1/2-y,1/2+z
1/2+x,1/2-y,1/2+z
1/2-x,1/2+y,z
loop_
_atom_site_type_symbol
_atom_site_label
_atom_site_fract_x
_atom_site_fract_y
_atom_site_fract_z
Si Si1 0.187098 0.459465 0.660100
Si Si2 0.308854 0.240956 0.039597
Si Si3 0.799011 0.781442 0.862540
Si Si4 0.305639 0.424902 0.213974
Si Si5 0.800044 0.086886 0.331686
Si Si6 0.199292 0.969420 0.390921
Si Si7 0.688704 0.385032 0.525154
Si Si8 0.304997 0.794084 0.207555
O O1 0.217561 0.527888 0.658664
O O2 0.223488 0.435051 0.748652
O O3 0.307623 0.425076 0.602720
O O4 0.000000 0.446896 0.637492
O O5 0.500000 0.257986 0.043729
O O6 0.288740 0.172521 0.039049
O O7 0.227886 0.263968 0.121653
O O8 0.244588 0.261578 0.951768
O O9 0.750979 0.848059 0.850376
O O10 0.743927 0.742384 0.785991
O O11 0.000000 0.779040 0.862266
O O12 0.500000 0.434471 0.205023
O O13 0.258169 0.443594 0.304261
O O14 0.267777 0.358151 0.203341
O O15 0.000000 0.085849 0.324299
O O16 0.752539 0.036447 0.394524
O O17 0.263211 0.925438 0.456399
O O18 0.000000 0.968672 0.398173
O O19 0.500000 0.368599 0.505673
O O20 0.500000 0.799555 0.217943
#
# Coordination Sequence:
#
# PCOD9352005 Si02
#       8
#     8   8   8   8   8   8   8   8
#     4  11  22  36  55  84 115 146 184 234 286 341
#     4  11  23  39  58  86 117 153 198 244 289 346
#     4   9  20  37  60  85 117 157 196 237 288 342
#     4  10  20  38  60  83 110 147 190 234 283 343
#     4   9  17  36  60  82 109 148 191 231 280 343
#     4   8  17  32  56  84 108 139 187 236 281 334
#     4  11  21  36  56  81 112 149 188 233 285 340
#     4  11  22  38  59  87 120 157 194 239 292 345
#
# _framework density 20.371041000000002
#
# number of rings (size 3 to 8) (size 9 to 14) (size 15 to 20)
#    0.000    2.000    0.000    4.875    0.000    2.000 
#    0.000   11.875    0.000    0.000    0.000    0.000 
#    0.000    0.000    0.000    0.000    0.000    0.000 
#
# Total GULP energy -178533.261931 kJ/mol
# GULP energy per Si atom -5579.164435 kJ/mol
# Density = 2.032468 g / cm^3
# Si number density = 20.371041 Si / 1000 Ang^3
#
#
#
# Elastic Constant Matrix: (Units=GPa)
#
#
# Indices 1 2 3 4 5 6 
#
# 1 28.0315 -3.6329 -0.6997 0.0000 0.0000 0.0000
# 2 -3.6329 146.6157 42.9484 0.0000 0.0000 0.0000
# 3 -0.6997 42.9484 77.6551 0.0000 0.0000 0.0000
# 4 0.0000 0.0000 0.0000 33.1207 0.0000 0.0000
# 5 0.0000 0.0000 0.0000 0.0000 13.9793 0.0000
# 6 0.0000 0.0000 0.0000 0.0000 0.0000 -24.6224
#
#
#
# Elastic Compliance Matrix: (Units=1/GPa)
#
#
# Indices 1 2 3 4 5 6 
#
# 1 0.035792 0.000946 -0.000200 0.000000 0.000000 0.000000
# 2 0.000946 0.008164 -0.004507 0.000000 0.000000 0.000000
# 3 -0.000200 -0.004507 0.015368 0.000000 0.000000 0.000000
# 4 0.000000 0.000000 0.000000 0.030193 0.000000 0.000000
# 5 0.000000 0.000000 0.000000 0.000000 0.071534 0.000000
# 6 0.000000 0.000000 0.000000 0.000000 0.000000 -0.040613
#
#
# Mechanical properties :
#
#
# Convention : Reuss Voigt Hill
#
# Bulk Modulus (GPa) = 19.30475 36.61488 27.95981
# Shear Modulus (GPa) = 34.42865 18.74127 26.58496
#
# Velocity S-wave (km/s) = 4.11552 3.03643 3.61645
# Velocity P-wave (km/s) = 5.66396 5.50511 5.58510
#
# Compressibility (1/GPa) = 0.05180073
#
# Stress axis : x y z
#
# Youngs Moduli (GPa) = 27.93940 122.48638 65.06941
#
# Poissons Ratio (x) = -0.11582 0.01304
# Poissons Ratio (y) = -0.02642 0.29326
# Poissons Ratio (z) = 0.00560 0.55202
#
# Static dielectric constant tensor:
#      x y z
#    x 1.785320 0.000000 0.000000 
#    y 0.000000 1.704340 0.000000 
#    z 0.000000 0.000000 1.742010 
# 
# From -- ./inp_files/11036.got.cif
#   From: 2010.05.17/outbox.cif.g08.bks.cpg/sg36_6_cif.got.tgz:11036.got - 2010.06.03 17:41:39.
