data_PCOD9352109
_publ_section_title
;
Structure prediction by ZEFSAII (Michael W. Deem and Ramdas Pophale) SiO2 
 PCOD9352109
Probable space group: C M C 21
;
_chemical_formula_sum "Si O2"
_cell_formula_units_Z 40
_cell_length_a 9.739175
_cell_length_b 16.554362
_cell_length_c 10.148804
_cell_angle_alpha 90.000000
_cell_angle_beta 90.000000
_cell_angle_gamma 90.000000
_cell_volume 1636.249334
_symmetry_space_group_name_H-M "C M C 21"
_symmetry_group_IT_number 36
_symmetry_cell_setting 'orthorhombic'
loop_
_space_group_symop_operation_xyz
x,y,z
-x,-y,1/2+z
x,-y,1/2+z
-x,y,z
1/2+x,1/2+y,z
1/2-x,1/2-y,1/2+z
1/2+x,1/2-y,1/2+z
1/2-x,1/2+y,z
loop_
_atom_site_type_symbol
_atom_site_label
_atom_site_fract_x
_atom_site_fract_y
_atom_site_fract_z
Si Si1 0.500000 0.543043 0.745450
Si Si2 0.500000 0.316371 0.036677
Si Si3 0.500000 0.940970 0.483457
Si Si4 0.000000 0.397124 0.835656
Si Si5 0.500000 0.903098 0.133146
Si Si6 0.211311 0.714500 0.201340
Si Si7 0.000000 0.148389 0.224779
Si Si8 0.736540 0.130846 0.839966
O O1 0.500000 0.597607 0.612542
O O2 0.500000 0.448387 0.716409
O O3 0.364301 0.570737 0.825142
O O4 0.628333 0.265575 0.092970
O O5 0.500000 0.327860 0.880709
O O6 0.500000 0.000799 0.604504
O O7 0.362584 0.890254 0.461442
O O8 0.500000 0.134952 0.487175
O O9 0.000000 0.492024 0.866889
O O10 0.870912 0.362201 0.757336
O O11 0.365783 0.879231 0.214515
O O12 0.363052 0.686520 0.164676
O O13 0.215057 0.777862 0.323924
#
# Coordination Sequence:
#
# PCOD9352109 Si02
#       8
#     4   4   4   4   4   8   4   8
#     4  10  23  37  64  97 129 166 220 275 330 406
#     4   9  24  46  65  90 142 181 208 277 345 391
#     4   9  19  37  64  84 112 169 212 246 305 393
#     4   9  20  38  62  85 117 166 208 259 310 395
#     4   9  21  37  69  79 117 174 212 232 335 381
#     4  10  22  40  63  97 126 166 226 265 324 413
#     4  12  23  43  70  95 137 180 212 287 345 370
#     4  10  20  40  61  88 125 161 207 271 313 378
#
# _framework density 24.446152000000001
#
# number of rings (size 3 to 8) (size 9 to 14) (size 15 to 20)
#    0.600    1.600    0.000    3.000    5.600    0.000 
#    0.000   16.000    0.000    0.000    0.000    0.000 
#    0.000    0.000    0.000    0.000    0.000    0.000 
#
# Total GULP energy -111968.172892 kJ/mol
# GULP energy per Si atom -5598.408645 kJ/mol
# Density = 2.439051 g / cm^3
# Si number density = 24.446152 Si / 1000 Ang^3
#
#
#
# Elastic Constant Matrix: (Units=GPa)
#
#
# Indices 1 2 3 4 5 6 
#
# 1 179.5065 50.4674 26.9864 0.0000 0.0000 0.0000
# 2 50.4674 172.7429 13.7698 0.0000 0.0000 0.0000
# 3 26.9864 13.7698 115.2978 0.0000 0.0000 0.0000
# 4 0.0000 0.0000 0.0000 40.9889 0.0000 0.0000
# 5 0.0000 0.0000 0.0000 0.0000 8.7276 0.0000
# 6 0.0000 0.0000 0.0000 0.0000 0.0000 35.1417
#
#
#
# Elastic Compliance Matrix: (Units=1/GPa)
#
#
# Indices 1 2 3 4 5 6 
#
# 1 0.006244 -0.001724 -0.001256 0.000000 0.000000 0.000000
# 2 -0.001724 0.006321 -0.000351 0.000000 0.000000 0.000000
# 3 -0.001256 -0.000351 0.009009 0.000000 0.000000 0.000000
# 4 0.000000 0.000000 0.000000 0.024397 0.000000 0.000000
# 5 0.000000 0.000000 0.000000 0.000000 0.114579 0.000000
# 6 0.000000 0.000000 0.000000 0.000000 0.000000 0.028456
#
#
# Mechanical properties :
#
#
# Convention : Reuss Voigt Hill
#
# Bulk Modulus (GPa) = 67.06099 72.22158 69.64129
# Shear Modulus (GPa) = 24.92033 42.05988 33.49011
#
# Velocity S-wave (km/s) = 3.19626 4.15240 3.70530
# Velocity P-wave (km/s) = 6.41195 7.25239 6.84508
#
# Compressibility (1/GPa) = 0.01491180
#
# Stress axis : x y z
#
# Youngs Moduli (GPa) = 160.14481 158.21058 110.99966
#
# Poissons Ratio (x) = 0.27279 0.13937
# Poissons Ratio (y) = 0.27612 0.03899
# Poissons Ratio (z) = 0.20108 0.05558
#
# Static dielectric constant tensor:
#      x y z
#    x 1.843980 0.000000 0.000000 
#    y 0.000000 1.903460 0.000000 
#    z 0.000000 0.000000 2.004290 
# 
# From -- ./inp_files/10253.got.cif
#   From: 2010.05.17/outbox.cif.g08.bks.cpg/sg36_6_cif.got.tgz:10253.got - 2010.06.03 17:41:39.
