data_PCOD9352777
_publ_section_title
;
Structure prediction by ZEFSAII (Michael W. Deem and Ramdas Pophale) SiO2 
 PCOD9352777
Probable space group: C M C 21
;
_chemical_formula_sum "Si O2"
_cell_formula_units_Z 64
_cell_length_a 8.730917
_cell_length_b 15.765941
_cell_length_c 24.229791
_cell_angle_alpha 90.000000
_cell_angle_beta 90.000000
_cell_angle_gamma 90.000000
_cell_volume 3335.257924
_symmetry_space_group_name_H-M "C M C 21"
_symmetry_group_IT_number 36
_symmetry_cell_setting 'orthorhombic'
loop_
_space_group_symop_operation_xyz
x,y,z
-x,-y,1/2+z
x,-y,1/2+z
-x,y,z
1/2+x,1/2+y,z
1/2-x,1/2-y,1/2+z
1/2+x,1/2-y,1/2+z
1/2-x,1/2+y,z
loop_
_atom_site_type_symbol
_atom_site_label
_atom_site_fract_x
_atom_site_fract_y
_atom_site_fract_z
Si Si1 0.318115 0.652370 0.693610
Si Si2 0.683913 0.902928 0.077705
Si Si3 0.182698 0.594554 0.073569
Si Si4 0.681903 0.092962 0.807914
Si Si5 0.317308 0.659284 0.187689
Si Si6 0.317629 0.587171 0.307708
Si Si7 0.683721 0.752561 0.872642
Si Si8 0.684406 0.744742 0.001222
O O1 0.500000 0.645577 0.700319
O O2 0.265627 0.612517 0.635886
O O3 0.236079 0.608391 0.745146
O O4 0.266522 0.750476 0.692664
O O5 0.500000 0.896742 0.086322
O O6 0.717534 0.997714 0.057063
O O7 0.728749 0.828891 0.035373
O O8 0.259744 0.613946 0.132530
O O9 0.000000 0.603046 0.079570
O O10 0.242307 0.663334 0.030254
O O11 0.500000 0.100352 0.811490
O O12 0.758568 0.166621 0.844104
O O13 0.736740 0.999656 0.824991
O O14 0.500000 0.674015 0.184117
O O15 0.286276 0.606110 0.243014
O O16 0.500000 0.579013 0.314183
O O17 0.257513 0.667472 0.341749
O O18 0.500000 0.757787 0.867763
O O19 0.725804 0.752300 0.937169
O O20 0.500000 0.736979 0.004767
#
# Coordination Sequence:
#
# PCOD9352777 Si02
#       8
#     8   8   8   8   8   8   8   8
#     4  12  23  37  63  96 127 161 207 257 311 379
#     4  10  22  41  63  90 128 165 202 250 313 378
#     4  11  23  38  62  95 126 163 208 253 304 370
#     4  12  25  42  65  93 128 170 209 258 318 376
#     4  11  22  38  62  91 128 166 201 249 316 378
#     4  11  24  42  66  96 128 166 209 259 316 378
#     4  11  24  43  66  93 125 166 215 265 315 374
#     4  10  23  43  65  88 122 167 209 259 315 367
#
# _framework density 19.18892
#
# number of rings (size 3 to 8) (size 9 to 14) (size 15 to 20)
#    0.000    1.000    2.500    4.500    0.000    6.500 
#    0.000    1.250    0.000    0.000    0.000    0.000 
#    0.000    0.000    0.000    0.000    0.000    0.000 
#
# Total GULP energy -179039.251979 kJ/mol
# GULP energy per Si atom -5594.976624 kJ/mol
# Density = 1.914525 g / cm^3
# Si number density = 19.188920 Si / 1000 Ang^3
#
#
#
# Elastic Constant Matrix: (Units=GPa)
#
#
# Indices 1 2 3 4 5 6 
#
# 1 34.1387 3.0783 19.0038 0.0000 0.0000 0.0000
# 2 3.0783 90.5375 16.0163 0.0000 0.0000 0.0000
# 3 19.0038 16.0163 100.0562 0.0000 0.0000 0.0000
# 4 0.0000 0.0000 0.0000 -4.9936 0.0000 0.0000
# 5 0.0000 0.0000 0.0000 0.0000 28.7904 0.0000
# 6 0.0000 0.0000 0.0000 0.0000 0.0000 14.1003
#
#
#
# Elastic Compliance Matrix: (Units=1/GPa)
#
#
# Indices 1 2 3 4 5 6 
#
# 1 0.032755 -0.000014 -0.006219 0.000000 0.000000 0.000000
# 2 -0.000014 0.011367 -0.001817 0.000000 0.000000 0.000000
# 3 -0.006219 -0.001817 0.011466 0.000000 0.000000 0.000000
# 4 0.000000 0.000000 0.000000 -0.200256 0.000000 0.000000
# 5 0.000000 0.000000 0.000000 0.000000 0.034734 0.000000
# 6 0.000000 0.000000 0.000000 0.000000 0.000000 0.070921
#
#
# Mechanical properties :
#
#
# Convention : Reuss Voigt Hill
#
# Bulk Modulus (GPa) = 25.32309 33.43660 29.37984
# Shear Modulus (GPa) = -512.81613 20.02168 -246.39723
#
# Velocity S-wave (km/s) = -16.36539 3.23367 -11.34393
# Velocity P-wave (km/s) = 18.54390 5.60401 12.49942
#
# Compressibility (1/GPa) = 0.03948965
#
# Stress axis : x y z
#
# Youngs Moduli (GPa) = 30.52927 87.97372 87.21102
#
# Poissons Ratio (x) = 0.00119 0.54238
# Poissons Ratio (y) = 0.00041 0.15846
# Poissons Ratio (z) = 0.18987 0.15985
#
# Static dielectric constant tensor:
#      x y z
#    x 1.644000 0.000000 0.000000 
#    y 0.000000 1.656430 0.000000 
#    z 0.000000 0.000000 1.640000 
# 
# From -- ./inp_files/16579.got.cif
#   From: 2010.05.17/outbox.cif.g08.bks.cpg/sg36_9_cif.got.tgz:16579.got - 2010.06.03 17:41:39.
