data_PCOD9352238
_publ_section_title
;
Structure prediction by ZEFSAII (Michael W. Deem and Ramdas Pophale) SiO2 
 PCOD9352238
Probable space group: C M C 21
;
_chemical_formula_sum "Si O2"
_cell_formula_units_Z 48
_cell_length_a 7.404296
_cell_length_b 9.819395
_cell_length_c 25.332709
_cell_angle_alpha 90.000000
_cell_angle_beta 90.000000
_cell_angle_gamma 90.000000
_cell_volume 1841.832521
_symmetry_space_group_name_H-M "C M C 21"
_symmetry_group_IT_number 36
_symmetry_cell_setting 'orthorhombic'
loop_
_space_group_symop_operation_xyz
x,y,z
-x,-y,1/2+z
x,-y,1/2+z
-x,y,z
1/2+x,1/2+y,z
1/2-x,1/2-y,1/2+z
1/2+x,1/2-y,1/2+z
1/2-x,1/2+y,z
loop_
_atom_site_type_symbol
_atom_site_label
_atom_site_fract_x
_atom_site_fract_y
_atom_site_fract_z
Si Si1 0.291058 0.448830 0.647310
Si Si2 0.718941 0.302507 0.083422
Si Si3 0.280688 0.023923 0.805757
Si Si4 0.208897 0.321378 0.408378
Si Si5 0.790987 0.227219 0.241996
Si Si6 0.781005 0.926558 0.972004
O O1 0.500000 0.472514 0.660903
O O2 0.216244 0.593590 0.629230
O O3 0.206547 0.360903 0.694724
O O4 0.283425 0.348023 0.597044
O O5 0.500000 0.300954 0.083738
O O6 0.717884 0.077379 0.958422
O O7 0.777214 0.364819 0.027787
O O8 0.500000 0.020463 0.806411
O O9 0.213801 0.093249 0.859607
O O10 0.217758 0.872739 0.792610
O O11 0.218241 0.126709 0.759218
O O12 0.000000 0.297090 0.395241
O O13 0.285808 0.177138 0.426407
O O14 0.000000 0.249941 0.228694
O O15 0.000000 0.927251 0.971666
#
# Coordination Sequence:
#
# PCOD9352238 Si02
#       6
#     8   8   8   8   8   8
#     4  10  21  36  55  81 110 141 180 222 265 318
#     4  10  21  36  55  81 110 141 180 222 265 318
#     4  10  21  36  54  78 106 137 177 221 265 318
#     4  10  21  36  54  78 106 137 177 221 265 318
#     4  10  21  37  56  79 109 143 178 220 269 318
#     4  10  21  37  56  79 109 143 178 220 269 318
#
# _framework density 26.060998999999999
#
# number of rings (size 3 to 8) (size 9 to 14) (size 15 to 20)
#    0.000    2.000    0.000    3.000    0.000    5.333 
#    0.000    0.000    0.000    0.000    0.000    0.000 
#    0.000    0.000    0.000    0.000    0.000    0.000 
#
# Total GULP energy -134365.336185 kJ/mol
# GULP energy per Si atom -5598.555674 kJ/mol
# Density = 2.600168 g / cm^3
# Si number density = 26.060999 Si / 1000 Ang^3
#
#
#
# Elastic Constant Matrix: (Units=GPa)
#
#
# Indices 1 2 3 4 5 6 
#
# 1 103.8757 -5.0600 5.7682 0.0000 0.0000 0.0000
# 2 -5.0600 124.6394 -7.5001 0.0000 0.0000 0.0000
# 3 5.7682 -7.5001 72.9245 0.0000 0.0000 0.0000
# 4 0.0000 0.0000 0.0000 51.9479 0.0000 0.0000
# 5 0.0000 0.0000 0.0000 0.0000 12.8987 0.0000
# 6 0.0000 0.0000 0.0000 0.0000 0.0000 -0.2376
#
#
#
# Elastic Compliance Matrix: (Units=1/GPa)
#
#
# Indices 1 2 3 4 5 6 
#
# 1 0.009684 0.000349 -0.000730 0.000000 0.000000 0.000000
# 2 0.000349 0.008086 0.000804 0.000000 0.000000 0.000000
# 3 -0.000730 0.000804 0.013853 0.000000 0.000000 0.000000
# 4 0.000000 0.000000 0.000000 0.019250 0.000000 0.000000
# 5 0.000000 0.000000 0.000000 0.000000 0.077527 0.000000
# 6 0.000000 0.000000 0.000000 0.000000 0.000000 -4.209424
#
#
# Mechanical properties :
#
#
# Convention : Reuss Voigt Hill
#
# Bulk Modulus (GPa) = 30.79808 31.98400 31.39104
# Shear Modulus (GPa) = -1.22819 33.47057 16.12119
#
# Velocity S-wave (km/s) = -0.68724 3.58762 2.48985
# Velocity P-wave (km/s) = 3.34867 5.42778 4.50968
#
# Compressibility (1/GPa) = 0.03246956
#
# Stress axis : x y z
#
# Youngs Moduli (GPa) = 103.25839 123.67515 72.18524
#
# Poissons Ratio (x) = -0.04319 0.05270
# Poissons Ratio (y) = -0.03606 -0.05803
# Poissons Ratio (z) = 0.07539 -0.09943
#
# Static dielectric constant tensor:
#      x y z
#    x 1.958650 0.000000 0.000000 
#    y 0.000000 1.945600 0.000000 
#    z 0.000000 0.000000 2.123890 
# 
# From -- ./inp_files/15921.got.cif
#   From: 2010.05.17/outbox.cif.g08.bks.cpg/sg36_8_cif.got.tgz:15921.got - 2010.06.03 17:41:39.
