data_PCOD9352555
_publ_section_title
;
Structure prediction by ZEFSAII (Michael W. Deem and Ramdas Pophale) SiO2 
 PCOD9352555
Probable space group: C M C 21
;
_chemical_formula_sum "Si O2"
_cell_formula_units_Z 64
_cell_length_a 8.916451
_cell_length_b 24.325856
_cell_length_c 15.385210
_cell_angle_alpha 90.000000
_cell_angle_beta 90.000000
_cell_angle_gamma 90.000000
_cell_volume 3337.056712
_symmetry_space_group_name_H-M "C M C 21"
_symmetry_group_IT_number 36
_symmetry_cell_setting 'orthorhombic'
loop_
_space_group_symop_operation_xyz
x,y,z
-x,-y,1/2+z
x,-y,1/2+z
-x,y,z
1/2+x,1/2+y,z
1/2-x,1/2-y,1/2+z
1/2+x,1/2-y,1/2+z
1/2-x,1/2+y,z
loop_
_atom_site_type_symbol
_atom_site_label
_atom_site_fract_x
_atom_site_fract_y
_atom_site_fract_z
Si Si1 0.169421 0.637570 0.000000
Si Si2 0.822630 0.984377 0.733943
Si Si3 0.823151 0.478270 0.406563
Si Si4 0.179933 0.752718 0.739798
Si Si5 0.817647 0.677937 0.575555
Si Si6 0.172712 0.370279 0.705278
Si Si7 0.318901 0.949532 0.073557
Si Si8 0.177119 0.239843 0.925520
O O1 0.194283 0.582267 0.946418
O O2 0.287409 0.684476 0.978234
O O3 0.000000 0.658195 0.980564
O O4 0.173533 0.623045 0.101234
O O5 0.774451 0.015438 0.821115
O O6 0.754514 0.923371 0.742468
O O7 0.000000 0.981542 0.723931
O O8 0.752178 0.015417 0.651231
O O9 0.782659 0.522145 0.481398
O O10 0.000000 0.485993 0.385208
O O11 0.229699 0.712268 0.661183
O O12 0.245487 0.813373 0.724942
O O13 0.238889 0.735214 0.834099
O O14 0.000000 0.753993 0.738990
O O15 0.771105 0.614293 0.577161
O O16 0.771104 0.710082 0.487935
O O17 0.000000 0.678422 0.575492
O O18 0.000000 0.367918 0.735371
O O19 0.500000 0.951889 0.082874
O O20 0.000000 0.246037 0.910075
#
# Coordination Sequence:
#
# PCOD9352555 Si02
#       8
#     8   8   8   8   8   8   8   8
#     4  10  21  40  65  92 119 158 211 265 312 362
#     4  12  26  41  61  95 131 163 201 258 322 374
#     4  10  22  41  66  91 119 163 216 258 306 371
#     4  11  23  41  62  94 129 165 207 259 315 365
#     4   9  21  40  63  88 123 165 206 250 306 364
#     4  11  22  42  68  92 119 163 215 260 311 375
#     4  10  21  43  67  89 120 167 215 255 302 371
#     4  11  23  40  62  93 126 166 209 253 312 376
#
# _framework density 19.178578000000002
#
# number of rings (size 3 to 8) (size 9 to 14) (size 15 to 20)
#    0.000    1.500    2.500    2.250    3.500    1.500 
#    0.000    1.875    0.000    0.000    0.000    0.000 
#    0.000    0.000    0.000    0.000    0.000    0.000 
#
# Total GULP energy -178808.883429 kJ/mol
# GULP energy per Si atom -5587.777607 kJ/mol
# Density = 1.913493 g / cm^3
# Si number density = 19.178578 Si / 1000 Ang^3
#
#
#
# Elastic Constant Matrix: (Units=GPa)
#
#
# Indices 1 2 3 4 5 6 
#
# 1 51.0800 8.7439 13.6637 0.0000 0.0000 0.0000
# 2 8.7439 50.5271 -21.3984 0.0000 0.0000 0.0000
# 3 13.6637 -21.3984 43.1089 0.0000 0.0000 0.0000
# 4 0.0000 0.0000 0.0000 24.2141 0.0000 0.0000
# 5 0.0000 0.0000 0.0000 0.0000 14.3238 0.0000
# 6 0.0000 0.0000 0.0000 0.0000 0.0000 28.9137
#
#
#
# Elastic Compliance Matrix: (Units=1/GPa)
#
#
# Indices 1 2 3 4 5 6 
#
# 1 0.024565 -0.009558 -0.012530 0.000000 0.000000 0.000000
# 2 -0.009558 0.028778 0.017314 0.000000 0.000000 0.000000
# 3 -0.012530 0.017314 0.035763 0.000000 0.000000 0.000000
# 4 0.000000 0.000000 0.000000 0.041298 0.000000 0.000000
# 5 0.000000 0.000000 0.000000 0.000000 0.069814 0.000000
# 6 0.000000 0.000000 0.000000 0.000000 0.000000 0.034586
#
#
# Mechanical properties :
#
#
# Convention : Reuss Voigt Hill
#
# Bulk Modulus (GPa) = 12.56938 16.30384 14.43661
# Shear Modulus (GPa) = 18.45893 23.07074 20.76483
#
# Velocity S-wave (km/s) = 3.10575 3.47211 3.29403
# Velocity P-wave (km/s) = 4.40783 4.95919 4.69162
#
# Compressibility (1/GPa) = 0.07955840
#
# Stress axis : x y z
#
# Youngs Moduli (GPa) = 40.70813 34.74872 27.96175
#
# Poissons Ratio (x) = 0.33212 0.35037
# Poissons Ratio (y) = 0.38908 -0.48414
# Poissons Ratio (z) = 0.51009 -0.60165
#
# Static dielectric constant tensor:
#      x y z
#    x 1.658070 0.000000 0.000000 
#    y 0.000000 1.663890 0.000000 
#    z 0.000000 0.000000 1.657320 
# 
# From -- ./inp_files/10966.got.cif
#   From: 2010.05.17/outbox.cif.g08.bks.cpg/sg36_6_cif.got.tgz:10966.got - 2010.06.03 17:41:39.
