data_PCOD9352472
_publ_section_title
;
Structure prediction by ZEFSAII (Michael W. Deem and Ramdas Pophale) SiO2 
 PCOD9352472
Probable space group: C M C 21
;
_chemical_formula_sum "Si O2"
_cell_formula_units_Z 64
_cell_length_a 8.974596
_cell_length_b 29.209431
_cell_length_c 12.586681
_cell_angle_alpha 90.000000
_cell_angle_beta 90.000000
_cell_angle_gamma 90.000000
_cell_volume 3299.508336
_symmetry_space_group_name_H-M "C M C 21"
_symmetry_group_IT_number 36
_symmetry_cell_setting 'orthorhombic'
loop_
_space_group_symop_operation_xyz
x,y,z
-x,-y,1/2+z
x,-y,1/2+z
-x,y,z
1/2+x,1/2+y,z
1/2-x,1/2-y,1/2+z
1/2+x,1/2-y,1/2+z
1/2-x,1/2+y,z
loop_
_atom_site_type_symbol
_atom_site_label
_atom_site_fract_x
_atom_site_fract_y
_atom_site_fract_z
Si Si1 0.669479 0.160767 0.405620
Si Si2 0.822204 0.675325 0.970498
Si Si3 0.330438 0.901343 0.119917
Si Si4 0.676524 0.417323 0.785430
Si Si5 0.179531 0.738290 0.560079
Si Si6 0.821028 0.478952 0.967095
Si Si7 0.177851 0.425560 0.557853
Si Si8 0.322843 0.675622 0.741680
O O1 0.500000 0.163879 0.364825
O O2 0.666199 0.129295 0.512191
O O3 0.768875 0.133121 0.323161
O O4 0.717512 0.209744 0.451902
O O5 0.751497 0.682823 0.855217
O O6 0.000000 0.682491 0.968565
O O7 0.745076 0.711357 0.049091
O O8 0.792382 0.623337 0.005307
O O9 0.500000 0.902285 0.162765
O O10 0.287164 0.951078 0.076171
O O11 0.223145 0.874918 0.199376
O O12 0.500000 0.418996 0.786818
O O13 0.740289 0.427928 0.669971
O O14 0.741715 0.453411 0.870549
O O15 0.252669 0.711066 0.657381
O O16 0.000000 0.737639 0.569549
O O17 0.780639 0.531647 0.983489
O O18 0.000000 0.474766 0.951626
O O19 0.000000 0.429158 0.576731
O O20 0.500000 0.680634 0.746093
#
# Coordination Sequence:
#
# PCOD9352472 Si02
#       8
#     8   8   8   8   8   8   8   8
#     4   8  16  33  57  82 110 146 188 230 272 331
#     4  11  24  41  60  84 115 151 194 241 287 337
#     4   8  15  31  56  84 111 141 185 238 281 323
#     4  11  22  35  57  88 120 150 182 234 295 340
#     4  10  21  39  62  87 115 149 193 241 287 340
#     4   9  19  38  62  84 110 151 199 238 276 335
#     4  10  23  42  61  81 111 154 198 235 276 337
#     4  11  22  37  59  86 118 154 189 231 288 347
#
# _framework density 19.396830000000001
#
# number of rings (size 3 to 8) (size 9 to 14) (size 15 to 20)
#    0.000    2.250    0.000    4.500    0.000    8.500 
#    0.000    6.250    0.000    0.000    0.000    0.000 
#    0.000    0.000    0.000    0.000    0.000    0.000 
#
# Total GULP energy -178676.572673 kJ/mol
# GULP energy per Si atom -5583.642896 kJ/mol
# Density = 1.935268 g / cm^3
# Si number density = 19.396830 Si / 1000 Ang^3
#
#
#
# Elastic Constant Matrix: (Units=GPa)
#
#
# Indices 1 2 3 4 5 6 
#
# 1 73.2822 59.1480 51.0142 0.0000 0.0000 0.0000
# 2 59.1480 119.4478 31.4976 0.0000 0.0000 0.0000
# 3 51.0142 31.4976 78.2087 0.0000 0.0000 0.0000
# 4 0.0000 0.0000 0.0000 16.9777 0.0000 0.0000
# 5 0.0000 0.0000 0.0000 0.0000 20.7209 0.0000
# 6 0.0000 0.0000 0.0000 0.0000 0.0000 15.4616
#
#
#
# Elastic Compliance Matrix: (Units=1/GPa)
#
#
# Indices 1 2 3 4 5 6 
#
# 1 0.038390 -0.013881 -0.019451 0.000000 0.000000 0.000000
# 2 -0.013881 0.014386 0.003261 0.000000 0.000000 0.000000
# 3 -0.019451 0.003261 0.024160 0.000000 0.000000 0.000000
# 4 0.000000 0.000000 0.000000 0.058901 0.000000 0.000000
# 5 0.000000 0.000000 0.000000 0.000000 0.048260 0.000000
# 6 0.000000 0.000000 0.000000 0.000000 0.000000 0.064676
#
#
# Mechanical properties :
#
#
# Convention : Reuss Voigt Hill
#
# Bulk Modulus (GPa) = 59.54488 61.58426 60.56457
# Shear Modulus (GPa) = 15.89763 19.25064 17.57413
#
# Velocity S-wave (km/s) = 2.86597 3.15376 3.01330
# Velocity P-wave (km/s) = 6.45884 6.71418 6.58774
#
# Compressibility (1/GPa) = 0.01679406
#
# Stress axis : x y z
#
# Youngs Moduli (GPa) = 26.04873 69.51441 41.39003
#
# Poissons Ratio (x) = 0.96491 0.80506
# Poissons Ratio (y) = 0.36158 -0.13495
# Poissons Ratio (z) = 0.50666 -0.22666
#
# Static dielectric constant tensor:
#      x y z
#    x 1.642290 0.000000 0.000000 
#    y 0.000000 1.716680 0.000000 
#    z 0.000000 0.000000 1.677340 
# 
# From -- ./inp_files/7222.got.cif
#   From: 2010.05.17/outbox.cif.g08.bks.cpg/sg36_4_cif.got.tgz:7222.got - 2010.06.03 17:41:39.
