data_PCOD9352754
_publ_section_title
;
Structure prediction by ZEFSAII (Michael W. Deem and Ramdas Pophale) SiO2 
 PCOD9352754
Probable space group: C M C 21
;
_chemical_formula_sum "Si O2"
_cell_formula_units_Z 64
_cell_length_a 15.902520
_cell_length_b 11.256361
_cell_length_c 17.078857
_cell_angle_alpha 90.000000
_cell_angle_beta 90.000000
_cell_angle_gamma 90.000000
_cell_volume 3057.192359
_symmetry_space_group_name_H-M "C M C 21"
_symmetry_group_IT_number 36
_symmetry_cell_setting 'orthorhombic'
loop_
_space_group_symop_operation_xyz
x,y,z
-x,-y,1/2+z
x,-y,1/2+z
-x,y,z
1/2+x,1/2+y,z
1/2-x,1/2-y,1/2+z
1/2+x,1/2-y,1/2+z
1/2-x,1/2+y,z
loop_
_atom_site_type_symbol
_atom_site_label
_atom_site_fract_x
_atom_site_fract_y
_atom_site_fract_z
Si Si1 0.595337 0.127966 0.495680
Si Si2 0.781756 0.289989 0.686467
Si Si3 0.664477 0.629246 0.046593
Si Si4 0.903767 0.123578 0.602849
Si Si5 0.404176 0.683259 0.429478
Si Si6 0.170953 0.336789 0.300116
Si Si7 0.403526 0.011119 0.666287
Si Si8 0.750019 0.990824 0.912017
O O1 0.500000 0.101562 0.468959
O O2 0.605631 0.268385 0.511601
O O3 0.609385 0.061039 0.578699
O O4 0.669456 0.085608 0.438697
O O5 0.714933 0.313292 0.617945
O O6 0.836697 0.174486 0.663467
O O7 0.731212 0.265010 0.765568
O O8 0.843153 0.401931 0.685512
O O9 0.617596 0.510948 0.077092
O O10 0.729462 0.586600 0.980047
O O11 0.895646 0.202000 0.522968
O O12 0.000000 0.131208 0.630066
O O13 0.500000 0.642237 0.417098
O O14 0.384493 0.792911 0.373072
O O15 0.333962 0.586933 0.408467
O O16 0.116114 0.385755 0.228624
O O17 0.228924 0.441240 0.333165
O O18 0.500000 0.973077 0.672769
#
# Coordination Sequence:
#
# PCOD9352754 Si02
#       8
#     8   8   8   8   8   8   8   8
#     4  11  23  40  65  99 132 171 220 271 330 396
#     4  12  22  40  62  93 130 173 214 272 327 394
#     4  11  20  40  65  93 126 167 217 274 324 395
#     4  10  22  40  66  95 125 165 219 271 324 389
#     4  10  23  42  65  93 127 169 219 270 324 392
#     4  12  24  41  63  93 132 176 214 267 336 399
#     4  11  24  40  61  94 132 171 219 273 331 396
#     4  11  23  43  66  94 128 176 218 270 330 395
#
# _framework density 20.934239000000002
#
# number of rings (size 3 to 8) (size 9 to 14) (size 15 to 20)
#    0.000    1.000    2.500    5.625    0.000    1.500 
#    0.000    2.500    0.000    0.000    0.000    0.000 
#    0.000    0.000    0.000    0.000    0.000    0.000 
#
# Total GULP energy -178963.269895 kJ/mol
# GULP energy per Si atom -5592.602184 kJ/mol
# Density = 2.088659 g / cm^3
# Si number density = 20.934239 Si / 1000 Ang^3
#
#
#
# Elastic Constant Matrix: (Units=GPa)
#
#
# Indices 1 2 3 4 5 6 
#
# 1 114.7312 20.8335 26.3474 0.0000 0.0000 0.0000
# 2 20.8335 58.6686 2.5098 0.0000 0.0000 0.0000
# 3 26.3474 2.5098 36.6968 0.0000 0.0000 0.0000
# 4 0.0000 0.0000 0.0000 31.2164 0.0000 0.0000
# 5 0.0000 0.0000 0.0000 0.0000 -4.6621 0.0000
# 6 0.0000 0.0000 0.0000 0.0000 0.0000 23.6940
#
#
#
# Elastic Compliance Matrix: (Units=1/GPa)
#
#
# Indices 1 2 3 4 5 6 
#
# 1 0.011158 -0.003630 -0.007763 0.000000 0.000000 0.000000
# 2 -0.003630 0.018276 0.001356 0.000000 0.000000 0.000000
# 3 -0.007763 0.001356 0.032731 0.000000 0.000000 0.000000
# 4 0.000000 0.000000 0.000000 0.032034 0.000000 0.000000
# 5 0.000000 0.000000 0.000000 0.000000 -0.214495 0.000000
# 6 0.000000 0.000000 0.000000 0.000000 0.000000 0.042205
#
#
# Mechanical properties :
#
#
# Convention : Reuss Voigt Hill
#
# Bulk Modulus (GPa) = 23.75756 34.38643 29.07200
# Shear Modulus (GPa) = -113.67044 20.74338 -46.46353
#
# Velocity S-wave (km/s) = -7.37677 3.15124 -4.71627
# Velocity P-wave (km/s) = 7.82191 5.44996 3.96738
#
# Compressibility (1/GPa) = 0.04209187
#
# Stress axis : x y z
#
# Youngs Moduli (GPa) = 89.62258 54.71675 30.55196
#
# Poissons Ratio (x) = 0.19863 0.23717
# Poissons Ratio (y) = 0.32534 -0.04144
# Poissons Ratio (z) = 0.69573 -0.07422
#
# Static dielectric constant tensor:
#      x y z
#    x 1.734830 0.000000 0.000000 
#    y 0.000000 1.780480 0.000000 
#    z 0.000000 0.000000 1.740060 
# 
# From -- ./inp_files/14703.got.cif
#   From: 2010.05.17/outbox.cif.g08.bks.cpg/sg36_8_cif.got.tgz:14703.got - 2010.06.03 17:41:39.
