data_PCOD9352607
_publ_section_title
;
Structure prediction by ZEFSAII (Michael W. Deem and Ramdas Pophale) SiO2 
 PCOD9352607
Probable space group: C M C 21
;
_chemical_formula_sum "Si O2"
_cell_formula_units_Z 48
_cell_length_a 8.983930
_cell_length_b 27.574589
_cell_length_c 10.208606
_cell_angle_alpha 90.000000
_cell_angle_beta 90.000000
_cell_angle_gamma 90.000000
_cell_volume 2528.959358
_symmetry_space_group_name_H-M "C M C 21"
_symmetry_group_IT_number 36
_symmetry_cell_setting 'orthorhombic'
loop_
_space_group_symop_operation_xyz
x,y,z
-x,-y,1/2+z
x,-y,1/2+z
-x,y,z
1/2+x,1/2+y,z
1/2-x,1/2-y,1/2+z
1/2+x,1/2-y,1/2+z
1/2-x,1/2+y,z
loop_
_atom_site_type_symbol
_atom_site_label
_atom_site_fract_x
_atom_site_fract_y
_atom_site_fract_z
Si Si1 0.822277 0.714588 0.120370
Si Si2 0.822889 0.071632 0.490010
Si Si3 0.322183 0.108470 0.755457
Si Si4 0.177959 0.392823 0.724138
Si Si5 0.822746 0.533375 0.987585
Si Si6 0.177345 0.791624 0.347478
O O1 0.785429 0.660129 0.167297
O O2 0.788753 0.752499 0.235055
O O3 0.000000 0.715860 0.094701
O O4 0.735586 0.725970 0.987788
O O5 0.751248 0.096955 0.616597
O O6 0.763556 0.095888 0.357046
O O7 0.000000 0.074380 0.496953
O O8 0.768171 0.015993 0.489416
O O9 0.500000 0.112416 0.742348
O O10 0.291934 0.065044 0.858094
O O11 0.257278 0.157948 0.813925
O O12 0.209702 0.433202 0.613680
O O13 0.000000 0.394036 0.749312
O O14 0.000000 0.522114 0.989207
O O15 0.000000 0.798731 0.351231
#
# Coordination Sequence:
#
# PCOD9352607 Si02
#       6
#     8   8   8   8   8   8
#     4  10  23  44  66  93 126 164 208 253 307 376
#     4  12  26  39  58  95 132 163 203 261 317 367
#     4  11  23  43  67  90 124 170 213 255 307 373
#     4  10  21  42  66  89 121 165 214 254 299 373
#     4  10  21  41  67  90 116 164 217 257 305 375
#     4  11  24  41  66  99 129 160 205 260 315 366
#
# _framework density 18.980139999999999
#
# number of rings (size 3 to 8) (size 9 to 14) (size 15 to 20)
#    0.000    1.333    1.667    3.500    2.333    8.000 
#    0.000    0.000    0.000    0.000    0.000    0.000 
#    0.000    0.000    0.000    0.000    0.000    0.000 
#
# Total GULP energy -134259.638905 kJ/mol
# GULP energy per Si atom -5594.151621 kJ/mol
# Density = 1.893694 g / cm^3
# Si number density = 18.980140 Si / 1000 Ang^3
#
#
#
# Elastic Constant Matrix: (Units=GPa)
#
#
# Indices 1 2 3 4 5 6 
#
# 1 63.1786 36.6404 72.4994 0.0000 0.0000 0.0000
# 2 36.6404 58.3097 31.4845 0.0000 0.0000 0.0000
# 3 72.4994 31.4845 157.3385 0.0000 0.0000 0.0000
# 4 0.0000 0.0000 0.0000 30.6970 0.0000 0.0000
# 5 0.0000 0.0000 0.0000 0.0000 29.3537 0.0000
# 6 0.0000 0.0000 0.0000 0.0000 0.0000 22.3959
#
#
#
# Elastic Compliance Matrix: (Units=1/GPa)
#
#
# Indices 1 2 3 4 5 6 
#
# 1 0.049132 -0.020908 -0.018456 0.000000 0.000000 0.000000
# 2 -0.020908 0.028125 0.004006 0.000000 0.000000 0.000000
# 3 -0.018456 0.004006 0.014058 0.000000 0.000000 0.000000
# 4 0.000000 0.000000 0.000000 0.032576 0.000000 0.000000
# 5 0.000000 0.000000 0.000000 0.000000 0.034067 0.000000
# 6 0.000000 0.000000 0.000000 0.000000 0.000000 0.044651
#
#
# Mechanical properties :
#
#
# Convention : Reuss Voigt Hill
#
# Bulk Modulus (GPa) = 48.54367 62.23060 55.38714
# Shear Modulus (GPa) = 17.84490 25.70282 21.77386
#
# Velocity S-wave (km/s) = 3.06957 3.68393 3.39070
# Velocity P-wave (km/s) = 6.18018 7.13817 6.67638
#
# Compressibility (1/GPa) = 0.02060001
#
# Stress axis : x y z
#
# Youngs Moduli (GPa) = 20.35320 35.55566 71.13338
#
# Poissons Ratio (x) = 0.74341 1.31281
# Poissons Ratio (y) = 0.42555 -0.28498
# Poissons Ratio (z) = 0.37563 -0.14245
#
# Static dielectric constant tensor:
#      x y z
#    x 1.631670 0.000000 0.000000 
#    y 0.000000 1.631590 0.000000 
#    z 0.000000 0.000000 1.633560 
# 
# From -- ./inp_files/2729.got.cif
#   From: 2010.05.17/outbox.cif.g08.bks.cpg/sg36_2_cif.got.tgz:2729.got - 2010.06.03 17:41:39.
