data_PCOD9352147
_publ_section_title
;
Structure prediction by ZEFSAII (Michael W. Deem and Ramdas Pophale) SiO2 
 PCOD9352147
Probable space group: C M C 21
;
_chemical_formula_sum "Si O2"
_cell_formula_units_Z 64
_cell_length_a 9.082202
_cell_length_b 24.344689
_cell_length_c 15.408672
_cell_angle_alpha 90.000000
_cell_angle_beta 90.000000
_cell_angle_gamma 90.000000
_cell_volume 3406.909509
_symmetry_space_group_name_H-M "C M C 21"
_symmetry_group_IT_number 36
_symmetry_cell_setting 'orthorhombic'
loop_
_space_group_symop_operation_xyz
x,y,z
-x,-y,1/2+z
x,-y,1/2+z
-x,y,z
1/2+x,1/2+y,z
1/2-x,1/2-y,1/2+z
1/2+x,1/2-y,1/2+z
1/2-x,1/2+y,z
loop_
_atom_site_type_symbol
_atom_site_label
_atom_site_fract_x
_atom_site_fract_y
_atom_site_fract_z
Si Si1 0.328719 0.744773 0.489130
Si Si2 0.324221 0.746114 0.806144
Si Si3 0.675118 0.011634 0.801337
Si Si4 0.176787 0.945133 0.644403
Si Si5 0.333819 0.372376 0.082510
Si Si6 0.678433 0.825203 0.645550
Si Si7 0.327764 0.866748 0.255651
Si Si8 0.171018 0.017555 0.475586
O O1 0.500000 0.755664 0.466907
O O2 0.237604 0.740712 0.401117
O O3 0.322276 0.686742 0.538386
O O4 0.281365 0.791313 0.558278
O O5 0.500000 0.745652 0.807242
O O6 0.279297 0.788916 0.730174
O O7 0.264362 0.685900 0.783342
O O8 0.500000 0.005836 0.788670
O O9 0.757664 0.981610 0.722467
O O10 0.727163 0.987625 0.892462
O O11 0.710227 0.076593 0.803331
O O12 0.246881 0.884608 0.646970
O O13 0.000000 0.942263 0.652898
O O14 0.209864 0.975571 0.553223
O O15 0.500000 0.376715 0.121220
O O16 0.212167 0.377815 0.155839
O O17 0.319834 0.421446 0.014686
O O18 0.500000 0.830651 0.646245
O O19 0.500000 0.855389 0.267523
O O20 0.000000 0.007400 0.451068
#
# Coordination Sequence:
#
# PCOD9352147 Si02
#       8
#     8   8   8   8   8   8   8   8
#     4  10  22  41  64  91 123 161 203 253 312 366
#     4  11  24  42  64  91 123 164 207 253 307 363
#     4  11  25  42  63  92 126 165 206 252 309 368
#     4  11  24  42  65  92 125 164 207 256 307 363
#     4  10  20  41  67  90 120 157 202 259 314 363
#     4  10  23  43  63  87 126 167 202 248 311 369
#     4  11  23  40  64  93 122 159 206 256 308 363
#     4  10  23  41  64  94 123 159 207 257 310 365
#
# _framework density 18.785354000000002
#
# number of rings (size 3 to 8) (size 9 to 14) (size 15 to 20)
#    0.000    1.500    2.500    1.500    3.500    5.000 
#    0.000    0.000    0.000    0.000    0.000    0.000 
#    0.000    0.000    0.000    0.000    0.000    0.000 
#
# Total GULP energy -178784.590947 kJ/mol
# GULP energy per Si atom -5587.018467 kJ/mol
# Density = 1.874260 g / cm^3
# Si number density = 18.785354 Si / 1000 Ang^3
#
#
#
# Elastic Constant Matrix: (Units=GPa)
#
#
# Indices 1 2 3 4 5 6 
#
# 1 18.8620 12.5031 4.4769 0.0000 0.0000 0.0000
# 2 12.5031 69.1553 -10.3050 0.0000 0.0000 0.0000
# 3 4.4769 -10.3050 41.7800 0.0000 0.0000 0.0000
# 4 0.0000 0.0000 0.0000 3.1231 0.0000 0.0000
# 5 0.0000 0.0000 0.0000 0.0000 32.6950 0.0000
# 6 0.0000 0.0000 0.0000 0.0000 0.0000 28.9028
#
#
#
# Elastic Compliance Matrix: (Units=1/GPa)
#
#
# Indices 1 2 3 4 5 6 
#
# 1 0.064092 -0.013092 -0.010097 0.000000 0.000000 0.000000
# 2 -0.013092 0.017686 0.005765 0.000000 0.000000 0.000000
# 3 -0.010097 0.005765 0.026439 0.000000 0.000000 0.000000
# 4 0.000000 0.000000 0.000000 0.320191 0.000000 0.000000
# 5 0.000000 0.000000 0.000000 0.000000 0.030586 0.000000
# 6 0.000000 0.000000 0.000000 0.000000 0.000000 0.034599
#
#
# Mechanical properties :
#
#
# Convention : Reuss Voigt Hill
#
# Bulk Modulus (GPa) = 13.62972 15.90525 14.76748
# Shear Modulus (GPa) = 9.04328 21.15234 15.09781
#
# Velocity S-wave (km/s) = 2.19646 3.35924 2.83804
# Velocity P-wave (km/s) = 3.70187 4.85089 4.31480
#
# Compressibility (1/GPa) = 0.07336910
#
# Stress axis : x y z
#
# Youngs Moduli (GPa) = 15.60266 56.54091 37.82316
#
# Poissons Ratio (x) = 0.74024 0.38190
# Poissons Ratio (y) = 0.20427 -0.21806
# Poissons Ratio (z) = 0.15754 -0.32597
#
# Static dielectric constant tensor:
#      x y z
#    x 1.647910 0.000000 0.000000 
#    y 0.000000 1.696980 0.000000 
#    z 0.000000 0.000000 1.645600 
# 
# From -- ./inp_files/10883.got.cif
#   From: 2010.05.17/outbox.cif.g08.bks.cpg/sg36_6_cif.got.tgz:10883.got - 2010.06.03 17:41:39.
