data_PCOD9352573
_publ_section_title
;
Structure prediction by ZEFSAII (Michael W. Deem and Ramdas Pophale) SiO2 
 PCOD9352573
Probable space group: C M C 21
;
_chemical_formula_sum "Si O2"
_cell_formula_units_Z 40
_cell_length_a 10.388512
_cell_length_b 15.522732
_cell_length_c 11.723905
_cell_angle_alpha 90.000000
_cell_angle_beta 90.000000
_cell_angle_gamma 90.000000
_cell_volume 1890.574500
_symmetry_space_group_name_H-M "C M C 21"
_symmetry_group_IT_number 36
_symmetry_cell_setting 'orthorhombic'
loop_
_space_group_symop_operation_xyz
x,y,z
-x,-y,1/2+z
x,-y,1/2+z
-x,y,z
1/2+x,1/2+y,z
1/2-x,1/2-y,1/2+z
1/2+x,1/2-y,1/2+z
1/2-x,1/2+y,z
loop_
_atom_site_type_symbol
_atom_site_label
_atom_site_fract_x
_atom_site_fract_y
_atom_site_fract_z
Si Si1 0.723694 0.366490 0.040750
Si Si2 0.140990 0.949317 0.806368
Si Si3 0.152018 0.695785 0.949084
Si Si4 0.143749 0.534972 0.116128
Si Si5 0.136855 0.854433 0.289966
O O1 0.831229 0.438346 0.068857
O O2 0.639283 0.369612 0.154886
O O3 0.664009 0.396533 0.921091
O O4 0.735751 0.264481 0.021246
O O5 0.252204 0.941706 0.712581
O O6 0.000000 0.928051 0.757767
O O7 0.138538 0.049780 0.841444
O O8 0.231754 0.688939 0.831704
O O9 0.000000 0.719631 0.938039
O O10 0.153006 0.604961 0.015447
O O11 0.000000 0.539525 0.165060
O O12 0.000000 0.811322 0.320672
#
# Coordination Sequence:
#
# PCOD9352573 Si02
#       5
#     8   8   8   8   8
#     4  11  23  43  67  95 130 177 217 267 327 391
#     4  10  21  40  68  95 127 173 220 269 325 391
#     4  11  24  43  66  94 132 172 216 270 328 386
#     4  10  24  44  66  96 133 171 215 275 333 387
#     4  10  22  40  65  96 130 167 218 271 321 387
#
# _framework density 21.157588000000001
#
# number of rings (size 3 to 8) (size 9 to 14) (size 15 to 20)
#    0.000    1.600    2.000    1.800    2.800    7.200 
#    0.000    0.000    0.000    0.000    0.000    0.000 
#    0.000    0.000    0.000    0.000    0.000    0.000 
#
# Total GULP energy -111407.364486 kJ/mol
# GULP energy per Si atom -5570.368224 kJ/mol
# Density = 2.110943 g / cm^3
# Si number density = 21.157588 Si / 1000 Ang^3
#
#
#
# Elastic Constant Matrix: (Units=GPa)
#
#
# Indices 1 2 3 4 5 6 
#
# 1 160.7555 20.8379 76.4815 0.0000 0.0000 0.0000
# 2 20.8379 60.6805 11.7043 0.0000 0.0000 0.0000
# 3 76.4815 11.7043 68.2973 0.0000 0.0000 0.0000
# 4 0.0000 0.0000 0.0000 30.8424 0.0000 0.0000
# 5 0.0000 0.0000 0.0000 0.0000 18.0645 0.0000
# 6 0.0000 0.0000 0.0000 0.0000 0.0000 6.4185
#
#
#
# Elastic Compliance Matrix: (Units=1/GPa)
#
#
# Indices 1 2 3 4 5 6 
#
# 1 0.013497 -0.001778 -0.014810 0.000000 0.000000 0.000000
# 2 -0.001778 0.017277 -0.000969 0.000000 0.000000 0.000000
# 3 -0.014810 -0.000969 0.031392 0.000000 0.000000 0.000000
# 4 0.000000 0.000000 0.000000 0.032423 0.000000 0.000000
# 5 0.000000 0.000000 0.000000 0.000000 0.055357 0.000000
# 6 0.000000 0.000000 0.000000 0.000000 0.000000 0.155801
#
#
# Mechanical properties :
#
#
# Convention : Reuss Voigt Hill
#
# Bulk Modulus (GPa) = 36.96593 56.42007 46.69300
# Shear Modulus (GPa) = 14.29064 23.11238 18.70151
#
# Velocity S-wave (km/s) = 2.60174 3.30872 2.97630
# Velocity P-wave (km/s) = 5.15122 6.42817 5.82479
#
# Compressibility (1/GPa) = 0.02705194
#
# Stress axis : x y z
#
# Youngs Moduli (GPa) = 74.09051 57.87890 31.85500
#
# Poissons Ratio (x) = 0.10293 0.47176
# Poissons Ratio (y) = 0.13176 0.03088
# Poissons Ratio (z) = 1.09725 0.05611
#
# Static dielectric constant tensor:
#      x y z
#    x 1.786390 0.000000 0.000000 
#    y 0.000000 1.855820 0.000000 
#    z 0.000000 0.000000 1.757600 
# 
# From -- ./inp_files/6515.got.cif
#   From: 2010.05.17/outbox.cif.g08.bks.cpg/sg36_4_cif.got.tgz:6515.got - 2010.06.03 17:41:39.
