data_PCOD9352691
_publ_section_title
;
Structure prediction by ZEFSAII (Michael W. Deem and Ramdas Pophale) SiO2 
 PCOD9352691
Probable space group: C M C 21
;
_chemical_formula_sum "Si O2"
_cell_formula_units_Z 48
_cell_length_a 9.159395
_cell_length_b 31.040223
_cell_length_c 6.988163
_cell_angle_alpha 90.000000
_cell_angle_beta 90.000000
_cell_angle_gamma 90.000000
_cell_volume 1986.802270
_symmetry_space_group_name_H-M "C M C 21"
_symmetry_group_IT_number 36
_symmetry_cell_setting 'orthorhombic'
loop_
_space_group_symop_operation_xyz
x,y,z
-x,-y,1/2+z
x,-y,1/2+z
-x,y,z
1/2+x,1/2+y,z
1/2-x,1/2-y,1/2+z
1/2+x,1/2-y,1/2+z
1/2-x,1/2+y,z
loop_
_atom_site_type_symbol
_atom_site_label
_atom_site_fract_x
_atom_site_fract_y
_atom_site_fract_z
Si Si1 0.500000 0.527309 0.698470
Si Si2 0.833800 0.444132 0.302177
Si Si3 0.163224 0.195547 0.004544
Si Si4 0.213807 0.385800 0.640355
Si Si5 0.655925 0.142581 0.558824
Si Si6 0.338922 0.719247 0.449058
Si Si7 0.000000 0.931625 0.781111
O O1 0.331541 0.534911 0.783938
O O2 0.500000 0.476255 0.665949
O O3 0.500000 0.554714 0.502816
O O4 0.845418 0.425231 0.516440
O O5 0.821809 0.403125 0.160317
O O6 0.000000 0.464062 0.261888
O O7 0.263096 0.153357 0.991681
O O8 0.233343 0.239953 0.938419
O O9 0.151507 0.201571 0.234279
O O10 0.000000 0.188097 0.930926
O O11 0.365288 0.403092 0.721265
O O12 0.143263 0.368374 0.832881
O O13 0.500000 0.160905 0.624497
O O14 0.775835 0.179978 0.574351
O O15 0.500000 0.732689 0.513480
#
# Coordination Sequence:
#
# PCOD9352691 Si02
#       7
#     4   8   8   8   8   8   4
#     4  12  26  48  80 109 153 184 241 299 366 441
#     4  11  25  44  72 109 143 187 235 289 360 435
#     4  10  22  39  60  90 127 174 226 286 347 414
#     4  11  22  43  71 100 139 182 237 291 359 427
#     4  10  22  41  66  95 134 181 232 291 351 420
#     4  10  23  38  58  87 127 172 227 285 346 412
#     4  12  24  48  76 111 143 192 237 301 364 447
#
# _framework density 24.159426
#
# number of rings (size 3 to 8) (size 9 to 14) (size 15 to 20)
#    0.000    1.333    2.500    2.500    4.667    4.000 
#    0.000    4.167    0.000    0.000    0.000    0.000 
#    0.000    0.000    0.000    0.000    0.000    0.000 
#
# Total GULP energy -133887.978849 kJ/mol
# GULP energy per Si atom -5578.665785 kJ/mol
# Density = 2.410444 g / cm^3
# Si number density = 24.159426 Si / 1000 Ang^3
#
#
#
# Elastic Constant Matrix: (Units=GPa)
#
#
# Indices 1 2 3 4 5 6 
#
# 1 178.7566 40.4662 6.8398 0.0000 0.0000 0.0000
# 2 40.4662 67.2213 -6.9679 0.0000 0.0000 0.0000
# 3 6.8398 -6.9679 51.2679 0.0000 0.0000 0.0000
# 4 0.0000 0.0000 0.0000 27.8028 0.0000 0.0000
# 5 0.0000 0.0000 0.0000 0.0000 15.1016 0.0000
# 6 0.0000 0.0000 0.0000 0.0000 0.0000 40.8062
#
#
#
# Elastic Compliance Matrix: (Units=1/GPa)
#
#
# Indices 1 2 3 4 5 6 
#
# 1 0.006579 -0.004110 -0.001436 0.000000 0.000000 0.000000
# 2 -0.004110 0.017656 0.002948 0.000000 0.000000 0.000000
# 3 -0.001436 0.002948 0.020098 0.000000 0.000000 0.000000
# 4 0.000000 0.000000 0.000000 0.035968 0.000000 0.000000
# 5 0.000000 0.000000 0.000000 0.000000 0.066218 0.000000
# 6 0.000000 0.000000 0.000000 0.000000 0.000000 0.024506
#
#
# Mechanical properties :
#
#
# Convention : Reuss Voigt Hill
#
# Bulk Modulus (GPa) = 25.55142 41.99133 33.77138
# Shear Modulus (GPa) = 26.41777 33.86931 30.14354
#
# Velocity S-wave (km/s) = 3.31036 3.74827 3.53610
# Velocity P-wave (km/s) = 5.02100 6.01260 5.53904
#
# Compressibility (1/GPa) = 0.03913676
#
# Stress axis : x y z
#
# Youngs Moduli (GPa) = 151.98765 56.63881 49.75700
#
# Poissons Ratio (x) = 0.23276 0.07147
# Poissons Ratio (y) = 0.62461 -0.14668
# Poissons Ratio (z) = 0.21831 -0.16697
#
# Static dielectric constant tensor:
#      x y z
#    x 1.905380 0.000000 0.000000 
#    y 0.000000 1.856190 0.000000 
#    z 0.000000 0.000000 1.986930 
# 
# From -- ./inp_files/2762.got.cif
#   From: 2010.05.17/outbox.cif.g08.bks.cpg/sg36_2_cif.got.tgz:2762.got - 2010.06.03 17:41:39.
