data_PCOD9352455
_publ_section_title
;
Structure prediction by ZEFSAII (Michael W. Deem and Ramdas Pophale) SiO2 
 PCOD9352455
Probable space group: C M C 21
;
_chemical_formula_sum "Si O2"
_cell_formula_units_Z 64
_cell_length_a 8.142231
_cell_length_b 15.788388
_cell_length_c 24.231751
_cell_angle_alpha 90.000000
_cell_angle_beta 90.000000
_cell_angle_gamma 90.000000
_cell_volume 3115.057070
_symmetry_space_group_name_H-M "C M C 21"
_symmetry_group_IT_number 36
_symmetry_cell_setting 'orthorhombic'
loop_
_space_group_symop_operation_xyz
x,y,z
-x,-y,1/2+z
x,-y,1/2+z
-x,y,z
1/2+x,1/2+y,z
1/2-x,1/2-y,1/2+z
1/2+x,1/2-y,1/2+z
1/2-x,1/2+y,z
loop_
_atom_site_type_symbol
_atom_site_label
_atom_site_fract_x
_atom_site_fract_y
_atom_site_fract_z
Si Si1 0.698505 0.422296 0.508750
Si Si2 0.701067 0.255764 0.444908
Si Si3 0.194249 0.605093 0.525834
Si Si4 0.804671 0.846170 0.626726
Si Si5 0.187668 0.844387 0.143131
Si Si6 0.310387 0.897672 0.258538
Si Si7 0.194084 0.264943 0.821079
Si Si8 0.800037 0.584685 0.242357
O O1 0.500000 0.428494 0.507350
O O2 0.750291 0.348067 0.467076
O O3 0.771027 0.514664 0.498453
O O4 0.746804 0.391577 0.570248
O O5 0.500000 0.255245 0.444553
O O6 0.752168 0.182706 0.487640
O O7 0.760745 0.237312 0.383180
O O8 0.278052 0.609290 0.585590
O O9 0.000000 0.615958 0.534650
O O10 0.720379 0.755000 0.633319
O O11 0.764312 0.900566 0.680673
O O12 0.000000 0.831506 0.623231
O O13 0.296972 0.876166 0.193620
O O14 0.000000 0.857439 0.160084
O O15 0.500000 0.894403 0.275588
O O16 0.218511 0.825177 0.291998
O O17 0.248679 0.993383 0.265259
O O18 0.259436 0.338692 0.781148
O O19 0.000000 0.281418 0.825765
O O20 0.000000 0.585763 0.239692
#
# Coordination Sequence:
#
# PCOD9352455 Si02
#       8
#     8   8   8   8   8   8   8   8
#     4  10  21  39  60  87 120 157 196 240 294 356
#     4   9  20  40  62  83 117 160 202 244 295 350
#     4  11  22  39  62  90 120 157 200 244 295 350
#     4  11  21  36  61  88 120 155 193 240 297 356
#     4  12  23  37  60  89 121 156 195 240 298 362
#     4  11  23  39  60  89 123 156 196 248 297 351
#     4  10  21  40  63  85 114 160 205 246 295 348
#     4  10  22  38  58  87 121 155 195 240 295 353
#
# _framework density 20.545370999999999
#
# number of rings (size 3 to 8) (size 9 to 14) (size 15 to 20)
#    0.000    1.500    2.500    3.000    0.000    5.000 
#    0.000    3.125    0.000    0.000    0.000    0.000 
#    0.000    0.000    0.000    0.000    0.000    0.000 
#
# Total GULP energy -178891.331080 kJ/mol
# GULP energy per Si atom -5590.354096 kJ/mol
# Density = 2.049861 g / cm^3
# Si number density = 20.545371 Si / 1000 Ang^3
#
#
#
# Elastic Constant Matrix: (Units=GPa)
#
#
# Indices 1 2 3 4 5 6 
#
# 1 18.4116 -6.0243 -7.3514 0.0000 0.0000 0.0000
# 2 -6.0243 83.6738 -2.9760 0.0000 0.0000 0.0000
# 3 -7.3514 -2.9760 74.9151 0.0000 0.0000 0.0000
# 4 0.0000 0.0000 0.0000 5.2003 0.0000 0.0000
# 5 0.0000 0.0000 0.0000 0.0000 16.4726 0.0000
# 6 0.0000 0.0000 0.0000 0.0000 0.0000 181.5094
#
#
#
# Elastic Compliance Matrix: (Units=1/GPa)
#
#
# Indices 1 2 3 4 5 6 
#
# 1 0.058097 0.004392 0.005875 0.000000 0.000000 0.000000
# 2 0.004392 0.012300 0.000920 0.000000 0.000000 0.000000
# 3 0.005875 0.000920 0.013962 0.000000 0.000000 0.000000
# 4 0.000000 0.000000 0.000000 0.192297 0.000000 0.000000
# 5 0.000000 0.000000 0.000000 0.000000 0.060707 0.000000
# 6 0.000000 0.000000 0.000000 0.000000 0.000000 0.005509
#
#
# Mechanical properties :
#
#
# Convention : Reuss Voigt Hill
#
# Bulk Modulus (GPa) = 9.36928 16.03300 12.70114
# Shear Modulus (GPa) = 14.04199 53.52660 33.78430
#
# Velocity S-wave (km/s) = 2.61715 5.10974 4.05949
# Velocity P-wave (km/s) = 3.70173 6.52941 5.30735
#
# Compressibility (1/GPa) = 0.10673180
#
# Stress axis : x y z
#
# Youngs Moduli (GPa) = 17.21273 81.30026 71.62537
#
# Poissons Ratio (x) = -0.35705 -0.42083
# Poissons Ratio (y) = -0.07559 -0.06587
# Poissons Ratio (z) = -0.10113 -0.07476
#
# Static dielectric constant tensor:
#      x y z
#    x 1.731760 0.000000 0.000000 
#    y 0.000000 1.724510 0.000000 
#    z 0.000000 0.000000 1.706580 
# 
# From -- ./inp_files/16607.got.cif
#   From: 2010.05.17/outbox.cif.g08.bks.cpg/sg36_9_cif.got.tgz:16607.got - 2010.06.03 17:41:39.
