data_PCOD9352679
_publ_section_title
;
Structure prediction by ZEFSAII (Michael W. Deem and Ramdas Pophale) SiO2 
 PCOD9352679
Probable space group: C M C 21
;
_chemical_formula_sum "Si O2"
_cell_formula_units_Z 48
_cell_length_a 27.322946
_cell_length_b 5.631319
_cell_length_c 12.763326
_cell_angle_alpha 90.000000
_cell_angle_beta 90.000000
_cell_angle_gamma 90.000000
_cell_volume 1963.819263
_symmetry_space_group_name_H-M "C M C 21"
_symmetry_group_IT_number 36
_symmetry_cell_setting 'orthorhombic'
loop_
_space_group_symop_operation_xyz
x,y,z
-x,-y,1/2+z
x,-y,1/2+z
-x,y,z
1/2+x,1/2+y,z
1/2-x,1/2-y,1/2+z
1/2+x,1/2-y,1/2+z
1/2-x,1/2+y,z
loop_
_atom_site_type_symbol
_atom_site_label
_atom_site_fract_x
_atom_site_fract_y
_atom_site_fract_z
Si Si1 0.382037 0.999638 0.498180
Si Si2 0.444228 0.645359 0.379417
Si Si3 0.767109 0.321117 0.782217
Si Si4 0.228538 0.598282 0.532840
Si Si5 0.944853 0.557662 0.663656
Si Si6 0.624984 0.251444 0.285643
O O1 0.327653 0.011531 0.545455
O O2 0.416126 0.177077 0.566974
O O3 0.370417 0.059718 0.377715
O O4 0.419499 0.782843 0.475943
O O5 0.500000 0.564343 0.402627
O O6 0.448147 0.802430 0.272833
O O7 0.405805 0.450632 0.343303
O O8 0.768094 0.600635 0.748260
O O9 0.819481 0.198278 0.757539
O O10 0.760735 0.359937 0.907812
O O11 0.260357 0.369405 0.569653
O O12 0.907782 0.344503 0.691676
O O13 0.000000 0.492058 0.634847
#
# Coordination Sequence:
#
# PCOD9352679 Si02
#       6
#     8   8   8   8   8   8
#     4  10  22  38  65  89 121 164 209 257 314 382
#     4  10  22  39  62  90 122 161 210 263 317 375
#     4   9  19  33  61  92 124 164 212 260 316 384
#     4   9  19  35  60  92 127 163 207 260 317 378
#     4  10  22  41  60  88 125 161 206 263 317 375
#     4  10  22  38  62  89 125 163 208 259 319 376
#
# _framework density 24.442164999999999
#
# number of rings (size 3 to 8) (size 9 to 14) (size 15 to 20)
#    0.000    2.333    0.000    1.000   14.000    3.333 
#    0.000    3.333    0.000    0.000    0.000    0.000 
#    0.000    0.000    0.000    0.000    0.000    0.000 
#
# Total GULP energy -133617.668781 kJ/mol
# GULP energy per Si atom -5567.402866 kJ/mol
# Density = 2.438653 g / cm^3
# Si number density = 24.442165 Si / 1000 Ang^3
#
#
#
# Elastic Constant Matrix: (Units=GPa)
#
#
# Indices 1 2 3 4 5 6 
#
# 1 162.2878 51.5446 14.3558 0.0000 0.0000 0.0000
# 2 51.5446 95.3217 16.5334 0.0000 0.0000 0.0000
# 3 14.3558 16.5334 75.4642 0.0000 0.0000 0.0000
# 4 0.0000 0.0000 0.0000 -2.0868 0.0000 0.0000
# 5 0.0000 0.0000 0.0000 0.0000 24.6400 0.0000
# 6 0.0000 0.0000 0.0000 0.0000 0.0000 24.8515
#
#
#
# Elastic Compliance Matrix: (Units=1/GPa)
#
#
# Indices 1 2 3 4 5 6 
#
# 1 0.007462 -0.003939 -0.000557 0.000000 0.000000 0.000000
# 2 -0.003939 0.012984 -0.002095 0.000000 0.000000 0.000000
# 3 -0.000557 -0.002095 0.013816 0.000000 0.000000 0.000000
# 4 0.000000 0.000000 0.000000 -0.479213 0.000000 0.000000
# 5 0.000000 0.000000 0.000000 0.000000 0.040584 0.000000
# 6 0.000000 0.000000 0.000000 0.000000 0.000000 0.040239
#
#
# Mechanical properties :
#
#
# Convention : Reuss Voigt Hill
#
# Bulk Modulus (GPa) = 47.43567 55.32681 51.38124
# Shear Modulus (GPa) = -14.53829 26.19026 5.82599
#
# Velocity S-wave (km/s) = -2.44151 3.27696 1.54556
# Velocity P-wave (km/s) = 3.39139 6.08300 4.92465
#
# Compressibility (1/GPa) = 0.02108118
#
# Stress axis : x y z
#
# Youngs Moduli (GPa) = 134.01138 77.01810 72.37829
#
# Poissons Ratio (x) = 0.30334 0.04029
# Poissons Ratio (y) = 0.52781 0.15166
# Poissons Ratio (z) = 0.07460 0.16138
#
# Static dielectric constant tensor:
#      x y z
#    x 2.144180 0.000000 0.000000 
#    y 0.000000 2.313140 0.000000 
#    z 0.000000 0.000000 2.259460 
# 
# From -- ./inp_files/13051.got.cif
#   From: 2010.05.17/outbox.cif.g08.bks.cpg/sg36_7_cif.got.tgz:13051.got - 2010.06.03 17:41:39.
