data_PCOD9352773
_publ_section_title
;
Structure prediction by ZEFSAII (Michael W. Deem and Ramdas Pophale) SiO2 
 PCOD9352773
Probable space group: C M C 21
;
_chemical_formula_sum "Si O2"
_cell_formula_units_Z 64
_cell_length_a 9.332936
_cell_length_b 23.945720
_cell_length_c 15.321901
_cell_angle_alpha 90.000000
_cell_angle_beta 90.000000
_cell_angle_gamma 90.000000
_cell_volume 3424.197765
_symmetry_space_group_name_H-M "C M C 21"
_symmetry_group_IT_number 36
_symmetry_cell_setting 'orthorhombic'
loop_
_space_group_symop_operation_xyz
x,y,z
-x,-y,1/2+z
x,-y,1/2+z
-x,y,z
1/2+x,1/2+y,z
1/2-x,1/2-y,1/2+z
1/2+x,1/2-y,1/2+z
1/2-x,1/2+y,z
loop_
_atom_site_type_symbol
_atom_site_label
_atom_site_fract_x
_atom_site_fract_y
_atom_site_fract_z
Si Si1 0.832343 0.996119 0.392420
Si Si2 0.334068 0.377502 0.825801
Si Si3 0.666362 0.221422 0.390629
Si Si4 0.832777 0.501894 0.575272
Si Si5 0.672618 0.074661 0.744257
Si Si6 0.170415 0.293526 0.246290
Si Si7 0.335196 0.280590 0.575973
Si Si8 0.165322 0.623694 0.146955
O O1 0.824141 0.057987 0.351381
O O2 0.759717 0.000932 0.487378
O O3 0.000000 0.980408 0.400025
O O4 0.750723 0.954667 0.326023
O O5 0.500000 0.361007 0.822874
O O6 0.248023 0.337368 0.890146
O O7 0.261116 0.369146 0.732444
O O8 0.500000 0.213323 0.367592
O O9 0.741587 0.261750 0.320609
O O10 0.674631 0.248856 0.485166
O O11 0.787380 0.544222 0.652780
O O12 0.825499 0.439676 0.614769
O O13 0.000000 0.514091 0.554059
O O14 0.500000 0.067567 0.753895
O O15 0.704750 0.140658 0.741126
O O16 0.197654 0.261661 0.155214
O O17 0.000000 0.289000 0.264313
O O18 0.500000 0.299978 0.587464
O O19 0.228992 0.332765 0.578333
O O20 0.000000 0.636235 0.166197
#
# Coordination Sequence:
#
# PCOD9352773 Si02
#       8
#     8   8   8   8   8   8   8   8
#     4  11  25  41  62  92 125 162 203 251 309 365
#     4  11  23  41  63  89 123 161 202 256 313 360
#     4  11  24  40  63  93 122 161 207 251 301 362
#     4  10  23  41  64  92 121 158 207 255 304 363
#     4  10  22  42  65  89 122 164 206 251 303 363
#     4  10  22  41  63  87 122 165 202 247 307 360
#     4  10  23  41  61  89 125 162 199 247 309 364
#     4  11  22  39  65  93 118 155 208 258 304 361
#
# _framework density 18.69051
#
# number of rings (size 3 to 8) (size 9 to 14) (size 15 to 20)
#    0.000    1.500    2.500    1.500    3.500    4.500 
#    0.000    0.000    0.000    0.000    0.000    0.000 
#    0.000    0.000    0.000    0.000    0.000    0.000 
#
# Total GULP energy -178790.572805 kJ/mol
# GULP energy per Si atom -5587.205400 kJ/mol
# Density = 1.864797 g / cm^3
# Si number density = 18.690510 Si / 1000 Ang^3
#
#
#
# Elastic Constant Matrix: (Units=GPa)
#
#
# Indices 1 2 3 4 5 6 
#
# 1 81.5274 39.0946 36.2697 0.0000 0.0000 0.0000
# 2 39.0946 76.5767 6.4620 0.0000 0.0000 0.0000
# 3 36.2697 6.4620 75.7141 0.0000 0.0000 0.0000
# 4 0.0000 0.0000 0.0000 21.3809 0.0000 0.0000
# 5 0.0000 0.0000 0.0000 0.0000 23.0954 0.0000
# 6 0.0000 0.0000 0.0000 0.0000 0.0000 27.2035
#
#
#
# Elastic Compliance Matrix: (Units=1/GPa)
#
#
# Indices 1 2 3 4 5 6 
#
# 1 0.021228 -0.010052 -0.009311 0.000000 0.000000 0.000000
# 2 -0.010052 0.017913 0.003286 0.000000 0.000000 0.000000
# 3 -0.009311 0.003286 0.017387 0.000000 0.000000 0.000000
# 4 0.000000 0.000000 0.000000 0.046771 0.000000 0.000000
# 5 0.000000 0.000000 0.000000 0.000000 0.043299 0.000000
# 6 0.000000 0.000000 0.000000 0.000000 0.000000 0.036760
#
#
# Mechanical properties :
#
#
# Convention : Reuss Voigt Hill
#
# Bulk Modulus (GPa) = 41.02469 44.16343 42.59406
# Shear Modulus (GPa) = 22.35765 24.46877 23.41321
#
# Velocity S-wave (km/s) = 3.46237 3.62215 3.54316
# Velocity P-wave (km/s) = 6.16288 6.41665 6.29105
#
# Compressibility (1/GPa) = 0.02437557
#
# Stress axis : x y z
#
# Youngs Moduli (GPa) = 47.10685 55.82455 57.51260
#
# Poissons Ratio (x) = 0.56114 0.53551
# Poissons Ratio (y) = 0.47351 -0.18901
# Poissons Ratio (z) = 0.43862 -0.18346
#
# Static dielectric constant tensor:
#      x y z
#    x 1.639100 0.000000 0.000000 
#    y 0.000000 1.636560 0.000000 
#    z 0.000000 0.000000 1.626140 
# 
# From -- ./inp_files/10956.got.cif
#   From: 2010.05.17/outbox.cif.g08.bks.cpg/sg36_6_cif.got.tgz:10956.got - 2010.06.03 17:41:39.
