data_PCOD9352535
_publ_section_title
;
Structure prediction by ZEFSAII (Michael W. Deem and Ramdas Pophale) SiO2 
 PCOD9352535
Probable space group: C M C 21
;
_chemical_formula_sum "Si O2"
_cell_formula_units_Z 64
_cell_length_a 21.756835
_cell_length_b 23.688246
_cell_length_c 5.281610
_cell_angle_alpha 90.000000
_cell_angle_beta 90.000000
_cell_angle_gamma 90.000000
_cell_volume 2722.042815
_symmetry_space_group_name_H-M "C M C 21"
_symmetry_group_IT_number 36
_symmetry_cell_setting 'orthorhombic'
loop_
_space_group_symop_operation_xyz
x,y,z
-x,-y,1/2+z
x,-y,1/2+z
-x,y,z
1/2+x,1/2+y,z
1/2-x,1/2-y,1/2+z
1/2+x,1/2-y,1/2+z
1/2-x,1/2+y,z
loop_
_atom_site_type_symbol
_atom_site_label
_atom_site_fract_x
_atom_site_fract_y
_atom_site_fract_z
Si Si1 0.070865 0.019386 0.706300
Si Si2 0.115351 0.134702 0.882052
Si Si3 0.927509 0.462877 0.713693
Si Si4 0.741883 0.344767 0.184087
Si Si5 0.432155 0.316595 0.886186
Si Si6 0.933197 0.298008 0.102095
Si Si7 0.308993 0.780752 0.787278
Si Si8 0.639160 0.868204 0.430313
O O1 0.074928 0.079815 0.836614
O O2 0.000000 0.003674 0.659064
O O3 0.099097 0.020134 0.425059
O O4 0.182603 0.121676 0.775435
O O5 0.089667 0.178806 0.673759
O O6 0.110027 0.155107 0.169840
O O7 0.916489 0.507150 0.482884
O O8 0.884001 0.409670 0.647999
O O9 0.000000 0.446822 0.704306
O O10 0.721953 0.280871 0.285688
O O11 0.799880 0.382223 0.273857
O O12 0.759802 0.325587 0.900036
O O13 0.500000 0.343370 0.865513
O O14 0.437941 0.252308 0.803293
O O15 0.918226 0.355812 0.247979
O O16 0.000000 0.300410 0.967898
O O17 0.870377 0.283677 0.956887
O O18 0.335426 0.807858 0.533098
#
# Coordination Sequence:
#
# PCOD9352535 Si02
#       8
#     8   8   8   8   8   8   8   8
#     4  10  21  40  63  87 116 156 209 268 329 387
#     4  12  24  40  64  90 127 170 220 270 330 391
#     4  10  24  47  74 103 135 173 230 301 364 416
#     4  11  24  38  63  94 131 183 223 268 316 403
#     4  11  23  38  59  93 131 169 211 268 333 397
#     4  10  23  38  60  98 134 169 215 272 334 407
#     4  11  22  41  64  91 135 178 225 267 323 406
#     4  11  24  42  67  94 132 184 227 276 339 413
#
# _framework density 23.511752999999999
#
# number of rings (size 3 to 8) (size 9 to 14) (size 15 to 20)
#    0.000    1.250    2.500    3.000    7.000    2.000 
#    0.000    1.250    0.000    0.000    0.000    0.000 
#    0.000    0.000    0.000    0.000    0.000    0.000 
#
# Total GULP energy -178444.235009 kJ/mol
# GULP energy per Si atom -5576.382344 kJ/mol
# Density = 2.345824 g / cm^3
# Si number density = 23.511753 Si / 1000 Ang^3
#
#
#
# Elastic Constant Matrix: (Units=GPa)
#
#
# Indices 1 2 3 4 5 6 
#
# 1 96.8348 21.2235 11.4766 0.0000 0.0000 0.0000
# 2 21.2235 40.5626 4.3296 0.0000 0.0000 0.0000
# 3 11.4766 4.3296 67.3966 0.0000 0.0000 0.0000
# 4 0.0000 0.0000 0.0000 27.6183 0.0000 0.0000
# 5 0.0000 0.0000 0.0000 0.0000 26.3166 0.0000
# 6 0.0000 0.0000 0.0000 0.0000 0.0000 22.3603
#
#
#
# Elastic Compliance Matrix: (Units=1/GPa)
#
#
# Indices 1 2 3 4 5 6 
#
# 1 0.011840 -0.006021 -0.001629 0.000000 0.000000 0.000000
# 2 -0.006021 0.027885 -0.000766 0.000000 0.000000 0.000000
# 3 -0.001629 -0.000766 0.015164 0.000000 0.000000 0.000000
# 4 0.000000 0.000000 0.000000 0.036208 0.000000 0.000000
# 5 0.000000 0.000000 0.000000 0.000000 0.037999 0.000000
# 6 0.000000 0.000000 0.000000 0.000000 0.000000 0.044722
#
#
# Mechanical properties :
#
#
# Convention : Reuss Voigt Hill
#
# Bulk Modulus (GPa) = 26.27674 30.98371 28.63023
# Shear Modulus (GPa) = 24.58983 26.44332 25.51657
#
# Velocity S-wave (km/s) = 3.23747 3.35727 3.29792
# Velocity P-wave (km/s) = 5.01749 5.31366 5.16770
#
# Compressibility (1/GPa) = 0.03805647
#
# Stress axis : x y z
#
# Youngs Moduli (GPa) = 84.46251 35.86118 65.94480
#
# Poissons Ratio (x) = 0.21592 0.10744
# Poissons Ratio (y) = 0.50854 0.05052
# Poissons Ratio (z) = 0.13761 0.02747
#
# Static dielectric constant tensor:
#      x y z
#    x 2.002050 0.000000 0.000000 
#    y 0.000000 1.932670 0.000000 
#    z 0.000000 0.000000 1.987510 
# 
# From -- ./inp_files/1669.got.cif
#   From: 2010.05.17/outbox.cif.g08.bks.cpg/sg36_1_cif.got.tgz:1669.got - 2010.06.03 17:41:39.
