data_PCOD9352177
_publ_section_title
;
Structure prediction by ZEFSAII (Michael W. Deem and Ramdas Pophale) SiO2 
 PCOD9352177
Probable space group: C M C 21
;
_chemical_formula_sum "Si O2"
_cell_formula_units_Z 48
_cell_length_a 17.626976
_cell_length_b 15.334981
_cell_length_c 8.914039
_cell_angle_alpha 90.000000
_cell_angle_beta 90.000000
_cell_angle_gamma 90.000000
_cell_volume 2409.548017
_symmetry_space_group_name_H-M "C M C 21"
_symmetry_group_IT_number 36
_symmetry_cell_setting 'orthorhombic'
loop_
_space_group_symop_operation_xyz
x,y,z
-x,-y,1/2+z
x,-y,1/2+z
-x,y,z
1/2+x,1/2+y,z
1/2-x,1/2-y,1/2+z
1/2+x,1/2-y,1/2+z
1/2-x,1/2+y,z
loop_
_atom_site_type_symbol
_atom_site_label
_atom_site_fract_x
_atom_site_fract_y
_atom_site_fract_z
Si Si1 0.912647 0.904595 0.854860
Si Si2 0.272266 0.624780 0.871669
Si Si3 0.586599 0.733132 0.789234
Si Si4 0.376007 0.781909 0.448272
Si Si5 0.500000 0.890782 0.852314
Si Si6 0.184481 0.007673 0.611827
Si Si7 0.000000 0.422147 0.494736
O O1 0.907193 0.800110 0.856171
O O2 0.866105 0.948379 0.721174
O O3 0.000000 0.931519 0.851467
O O4 0.871584 0.937932 0.005491
O O5 0.355609 0.668801 0.869315
O O6 0.208265 0.696182 0.896003
O O7 0.267184 0.572320 0.715757
O O8 0.267307 0.555067 0.005352
O O9 0.500000 0.697342 0.771807
O O10 0.618120 0.754947 0.623793
O O11 0.571492 0.825189 0.873348
O O12 0.427759 0.867897 0.434698
O O13 0.500000 0.914031 0.675268
O O14 0.500000 0.978082 0.945783
#
# Coordination Sequence:
#
# PCOD9352177 Si02
#       7
#     8   8   8   8   4   8   4
#     4  11  21  41  64  93 126 170 218 265 332 393
#     4  11  24  42  66  96 134 171 222 266 339 388
#     4   9  20  43  67  92 128 175 213 271 334 394
#     4  11  22  39  68  89 131 168 215 269 328 390
#     4   8  20  40  68  87 121 164 216 259 329 372
#     4  10  25  40  60  97 131 171 213 275 323 400
#     4  10  20  44  60  93 117 170 206 269 317 396
#
# _framework density 19.920749000000001
#
# number of rings (size 3 to 8) (size 9 to 14) (size 15 to 20)
#    0.500    1.333    3.333    0.500    2.333    6.000 
#    6.000    0.000    0.000    0.000    0.000    0.000 
#    0.000    0.000    0.000    0.000    0.000    0.000 
#
# Total GULP energy -133955.779004 kJ/mol
# GULP energy per Si atom -5581.490792 kJ/mol
# Density = 1.987541 g / cm^3
# Si number density = 19.920749 Si / 1000 Ang^3
#
#
#
# Elastic Constant Matrix: (Units=GPa)
#
#
# Indices 1 2 3 4 5 6 
#
# 1 64.2361 -1.2004 16.6397 0.0000 0.0000 0.0000
# 2 -1.2004 80.1630 12.8040 0.0000 0.0000 0.0000
# 3 16.6397 12.8040 52.6519 0.0000 0.0000 0.0000
# 4 0.0000 0.0000 0.0000 15.9954 0.0000 0.0000
# 5 0.0000 0.0000 0.0000 0.0000 13.8651 0.0000
# 6 0.0000 0.0000 0.0000 0.0000 0.0000 23.7384
#
#
#
# Elastic Compliance Matrix: (Units=1/GPa)
#
#
# Indices 1 2 3 4 5 6 
#
# 1 0.017059 0.001162 -0.005674 0.000000 0.000000 0.000000
# 2 0.001162 0.013058 -0.003543 0.000000 0.000000 0.000000
# 3 -0.005674 -0.003543 0.021647 0.000000 0.000000 0.000000
# 4 0.000000 0.000000 0.000000 0.062518 0.000000 0.000000
# 5 0.000000 0.000000 0.000000 0.000000 0.072124 0.000000
# 6 0.000000 0.000000 0.000000 0.000000 0.000000 0.042126
#
#
# Mechanical properties :
#
#
# Convention : Reuss Voigt Hill
#
# Bulk Modulus (GPa) = 28.04665 28.17084 28.10874
# Shear Modulus (GPa) = 19.49123 21.97361 20.73242
#
# Velocity S-wave (km/s) = 3.13139 3.32482 3.22956
# Velocity P-wave (km/s) = 5.21381 5.37694 5.29600
#
# Compressibility (1/GPa) = 0.03565489
#
# Stress axis : x y z
#
# Youngs Moduli (GPa) = 58.62003 76.58245 46.19521
#
# Poissons Ratio (x) = -0.08897 0.26210
# Poissons Ratio (y) = -0.06810 0.16365
# Poissons Ratio (z) = 0.33259 0.27130
#
# Static dielectric constant tensor:
#      x y z
#    x 1.692460 0.000000 0.000000 
#    y 0.000000 1.718760 0.000000 
#    z 0.000000 0.000000 1.702840 
# 
# From -- ./inp_files/4690.got.cif
#   From: 2010.05.17/outbox.cif.g08.bks.cpg/sg36_3_cif.got.tgz:4690.got - 2010.06.03 17:41:39.
