data_PCOD9352134
_publ_section_title
;
Structure prediction by ZEFSAII (Michael W. Deem and Ramdas Pophale) SiO2 
 PCOD9352134
Probable space group: C M C 21
;
_chemical_formula_sum "Si O2"
_cell_formula_units_Z 64
_cell_length_a 15.983740
_cell_length_b 11.524422
_cell_length_c 15.787742
_cell_angle_alpha 90.000000
_cell_angle_beta 90.000000
_cell_angle_gamma 90.000000
_cell_volume 2908.155201
_symmetry_space_group_name_H-M "C M C 21"
_symmetry_group_IT_number 36
_symmetry_cell_setting 'orthorhombic'
loop_
_space_group_symop_operation_xyz
x,y,z
-x,-y,1/2+z
x,-y,1/2+z
-x,y,z
1/2+x,1/2+y,z
1/2-x,1/2-y,1/2+z
1/2+x,1/2-y,1/2+z
1/2-x,1/2+y,z
loop_
_atom_site_type_symbol
_atom_site_label
_atom_site_fract_x
_atom_site_fract_y
_atom_site_fract_z
Si Si1 0.097954 0.935904 0.297670
Si Si2 0.132750 0.566947 0.562132
Si Si3 0.403618 0.198905 0.033517
Si Si4 0.678641 0.389089 0.121067
Si Si5 0.091052 0.268053 0.206490
Si Si6 0.151734 0.257542 0.922062
Si Si7 0.594705 0.596289 0.049633
Si Si8 0.666901 0.321853 0.867201
O O1 0.158654 0.924000 0.216777
O O2 0.106391 0.814308 0.348434
O O3 0.000000 0.952577 0.274208
O O4 0.128870 0.049919 0.349667
O O5 0.109421 0.438039 0.538135
O O6 0.231009 0.581218 0.583932
O O7 0.094305 0.617797 0.648819
O O8 0.107297 0.649424 0.483285
O O9 0.500000 0.224894 0.052872
O O10 0.343305 0.256709 0.103251
O O11 0.378966 0.254162 0.943168
O O12 0.613408 0.463579 0.065696
O O13 0.099660 0.164359 0.138453
O O14 0.156764 0.250967 0.280361
O O15 0.000000 0.258220 0.247670
O O16 0.235446 0.319030 0.890509
O O17 0.164311 0.152811 0.989642
O O18 0.500000 0.612184 0.015794
#
# Coordination Sequence:
#
# PCOD9352134 Si02
#       8
#     8   8   8   8   8   8   8   8
#     4  12  26  45  73 108 141 177 233 294 353 412
#     4  11  26  46  69  98 143 188 235 277 346 429
#     4  12  26  44  68 100 142 184 230 287 344 412
#     4  12  24  43  71 102 140 178 232 292 352 406
#     4  10  21  42  70  98 131 181 232 279 341 416
#     4  11  25  43  68 100 138 183 229 281 345 418
#     4  10  20  40  70  98 133 177 230 282 343 409
#     4  12  24  43  71 104 140 176 235 292 352 410
#
# _framework density 22.007079000000001
#
# number of rings (size 3 to 8) (size 9 to 14) (size 15 to 20)
#    0.000    0.750    2.500    5.250    3.500    2.500 
#    2.250    0.000    0.000    0.000    0.000    0.000 
#    0.000    0.000    0.000    0.000    0.000    0.000 
#
# Total GULP energy -178816.510053 kJ/mol
# GULP energy per Si atom -5588.015939 kJ/mol
# Density = 2.195699 g / cm^3
# Si number density = 22.007079 Si / 1000 Ang^3
#
#
#
# Elastic Constant Matrix: (Units=GPa)
#
#
# Indices 1 2 3 4 5 6 
#
# 1 92.1342 5.2021 15.4804 0.0000 0.0000 0.0000
# 2 5.2021 109.8601 21.9611 0.0000 0.0000 0.0000
# 3 15.4804 21.9611 79.8734 0.0000 0.0000 0.0000
# 4 0.0000 0.0000 0.0000 32.9193 0.0000 0.0000
# 5 0.0000 0.0000 0.0000 0.0000 20.6605 0.0000
# 6 0.0000 0.0000 0.0000 0.0000 0.0000 29.7761
#
#
#
# Elastic Compliance Matrix: (Units=1/GPa)
#
#
# Indices 1 2 3 4 5 6 
#
# 1 0.011220 -0.000102 -0.002146 0.000000 0.000000 0.000000
# 2 -0.000102 0.009633 -0.002629 0.000000 0.000000 0.000000
# 3 -0.002146 -0.002629 0.013659 0.000000 0.000000 0.000000
# 4 0.000000 0.000000 0.000000 0.030377 0.000000 0.000000
# 5 0.000000 0.000000 0.000000 0.000000 0.048402 0.000000
# 6 0.000000 0.000000 0.000000 0.000000 0.000000 0.033584
#
#
# Mechanical properties :
#
#
# Convention : Reuss Voigt Hill
#
# Bulk Modulus (GPa) = 40.39310 40.79500 40.59405
# Shear Modulus (GPa) = 30.32481 32.61945 31.47213
#
# Velocity S-wave (km/s) = 3.71611 3.85414 3.78576
# Velocity P-wave (km/s) = 6.06688 6.19543 6.13149
#
# Compressibility (1/GPa) = 0.02475670
#
# Stress axis : x y z
#
# Youngs Moduli (GPa) = 89.12527 103.81187 73.21397
#
# Poissons Ratio (x) = 0.01061 0.15715
# Poissons Ratio (y) = 0.00911 0.19246
# Poissons Ratio (z) = 0.19131 0.27289
#
# Static dielectric constant tensor:
#      x y z
#    x 1.847620 0.000000 0.000000 
#    y 0.000000 1.783350 0.000000 
#    z 0.000000 0.000000 1.824880 
# 
# From -- ./inp_files/12659.got.cif
#   From: 2010.05.17/outbox.cif.g08.bks.cpg/sg36_7_cif.got.tgz:12659.got - 2010.06.03 17:41:39.
