data_PCOD9352209
_publ_section_title
;
Structure prediction by ZEFSAII (Michael W. Deem and Ramdas Pophale) SiO2 
 PCOD9352209
Probable space group: C M C 21
;
_chemical_formula_sum "Si O2"
_cell_formula_units_Z 32
_cell_length_a 20.535488
_cell_length_b 9.471247
_cell_length_c 7.411464
_cell_angle_alpha 90.000000
_cell_angle_beta 90.000000
_cell_angle_gamma 90.000000
_cell_volume 1441.505135
_symmetry_space_group_name_H-M "C M C 21"
_symmetry_group_IT_number 36
_symmetry_cell_setting 'orthorhombic'
loop_
_space_group_symop_operation_xyz
x,y,z
-x,-y,1/2+z
x,-y,1/2+z
-x,y,z
1/2+x,1/2+y,z
1/2-x,1/2-y,1/2+z
1/2+x,1/2-y,1/2+z
1/2-x,1/2+y,z
loop_
_atom_site_type_symbol
_atom_site_label
_atom_site_fract_x
_atom_site_fract_y
_atom_site_fract_z
Si Si1 0.500000 0.343441 0.078190
Si Si2 0.000000 0.179835 0.151883
Si Si3 0.300186 0.548414 0.388206
Si Si4 0.393807 0.700894 0.871515
Si Si5 0.761799 0.215814 0.742309
O O1 0.500000 0.513066 0.102343
O O2 0.561698 0.289697 0.193829
O O3 0.500000 0.303984 0.867240
O O4 0.936684 0.237868 0.045173
O O5 0.367411 0.462433 0.386601
O O6 0.292326 0.664960 0.231269
O O7 0.287190 0.643164 0.561092
O O8 0.247401 0.423698 0.360568
O O9 0.326338 0.781904 0.836032
#
# Coordination Sequence:
#
# PCOD9352209 Si02
#       5
#     4   4   8   8   8
#     4  11  19  30  53  81 108 147 185 238 296 328
#     4  11  19  30  53  81 108 147 185 238 296 328
#     4  10  21  35  54  79 116 156 189 233 286 345
#     4   9  22  34  52  80 120 145 184 238 286 343
#     4  10  21  35  54  79 116 156 189 233 286 345
#
# _framework density 22.199017000000001
#
# number of rings (size 3 to 8) (size 9 to 14) (size 15 to 20)
#    1.500    0.500    2.500    3.000    0.000    0.000 
#    0.000    0.000    0.000    0.000    0.000    7.000 
#    0.000    8.000    0.000    0.000    0.000    0.000 
#
# Total GULP energy -89132.292094 kJ/mol
# GULP energy per Si atom -5570.768256 kJ/mol
# Density = 2.214849 g / cm^3
# Si number density = 22.199017 Si / 1000 Ang^3
#
#
#
# Elastic Constant Matrix: (Units=GPa)
#
#
# Indices 1 2 3 4 5 6 
#
# 1 102.7078 27.0270 38.7803 0.0000 0.0000 0.0000
# 2 27.0270 52.5432 15.0945 0.0000 0.0000 0.0000
# 3 38.7803 15.0945 175.5583 0.0000 0.0000 0.0000
# 4 0.0000 0.0000 0.0000 17.8507 0.0000 0.0000
# 5 0.0000 0.0000 0.0000 0.0000 26.8399 0.0000
# 6 0.0000 0.0000 0.0000 0.0000 0.0000 22.9007
#
#
#
# Elastic Compliance Matrix: (Units=1/GPa)
#
#
# Indices 1 2 3 4 5 6 
#
# 1 0.012021 -0.005558 -0.002178 0.000000 0.000000 0.000000
# 2 -0.005558 0.022084 -0.000671 0.000000 0.000000 0.000000
# 3 -0.002178 -0.000671 0.006235 0.000000 0.000000 0.000000
# 4 0.000000 0.000000 0.000000 0.056020 0.000000 0.000000
# 5 0.000000 0.000000 0.000000 0.000000 0.037258 0.000000
# 6 0.000000 0.000000 0.000000 0.000000 0.000000 0.043667
#
#
# Mechanical properties :
#
#
# Convention : Reuss Voigt Hill
#
# Bulk Modulus (GPa) = 42.50498 54.73474 48.61986
# Shear Modulus (GPa) = 24.75990 30.17876 27.46933
#
# Velocity S-wave (km/s) = 3.34332 3.69109 3.52150
# Velocity P-wave (km/s) = 5.83888 6.54793 6.20355
#
# Compressibility (1/GPa) = 0.02352666
#
# Stress axis : x y z
#
# Youngs Moduli (GPa) = 83.18738 45.28259 160.38939
#
# Poissons Ratio (x) = 0.25167 0.34926
# Poissons Ratio (y) = 0.46234 0.10763
# Poissons Ratio (z) = 0.18115 0.03039
#
# Static dielectric constant tensor:
#      x y z
#    x 1.863080 0.000000 0.000000 
#    y 0.000000 1.795960 0.000000 
#    z 0.000000 0.000000 2.085510 
# 
# From -- ./inp_files/5450.got.cif
#   From: 2010.05.17/outbox.cif.g08.bks.cpg/sg36_3_cif.got.tgz:5450.got - 2010.06.03 17:41:39.
