data_PCOD9352722
_publ_section_title
;
Structure prediction by ZEFSAII (Michael W. Deem and Ramdas Pophale) SiO2 
 PCOD9352722
Probable space group: C M C 21
;
_chemical_formula_sum "Si O2"
_cell_formula_units_Z 48
_cell_length_a 8.571706
_cell_length_b 28.065579
_cell_length_c 10.354327
_cell_angle_alpha 90.000000
_cell_angle_beta 90.000000
_cell_angle_gamma 90.000000
_cell_volume 2490.939327
_symmetry_space_group_name_H-M "C M C 21"
_symmetry_group_IT_number 36
_symmetry_cell_setting 'orthorhombic'
loop_
_space_group_symop_operation_xyz
x,y,z
-x,-y,1/2+z
x,-y,1/2+z
-x,y,z
1/2+x,1/2+y,z
1/2-x,1/2-y,1/2+z
1/2+x,1/2-y,1/2+z
1/2-x,1/2+y,z
loop_
_atom_site_type_symbol
_atom_site_label
_atom_site_fract_x
_atom_site_fract_y
_atom_site_fract_z
Si Si1 0.186617 0.069818 0.946550
Si Si2 0.188204 0.607492 0.215013
Si Si3 0.188796 0.105685 0.665730
Si Si4 0.312798 0.037290 0.444224
Si Si5 0.188548 0.712820 0.302373
Si Si6 0.188312 0.212157 0.585332
O O1 0.235700 0.094770 0.812772
O O2 0.000000 0.070732 0.952368
O O3 0.243168 0.015328 0.944517
O O4 0.252240 0.095433 0.073094
O O5 0.238102 0.567337 0.318077
O O6 0.240088 0.659501 0.263471
O O7 0.000000 0.607457 0.213119
O O8 0.258909 0.066797 0.569130
O O9 0.237826 0.158468 0.621728
O O10 0.000000 0.103102 0.658459
O O11 0.500000 0.034049 0.443665
O O12 0.239844 0.750622 0.194582
O O13 0.249600 0.724800 0.444216
O O14 0.000000 0.713039 0.305735
O O15 0.000000 0.212785 0.582389
#
# Coordination Sequence:
#
# PCOD9352722 Si02
#       6
#     8   8   8   8   8   8
#     4  11  24  38  58  89 120 157 198 244 294 349
#     4  10  22  40  60  87 121 157 197 244 293 347
#     4  10  22  40  60  87 121 156 197 244 293 348
#     4  11  22  39  62  87 116 157 200 244 296 350
#     4  10  22  41  63  90 123 155 196 245 292 350
#     4  10  22  40  63  90 121 156 196 243 294 350
#
# _framework density 19.269838
#
# number of rings (size 3 to 8) (size 9 to 14) (size 15 to 20)
#    0.000    1.667    1.667    2.000    2.333    6.667 
#    0.000    0.000    0.000    0.000    0.000    0.000 
#    0.000    0.000    0.000    0.000    0.000    0.000 
#
# Total GULP energy -134161.442801 kJ/mol
# GULP energy per Si atom -5590.060117 kJ/mol
# Density = 1.922598 g / cm^3
# Si number density = 19.269838 Si / 1000 Ang^3
#
#
#
# Elastic Constant Matrix: (Units=GPa)
#
#
# Indices 1 2 3 4 5 6 
#
# 1 3.5517 8.6876 18.3216 0.0000 0.0000 0.0000
# 2 8.6876 93.2731 61.9165 0.0000 0.0000 0.0000
# 3 18.3216 61.9165 189.4084 0.0000 0.0000 0.0000
# 4 0.0000 0.0000 0.0000 43.6652 0.0000 0.0000
# 5 0.0000 0.0000 0.0000 0.0000 32.7148 0.0000
# 6 0.0000 0.0000 0.0000 0.0000 0.0000 -4.8241
#
#
#
# Elastic Compliance Matrix: (Units=1/GPa)
#
#
# Indices 1 2 3 4 5 6 
#
# 1 0.595315 -0.021995 -0.050395 0.000000 0.000000 0.000000
# 2 -0.021995 0.014505 -0.002614 0.000000 0.000000 0.000000
# 3 -0.050395 -0.002614 0.011009 0.000000 0.000000 0.000000
# 4 0.000000 0.000000 0.000000 0.022902 0.000000 0.000000
# 5 0.000000 0.000000 0.000000 0.000000 0.030567 0.000000
# 6 0.000000 0.000000 0.000000 0.000000 0.000000 -0.207294
#
#
# Mechanical properties :
#
#
# Convention : Reuss Voigt Hill
#
# Bulk Modulus (GPa) = 2.12395 51.56498 26.84446
# Shear Modulus (GPa) = 6.46035 27.46503 16.96269
#
# Velocity S-wave (km/s) = 1.83299 3.77939 2.97016
# Velocity P-wave (km/s) = 2.36313 6.77219 5.07183
#
# Compressibility (1/GPa) = 0.47082007
#
# Stress axis : x y z
#
# Youngs Moduli (GPa) = 1.67978 68.94115 90.83596
#
# Poissons Ratio (x) = 1.51638 4.57769
# Poissons Ratio (y) = 0.03695 0.23745
# Poissons Ratio (z) = 0.08465 0.18021
#
# Static dielectric constant tensor:
#      x y z
#    x 1.657250 0.000000 0.000000 
#    y 0.000000 1.650610 0.000000 
#    z 0.000000 0.000000 1.641400 
# 
# From -- ./inp_files/2661.got.cif
#   From: 2010.05.17/outbox.cif.g08.bks.cpg/sg36_2_cif.got.tgz:2661.got - 2010.06.03 17:41:39.
