data_PCOD9352551
_publ_section_title
;
Structure prediction by ZEFSAII (Michael W. Deem and Ramdas Pophale) SiO2 
 PCOD9352551
Probable space group: C M C 21
;
_chemical_formula_sum "Si O2"
_cell_formula_units_Z 64
_cell_length_a 18.628436
_cell_length_b 15.261910
_cell_length_c 10.323675
_cell_angle_alpha 90.000000
_cell_angle_beta 90.000000
_cell_angle_gamma 90.000000
_cell_volume 2935.077724
_symmetry_space_group_name_H-M "C M C 21"
_symmetry_group_IT_number 36
_symmetry_cell_setting 'orthorhombic'
loop_
_space_group_symop_operation_xyz
x,y,z
-x,-y,1/2+z
x,-y,1/2+z
-x,y,z
1/2+x,1/2+y,z
1/2-x,1/2-y,1/2+z
1/2+x,1/2-y,1/2+z
1/2-x,1/2+y,z
loop_
_atom_site_type_symbol
_atom_site_label
_atom_site_fract_x
_atom_site_fract_y
_atom_site_fract_z
Si Si1 0.264415 0.414772 0.981930
Si Si2 0.798964 0.317732 0.767116
Si Si3 0.179956 0.711286 0.676886
Si Si4 0.080500 0.197249 0.827384
Si Si5 0.917709 0.873543 0.602715
Si Si6 0.917137 0.072093 0.583645
Si Si7 0.914173 0.442617 0.289571
Si Si8 0.340561 0.941966 0.569480
O O1 0.235985 0.400448 0.837547
O O2 0.224123 0.338154 0.063616
O O3 0.350132 0.412188 0.989254
O O4 0.231811 0.503227 0.041777
O O5 0.742132 0.239352 0.775182
O O6 0.868632 0.280346 0.836275
O O7 0.819017 0.346008 0.621238
O O8 0.139228 0.801654 0.646421
O O9 0.121684 0.645338 0.733239
O O10 0.091515 0.143795 0.696012
O O11 0.000000 0.231203 0.830084
O O12 0.088114 0.131002 0.946535
O O13 0.000000 0.847993 0.637185
O O14 0.907729 0.974237 0.641364
O O15 0.000000 0.076791 0.533826
O O16 0.885686 0.449878 0.437171
O O17 0.885021 0.516192 0.189455
O O18 0.000000 0.440933 0.288118
#
# Coordination Sequence:
#
# PCOD9352551 Si02
#       8
#     8   8   8   8   8   8   8   8
#     4  11  23  43  64  99 135 177 228 283 346 416
#     4  12  24  43  68  97 134 182 229 283 340 417
#     4  11  24  39  67  98 133 177 226 286 343 414
#     4  10  22  40  64  95 131 177 229 283 346 416
#     4  10  21  40  64  93 131 176 226 279 346 412
#     4  10  22  41  66  96 132 173 227 292 350 414
#     4  11  25  46  71 104 146 182 234 294 354 421
#     4  11  25  46  70 104 138 190 235 286 353 414
#
# _framework density 21.805215
#
# number of rings (size 3 to 8) (size 9 to 14) (size 15 to 20)
#    0.000    1.250    3.750    1.500    1.750    4.000 
#    0.000    3.750    0.000    0.000    0.000    0.000 
#    0.000    0.000    0.000    0.000    0.000    0.000 
#
# Total GULP energy -178712.642631 kJ/mol
# GULP energy per Si atom -5584.770082 kJ/mol
# Density = 2.175559 g / cm^3
# Si number density = 21.805215 Si / 1000 Ang^3
#
#
#
# Elastic Constant Matrix: (Units=GPa)
#
#
# Indices 1 2 3 4 5 6 
#
# 1 150.6226 34.5869 42.4499 0.0000 0.0000 0.0000
# 2 34.5869 55.4444 1.8011 0.0000 0.0000 0.0000
# 3 42.4499 1.8011 62.7668 0.0000 0.0000 0.0000
# 4 0.0000 0.0000 0.0000 22.9196 0.0000 0.0000
# 5 0.0000 0.0000 0.0000 0.0000 24.4812 0.0000
# 6 0.0000 0.0000 0.0000 0.0000 0.0000 29.8515
#
#
#
# Elastic Compliance Matrix: (Units=1/GPa)
#
#
# Indices 1 2 3 4 5 6 
#
# 1 0.009822 -0.005917 -0.006473 0.000000 0.000000 0.000000
# 2 -0.005917 0.021617 0.003381 0.000000 0.000000 0.000000
# 3 -0.006473 0.003381 0.020213 0.000000 0.000000 0.000000
# 4 0.000000 0.000000 0.000000 0.043631 0.000000 0.000000
# 5 0.000000 0.000000 0.000000 0.000000 0.040848 0.000000
# 6 0.000000 0.000000 0.000000 0.000000 0.000000 0.033499
#
#
# Mechanical properties :
#
#
# Convention : Reuss Voigt Hill
#
# Bulk Modulus (GPa) = 29.73094 47.38996 38.56045
# Shear Modulus (GPa) = 25.14353 28.11685 26.63019
#
# Velocity S-wave (km/s) = 3.39941 3.59479 3.49847
# Velocity P-wave (km/s) = 5.39188 6.24584 5.83451
#
# Compressibility (1/GPa) = 0.03363500
#
# Stress axis : x y z
#
# Youngs Moduli (GPa) = 101.81173 46.25938 49.47380
#
# Poissons Ratio (x) = 0.27371 0.32024
# Poissons Ratio (y) = 0.60240 -0.16729
# Poissons Ratio (z) = 0.65903 -0.15642
#
# Static dielectric constant tensor:
#      x y z
#    x 1.775620 0.000000 0.000000 
#    y 0.000000 1.777840 0.000000 
#    z 0.000000 0.000000 1.809700 
# 
# From -- ./inp_files/8997.got.cif
#   From: 2010.05.17/outbox.cif.g08.bks.cpg/sg36_5_cif.got.tgz:8997.got - 2010.06.03 17:41:39.
