data_PCOD9352198
_publ_section_title
;
Structure prediction by ZEFSAII (Michael W. Deem and Ramdas Pophale) SiO2 
 PCOD9352198
Probable space group: C M C 21
;
_chemical_formula_sum "Si O2"
_cell_formula_units_Z 48
_cell_length_a 28.967595
_cell_length_b 5.331847
_cell_length_c 13.353490
_cell_angle_alpha 90.000000
_cell_angle_beta 90.000000
_cell_angle_gamma 90.000000
_cell_volume 2062.457006
_symmetry_space_group_name_H-M "C M C 21"
_symmetry_group_IT_number 36
_symmetry_cell_setting 'orthorhombic'
loop_
_space_group_symop_operation_xyz
x,y,z
-x,-y,1/2+z
x,-y,1/2+z
-x,y,z
1/2+x,1/2+y,z
1/2-x,1/2-y,1/2+z
1/2+x,1/2-y,1/2+z
1/2-x,1/2+y,z
loop_
_atom_site_type_symbol
_atom_site_label
_atom_site_fract_x
_atom_site_fract_y
_atom_site_fract_z
Si Si1 0.766444 0.536420 0.937240
Si Si2 0.815970 0.889998 0.051958
Si Si3 0.552118 0.163705 0.950678
Si Si4 0.109944 0.165548 0.711284
Si Si5 0.892293 0.169425 0.950316
Si Si6 0.552775 0.161437 0.708280
O O1 0.739919 0.769738 0.883913
O O2 0.814586 0.658326 0.971434
O O3 0.736906 0.476947 0.039425
O O4 0.841502 0.818263 0.152985
O O5 0.845037 0.118804 0.007159
O O6 0.500000 0.167620 0.988962
O O7 0.579331 0.913766 0.979991
O O8 0.549815 0.155017 0.829573
O O9 0.578196 0.419945 0.973726
O O10 0.116310 0.176196 0.830970
O O11 0.084334 0.903449 0.686469
O O12 0.077145 0.398431 0.682108
O O13 0.500000 0.188110 0.671653
#
# Coordination Sequence:
#
# PCOD9352198 Si02
#       6
#     8   8   8   8   8   8
#     4   8  20  36  58  74 102 142 164 208 282 320
#     4  10  22  38  59  76 110 134 175 220 266 316
#     4   9  18  34  53  77 111 145 175 213 260 305
#     4  10  21  34  56  81 104 140 180 216 256 307
#     4  10  21  34  56  81 104 140 180 216 256 307
#     4   9  18  34  53  77 111 145 175 213 260 305
#
# _framework density 23.273212999999998
#
# number of rings (size 3 to 8) (size 9 to 14) (size 15 to 20)
#    1.000    1.667    0.000    1.000    4.667    4.000 
#    0.000    6.667    0.000    0.000    0.000    0.000 
#    0.000    0.000    0.000    0.000    0.000    0.000 
#
# Total GULP energy -133869.641001 kJ/mol
# GULP energy per Si atom -5577.901708 kJ/mol
# Density = 2.322024 g / cm^3
# Si number density = 23.273213 Si / 1000 Ang^3
#
#
#
# Elastic Constant Matrix: (Units=GPa)
#
#
# Indices 1 2 3 4 5 6 
#
# 1 43.9429 -14.2474 -13.2249 0.0000 0.0000 0.0000
# 2 -14.2474 133.2883 -1.3386 0.0000 0.0000 0.0000
# 3 -13.2249 -1.3386 55.6411 0.0000 0.0000 0.0000
# 4 0.0000 0.0000 0.0000 27.4109 0.0000 0.0000
# 5 0.0000 0.0000 0.0000 0.0000 11.6242 0.0000
# 6 0.0000 0.0000 0.0000 0.0000 0.0000 31.2378
#
#
#
# Elastic Compliance Matrix: (Units=1/GPa)
#
#
# Indices 1 2 3 4 5 6 
#
# 1 0.025505 0.002788 0.006129 0.000000 0.000000 0.000000
# 2 0.002788 0.007809 0.000850 0.000000 0.000000 0.000000
# 3 0.006129 0.000850 0.019450 0.000000 0.000000 0.000000
# 4 0.000000 0.000000 0.000000 0.036482 0.000000 0.000000
# 5 0.000000 0.000000 0.000000 0.000000 0.086028 0.000000
# 6 0.000000 0.000000 0.000000 0.000000 0.000000 0.032013
#
#
# Mechanical properties :
#
#
# Convention : Reuss Voigt Hill
#
# Bulk Modulus (GPa) = 13.83141 19.47227 16.65184
# Shear Modulus (GPa) = 23.60152 31.50010 27.55081
#
# Velocity S-wave (km/s) = 3.18796 3.68297 3.44437
# Velocity P-wave (km/s) = 4.41664 5.14497 4.79466
#
# Compressibility (1/GPa) = 0.07229922
#
# Stress axis : x y z
#
# Youngs Moduli (GPa) = 39.20746 128.05611 51.41494
#
# Poissons Ratio (x) = -0.35700 -0.31513
# Poissons Ratio (y) = -0.10931 -0.04373
# Poissons Ratio (z) = -0.24031 -0.10891
#
# Static dielectric constant tensor:
#      x y z
#    x 1.947550 0.000000 0.000000 
#    y 0.000000 1.969100 0.000000 
#    z 0.000000 0.000000 1.907750 
# 
# From -- ./inp_files/13054.got.cif
#   From: 2010.05.17/outbox.cif.g08.bks.cpg/sg36_7_cif.got.tgz:13054.got - 2010.06.03 17:41:39.
