data_PCOD9352752
_publ_section_title
;
Structure prediction by ZEFSAII (Michael W. Deem and Ramdas Pophale) SiO2 
 PCOD9352752
Probable space group: C M C 21
;
_chemical_formula_sum "Si O2"
_cell_formula_units_Z 40
_cell_length_a 16.092346
_cell_length_b 8.791130
_cell_length_c 13.455330
_cell_angle_alpha 90.000000
_cell_angle_beta 90.000000
_cell_angle_gamma 90.000000
_cell_volume 1903.524266
_symmetry_space_group_name_H-M "C M C 21"
_symmetry_group_IT_number 36
_symmetry_cell_setting 'orthorhombic'
loop_
_space_group_symop_operation_xyz
x,y,z
-x,-y,1/2+z
x,-y,1/2+z
-x,y,z
1/2+x,1/2+y,z
1/2-x,1/2-y,1/2+z
1/2+x,1/2-y,1/2+z
1/2-x,1/2+y,z
loop_
_atom_site_type_symbol
_atom_site_label
_atom_site_fract_x
_atom_site_fract_y
_atom_site_fract_z
Si Si1 0.194969 0.435637 0.277730
Si Si2 0.905828 0.662347 0.158812
Si Si3 0.733587 0.268401 0.587775
Si Si4 0.908190 0.987930 0.082699
Si Si5 0.689898 0.354788 0.904677
O O1 0.124545 0.560726 0.251402
O O2 0.225127 0.349629 0.177926
O O3 0.271437 0.523466 0.329215
O O4 0.165568 0.298640 0.348022
O O5 0.823389 0.646989 0.090279
O O6 0.908536 0.846925 0.160385
O O7 0.000000 0.616994 0.128739
O O8 0.660165 0.386188 0.601571
O O9 0.735785 0.186403 0.481931
O O10 0.000000 0.053785 0.080561
O O11 0.882674 0.918234 0.975268
#
# Coordination Sequence:
#
# PCOD9352752 Si02
#       5
#     8   8   8   8   8
#     4  12  24  39  71  98 135 182 229 274 343 403
#     4  10  22  40  65  98 132 172 220 277 336 395
#     4  11  23  44  70  95 137 183 224 281 336 404
#     4  10  23  46  72  99 136 180 226 280 340 403
#     4  11  24  41  66 102 132 183 227 274 341 403
#
# _framework density 21.013653000000001
#
# number of rings (size 3 to 8) (size 9 to 14) (size 15 to 20)
#    0.000    1.200    4.000    2.400    2.800    1.600 
#    0.000    4.000    0.000    0.000    0.000    0.000 
#    0.000    0.000    0.000    0.000    0.000    0.000 
#
# Total GULP energy -111448.355749 kJ/mol
# GULP energy per Si atom -5572.417787 kJ/mol
# Density = 2.096583 g / cm^3
# Si number density = 21.013653 Si / 1000 Ang^3
#
#
#
# Elastic Constant Matrix: (Units=GPa)
#
#
# Indices 1 2 3 4 5 6 
#
# 1 159.6246 51.8719 21.7553 0.0000 0.0000 0.0000
# 2 51.8719 79.1633 57.7883 0.0000 0.0000 0.0000
# 3 21.7553 57.7883 103.3687 0.0000 0.0000 0.0000
# 4 0.0000 0.0000 0.0000 60.7974 0.0000 0.0000
# 5 0.0000 0.0000 0.0000 0.0000 19.8691 0.0000
# 6 0.0000 0.0000 0.0000 0.0000 0.0000 29.1394
#
#
#
# Elastic Compliance Matrix: (Units=1/GPa)
#
#
# Indices 1 2 3 4 5 6 
#
# 1 0.008238 -0.006981 0.002169 0.000000 0.000000 0.000000
# 2 -0.006981 0.027258 -0.013769 0.000000 0.000000 0.000000
# 3 0.002169 -0.013769 0.016915 0.000000 0.000000 0.000000
# 4 0.000000 0.000000 0.000000 0.016448 0.000000 0.000000
# 5 0.000000 0.000000 0.000000 0.000000 0.050330 0.000000
# 6 0.000000 0.000000 0.000000 0.000000 0.000000 0.034318
#
#
# Mechanical properties :
#
#
# Convention : Reuss Voigt Hill
#
# Bulk Modulus (GPa) = 65.58134 67.22082 66.40108
# Shear Modulus (GPa) = 25.54254 36.01059 30.77656
#
# Velocity S-wave (km/s) = 3.49021 4.14415 3.83116
# Velocity P-wave (km/s) = 6.89339 7.41331 7.15807
#
# Compressibility (1/GPa) = 0.01524824
#
# Stress axis : x y z
#
# Youngs Moduli (GPa) = 121.39332 36.68648 59.11794
#
# Poissons Ratio (x) = 0.25611 -0.12823
# Poissons Ratio (y) = 0.84747 0.81401
# Poissons Ratio (z) = -0.26331 0.50515
#
# Static dielectric constant tensor:
#      x y z
#    x 1.767690 0.000000 0.000000 
#    y 0.000000 1.824450 0.000000 
#    z 0.000000 0.000000 1.815750 
# 
# From -- ./inp_files/11947.got.cif
#   From: 2010.05.17/outbox.cif.g08.bks.cpg/sg36_6_cif.got.tgz:11947.got - 2010.06.03 17:41:39.
