data_PCOD9352431
_publ_section_title
;
Structure prediction by ZEFSAII (Michael W. Deem and Ramdas Pophale) SiO2 
 PCOD9352431
Probable space group: C M C 21
;
_chemical_formula_sum "Si O2"
_cell_formula_units_Z 52
_cell_length_a 10.456889
_cell_length_b 14.333695
_cell_length_c 17.428056
_cell_angle_alpha 90.000000
_cell_angle_beta 90.000000
_cell_angle_gamma 90.000000
_cell_volume 2612.219119
_symmetry_space_group_name_H-M "C M C 21"
_symmetry_group_IT_number 36
_symmetry_cell_setting 'orthorhombic'
loop_
_space_group_symop_operation_xyz
x,y,z
-x,-y,1/2+z
x,-y,1/2+z
-x,y,z
1/2+x,1/2+y,z
1/2-x,1/2-y,1/2+z
1/2+x,1/2-y,1/2+z
1/2-x,1/2+y,z
loop_
_atom_site_type_symbol
_atom_site_label
_atom_site_fract_x
_atom_site_fract_y
_atom_site_fract_z
Si Si1 0.718859 0.231156 0.886110
Si Si2 0.856269 0.516145 0.271837
Si Si3 0.849543 0.406094 0.518784
Si Si4 0.000000 0.787811 0.761827
Si Si5 0.258379 0.184063 0.169638
Si Si6 0.148800 0.406806 0.945154
Si Si7 0.644547 0.640763 0.750515
O O1 0.611416 0.265549 0.827109
O O2 0.766196 0.315330 0.939318
O O3 0.832902 0.194388 0.831379
O O4 0.668205 0.148401 0.939061
O O5 0.832327 0.607791 0.221645
O O6 0.844905 0.546729 0.360312
O O7 0.749810 0.440506 0.250637
O O8 0.000000 0.478018 0.259298
O O9 0.771896 0.353370 0.583968
O O10 0.810722 0.513507 0.504967
O O11 0.000000 0.405242 0.538996
O O12 0.114042 0.808433 0.699102
O O13 0.324724 0.283760 0.184936
O O14 0.000000 0.383718 0.959557
O O15 0.500000 0.605384 0.745155
#
# Coordination Sequence:
#
# PCOD9352431 Si02
#       7
#     8   8   8   4   8   8   8
#     4  11  21  39  68  97 128 172 227 275 332 404
#     4  11  22  38  66  95 125 170 224 269 323 408
#     4  11  23  42  66  94 129 174 223 280 342 396
#     4  10  22  40  68  96 128 182 220 272 334 412
#     4  11  25  43  65  93 138 173 221 277 344 392
#     4  10  21  38  65  92 124 167 220 267 326 404
#     4  11  23  38  66  97 127 171 226 275 328 402
#
# _framework density 19.906448000000001
#
# number of rings (size 3 to 8) (size 9 to 14) (size 15 to 20)
#    0.000    1.231    5.385    1.846    5.385    1.231 
#    2.769    0.769    0.000    0.000    0.000    0.000 
#    0.000    0.000    0.000    0.000    0.000    0.000 
#
# Total GULP energy -144763.236679 kJ/mol
# GULP energy per Si atom -5567.816795 kJ/mol
# Density = 1.986114 g / cm^3
# Si number density = 19.906448 Si / 1000 Ang^3
#
#
#
# Elastic Constant Matrix: (Units=GPa)
#
#
# Indices 1 2 3 4 5 6 
#
# 1 122.9023 25.9428 -3.8167 0.0000 0.0000 0.0000
# 2 25.9428 67.4319 -21.7741 0.0000 0.0000 0.0000
# 3 -3.8167 -21.7741 33.7764 0.0000 0.0000 0.0000
# 4 0.0000 0.0000 0.0000 10.0002 0.0000 0.0000
# 5 0.0000 0.0000 0.0000 0.0000 21.3895 0.0000
# 6 0.0000 0.0000 0.0000 0.0000 0.0000 12.7994
#
#
#
# Elastic Compliance Matrix: (Units=1/GPa)
#
#
# Indices 1 2 3 4 5 6 
#
# 1 0.008917 -0.003922 -0.001520 0.000000 0.000000 0.000000
# 2 -0.003922 0.020453 0.012742 0.000000 0.000000 0.000000
# 3 -0.001520 0.012742 0.037649 0.000000 0.000000 0.000000
# 4 0.000000 0.000000 0.000000 0.099998 0.000000 0.000000
# 5 0.000000 0.000000 0.000000 0.000000 0.046752 0.000000
# 6 0.000000 0.000000 0.000000 0.000000 0.000000 0.078129
#
#
# Mechanical properties :
#
#
# Convention : Reuss Voigt Hill
#
# Bulk Modulus (GPa) = 12.25210 24.97940 18.61575
# Shear Modulus (GPa) = 16.42017 23.75508 20.08762
#
# Velocity S-wave (km/s) = 2.87517 3.45822 3.18008
# Velocity P-wave (km/s) = 4.14612 5.34054 4.78078
#
# Compressibility (1/GPa) = 0.08161869
#
# Stress axis : x y z
#
# Youngs Moduli (GPa) = 112.14385 48.89267 26.56125
#
# Poissons Ratio (x) = 0.19174 0.04039
# Poissons Ratio (y) = 0.43978 -0.33844
# Poissons Ratio (z) = 0.17051 -0.62299
#
# Static dielectric constant tensor:
#      x y z
#    x 1.670500 0.000000 0.000000 
#    y 0.000000 1.731520 0.000000 
#    z 0.000000 0.000000 1.696560 
# 
# From -- ./inp_files/15372.got.cif
#   From: 2010.05.17/outbox.cif.g08.bks.cpg/sg36_8_cif.got.tgz:15372.got - 2010.06.03 17:41:39.
