data_PCOD9352169
_publ_section_title
;
Structure prediction by ZEFSAII (Michael W. Deem and Ramdas Pophale) SiO2 
 PCOD9352169
Probable space group: C M C 21
;
_chemical_formula_sum "Si O2"
_cell_formula_units_Z 32
_cell_length_a 28.164236
_cell_length_b 4.575159
_cell_length_c 8.590060
_cell_angle_alpha 90.000000
_cell_angle_beta 90.000000
_cell_angle_gamma 90.000000
_cell_volume 1106.879550
_symmetry_space_group_name_H-M "C M C 21"
_symmetry_group_IT_number 36
_symmetry_cell_setting 'orthorhombic'
loop_
_space_group_symop_operation_xyz
x,y,z
-x,-y,1/2+z
x,-y,1/2+z
-x,y,z
1/2+x,1/2+y,z
1/2-x,1/2-y,1/2+z
1/2+x,1/2-y,1/2+z
1/2-x,1/2+y,z
loop_
_atom_site_type_symbol
_atom_site_label
_atom_site_fract_x
_atom_site_fract_y
_atom_site_fract_z
Si Si1 0.283247 0.683800 0.621610
Si Si2 0.156548 0.591202 0.841993
Si Si3 0.000000 0.588270 0.674794
Si Si4 0.409899 0.774972 0.087903
Si Si5 0.000000 0.053204 0.935357
O O1 0.267610 0.349965 0.629888
O O2 0.308458 0.740624 0.457615
O O3 0.315164 0.838785 0.751041
O O4 0.128643 0.797783 0.719015
O O5 0.118568 0.435002 0.954459
O O6 0.054129 0.506787 0.684024
O O7 0.000000 0.592797 0.473315
O O8 0.000000 0.899479 0.771450
O O9 0.447111 0.535622 0.015030
#
# Coordination Sequence:
#
# PCOD9352169 Si02
#       5
#     8   8   4   8   4
#     4  11  24  45  69  99 142 183 230 291 364 417
#     4  10  20  43  62 100 128 178 240 287 342 424
#     4   8  18  38  56  88 138 168 220 272 350 402
#     4   8  20  37  59  92 128 176 228 279 346 398
#     4   8  18  38  56  88 138 168 220 272 350 402
#
# _framework density 28.910105000000001
#
# number of rings (size 3 to 8) (size 9 to 14) (size 15 to 20)
#    1.500    1.000    0.000    1.500    0.000    4.000 
#   27.000    0.000    0.000    0.000    0.000    0.000 
#    0.000    0.000    0.000    0.000    0.000    0.000 
#
# Total GULP energy -89098.009605 kJ/mol
# GULP energy per Si atom -5568.625600 kJ/mol
# Density = 2.884430 g / cm^3
# Si number density = 28.910105 Si / 1000 Ang^3
#
#
#
# Elastic Constant Matrix: (Units=GPa)
#
#
# Indices 1 2 3 4 5 6 
#
# 1 189.6125 38.5454 70.4702 0.0000 0.0000 0.0000
# 2 38.5454 89.5024 38.1192 0.0000 0.0000 0.0000
# 3 70.4702 38.1192 151.7410 0.0000 0.0000 0.0000
# 4 0.0000 0.0000 0.0000 29.6130 0.0000 0.0000
# 5 0.0000 0.0000 0.0000 0.0000 88.0765 0.0000
# 6 0.0000 0.0000 0.0000 0.0000 0.0000 27.1361
#
#
#
# Elastic Compliance Matrix: (Units=1/GPa)
#
#
# Indices 1 2 3 4 5 6 
#
# 1 0.006603 -0.001722 -0.002634 0.000000 0.000000 0.000000
# 2 -0.001722 0.012961 -0.002456 0.000000 0.000000 0.000000
# 3 -0.002634 -0.002456 0.008430 0.000000 0.000000 0.000000
# 4 0.000000 0.000000 0.000000 0.033769 0.000000 0.000000
# 5 0.000000 0.000000 0.000000 0.000000 0.011354 0.000000
# 6 0.000000 0.000000 0.000000 0.000000 0.000000 0.036851
#
#
# Mechanical properties :
#
#
# Convention : Reuss Voigt Hill
#
# Bulk Modulus (GPa) = 69.58976 80.56950 75.07963
# Shear Modulus (GPa) = 38.94643 47.87987 43.41315
#
# Velocity S-wave (km/s) = 3.67434 4.07401 3.87933
# Velocity P-wave (km/s) = 6.49033 7.07528 6.78911
#
# Compressibility (1/GPa) = 0.01436993
#
# Stress axis : x y z
#
# Youngs Moduli (GPa) = 151.45029 77.15738 118.61818
#
# Poissons Ratio (x) = 0.13285 0.31243
# Poissons Ratio (y) = 0.26077 0.29135
# Poissons Ratio (z) = 0.39890 0.18951
#
# Static dielectric constant tensor:
#      x y z
#    x 2.218520 0.000000 0.000000 
#    y 0.000000 2.740170 0.000000 
#    z 0.000000 0.000000 2.358440 
# 
# From -- ./inp_files/5891.got.cif
#   From: 2010.05.17/outbox.cif.g08.bks.cpg/sg36_3_cif.got.tgz:5891.got - 2010.06.03 17:41:39.
