data_PCOD9352024
_publ_section_title
;
Structure prediction by ZEFSAII (Michael W. Deem and Ramdas Pophale) SiO2 
 PCOD9352024
Probable space group: C M C 21
;
_chemical_formula_sum "Si O2"
_cell_formula_units_Z 64
_cell_length_a 14.677910
_cell_length_b 16.635364
_cell_length_c 10.188035
_cell_angle_alpha 90.000000
_cell_angle_beta 90.000000
_cell_angle_gamma 90.000000
_cell_volume 2487.636709
_symmetry_space_group_name_H-M "C M C 21"
_symmetry_group_IT_number 36
_symmetry_cell_setting 'orthorhombic'
loop_
_space_group_symop_operation_xyz
x,y,z
-x,-y,1/2+z
x,-y,1/2+z
-x,y,z
1/2+x,1/2+y,z
1/2-x,1/2-y,1/2+z
1/2+x,1/2-y,1/2+z
1/2-x,1/2+y,z
loop_
_atom_site_type_symbol
_atom_site_label
_atom_site_fract_x
_atom_site_fract_y
_atom_site_fract_z
Si Si1 0.108824 0.676447 0.556120
Si Si2 0.350365 0.433965 0.816101
Si Si3 0.643436 0.981116 0.882633
Si Si4 0.356564 0.481116 0.550179
Si Si5 0.610606 0.245020 0.117339
Si Si6 0.391176 0.323553 0.376692
Si Si7 0.350365 0.933965 0.616711
Si Si8 0.110606 0.754980 0.815473
O O1 0.126333 0.594631 0.478227
O O2 0.143872 0.750000 0.466406
O O3 0.140782 0.689953 0.706343
O O4 0.000000 0.684244 0.561651
O O5 0.250078 0.469836 0.844887
O O6 0.397747 0.479303 0.695648
O O7 0.389728 0.444632 0.962302
O O8 0.353375 0.342229 0.771583
O O9 0.602253 0.979303 0.737164
O O10 0.610272 0.055368 0.970510
O O11 0.373667 0.405369 0.454584
O O12 0.249922 0.469836 0.587925
O O13 0.500000 0.242061 0.117594
O O14 0.640782 0.310047 0.226468
O O15 0.646626 0.157771 0.161228
O O16 0.640573 0.250000 0.966406
O O17 0.500000 0.315757 0.371160
O O18 0.000000 0.757939 0.815218
#
# Coordination Sequence:
#
# PCOD9352024 Si02
#       8
#     8   8   8   8   8   8   8   8
#     4  10  20  38  62  86 116 154 198 250 300 357
#     4  10  22  40  58  85 120 156 196 247 293 356
#     4  10  22  39  59  85 120 156 198 243 298 354
#     4  10  22  39  59  85 120 156 198 243 298 354
#     4  10  22  40  60  87 122 154 196 252 303 355
#     4  10  20  38  62  86 116 154 198 250 300 357
#     4  10  22  40  58  85 120 156 196 247 293 356
#     4  10  22  40  60  87 122 154 196 252 303 355
#
# _framework density 25.727229000000001
#
# number of rings (size 3 to 8) (size 9 to 14) (size 15 to 20)
#    0.000    2.000    2.500    0.000    3.500    2.000 
#    0.000    0.000    0.000    0.000    0.000    0.000 
#    0.000    0.000    0.000    0.000    0.000    0.000 
#
# Total GULP energy -178600.387236 kJ/mol
# GULP energy per Si atom -5581.262101 kJ/mol
# Density = 2.566867 g / cm^3
# Si number density = 25.727229 Si / 1000 Ang^3
#
#
#
# Elastic Constant Matrix: (Units=GPa)
#
#
# Indices 1 2 3 4 5 6 
#
# 1 103.4602 -13.2910 17.7669 0.0000 0.0000 0.0000
# 2 -13.2910 50.1060 33.7879 0.0000 0.0000 0.0000
# 3 17.7669 33.7879 258.9083 0.0000 0.0000 0.0000
# 4 0.0000 0.0000 0.0000 46.0273 0.0000 0.0000
# 5 0.0000 0.0000 0.0000 0.0000 9.7362 0.0000
# 6 0.0000 0.0000 0.0000 0.0000 0.0000 23.8358
#
#
#
# Elastic Compliance Matrix: (Units=1/GPa)
#
#
# Indices 1 2 3 4 5 6 
#
# 1 0.010319 0.003525 -0.001168 0.000000 0.000000 0.000000
# 2 0.003525 0.023088 -0.003255 0.000000 0.000000 0.000000
# 3 -0.001168 -0.003255 0.004367 0.000000 0.000000 0.000000
# 4 0.000000 0.000000 0.000000 0.021726 0.000000 0.000000
# 5 0.000000 0.000000 0.000000 0.000000 0.102710 0.000000
# 6 0.000000 0.000000 0.000000 0.000000 0.000000 0.041954
#
#
# Mechanical properties :
#
#
# Convention : Reuss Voigt Hill
#
# Bulk Modulus (GPa) = 27.79502 54.33355 41.06429
# Shear Modulus (GPa) = 22.94080 40.86724 31.90402
#
# Velocity S-wave (km/s) = 2.98936 3.98990 3.52531
# Velocity P-wave (km/s) = 4.76888 6.51081 5.70670
#
# Compressibility (1/GPa) = 0.03597767
#
# Stress axis : x y z
#
# Youngs Moduli (GPa) = 96.90882 43.31342 228.97487
#
# Poissons Ratio (x) = -0.15268 0.26747
# Poissons Ratio (y) = -0.34159 0.74528
# Poissons Ratio (z) = 0.11320 0.14098
#
# Static dielectric constant tensor:
#      x y z
#    x 2.115340 0.000000 0.000000 
#    y 0.000000 2.052780 0.000000 
#    z 0.000000 0.000000 2.248770 
# 
# From -- ./inp_files/5312.got.cif
#   From: 2010.05.17/outbox.cif.g08.bks.cpg/sg36_3_cif.got.tgz:5312.got - 2010.06.03 17:41:39.
