data_PCOD9352896
_publ_section_title
;
Structure prediction by ZEFSAII (Michael W. Deem and Ramdas Pophale) SiO2 
 PCOD9352896
Probable space group: C M C 21
;
_chemical_formula_sum "Si O2"
_cell_formula_units_Z 40
_cell_length_a 28.582084
_cell_length_b 5.723357
_cell_length_c 8.863292
_cell_angle_alpha 90.000000
_cell_angle_beta 90.000000
_cell_angle_gamma 90.000000
_cell_volume 1449.905792
_symmetry_space_group_name_H-M "C M C 21"
_symmetry_group_IT_number 36
_symmetry_cell_setting 'orthorhombic'
loop_
_space_group_symop_operation_xyz
x,y,z
-x,-y,1/2+z
x,-y,1/2+z
-x,y,z
1/2+x,1/2+y,z
1/2-x,1/2-y,1/2+z
1/2+x,1/2-y,1/2+z
1/2-x,1/2+y,z
loop_
_atom_site_type_symbol
_atom_site_label
_atom_site_fract_x
_atom_site_fract_y
_atom_site_fract_z
Si Si1 0.000000 0.527138 0.737211
Si Si2 0.000000 0.027684 0.573708
Si Si3 0.662037 0.540652 0.268435
Si Si4 0.581617 0.197831 0.939347
Si Si5 0.852837 0.329548 0.972388
Si Si6 0.251651 0.004524 0.486131
O O1 0.000000 0.264368 0.675892
O O2 0.044816 0.558339 0.840346
O O3 0.000000 0.763350 0.633606
O O4 0.049989 0.082157 0.493133
O O5 0.625943 0.712044 0.348942
O O6 0.638015 0.294799 0.312170
O O7 0.713306 0.520191 0.349927
O O8 0.660072 0.625547 0.095639
O O9 0.606376 0.993032 0.035961
O O10 0.805278 0.468433 0.938087
O O11 0.245981 0.254152 0.568667
#
# Coordination Sequence:
#
# PCOD9352896 Si02
#       6
#     4   4   8   8   8   8
#     4  11  28  49  80 111 156 198 266 333 407 493
#     4  11  28  49  78 113 152 202 262 333 409 487
#     4  11  26  46  78 114 162 217 279 341 407 496
#     4  11  26  48  77 112 157 210 269 334 421 489
#     4  11  26  48  76 118 162 222 276 344 414 489
#     4  10  22  46  68 109 153 209 268 332 395 469
#
# _framework density 27.587997999999999
#
# number of rings (size 3 to 8) (size 9 to 14) (size 15 to 20)
#    0.000    1.200    2.000    1.200    8.400    9.600 
#    0.000    0.000    0.000    0.000    0.000    0.000 
#    0.000    0.000    0.000    0.000    0.000    0.000 
#
# Total GULP energy -111557.320066 kJ/mol
# GULP energy per Si atom -5577.866003 kJ/mol
# Density = 2.752521 g / cm^3
# Si number density = 27.587998 Si / 1000 Ang^3
#
#
#
# Elastic Constant Matrix: (Units=GPa)
#
#
# Indices 1 2 3 4 5 6 
#
# 1 171.1635 43.0158 62.4059 0.0000 0.0000 0.0000
# 2 43.0158 144.2496 47.6394 0.0000 0.0000 0.0000
# 3 62.4059 47.6394 96.1020 0.0000 0.0000 0.0000
# 4 0.0000 0.0000 0.0000 48.4346 0.0000 0.0000
# 5 0.0000 0.0000 0.0000 0.0000 37.6304 0.0000
# 6 0.0000 0.0000 0.0000 0.0000 0.0000 45.5312
#
#
#
# Elastic Compliance Matrix: (Units=1/GPa)
#
#
# Indices 1 2 3 4 5 6 
#
# 1 0.007726 -0.000774 -0.004634 0.000000 0.000000 0.000000
# 2 -0.000774 0.008367 -0.003645 0.000000 0.000000 0.000000
# 3 -0.004634 -0.003645 0.015222 0.000000 0.000000 0.000000
# 4 0.000000 0.000000 0.000000 0.020646 0.000000 0.000000
# 5 0.000000 0.000000 0.000000 0.000000 0.026574 0.000000
# 6 0.000000 0.000000 0.000000 0.000000 0.000000 0.021963
#
#
# Mechanical properties :
#
#
# Convention : Reuss Voigt Hill
#
# Bulk Modulus (GPa) = 75.70245 79.73750 77.71997
# Shear Modulus (GPa) = 40.64812 43.54951 42.09881
#
# Velocity S-wave (km/s) = 3.84265 3.97743 3.91062
# Velocity P-wave (km/s) = 6.86934 7.07524 6.97305
#
# Compressibility (1/GPa) = 0.01320961
#
# Stress axis : x y z
#
# Youngs Moduli (GPa) = 129.42913 119.51688 65.69609
#
# Poissons Ratio (x) = 0.09247 0.30441
# Poissons Ratio (y) = 0.10014 0.23948
# Poissons Ratio (z) = 0.59973 0.43567
#
# Static dielectric constant tensor:
#      x y z
#    x 2.110740 0.000000 0.000000 
#    y 0.000000 2.245260 0.000000 
#    z 0.000000 0.000000 2.181290 
# 
# From -- ./inp_files/9568.got.cif
#   From: 2010.05.17/outbox.cif.g08.bks.cpg/sg36_5_cif.got.tgz:9568.got - 2010.06.03 17:41:39.
