data_PCOD9352116
_publ_section_title
;
Structure prediction by ZEFSAII (Michael W. Deem and Ramdas Pophale) SiO2 
 PCOD9352116
Probable space group: C M C 21
;
_chemical_formula_sum "Si O2"
_cell_formula_units_Z 40
_cell_length_a 14.084241
_cell_length_b 14.451794
_cell_length_c 9.006679
_cell_angle_alpha 90.000000
_cell_angle_beta 90.000000
_cell_angle_gamma 90.000000
_cell_volume 1833.242407
_symmetry_space_group_name_H-M "C M C 21"
_symmetry_group_IT_number 36
_symmetry_cell_setting 'orthorhombic'
loop_
_space_group_symop_operation_xyz
x,y,z
-x,-y,1/2+z
x,-y,1/2+z
-x,y,z
1/2+x,1/2+y,z
1/2-x,1/2-y,1/2+z
1/2+x,1/2-y,1/2+z
1/2-x,1/2+y,z
loop_
_atom_site_type_symbol
_atom_site_label
_atom_site_fract_x
_atom_site_fract_y
_atom_site_fract_z
Si Si1 0.327074 0.940714 0.078610
Si Si2 0.000000 0.812559 0.597645
Si Si3 0.000000 0.544535 0.375493
Si Si4 0.208597 0.128476 0.065560
Si Si5 0.000000 0.270656 0.767104
Si Si6 0.000000 0.627121 0.774208
Si Si7 0.794827 0.207515 0.731770
O O1 0.407430 0.922529 0.203839
O O2 0.250191 0.862680 0.113859
O O3 0.268882 0.035181 0.074530
O O4 0.395844 0.927489 0.939487
O O5 0.905048 0.873706 0.592294
O O6 0.000000 0.750650 0.446354
O O7 0.000000 0.734265 0.729900
O O8 0.000000 0.619369 0.241450
O O9 0.000000 0.433927 0.421368
O O10 0.245029 0.196326 0.193968
O O11 0.222148 0.171533 0.899756
O O12 0.094112 0.222766 0.707827
#
# Coordination Sequence:
#
# PCOD9352116 Si02
#       7
#     8   4   4   8   4   4   8
#     4  11  22  37  63 101 130 176 226 283 336 415
#     4  10  20  42  63  91 131 177 215 275 349 396
#     4  11  21  38  67  97 134 167 236 289 339 385
#     4  11  24  41  68  96 133 181 225 287 341 411
#     4  10  20  40  64  92 135 175 215 285 337 405
#     4  11  19  38  66  94 128 175 220 287 333 398
#     4  11  23  42  65  95 135 179 228 277 354 404
#
# _framework density 21.819264
#
# number of rings (size 3 to 8) (size 9 to 14) (size 15 to 20)
#    0.000    1.200    4.000    3.600    0.000    3.200 
#    0.000    3.000    0.000    0.000    0.000    0.000 
#    0.000    0.000    0.000    0.000    0.000    0.000 
#
# Total GULP energy -111354.772572 kJ/mol
# GULP energy per Si atom -5567.738629 kJ/mol
# Density = 2.176960 g / cm^3
# Si number density = 21.819264 Si / 1000 Ang^3
#
#
#
# Elastic Constant Matrix: (Units=GPa)
#
#
# Indices 1 2 3 4 5 6 
#
# 1 196.6211 85.6565 31.4943 0.0000 0.0000 0.0000
# 2 85.6565 121.6236 26.0920 0.0000 0.0000 0.0000
# 3 31.4943 26.0920 39.8052 0.0000 0.0000 0.0000
# 4 0.0000 0.0000 0.0000 21.6643 0.0000 0.0000
# 5 0.0000 0.0000 0.0000 0.0000 19.5473 0.0000
# 6 0.0000 0.0000 0.0000 0.0000 0.0000 68.8334
#
#
#
# Elastic Compliance Matrix: (Units=1/GPa)
#
#
# Indices 1 2 3 4 5 6 
#
# 1 0.007618 -0.004739 -0.002922 0.000000 0.000000 0.000000
# 2 -0.004739 0.012515 -0.004454 0.000000 0.000000 0.000000
# 3 -0.002922 -0.004454 0.030354 0.000000 0.000000 0.000000
# 4 0.000000 0.000000 0.000000 0.046159 0.000000 0.000000
# 5 0.000000 0.000000 0.000000 0.000000 0.051158 0.000000
# 6 0.000000 0.000000 0.000000 0.000000 0.000000 0.014528
#
#
# Mechanical properties :
#
#
# Convention : Reuss Voigt Hill
#
# Bulk Modulus (GPa) = 38.08350 71.61505 54.84927
# Shear Modulus (GPa) = 25.59997 36.32947 30.96472
#
# Velocity S-wave (km/s) = 3.42902 4.08489 3.77124
# Velocity P-wave (km/s) = 5.75930 7.42574 6.64497
#
# Compressibility (1/GPa) = 0.02625809
#
# Stress axis : x y z
#
# Youngs Moduli (GPa) = 131.26455 79.90469 32.94505
#
# Poissons Ratio (x) = 0.37863 0.09625
# Poissons Ratio (y) = 0.62200 0.14674
# Poissons Ratio (z) = 0.38349 0.35591
#
# Static dielectric constant tensor:
#      x y z
#    x 1.844510 0.000000 0.000000 
#    y 0.000000 1.965610 0.000000 
#    z 0.000000 0.000000 2.071240 
# 
# From -- ./inp_files/7565.got.cif
#   From: 2010.05.17/outbox.cif.g08.bks.cpg/sg36_4_cif.got.tgz:7565.got - 2010.06.03 17:41:39.
