data_PCOD9352452
_publ_section_title
;
Structure prediction by ZEFSAII (Michael W. Deem and Ramdas Pophale) SiO2 
 PCOD9352452
Probable space group: C M C 21
;
_chemical_formula_sum "Si O2"
_cell_formula_units_Z 48
_cell_length_a 8.826839
_cell_length_b 29.035378
_cell_length_c 8.195636
_cell_angle_alpha 90.000000
_cell_angle_beta 90.000000
_cell_angle_gamma 90.000000
_cell_volume 2100.464524
_symmetry_space_group_name_H-M "C M C 21"
_symmetry_group_IT_number 36
_symmetry_cell_setting 'orthorhombic'
loop_
_space_group_symop_operation_xyz
x,y,z
-x,-y,1/2+z
x,-y,1/2+z
-x,y,z
1/2+x,1/2+y,z
1/2-x,1/2-y,1/2+z
1/2+x,1/2-y,1/2+z
1/2-x,1/2+y,z
loop_
_atom_site_type_symbol
_atom_site_label
_atom_site_fract_x
_atom_site_fract_y
_atom_site_fract_z
Si Si1 0.174273 0.601228 0.906950
Si Si2 0.322786 0.149706 0.552670
Si Si3 0.679383 0.436184 0.891311
Si Si4 0.320143 0.683984 0.059371
Si Si5 0.319000 0.732242 0.396400
Si Si6 0.180613 0.485509 0.202323
O O1 0.187497 0.627291 0.731712
O O2 0.208450 0.548674 0.857182
O O3 0.000000 0.603417 0.960535
O O4 0.272826 0.631327 0.029650
O O5 0.500000 0.153572 0.512467
O O6 0.240366 0.114570 0.429589
O O7 0.244703 0.198905 0.537065
O O8 0.500000 0.436125 0.863507
O O9 0.723032 0.464348 0.055659
O O10 0.767754 0.463646 0.750823
O O11 0.500000 0.687332 0.049586
O O12 0.270685 0.706464 0.230556
O O13 0.246303 0.717235 0.924480
O O14 0.500000 0.734399 0.399830
O O15 0.000000 0.483010 0.165440
#
# Coordination Sequence:
#
# PCOD9352452 Si02
#       6
#     8   8   8   8   8   8
#     4   9  20  38  60  84 111 146 189 234 280 336
#     4  10  21  39  61  85 114 150 192 235 286 346
#     4  11  22  37  59  88 119 153 195 243 293 343
#     4  11  24  39  58  85 115 148 187 232 284 341
#     4  11  24  40  58  84 116 148 188 235 282 338
#     4  10  21  39  60  84 117 157 197 239 291 348
#
# _framework density 22.852087000000001
#
# number of rings (size 3 to 8) (size 9 to 14) (size 15 to 20)
#    0.000    1.667    0.000    5.500    0.000   12.000 
#    0.000    3.333    0.000    0.000    0.000    0.000 
#    0.000    0.000    0.000    0.000    0.000    0.000 
#
# Total GULP energy -134330.153040 kJ/mol
# GULP energy per Si atom -5597.089710 kJ/mol
# Density = 2.280007 g / cm^3
# Si number density = 22.852087 Si / 1000 Ang^3
#
#
#
# Elastic Constant Matrix: (Units=GPa)
#
#
# Indices 1 2 3 4 5 6 
#
# 1 44.6698 10.1443 17.7997 0.0000 0.0000 0.0000
# 2 10.1443 107.4336 -1.2157 0.0000 0.0000 0.0000
# 3 17.7997 -1.2157 49.0248 0.0000 0.0000 0.0000
# 4 0.0000 0.0000 0.0000 39.2111 0.0000 0.0000
# 5 0.0000 0.0000 0.0000 0.0000 21.1325 0.0000
# 6 0.0000 0.0000 0.0000 0.0000 0.0000 -3.8143
#
#
#
# Elastic Compliance Matrix: (Units=1/GPa)
#
#
# Indices 1 2 3 4 5 6 
#
# 1 0.026908 -0.002652 -0.009835 0.000000 0.000000 0.000000
# 2 -0.002652 0.009572 0.001200 0.000000 0.000000 0.000000
# 3 -0.009835 0.001200 0.023999 0.000000 0.000000 0.000000
# 4 0.000000 0.000000 0.000000 0.025503 0.000000 0.000000
# 5 0.000000 0.000000 0.000000 0.000000 0.047321 0.000000
# 6 0.000000 0.000000 0.000000 0.000000 0.000000 -0.262173
#
#
# Mechanical properties :
#
#
# Convention : Reuss Voigt Hill
#
# Bulk Modulus (GPa) = 26.38228 28.28722 27.33475
# Shear Modulus (GPa) = -53.38380 22.93252 -15.22564
#
# Velocity S-wave (km/s) = -4.83852 3.17127 -2.58402
# Velocity P-wave (km/s) = 4.43229 5.08080 1.75633
#
# Compressibility (1/GPa) = 0.03790423
#
# Stress axis : x y z
#
# Youngs Moduli (GPa) = 37.16379 104.47065 41.66913
#
# Poissons Ratio (x) = 0.27706 0.40983
# Poissons Ratio (y) = 0.09856 -0.05001
# Poissons Ratio (z) = 0.36552 -0.12539
#
# Static dielectric constant tensor:
#      x y z
#    x 1.745910 0.000000 0.000000 
#    y 0.000000 1.844410 0.000000 
#    z 0.000000 0.000000 1.936180 
# 
# From -- ./inp_files/2641.got.cif
#   From: 2010.05.17/outbox.cif.g08.bks.cpg/sg36_2_cif.got.tgz:2641.got - 2010.06.03 17:41:39.
