data_PCOD9352085
_publ_section_title
;
Structure prediction by ZEFSAII (Michael W. Deem and Ramdas Pophale) SiO2 
 PCOD9352085
Probable space group: C M C 21
;
_chemical_formula_sum "Si O2"
_cell_formula_units_Z 56
_cell_length_a 13.857678
_cell_length_b 17.439120
_cell_length_c 11.741829
_cell_angle_alpha 90.000000
_cell_angle_beta 90.000000
_cell_angle_gamma 90.000000
_cell_volume 2837.597437
_symmetry_space_group_name_H-M "C M C 21"
_symmetry_group_IT_number 36
_symmetry_cell_setting 'orthorhombic'
loop_
_space_group_symop_operation_xyz
x,y,z
-x,-y,1/2+z
x,-y,1/2+z
-x,y,z
1/2+x,1/2+y,z
1/2-x,1/2-y,1/2+z
1/2+x,1/2-y,1/2+z
1/2-x,1/2+y,z
loop_
_atom_site_type_symbol
_atom_site_label
_atom_site_fract_x
_atom_site_fract_y
_atom_site_fract_z
Si Si1 0.110071 0.045905 0.789620
Si Si2 0.194037 0.272172 0.055755
Si Si3 0.752941 0.890380 0.471012
Si Si4 0.791616 0.478314 0.688403
Si Si5 0.892996 0.793115 0.156388
Si Si6 0.885709 0.636574 0.760653
Si Si7 0.387369 0.151794 0.330640
O O1 0.168197 0.057594 0.906803
O O2 0.109054 0.130188 0.731944
O O3 0.000000 0.019970 0.802542
O O4 0.178774 0.994580 0.711011
O O5 0.194734 0.182181 0.028133
O O6 0.146388 0.317660 0.952253
O O7 0.306073 0.295492 0.068519
O O8 0.143403 0.295849 0.173749
O O9 0.697789 0.938647 0.566565
O O10 0.677726 0.860372 0.375663
O O11 0.849431 0.557704 0.700748
O O12 0.829088 0.420419 0.784546
O O13 0.875985 0.721183 0.240126
O O14 0.000000 0.785471 0.105663
O O15 0.000000 0.635156 0.781081
O O16 0.500000 0.131871 0.335264
#
# Coordination Sequence:
#
# PCOD9352085 Si02
#       7
#     8   8   8   8   8   8   8
#     4  10  22  43  64  92 129 172 218 263 323 385
#     4  12  21  42  66  95 130 172 219 273 320 389
#     4  11  24  42  69  93 134 175 216 277 323 386
#     4  11  24  42  66  95 134 175 212 273 330 392
#     4  10  20  39  64  91 124 168 216 260 316 382
#     4  11  26  43  64 101 136 171 218 272 332 397
#     4  11  23  39  65  95 125 171 221 264 328 391
#
# _framework density 19.735005000000001
#
# number of rings (size 3 to 8) (size 9 to 14) (size 15 to 20)
#    0.000    1.143    5.714    0.857    4.000    2.857 
#    0.000    2.143    0.000    0.000    0.000    0.000 
#    0.000    0.000    0.000    0.000    0.000    0.000 
#
# Total GULP energy -156481.193006 kJ/mol
# GULP energy per Si atom -5588.614036 kJ/mol
# Density = 1.969009 g / cm^3
# Si number density = 19.735005 Si / 1000 Ang^3
#
#
#
# Elastic Constant Matrix: (Units=GPa)
#
#
# Indices 1 2 3 4 5 6 
#
# 1 132.0229 12.7779 24.7745 0.0000 0.0000 0.0000
# 2 12.7779 54.2796 33.2282 0.0000 0.0000 0.0000
# 3 24.7745 33.2282 69.5534 0.0000 0.0000 0.0000
# 4 0.0000 0.0000 0.0000 19.7059 0.0000 0.0000
# 5 0.0000 0.0000 0.0000 0.0000 21.6916 0.0000
# 6 0.0000 0.0000 0.0000 0.0000 0.0000 16.8156
#
#
#
# Elastic Compliance Matrix: (Units=1/GPa)
#
#
# Indices 1 2 3 4 5 6 
#
# 1 0.008119 -0.000199 -0.002797 0.000000 0.000000 0.000000
# 2 -0.000199 0.026043 -0.012371 0.000000 0.000000 0.000000
# 3 -0.002797 -0.012371 0.021284 0.000000 0.000000 0.000000
# 4 0.000000 0.000000 0.000000 0.050746 0.000000 0.000000
# 5 0.000000 0.000000 0.000000 0.000000 0.046101 0.000000
# 6 0.000000 0.000000 0.000000 0.000000 0.000000 0.059469
#
#
# Mechanical properties :
#
#
# Convention : Reuss Voigt Hill
#
# Bulk Modulus (GPa) = 40.46621 44.15746 42.31184
# Shear Modulus (GPa) = 19.94169 23.98098 21.96134
#
# Velocity S-wave (km/s) = 3.18224 3.48968 3.33950
# Velocity P-wave (km/s) = 5.83537 6.21779 6.02961
#
# Compressibility (1/GPa) = 0.02471197
#
# Stress axis : x y z
#
# Youngs Moduli (GPa) = 123.17523 38.39807 46.98472
#
# Poissons Ratio (x) = 0.00765 0.13140
# Poissons Ratio (y) = 0.02453 0.58124
# Poissons Ratio (z) = 0.34447 0.47501
#
# Static dielectric constant tensor:
#      x y z
#    x 1.691150 0.000000 0.000000 
#    y 0.000000 1.689220 0.000000 
#    z 0.000000 0.000000 1.688850 
# 
# From -- ./inp_files/8478.got.cif
#   From: 2010.05.17/outbox.cif.g08.bks.cpg/sg36_5_cif.got.tgz:8478.got - 2010.06.03 17:41:39.
