data_PCOD9352078
_publ_section_title
;
Structure prediction by ZEFSAII (Michael W. Deem and Ramdas Pophale) SiO2 
 PCOD9352078
Probable space group: C M C 21
;
_chemical_formula_sum "Si O2"
_cell_formula_units_Z 64
_cell_length_a 7.745053
_cell_length_b 16.065015
_cell_length_c 23.972503
_cell_angle_alpha 90.000000
_cell_angle_beta 90.000000
_cell_angle_gamma 90.000000
_cell_volume 2982.764125
_symmetry_space_group_name_H-M "C M C 21"
_symmetry_group_IT_number 36
_symmetry_cell_setting 'orthorhombic'
loop_
_space_group_symop_operation_xyz
x,y,z
-x,-y,1/2+z
x,-y,1/2+z
-x,y,z
1/2+x,1/2+y,z
1/2-x,1/2-y,1/2+z
1/2+x,1/2-y,1/2+z
1/2-x,1/2+y,z
loop_
_atom_site_type_symbol
_atom_site_label
_atom_site_fract_x
_atom_site_fract_y
_atom_site_fract_z
Si Si1 0.791364 0.906508 0.142330
Si Si2 0.795423 0.348510 0.020419
Si Si3 0.289050 0.656100 0.031763
Si Si4 0.297032 0.419259 0.416690
Si Si5 0.208945 0.908671 0.652466
Si Si6 0.299835 0.237765 0.846876
Si Si7 0.295786 0.744934 0.719969
Si Si8 0.698520 0.404084 0.900665
O O1 0.738117 0.895551 0.078113
O O2 0.729827 0.827263 0.178134
O O3 0.000000 0.905280 0.143420
O O4 0.734280 0.996851 0.164594
O O5 0.737536 0.252749 0.028090
O O6 0.000000 0.348351 0.008934
O O7 0.704346 0.387551 0.966908
O O8 0.500000 0.655116 0.031373
O O9 0.233515 0.616189 0.089974
O O10 0.225963 0.607990 0.976937
O O11 0.500000 0.436224 0.426093
O O12 0.283550 0.342539 0.374867
O O13 0.221391 0.504860 0.392722
O O14 0.266876 0.835697 0.693532
O O15 0.000000 0.908135 0.653002
O O16 0.500000 0.234268 0.864246
O O17 0.286539 0.237668 0.780584
O O18 0.221923 0.323552 0.871020
O O19 0.500000 0.732127 0.726953
O O20 0.500000 0.406977 0.880190
#
# Coordination Sequence:
#
# PCOD9352078 Si02
#       8
#     8   8   8   8   8   8   8   8
#     4  10  22  39  61  87 117 154 194 236 287 348
#     4  11  20  33  59  92 121 151 188 234 287 342
#     4   9  17  31  57  88 115 147 182 224 283 340
#     4  10  20  39  63  86 116 154 194 235 285 345
#     4  10  20  39  63  86 116 154 194 235 285 345
#     4  11  24  41  60  85 115 152 197 245 294 343
#     4  11  24  41  60  85 115 152 197 245 294 343
#     4  10  22  39  61  87 117 154 194 236 287 348
#
# _framework density 21.456607999999999
#
# number of rings (size 3 to 8) (size 9 to 14) (size 15 to 20)
#    0.000    1.750    2.500    1.875    0.000    5.000 
#    0.000    5.625    0.000    0.000    0.000    0.000 
#    0.000    0.000    0.000    0.000    0.000    0.000 
#
# Total GULP energy -178818.516244 kJ/mol
# GULP energy per Si atom -5588.078633 kJ/mol
# Density = 2.140777 g / cm^3
# Si number density = 21.456608 Si / 1000 Ang^3
#
#
#
# Elastic Constant Matrix: (Units=GPa)
#
#
# Indices 1 2 3 4 5 6 
#
# 1 36.9744 2.0099 -13.3871 0.0000 0.0000 0.0000
# 2 2.0099 121.6093 9.5341 0.0000 0.0000 0.0000
# 3 -13.3871 9.5341 75.1840 0.0000 0.0000 0.0000
# 4 0.0000 0.0000 0.0000 0.7707 0.0000 0.0000
# 5 0.0000 0.0000 0.0000 0.0000 22.9317 0.0000
# 6 0.0000 0.0000 0.0000 0.0000 0.0000 17.4309
#
#
#
# Elastic Compliance Matrix: (Units=1/GPa)
#
#
# Indices 1 2 3 4 5 6 
#
# 1 0.029005 -0.000893 0.005278 0.000000 0.000000 0.000000
# 2 -0.000893 0.008333 -0.001216 0.000000 0.000000 0.000000
# 3 0.005278 -0.001216 0.014395 0.000000 0.000000 0.000000
# 4 0.000000 0.000000 0.000000 1.297602 0.000000 0.000000
# 5 0.000000 0.000000 0.000000 0.000000 0.043608 0.000000
# 6 0.000000 0.000000 0.000000 0.000000 0.000000 0.057369
#
#
# Mechanical properties :
#
#
# Convention : Reuss Voigt Hill
#
# Bulk Modulus (GPa) = 17.22036 25.56463 21.39249
# Shear Modulus (GPa) = 3.41686 23.93404 13.67545
#
# Velocity S-wave (km/s) = 1.26329 3.34348 2.52733
# Velocity P-wave (km/s) = 3.18920 5.18127 4.30212
#
# Compressibility (1/GPa) = 0.05807081
#
# Stress axis : x y z
#
# Youngs Moduli (GPa) = 34.47659 120.00290 69.47029
#
# Poissons Ratio (x) = 0.10718 -0.36665
# Poissons Ratio (y) = 0.03079 0.08446
# Poissons Ratio (z) = -0.18196 0.14590
#
# Static dielectric constant tensor:
#      x y z
#    x 1.803910 0.000000 0.000000 
#    y 0.000000 1.804000 0.000000 
#    z 0.000000 0.000000 1.720130 
# 
# From -- ./inp_files/16621.got.cif
#   From: 2010.05.17/outbox.cif.g08.bks.cpg/sg36_9_cif.got.tgz:16621.got - 2010.06.03 17:41:39.
