data_PCOD9352427
_publ_section_title
;
Structure prediction by ZEFSAII (Michael W. Deem and Ramdas Pophale) SiO2 
 PCOD9352427
Probable space group: C M C 21
;
_chemical_formula_sum "Si O2"
_cell_formula_units_Z 56
_cell_length_a 14.749795
_cell_length_b 11.109646
_cell_length_c 14.960450
_cell_angle_alpha 90.000000
_cell_angle_beta 90.000000
_cell_angle_gamma 90.000000
_cell_volume 2451.494155
_symmetry_space_group_name_H-M "C M C 21"
_symmetry_group_IT_number 36
_symmetry_cell_setting 'orthorhombic'
loop_
_space_group_symop_operation_xyz
x,y,z
-x,-y,1/2+z
x,-y,1/2+z
-x,y,z
1/2+x,1/2+y,z
1/2-x,1/2-y,1/2+z
1/2+x,1/2-y,1/2+z
1/2-x,1/2+y,z
loop_
_atom_site_type_symbol
_atom_site_label
_atom_site_fract_x
_atom_site_fract_y
_atom_site_fract_z
Si Si1 0.902909 0.725129 0.090770
Si Si2 0.784379 0.305620 0.023316
Si Si3 0.894695 0.684574 0.710988
Si Si4 0.701086 0.399128 0.795653
Si Si5 0.401888 0.520718 0.651304
Si Si6 0.398560 0.083276 0.261180
Si Si7 0.818269 0.039935 0.968907
O O1 0.817992 0.754478 0.031815
O O2 0.902862 0.836436 0.160488
O O3 0.894527 0.612680 0.155353
O O4 0.000000 0.723150 0.043745
O O5 0.834963 0.308175 0.119808
O O6 0.768122 0.447072 0.994563
O O7 0.820774 0.186546 0.970288
O O8 0.857567 0.781262 0.781023
O O9 0.888689 0.559337 0.762829
O O10 0.000000 0.701765 0.686256
O O11 0.683213 0.467053 0.702181
O O12 0.807075 0.367543 0.805537
O O13 0.663578 0.486899 0.871458
O O14 0.500000 0.474565 0.682272
O O15 0.388755 0.493675 0.546963
O O16 0.500000 0.118513 0.293141
#
# Coordination Sequence:
#
# PCOD9352427 Si02
#       7
#     8   8   8   8   8   8   8
#     4   9  17  34  65  94 123 169 217 263 326 395
#     4  11  21  43  60  95 130 172 217 279 327 403
#     4  11  23  40  68  96 128 174 221 272 338 399
#     4  12  24  40  67  94 133 175 218 279 331 403
#     4  10  21  40  64  96 133 172 217 273 338 402
#     4  10  21  38  63  96 128 170 221 269 327 403
#     4  11  26  39  66  95 133 174 228 273 342 395
#
# _framework density 22.843211
#
# number of rings (size 3 to 8) (size 9 to 14) (size 15 to 20)
#    0.000    1.429    2.857    3.000    2.000    1.143 
#    0.000    1.429    0.000    0.857    0.000    0.000 
#    0.000    0.000    0.000    0.000    0.000    0.000 
#
# Total GULP energy -155873.303273 kJ/mol
# GULP energy per Si atom -5566.903688 kJ/mol
# Density = 2.279122 g / cm^3
# Si number density = 22.843211 Si / 1000 Ang^3
#
#
#
# Elastic Constant Matrix: (Units=GPa)
#
#
# Indices 1 2 3 4 5 6 
#
# 1 104.2489 1.3311 22.4164 0.0000 0.0000 0.0000
# 2 1.3311 69.3415 -6.4844 0.0000 0.0000 0.0000
# 3 22.4164 -6.4844 35.8746 0.0000 0.0000 0.0000
# 4 0.0000 0.0000 0.0000 23.1189 0.0000 0.0000
# 5 0.0000 0.0000 0.0000 0.0000 4.6870 0.0000
# 6 0.0000 0.0000 0.0000 0.0000 0.0000 23.8531
#
#
#
# Elastic Compliance Matrix: (Units=1/GPa)
#
#
# Indices 1 2 3 4 5 6 
#
# 1 0.011134 -0.000879 -0.007116 0.000000 0.000000 0.000000
# 2 -0.000879 0.014739 0.003213 0.000000 0.000000 0.000000
# 3 -0.007116 0.003213 0.032902 0.000000 0.000000 0.000000
# 4 0.000000 0.000000 0.000000 0.043255 0.000000 0.000000
# 5 0.000000 0.000000 0.000000 0.000000 0.213354 0.000000
# 6 0.000000 0.000000 0.000000 0.000000 0.000000 0.041923
#
#
# Mechanical properties :
#
#
# Convention : Reuss Voigt Hill
#
# Bulk Modulus (GPa) = 20.32052 27.11012 23.71532
# Shear Modulus (GPa) = 13.04552 23.14528 18.09540
#
# Velocity S-wave (km/s) = 2.39234 3.18657 2.81758
# Velocity P-wave (km/s) = 4.06768 5.04308 4.58141
#
# Compressibility (1/GPa) = 0.04921135
#
# Stress axis : x y z
#
# Youngs Moduli (GPa) = 89.81689 67.84830 30.39321
#
# Poissons Ratio (x) = 0.05965 0.21627
# Poissons Ratio (y) = 0.07896 -0.09767
# Poissons Ratio (z) = 0.63913 -0.21802
#
# Static dielectric constant tensor:
#      x y z
#    x 1.881150 0.000000 0.000000 
#    y 0.000000 1.948280 0.000000 
#    z 0.000000 0.000000 1.855550 
# 
# From -- ./inp_files/12134.got.cif
#   From: 2010.05.17/outbox.cif.g08.bks.cpg/sg36_7_cif.got.tgz:12134.got - 2010.06.03 17:41:39.
