data_PCOD9352494
_publ_section_title
;
Structure prediction by ZEFSAII (Michael W. Deem and Ramdas Pophale) SiO2 
 PCOD9352494
Probable space group: C M C 21
;
_chemical_formula_sum "Si O2"
_cell_formula_units_Z 48
_cell_length_a 8.778538
_cell_length_b 24.243440
_cell_length_c 12.259022
_cell_angle_alpha 90.000000
_cell_angle_beta 90.000000
_cell_angle_gamma 90.000000
_cell_volume 2608.989081
_symmetry_space_group_name_H-M "C M C 21"
_symmetry_group_IT_number 36
_symmetry_cell_setting 'orthorhombic'
loop_
_space_group_symop_operation_xyz
x,y,z
-x,-y,1/2+z
x,-y,1/2+z
-x,y,z
1/2+x,1/2+y,z
1/2-x,1/2-y,1/2+z
1/2+x,1/2-y,1/2+z
1/2-x,1/2+y,z
loop_
_atom_site_type_symbol
_atom_site_label
_atom_site_fract_x
_atom_site_fract_y
_atom_site_fract_z
Si Si1 0.816186 0.579588 0.183910
Si Si2 0.683172 0.169224 0.365455
Si Si3 0.182849 0.286841 0.298698
Si Si4 0.317240 0.354542 0.102094
Si Si5 0.681822 0.538639 0.743567
Si Si6 0.316674 0.893657 0.438314
O O1 0.771046 0.624187 0.274772
O O2 0.750938 0.519832 0.211938
O O3 0.000000 0.576468 0.184282
O O4 0.768036 0.598423 0.062909
O O5 0.500000 0.171222 0.370101
O O6 0.747040 0.228663 0.331430
O O7 0.748679 0.152534 0.482762
O O8 0.249224 0.309259 0.184787
O O9 0.222474 0.333853 0.388271
O O10 0.000000 0.283089 0.292366
O O11 0.500000 0.349244 0.098812
O O12 0.278606 0.414018 0.154938
O O13 0.500000 0.534785 0.748972
O O14 0.744797 0.560989 0.858491
O O15 0.500000 0.898853 0.433124
#
# Coordination Sequence:
#
# PCOD9352494 Si02
#       6
#     8   8   8   8   8   8
#     4  10  23  40  60  87 120 158 197 242 294 357
#     4  11  24  39  60  91 123 158 200 245 296 356
#     4  10  21  39  64  91 119 156 199 246 300 358
#     4  10  22  41  62  86 121 160 198 247 299 353
#     4  10  22  39  61  89 119 153 196 249 299 348
#     4   9  20  40  63  86 116 157 198 239 294 358
#
# _framework density 18.397931
#
# number of rings (size 3 to 8) (size 9 to 14) (size 15 to 20)
#    0.000    2.000    0.000    2.000    4.667    4.667 
#    0.000    0.000    0.000    0.000    0.000    0.000 
#    0.000    0.000    0.000    0.000    0.000    0.000 
#
# Total GULP energy -134098.529389 kJ/mol
# GULP energy per Si atom -5587.438725 kJ/mol
# Density = 1.835606 g / cm^3
# Si number density = 18.397931 Si / 1000 Ang^3
#
#
#
# Elastic Constant Matrix: (Units=GPa)
#
#
# Indices 1 2 3 4 5 6 
#
# 1 42.9479 49.4728 60.1725 0.0000 0.0000 0.0000
# 2 49.4728 148.3000 118.1861 0.0000 0.0000 0.0000
# 3 60.1725 118.1861 217.2947 0.0000 0.0000 0.0000
# 4 0.0000 0.0000 0.0000 13.8066 0.0000 0.0000
# 5 0.0000 0.0000 0.0000 0.0000 23.6613 0.0000
# 6 0.0000 0.0000 0.0000 0.0000 0.0000 30.2099
#
#
#
# Elastic Compliance Matrix: (Units=1/GPa)
#
#
# Indices 1 2 3 4 5 6 
#
# 1 0.043577 -0.008685 -0.007344 0.000000 0.000000 0.000000
# 2 -0.008685 0.013633 -0.005010 0.000000 0.000000 0.000000
# 3 -0.007344 -0.005010 0.009360 0.000000 0.000000 0.000000
# 4 0.000000 0.000000 0.000000 0.072429 0.000000 0.000000
# 5 0.000000 0.000000 0.000000 0.000000 0.042263 0.000000
# 6 0.000000 0.000000 0.000000 0.000000 0.000000 0.033102
#
#
# Mechanical properties :
#
#
# Convention : Reuss Voigt Hill
#
# Bulk Modulus (GPa) = 40.82663 96.02284 68.42473
# Shear Modulus (GPa) = 18.89601 25.58298 22.23949
#
# Velocity S-wave (km/s) = 3.20827 3.73303 3.48056
# Velocity P-wave (km/s) = 5.99692 8.41940 7.30922
#
# Compressibility (1/GPa) = 0.02449381
#
# Stress axis : x y z
#
# Youngs Moduli (GPa) = 22.94777 73.35126 106.83206
#
# Poissons Ratio (x) = 0.63706 0.78452
# Poissons Ratio (y) = 0.19930 0.53522
# Poissons Ratio (z) = 0.16852 0.36749
#
# Static dielectric constant tensor:
#      x y z
#    x 1.614220 0.000000 0.000000 
#    y 0.000000 1.600910 0.000000 
#    z 0.000000 0.000000 1.612190 
# 
# From -- ./inp_files/6720.got.cif
#   From: 2010.05.17/outbox.cif.g08.bks.cpg/sg36_4_cif.got.tgz:6720.got - 2010.06.03 17:41:39.
