data_PCOD9352622
_publ_section_title
;
Structure prediction by ZEFSAII (Michael W. Deem and Ramdas Pophale) SiO2 
 PCOD9352622
Probable space group: C M C 21
;
_chemical_formula_sum "Si O2"
_cell_formula_units_Z 48
_cell_length_a 13.804327
_cell_length_b 12.638412
_cell_length_c 13.789747
_cell_angle_alpha 90.000000
_cell_angle_beta 90.000000
_cell_angle_gamma 90.000000
_cell_volume 2405.825066
_symmetry_space_group_name_H-M "C M C 21"
_symmetry_group_IT_number 36
_symmetry_cell_setting 'orthorhombic'
loop_
_space_group_symop_operation_xyz
x,y,z
-x,-y,1/2+z
x,-y,1/2+z
-x,y,z
1/2+x,1/2+y,z
1/2-x,1/2-y,1/2+z
1/2+x,1/2-y,1/2+z
1/2-x,1/2+y,z
loop_
_atom_site_type_symbol
_atom_site_label
_atom_site_fract_x
_atom_site_fract_y
_atom_site_fract_z
Si Si1 0.000000 0.813070 0.372771
Si Si2 0.676016 0.460395 0.429442
Si Si3 0.716744 0.031109 0.242825
Si Si4 0.709107 0.308897 0.599193
Si Si5 0.500000 0.234911 0.586532
Si Si6 0.000000 0.734035 0.161678
Si Si7 0.500000 0.002818 0.678679
Si Si8 0.171210 0.117195 0.591379
O O1 0.093604 0.889697 0.378742
O O2 0.000000 0.744121 0.470229
O O3 0.000000 0.740261 0.278487
O O4 0.745014 0.513815 0.350785
O O5 0.728928 0.385029 0.507851
O O6 0.633990 0.549861 0.500786
O O7 0.736352 0.145751 0.193903
O O8 0.603775 0.000595 0.233753
O O9 0.785887 0.957813 0.175082
O O10 0.595083 0.298850 0.620600
O O11 0.739695 0.192853 0.565505
O O12 0.500000 0.113341 0.620366
O O13 0.000000 0.612687 0.126142
O O14 0.090510 0.802354 0.126729
#
# Coordination Sequence:
#
# PCOD9352622 Si02
#       8
#     4   8   8   8   4   4   4   8
#     4  10  21  42  68  99 123 172 228 274 321 388
#     4  10  23  40  67  96 125 172 227 267 323 390
#     4  11  23  42  65  93 133 169 224 265 330 397
#     4  10  22  41  66  94 129 177 209 272 328 388
#     4  10  22  42  68  93 135 169 223 263 331 390
#     4  12  23  41  71  98 132 171 223 267 335 384
#     4  12  24  41  65 100 130 178 210 270 337 402
#     4  11  22  41  66  92 134 170 212 277 323 395
#
# _framework density 19.951575999999999
#
# number of rings (size 3 to 8) (size 9 to 14) (size 15 to 20)
#    0.000    1.333    5.000    0.500    0.000    6.667 
#    0.000    0.833    0.000    0.000    0.000    0.000 
#    0.000    0.000    0.000    0.000    0.000    0.000 
#
# Total GULP energy -133841.452326 kJ/mol
# GULP energy per Si atom -5576.727180 kJ/mol
# Density = 1.990617 g / cm^3
# Si number density = 19.951576 Si / 1000 Ang^3
#
#
#
# Elastic Constant Matrix: (Units=GPa)
#
#
# Indices 1 2 3 4 5 6 
#
# 1 91.3692 5.9205 27.4742 0.0000 0.0000 0.0000
# 2 5.9205 91.2814 36.9849 0.0000 0.0000 0.0000
# 3 27.4742 36.9849 82.9911 0.0000 0.0000 0.0000
# 4 0.0000 0.0000 0.0000 19.9719 0.0000 0.0000
# 5 0.0000 0.0000 0.0000 0.0000 22.2274 0.0000
# 6 0.0000 0.0000 0.0000 0.0000 0.0000 26.1629
#
#
#
# Elastic Compliance Matrix: (Units=1/GPa)
#
#
# Indices 1 2 3 4 5 6 
#
# 1 0.012234 0.001034 -0.004511 0.000000 0.000000 0.000000
# 2 0.001034 0.013457 -0.006339 0.000000 0.000000 0.000000
# 3 -0.004511 -0.006339 0.016368 0.000000 0.000000 0.000000
# 4 0.000000 0.000000 0.000000 0.050070 0.000000 0.000000
# 5 0.000000 0.000000 0.000000 0.000000 0.044990 0.000000
# 6 0.000000 0.000000 0.000000 0.000000 0.000000 0.038222
#
#
# Mechanical properties :
#
#
# Convention : Reuss Voigt Hill
#
# Bulk Modulus (GPa) = 44.59016 45.15564 44.87290
# Shear Modulus (GPa) = 24.69768 26.68990 25.69379
#
# Velocity S-wave (km/s) = 3.52217 3.66147 3.59250
# Velocity P-wave (km/s) = 6.24008 6.36843 6.30458
#
# Compressibility (1/GPa) = 0.02242647
#
# Stress axis : x y z
#
# Youngs Moduli (GPa) = 81.73935 74.31310 61.09504
#
# Poissons Ratio (x) = -0.07686 0.27560
# Poissons Ratio (y) = -0.08454 0.38730
# Poissons Ratio (z) = 0.36872 0.47109
#
# Static dielectric constant tensor:
#      x y z
#    x 1.846330 0.000000 0.000000 
#    y 0.000000 1.723220 0.000000 
#    z 0.000000 0.000000 1.673060 
# 
# From -- ./inp_files/12117.got.cif
#   From: 2010.05.17/outbox.cif.g08.bks.cpg/sg36_7_cif.got.tgz:12117.got - 2010.06.03 17:41:39.
