data_PCOD9352858
_publ_section_title
;
Structure prediction by ZEFSAII (Michael W. Deem and Ramdas Pophale) SiO2 
 PCOD9352858
Probable space group: C M C 21
;
_chemical_formula_sum "Si O2"
_cell_formula_units_Z 48
_cell_length_a 26.739438
_cell_length_b 5.719017
_cell_length_c 13.065148
_cell_angle_alpha 90.000000
_cell_angle_beta 90.000000
_cell_angle_gamma 90.000000
_cell_volume 1997.965554
_symmetry_space_group_name_H-M "C M C 21"
_symmetry_group_IT_number 36
_symmetry_cell_setting 'orthorhombic'
loop_
_space_group_symop_operation_xyz
x,y,z
-x,-y,1/2+z
x,-y,1/2+z
-x,y,z
1/2+x,1/2+y,z
1/2-x,1/2-y,1/2+z
1/2+x,1/2-y,1/2+z
1/2-x,1/2+y,z
loop_
_atom_site_type_symbol
_atom_site_label
_atom_site_fract_x
_atom_site_fract_y
_atom_site_fract_z
Si Si1 0.879555 0.504180 0.694470
Si Si2 0.872967 0.232205 0.398467
Si Si3 0.726909 0.918398 0.100191
Si Si4 0.762035 0.906703 0.874171
Si Si5 0.442961 0.342174 0.312784
Si Si6 0.057501 0.539008 0.522395
O O1 0.864253 0.581886 0.808666
O O2 0.827073 0.502862 0.637861
O O3 0.912835 0.279480 0.721526
O O4 0.917514 0.655164 0.622794
O O5 0.819678 0.108180 0.411543
O O6 0.901930 0.338225 0.494925
O O7 0.913318 0.067393 0.345912
O O8 0.737939 0.644276 0.127119
O O9 0.728380 0.915796 0.976271
O O10 0.747548 0.658312 0.822140
O O11 0.500000 0.385447 0.283508
O O12 0.443537 0.187963 0.417699
O O13 0.000000 0.467194 0.541789
#
# Coordination Sequence:
#
# PCOD9352858 Si02
#       6
#     8   8   8   8   8   8
#     4  11  25  42  70 101 139 187 237 303 367 446
#     4  11  25  42  70 100 142 188 241 304 378 441
#     4  10  23  41  67 100 141 184 235 291 352 429
#     4  10  23  42  70 100 141 190 238 297 359 434
#     4  10  24  44  68 101 140 180 240 306 371 440
#     4  10  22  43  69  98 135 183 239 299 371 444
#
# _framework density 24.024438
#
# number of rings (size 3 to 8) (size 9 to 14) (size 15 to 20)
#    0.000    1.667    0.000    3.000   11.667    4.667 
#    0.000    1.667    0.000    0.000    0.000    0.000 
#    0.000    0.000    0.000    0.000    0.000    0.000 
#
# Total GULP energy -133913.116729 kJ/mol
# GULP energy per Si atom -5579.713197 kJ/mol
# Density = 2.396976 g / cm^3
# Si number density = 24.024438 Si / 1000 Ang^3
#
#
#
# Elastic Constant Matrix: (Units=GPa)
#
#
# Indices 1 2 3 4 5 6 
#
# 1 140.5952 29.8479 28.7614 0.0000 0.0000 0.0000
# 2 29.8479 90.6052 0.3505 0.0000 0.0000 0.0000
# 3 28.7614 0.3505 80.0414 0.0000 0.0000 0.0000
# 4 0.0000 0.0000 0.0000 18.4136 0.0000 0.0000
# 5 0.0000 0.0000 0.0000 0.0000 46.2949 0.0000
# 6 0.0000 0.0000 0.0000 0.0000 0.0000 32.1226
#
#
#
# Elastic Compliance Matrix: (Units=1/GPa)
#
#
# Indices 1 2 3 4 5 6 
#
# 1 0.008298 -0.002722 -0.002970 0.000000 0.000000 0.000000
# 2 -0.002722 0.011930 0.000926 0.000000 0.000000 0.000000
# 3 -0.002970 0.000926 0.013557 0.000000 0.000000 0.000000
# 4 0.000000 0.000000 0.000000 0.054308 0.000000 0.000000
# 5 0.000000 0.000000 0.000000 0.000000 0.021601 0.000000
# 6 0.000000 0.000000 0.000000 0.000000 0.000000 0.031131
#
#
# Mechanical properties :
#
#
# Convention : Reuss Voigt Hill
#
# Bulk Modulus (GPa) = 41.23265 47.68461 44.45863
# Shear Modulus (GPa) = 31.55767 36.18503 33.87135
#
# Velocity S-wave (km/s) = 3.62825 3.88516 3.75890
# Velocity P-wave (km/s) = 5.89511 6.32593 6.11431
#
# Compressibility (1/GPa) = 0.02425263
#
# Stress axis : x y z
#
# Youngs Moduli (GPa) = 120.51032 83.82195 73.76465
#
# Poissons Ratio (x) = 0.22817 0.21907
# Poissons Ratio (y) = 0.32804 -0.06830
# Poissons Ratio (z) = 0.35789 -0.07761
#
# Static dielectric constant tensor:
#      x y z
#    x 1.887310 0.000000 0.000000 
#    y 0.000000 2.155630 0.000000 
#    z 0.000000 0.000000 2.144470 
# 
# From -- ./inp_files/13049.got.cif
#   From: 2010.05.17/outbox.cif.g08.bks.cpg/sg36_7_cif.got.tgz:13049.got - 2010.06.03 17:41:39.
