data_PCOD9352507
_publ_section_title
;
Structure prediction by ZEFSAII (Michael W. Deem and Ramdas Pophale) SiO2 
 PCOD9352507
Probable space group: C M C 21
;
_chemical_formula_sum "Si O2"
_cell_formula_units_Z 48
_cell_length_a 8.765436
_cell_length_b 15.073702
_cell_length_c 18.718986
_cell_angle_alpha 90.000000
_cell_angle_beta 90.000000
_cell_angle_gamma 90.000000
_cell_volume 2473.294136
_symmetry_space_group_name_H-M "C M C 21"
_symmetry_group_IT_number 36
_symmetry_cell_setting 'orthorhombic'
loop_
_space_group_symop_operation_xyz
x,y,z
-x,-y,1/2+z
x,-y,1/2+z
-x,y,z
1/2+x,1/2+y,z
1/2-x,1/2-y,1/2+z
1/2+x,1/2-y,1/2+z
1/2-x,1/2+y,z
loop_
_atom_site_type_symbol
_atom_site_label
_atom_site_fract_x
_atom_site_fract_y
_atom_site_fract_z
Si Si1 0.182549 0.071542 0.512530
Si Si2 0.680613 0.910780 0.591073
Si Si3 0.818975 0.000110 0.854666
Si Si4 0.318525 0.738621 0.988825
Si Si5 0.818195 0.689509 0.837242
Si Si6 0.181182 0.847143 0.737981
O O1 0.262301 0.166511 0.516990
O O2 0.000000 0.082423 0.514795
O O3 0.238522 0.003552 0.572450
O O4 0.222372 0.028805 0.435159
O O5 0.500000 0.920779 0.584334
O O6 0.741386 0.839218 0.534216
O O7 0.726489 0.875806 0.668853
O O8 0.729353 0.087398 0.830830
O O9 0.000000 0.020676 0.854857
O O10 0.794153 0.918419 0.801189
O O11 0.500000 0.730670 0.993591
O O12 0.264748 0.727612 0.907227
O O13 0.778107 0.750844 0.769665
O O14 0.000000 0.697651 0.848032
O O15 0.000000 0.847368 0.720826
#
# Coordination Sequence:
#
# PCOD9352507 Si02
#       6
#     8   8   8   8   8   8
#     4  11  22  41  67  96 127 166 211 262 317 378
#     4  12  26  43  64  95 131 170 213 262 319 377
#     4  10  21  39  65  94 125 165 209 256 316 379
#     4  12  24  40  65  95 128 169 215 263 315 376
#     4  11  22  39  65  95 127 165 213 263 313 375
#     4  10  23  44  64  89 130 171 207 260 322 375
#
# _framework density 19.407316000000002
#
# number of rings (size 3 to 8) (size 9 to 14) (size 15 to 20)
#    0.000    1.000    3.333    4.000    0.000    4.000 
#    0.000    3.333    0.000    0.000    0.000    0.000 
#    0.000    0.000    0.000    0.000    0.000    0.000 
#
# Total GULP energy -134269.314603 kJ/mol
# GULP energy per Si atom -5594.554775 kJ/mol
# Density = 1.936314 g / cm^3
# Si number density = 19.407316 Si / 1000 Ang^3
#
#
#
# Elastic Constant Matrix: (Units=GPa)
#
#
# Indices 1 2 3 4 5 6 
#
# 1 42.7262 -6.5594 9.1873 0.0000 0.0000 0.0000
# 2 -6.5594 52.0217 -29.1713 0.0000 0.0000 0.0000
# 3 9.1873 -29.1713 22.3494 0.0000 0.0000 0.0000
# 4 0.0000 0.0000 0.0000 16.1901 0.0000 0.0000
# 5 0.0000 0.0000 0.0000 0.0000 31.8230 0.0000
# 6 0.0000 0.0000 0.0000 0.0000 0.0000 35.7902
#
#
#
# Elastic Compliance Matrix: (Units=1/GPa)
#
#
# Indices 1 2 3 4 5 6 
#
# 1 0.027149 -0.010575 -0.024963 0.000000 0.000000 0.000000
# 2 -0.010575 0.075823 0.103315 0.000000 0.000000 0.000000
# 3 -0.024963 0.103315 0.189856 0.000000 0.000000 0.000000
# 4 0.000000 0.000000 0.000000 0.061766 0.000000 0.000000
# 5 0.000000 0.000000 0.000000 0.000000 0.031424 0.000000
# 6 0.000000 0.000000 0.000000 0.000000 0.000000 0.027941
#
#
# Mechanical properties :
#
#
# Convention : Reuss Voigt Hill
#
# Bulk Modulus (GPa) = 2.33437 7.11229 4.72333
# Shear Modulus (GPa) = 11.87084 26.33670 19.10377
#
# Velocity S-wave (km/s) = 2.47588 3.68781 3.14085
# Velocity P-wave (km/s) = 3.06247 4.66969 3.94872
#
# Compressibility (1/GPa) = 0.42838075
#
# Stress axis : x y z
#
# Youngs Moduli (GPa) = 36.83353 13.18857 5.26715
#
# Poissons Ratio (x) = 0.13947 0.13149
# Poissons Ratio (y) = 0.38952 -0.54417
# Poissons Ratio (z) = 0.91949 -1.36257
#
# Static dielectric constant tensor:
#      x y z
#    x 1.647500 0.000000 0.000000 
#    y 0.000000 1.669790 0.000000 
#    z 0.000000 0.000000 1.658080 
# 
# From -- ./inp_files/13491.got.cif
#   From: 2010.05.17/outbox.cif.g08.bks.cpg/sg36_7_cif.got.tgz:13491.got - 2010.06.03 17:41:39.
