data_PCOD9352881
_publ_section_title
;
Structure prediction by ZEFSAII (Michael W. Deem and Ramdas Pophale) SiO2 
 PCOD9352881
Probable space group: C M C 21
;
_chemical_formula_sum "Si O2"
_cell_formula_units_Z 48
_cell_length_a 18.519503
_cell_length_b 12.247064
_cell_length_c 8.633826
_cell_angle_alpha 90.000000
_cell_angle_beta 90.000000
_cell_angle_gamma 90.000000
_cell_volume 1958.234090
_symmetry_space_group_name_H-M "C M C 21"
_symmetry_group_IT_number 36
_symmetry_cell_setting 'orthorhombic'
loop_
_space_group_symop_operation_xyz
x,y,z
-x,-y,1/2+z
x,-y,1/2+z
-x,y,z
1/2+x,1/2+y,z
1/2-x,1/2-y,1/2+z
1/2+x,1/2-y,1/2+z
1/2-x,1/2+y,z
loop_
_atom_site_type_symbol
_atom_site_label
_atom_site_fract_x
_atom_site_fract_y
_atom_site_fract_z
Si Si1 0.579374 0.015347 0.956420
Si Si2 0.777643 0.522097 0.182271
Si Si3 0.153610 0.695818 0.386637
Si Si4 0.078299 0.125477 0.388421
Si Si5 0.848657 0.320597 0.251506
Si Si6 0.132175 0.078520 0.706881
O O1 0.500000 0.027655 0.028500
O O2 0.651239 0.972507 0.568770
O O3 0.586210 0.103500 0.817913
O O4 0.588580 0.893337 0.887092
O O5 0.785838 0.625925 0.293426
O O6 0.787230 0.410004 0.282102
O O7 0.698241 0.490977 0.123581
O O8 0.162836 0.710174 0.571598
O O9 0.146139 0.810187 0.301865
O O10 0.139622 0.211653 0.344501
O O11 0.080180 0.114556 0.570436
O O12 0.000000 0.163313 0.330393
O O13 0.095476 0.009486 0.315922
#
# Coordination Sequence:
#
# PCOD9352881 Si02
#       6
#     8   8   8   8   8   8
#     4  10  22  44  73 110 150 187 236 303 364 438
#     4  10  25  45  75 108 146 191 248 295 374 425
#     4  10  24  45  68 108 145 188 241 293 363 431
#     4  12  28  50  74 106 145 198 249 300 366 435
#     4  10  23  43  74 105 150 182 241 291 363 433
#     4  12  28  47  78 101 150 194 247 310 358 438
#
# _framework density 24.511880000000001
#
# number of rings (size 3 to 8) (size 9 to 14) (size 15 to 20)
#    0.000    1.333    0.000    3.000    9.333   11.333 
#    0.000    0.000    0.000    0.000    0.000    0.000 
#    0.000    0.000    0.000    0.000    0.000    0.000 
#
# Total GULP energy -133694.275069 kJ/mol
# GULP energy per Si atom -5570.594795 kJ/mol
# Density = 2.445609 g / cm^3
# Si number density = 24.511880 Si / 1000 Ang^3
#
#
#
# Elastic Constant Matrix: (Units=GPa)
#
#
# Indices 1 2 3 4 5 6 
#
# 1 122.9529 -4.1351 30.1043 0.0000 0.0000 0.0000
# 2 -4.1351 106.2454 36.6717 0.0000 0.0000 0.0000
# 3 30.1043 36.6717 108.3216 0.0000 0.0000 0.0000
# 4 0.0000 0.0000 0.0000 50.3845 0.0000 0.0000
# 5 0.0000 0.0000 0.0000 0.0000 26.4289 0.0000
# 6 0.0000 0.0000 0.0000 0.0000 0.0000 7.0849
#
#
#
# Elastic Compliance Matrix: (Units=1/GPa)
#
#
# Indices 1 2 3 4 5 6 
#
# 1 0.008897 0.001358 -0.002932 0.000000 0.000000 0.000000
# 2 0.001358 0.010865 -0.004056 0.000000 0.000000 0.000000
# 3 -0.002932 -0.004056 0.011420 0.000000 0.000000 0.000000
# 4 0.000000 0.000000 0.000000 0.019847 0.000000 0.000000
# 5 0.000000 0.000000 0.000000 0.000000 0.037837 0.000000
# 6 0.000000 0.000000 0.000000 0.000000 0.000000 0.141146
#
#
# Mechanical properties :
#
#
# Convention : Reuss Voigt Hill
#
# Bulk Modulus (GPa) = 50.19582 51.42240 50.80911
# Shear Modulus (GPa) = 20.16839 35.10493 27.63666
#
# Velocity S-wave (km/s) = 2.87156 3.78849 3.36144
# Velocity P-wave (km/s) = 5.61401 6.33727 5.98657
#
# Compressibility (1/GPa) = 0.01992198
#
# Stress axis : x y z
#
# Youngs Moduli (GPa) = 112.39894 92.03912 87.56699
#
# Poissons Ratio (x) = -0.12503 0.25679
# Poissons Ratio (y) = -0.15269 0.35515
# Poissons Ratio (z) = 0.32961 0.37329
#
# Static dielectric constant tensor:
#      x y z
#    x 2.083790 0.000000 0.000000 
#    y 0.000000 1.919360 0.000000 
#    z 0.000000 0.000000 1.983500 
# 
# From -- ./inp_files/5557.got.cif
#   From: 2010.05.17/outbox.cif.g08.bks.cpg/sg36_3_cif.got.tgz:5557.got - 2010.06.03 17:41:39.
