data_PCOD9352007
_publ_section_title
;
Structure prediction by ZEFSAII (Michael W. Deem and Ramdas Pophale) SiO2 
 PCOD9352007
Probable space group: C M C 21
;
_chemical_formula_sum "Si O2"
_cell_formula_units_Z 48
_cell_length_a 7.798815
_cell_length_b 20.181751
_cell_length_c 14.368621
_cell_angle_alpha 90.000000
_cell_angle_beta 90.000000
_cell_angle_gamma 90.000000
_cell_volume 2261.531033
_symmetry_space_group_name_H-M "C M C 21"
_symmetry_group_IT_number 36
_symmetry_cell_setting 'orthorhombic'
loop_
_space_group_symop_operation_xyz
x,y,z
-x,-y,1/2+z
x,-y,1/2+z
-x,y,z
1/2+x,1/2+y,z
1/2-x,1/2-y,1/2+z
1/2+x,1/2-y,1/2+z
1/2-x,1/2+y,z
loop_
_atom_site_type_symbol
_atom_site_label
_atom_site_fract_x
_atom_site_fract_y
_atom_site_fract_z
Si Si1 0.300489 0.584214 0.445600
Si Si2 0.697320 0.039901 0.828377
Si Si3 0.200636 0.835702 0.440196
Si Si4 0.207863 0.791124 0.828198
Si Si5 0.290953 0.262332 0.624378
Si Si6 0.700674 0.111077 0.645232
O O1 0.500000 0.595512 0.465339
O O2 0.284197 0.523109 0.375469
O O3 0.230709 0.649653 0.394035
O O4 0.215300 0.574963 0.546085
O O5 0.500000 0.020995 0.811599
O O6 0.706865 0.099742 0.902126
O O7 0.773329 0.069283 0.731909
O O8 0.220365 0.778146 0.364018
O O9 0.269628 0.802608 0.534751
O O10 0.000000 0.852312 0.452361
O O11 0.253404 0.798599 0.720290
O O12 0.000000 0.788321 0.833332
O O13 0.500000 0.259726 0.616673
O O14 0.229921 0.185922 0.630730
O O15 0.500000 0.120198 0.669014
#
# Coordination Sequence:
#
# PCOD9352007 Si02
#       6
#     8   8   8   8   8   8
#     4  11  24  39  61  92 126 159 201 255 304 359
#     4  11  24  42  63  86 122 165 205 248 300 366
#     4  11  21  35  60  91 119 151 199 252 299 353
#     4  10  20  38  60  85 118 157 197 241 298 358
#     4   9  18  35  60  88 120 157 196 241 298 356
#     4  10  20  39  64  86 117 163 204 243 303 368
#
# _framework density 21.22456
#
# number of rings (size 3 to 8) (size 9 to 14) (size 15 to 20)
#    0.000    1.667    3.333    1.500    0.000    3.333 
#    0.000    3.333    0.000    0.000    0.000    0.000 
#    0.000    0.000    0.000    0.000    0.000    0.000 
#
# Total GULP energy -134061.410709 kJ/mol
# GULP energy per Si atom -5585.892113 kJ/mol
# Density = 2.117625 g / cm^3
# Si number density = 21.224560 Si / 1000 Ang^3
#
#
#
# Elastic Constant Matrix: (Units=GPa)
#
#
# Indices 1 2 3 4 5 6 
#
# 1 29.8890 -7.1745 -2.2242 0.0000 0.0000 0.0000
# 2 -7.1745 58.1403 -9.2132 0.0000 0.0000 0.0000
# 3 -2.2242 -9.2132 89.4784 0.0000 0.0000 0.0000
# 4 0.0000 0.0000 0.0000 31.3873 0.0000 0.0000
# 5 0.0000 0.0000 0.0000 0.0000 15.0754 0.0000
# 6 0.0000 0.0000 0.0000 0.0000 0.0000 12.5449
#
#
#
# Elastic Compliance Matrix: (Units=1/GPa)
#
#
# Indices 1 2 3 4 5 6 
#
# 1 0.034632 0.004483 0.001322 0.000000 0.000000 0.000000
# 2 0.004483 0.018065 0.001972 0.000000 0.000000 0.000000
# 3 0.001322 0.001972 0.011412 0.000000 0.000000 0.000000
# 4 0.000000 0.000000 0.000000 0.031860 0.000000 0.000000
# 5 0.000000 0.000000 0.000000 0.000000 0.066333 0.000000
# 6 0.000000 0.000000 0.000000 0.000000 0.000000 0.079713
#
#
# Mechanical properties :
#
#
# Convention : Reuss Voigt Hill
#
# Bulk Modulus (GPa) = 12.55286 15.58709 14.06998
# Shear Modulus (GPa) = 19.76163 24.87618 22.31890
#
# Velocity S-wave (km/s) = 3.05466 3.42723 3.24629
# Velocity P-wave (km/s) = 4.28584 4.79803 4.54915
#
# Compressibility (1/GPa) = 0.07966314
#
# Stress axis : x y z
#
# Youngs Moduli (GPa) = 28.87529 55.35444 87.62896
#
# Poissons Ratio (x) = -0.24816 -0.11589
# Poissons Ratio (y) = -0.12945 -0.17277
# Poissons Ratio (z) = -0.03819 -0.10913
#
# Static dielectric constant tensor:
#      x y z
#    x 1.767070 0.000000 0.000000 
#    y 0.000000 1.728190 0.000000 
#    z 0.000000 0.000000 1.775500 
# 
# From -- ./inp_files/10343.got.cif
#   From: 2010.05.17/outbox.cif.g08.bks.cpg/sg36_6_cif.got.tgz:10343.got - 2010.06.03 17:41:39.
