data_PCOD9352942
_publ_section_title
;
Structure prediction by ZEFSAII (Michael W. Deem and Ramdas Pophale) SiO2 
 PCOD9352942
Probable space group: C M C 21
;
_chemical_formula_sum "Si O2"
_cell_formula_units_Z 64
_cell_length_a 9.167505
_cell_length_b 19.545901
_cell_length_c 16.884774
_cell_angle_alpha 90.000000
_cell_angle_beta 90.000000
_cell_angle_gamma 90.000000
_cell_volume 3025.534450
_symmetry_space_group_name_H-M "C M C 21"
_symmetry_group_IT_number 36
_symmetry_cell_setting 'orthorhombic'
loop_
_space_group_symop_operation_xyz
x,y,z
-x,-y,1/2+z
x,-y,1/2+z
-x,y,z
1/2+x,1/2+y,z
1/2-x,1/2-y,1/2+z
1/2+x,1/2-y,1/2+z
1/2-x,1/2+y,z
loop_
_atom_site_type_symbol
_atom_site_label
_atom_site_fract_x
_atom_site_fract_y
_atom_site_fract_z
Si Si1 0.830536 0.651504 0.832580
Si Si2 0.833053 0.721001 0.392124
Si Si3 0.331424 0.462757 0.250198
Si Si4 0.172109 0.405051 0.789905
Si Si5 0.330589 0.547876 0.566041
Si Si6 0.172344 0.420350 0.503235
Si Si7 0.669671 0.191336 0.573278
Si Si8 0.175612 0.833326 0.641275
O O1 0.773853 0.727451 0.848522
O O2 0.738416 0.610467 0.768178
O O3 0.000000 0.651253 0.811184
O O4 0.810776 0.610879 0.915721
O O5 0.808337 0.642961 0.366016
O O6 0.819975 0.725298 0.486221
O O7 0.000000 0.738686 0.370093
O O8 0.500000 0.463254 0.273490
O O9 0.242537 0.520752 0.295985
O O10 0.321826 0.478766 0.156822
O O11 0.251293 0.365529 0.718463
O O12 0.000000 0.411744 0.773797
O O13 0.500000 0.547917 0.542088
O O14 0.237428 0.496335 0.512614
O O15 0.267764 0.624274 0.570634
O O16 0.258027 0.373051 0.565885
O O17 0.000000 0.420874 0.522173
O O18 0.500000 0.171751 0.586064
O O19 0.708653 0.252359 0.633143
O O20 0.000000 0.841346 0.642454
#
# Coordination Sequence:
#
# PCOD9352942 Si02
#       8
#     8   8   8   8   8   8   8   8
#     4  11  25  42  65  95 126 164 211 259 316 377
#     4  10  23  44  65  91 126 166 209 255 313 375
#     4  11  25  44  64  91 128 168 212 259 310 373
#     4  11  24  41  65  93 127 167 209 260 313 373
#     4  11  25  42  64  94 126 163 211 262 313 373
#     4  11  23  41  66  93 123 162 208 259 312 372
#     4  10  23  42  65  92 127 166 206 259 316 373
#     4  11  22  40  66  93 123 162 208 255 311 374
#
# _framework density 21.153286999999999
#
# number of rings (size 3 to 8) (size 9 to 14) (size 15 to 20)
#    0.000    1.250    2.500    2.250    3.500    5.500 
#    0.000    0.000    0.000    0.000    0.000    0.000 
#    0.000    0.000    0.000    0.000    0.000    0.000 
#
# Total GULP energy -179058.003590 kJ/mol
# GULP energy per Si atom -5595.562612 kJ/mol
# Density = 2.110514 g / cm^3
# Si number density = 21.153287 Si / 1000 Ang^3
#
#
#
# Elastic Constant Matrix: (Units=GPa)
#
#
# Indices 1 2 3 4 5 6 
#
# 1 97.4882 42.7098 9.5097 0.0000 0.0000 0.0000
# 2 42.7098 96.7439 -9.7201 0.0000 0.0000 0.0000
# 3 9.5097 -9.7201 21.6517 0.0000 0.0000 0.0000
# 4 0.0000 0.0000 0.0000 33.3255 0.0000 0.0000
# 5 0.0000 0.0000 0.0000 0.0000 21.6306 0.0000
# 6 0.0000 0.0000 0.0000 0.0000 0.0000 44.4662
#
#
#
# Elastic Compliance Matrix: (Units=1/GPa)
#
#
# Indices 1 2 3 4 5 6 
#
# 1 0.014405 -0.007325 -0.009615 0.000000 0.000000 0.000000
# 2 -0.007325 0.014550 0.009749 0.000000 0.000000 0.000000
# 3 -0.009615 0.009749 0.054786 0.000000 0.000000 0.000000
# 4 0.000000 0.000000 0.000000 0.030007 0.000000 0.000000
# 5 0.000000 0.000000 0.000000 0.000000 0.046231 0.000000
# 6 0.000000 0.000000 0.000000 0.000000 0.000000 0.022489
#
#
# Mechanical properties :
#
#
# Convention : Reuss Voigt Hill
#
# Bulk Modulus (GPa) = 14.41798 33.43139 23.92468
# Shear Modulus (GPa) = 22.73038 31.44340 27.08689
#
# Velocity S-wave (km/s) = 3.28160 3.85964 3.58230
# Velocity P-wave (km/s) = 4.60318 5.97504 5.33340
#
# Compressibility (1/GPa) = 0.06935785
#
# Stress axis : x y z
#
# Youngs Moduli (GPa) = 69.42074 68.72800 18.25292
#
# Poissons Ratio (x) = 0.50346 0.17551
# Poissons Ratio (y) = 0.50854 -0.17796
# Poissons Ratio (z) = 0.66751 -0.67006
#
# Static dielectric constant tensor:
#      x y z
#    x 1.708090 0.000000 0.000000 
#    y 0.000000 1.751310 0.000000 
#    z 0.000000 0.000000 1.764710 
# 
# From -- ./inp_files/13835.got.cif
#   From: 2010.05.17/outbox.cif.g08.bks.cpg/sg36_7_cif.got.tgz:13835.got - 2010.06.03 17:41:39.
