data_PCOD9352703
_publ_section_title
;
Structure prediction by ZEFSAII (Michael W. Deem and Ramdas Pophale) SiO2 
 PCOD9352703
Probable space group: C M C 21
;
_chemical_formula_sum "Si O2"
_cell_formula_units_Z 64
_cell_length_a 8.052881
_cell_length_b 14.424358
_cell_length_c 22.636333
_cell_angle_alpha 90.000000
_cell_angle_beta 90.000000
_cell_angle_gamma 90.000000
_cell_volume 2629.382985
_symmetry_space_group_name_H-M "C M C 21"
_symmetry_group_IT_number 36
_symmetry_cell_setting 'orthorhombic'
loop_
_space_group_symop_operation_xyz
x,y,z
-x,-y,1/2+z
x,-y,1/2+z
-x,y,z
1/2+x,1/2+y,z
1/2-x,1/2-y,1/2+z
1/2+x,1/2-y,1/2+z
1/2-x,1/2+y,z
loop_
_atom_site_type_symbol
_atom_site_label
_atom_site_fract_x
_atom_site_fract_y
_atom_site_fract_z
Si Si1 0.796628 0.871924 0.053220
Si Si2 0.693544 0.796853 0.713055
Si Si3 0.682637 0.046684 0.802817
Si Si4 0.314855 0.638970 0.337138
Si Si5 0.806951 0.921348 0.180705
Si Si6 0.310815 0.679311 0.890171
Si Si7 0.307336 0.467163 0.480940
Si Si8 0.298458 0.161331 0.082197
O O1 0.738316 0.920555 0.114261
O O2 0.753611 0.763948 0.057598
O O3 0.000000 0.875413 0.054387
O O4 0.739290 0.931194 0.996807
O O5 0.500000 0.819319 0.725319
O O6 0.795997 0.821006 0.770857
O O7 0.700779 0.687491 0.698589
O O8 0.745146 0.844122 0.651420
O O9 0.500000 0.086876 0.809464
O O10 0.716243 0.027141 0.733955
O O11 0.807023 0.122759 0.828618
O O12 0.700586 0.951310 0.838403
O O13 0.500000 0.604651 0.346539
O O14 0.275971 0.722968 0.380778
O O15 0.000000 0.949446 0.180193
O O16 0.500000 0.697562 0.907951
O O17 0.229843 0.605330 0.934912
O O18 0.500000 0.478611 0.463174
O O19 0.293853 0.412725 0.542572
O O20 0.500000 0.151993 0.077779
#
# Coordination Sequence:
#
# PCOD9352703 Si02
#       8
#     8   8   8   8   8   8   8   8
#     4   8  17  36  59  86 119 159 197 235 292 359
#     4   9  18  35  59  88 127 163 196 248 307 360
#     4  12  25  40  61  91 124 159 205 255 311 373
#     4  12  25  40  62  90 119 162 210 256 312 368
#     4   9  17  34  61  88 123 163 197 241 302 363
#     4  11  24  44  63  86 125 166 210 260 307 360
#     4  10  22  39  62  89 119 159 204 251 299 357
#     4   9  19  36  59  88 122 161 199 242 296 356
#
# _framework density 24.340309999999999
#
# number of rings (size 3 to 8) (size 9 to 14) (size 15 to 20)
#    0.000    2.000    1.250    4.125    1.750    2.500 
#    0.000    3.750    0.000    0.000    0.000    0.000 
#    0.000    0.000    0.000    0.000    0.000    0.000 
#
# Total GULP energy -178941.931864 kJ/mol
# GULP energy per Si atom -5591.935371 kJ/mol
# Density = 2.428491 g / cm^3
# Si number density = 24.340310 Si / 1000 Ang^3
#
#
#
# Elastic Constant Matrix: (Units=GPa)
#
#
# Indices 1 2 3 4 5 6 
#
# 1 47.3682 -0.2692 2.8681 0.0000 0.0000 0.0000
# 2 -0.2692 74.8528 24.9529 0.0000 0.0000 0.0000
# 3 2.8681 24.9529 64.0867 0.0000 0.0000 0.0000
# 4 0.0000 0.0000 0.0000 50.7719 0.0000 0.0000
# 5 0.0000 0.0000 0.0000 0.0000 14.9403 0.0000
# 6 0.0000 0.0000 0.0000 0.0000 0.0000 14.9699
#
#
#
# Elastic Compliance Matrix: (Units=1/GPa)
#
#
# Indices 1 2 3 4 5 6 
#
# 1 0.021182 0.000451 -0.001123 0.000000 0.000000 0.000000
# 2 0.000451 0.015362 -0.006001 0.000000 0.000000 0.000000
# 3 -0.001123 -0.006001 0.017991 0.000000 0.000000 0.000000
# 4 0.000000 0.000000 0.000000 0.019696 0.000000 0.000000
# 5 0.000000 0.000000 0.000000 0.000000 0.066933 0.000000
# 6 0.000000 0.000000 0.000000 0.000000 0.000000 0.066801
#
#
# Mechanical properties :
#
#
# Convention : Reuss Voigt Hill
#
# Bulk Modulus (GPa) = 24.28008 26.82350 25.55179
# Shear Modulus (GPa) = 21.27289 26.72016 23.99653
#
# Velocity S-wave (km/s) = 2.95952 3.31686 3.14327
# Velocity P-wave (km/s) = 4.65567 5.07079 4.86765
#
# Compressibility (1/GPa) = 0.04118602
#
# Stress axis : x y z
#
# Youngs Moduli (GPa) = 47.21036 65.09643 55.58372
#
# Poissons Ratio (x) = -0.02934 0.06244
# Poissons Ratio (y) = -0.02128 0.33358
# Poissons Ratio (z) = 0.05304 0.39068
#
# Static dielectric constant tensor:
#      x y z
#    x 1.857910 0.000000 0.000000 
#    y 0.000000 1.941850 0.000000 
#    z 0.000000 0.000000 1.989110 
# 
# From -- ./inp_files/16648.got.cif
#   From: 2010.05.17/outbox.cif.g08.bks.cpg/sg36_9_cif.got.tgz:16648.got - 2010.06.03 17:41:39.
