data_PCOD9352150
_publ_section_title
;
Structure prediction by ZEFSAII (Michael W. Deem and Ramdas Pophale) SiO2 
 PCOD9352150
Probable space group: C M C 21
;
_chemical_formula_sum "Si O2"
_cell_formula_units_Z 56
_cell_length_a 32.473794
_cell_length_b 5.542617
_cell_length_c 12.955827
_cell_angle_alpha 90.000000
_cell_angle_beta 90.000000
_cell_angle_gamma 90.000000
_cell_volume 2331.916745
_symmetry_space_group_name_H-M "C M C 21"
_symmetry_group_IT_number 36
_symmetry_cell_setting 'orthorhombic'
loop_
_space_group_symop_operation_xyz
x,y,z
-x,-y,1/2+z
x,-y,1/2+z
-x,y,z
1/2+x,1/2+y,z
1/2-x,1/2-y,1/2+z
1/2+x,1/2-y,1/2+z
1/2-x,1/2+y,z
loop_
_atom_site_type_symbol
_atom_site_label
_atom_site_fract_x
_atom_site_fract_y
_atom_site_fract_z
Si Si1 0.909657 0.550243 0.408010
Si Si2 0.000000 0.965031 0.578622
Si Si3 0.350987 0.738583 0.533459
Si Si4 0.730042 0.921413 0.829326
Si Si5 0.239727 0.094643 0.555790
Si Si6 0.500000 0.964271 0.445717
Si Si7 0.857987 0.503377 0.238501
Si Si8 0.911694 0.852052 0.622806
O O1 0.876954 0.340242 0.438312
O O2 0.886414 0.675493 0.311954
O O3 0.912728 0.696782 0.515645
O O4 0.956342 0.466967 0.386075
O O5 0.957793 0.944414 0.642112
O O6 0.000000 0.721435 0.507509
O O7 0.000000 0.220230 0.516320
O O8 0.307324 0.612466 0.517269
O O9 0.381811 0.565596 0.593259
O O10 0.343930 0.937165 0.621703
O O11 0.738507 0.640222 0.802416
O O12 0.731726 0.917102 0.954416
O O13 0.685681 0.012479 0.794028
O O14 0.252183 0.342536 0.611188
O O15 0.890670 0.292305 0.215163
#
# Coordination Sequence:
#
# PCOD9352150 Si02
#       8
#     8   4   8   8   8   4   8   8
#     4  10  22  43  69  97 141 185 236 294 363 439
#     4  10  20  45  71 100 141 186 234 286 364 427
#     4  11  24  42  69  98 139 184 240 300 369 438
#     4  10  23  42  64  94 134 184 231 289 356 422
#     4  10  23  41  67  94 128 183 234 285 357 426
#     4  10  20  41  71 104 133 188 238 280 356 439
#     4  11  26  42  67 107 140 184 244 308 364 436
#     4  10  24  42  70 102 138 189 233 301 361 447
#
# _framework density 24.014579000000001
#
# number of rings (size 3 to 8) (size 9 to 14) (size 15 to 20)
#    0.000    1.714    1.429    1.714   10.000    2.857 
#    0.000    1.429    0.000    0.000    0.000    0.000 
#    0.000    0.000    0.000    0.000    0.000    0.000 
#
# Total GULP energy -156160.673992 kJ/mol
# GULP energy per Si atom -5577.166928 kJ/mol
# Density = 2.395992 g / cm^3
# Si number density = 24.014579 Si / 1000 Ang^3
#
#
#
# Elastic Constant Matrix: (Units=GPa)
#
#
# Indices 1 2 3 4 5 6 
#
# 1 169.0781 16.0145 28.3784 0.0000 0.0000 0.0000
# 2 16.0145 89.0553 4.0690 0.0000 0.0000 0.0000
# 3 28.3784 4.0690 75.4968 0.0000 0.0000 0.0000
# 4 0.0000 0.0000 0.0000 18.3830 0.0000 0.0000
# 5 0.0000 0.0000 0.0000 0.0000 35.7179 0.0000
# 6 0.0000 0.0000 0.0000 0.0000 0.0000 60.6461
#
#
#
# Elastic Compliance Matrix: (Units=1/GPa)
#
#
# Indices 1 2 3 4 5 6 
#
# 1 0.006408 -0.001045 -0.002352 0.000000 0.000000 0.000000
# 2 -0.001045 0.011427 -0.000223 0.000000 0.000000 0.000000
# 3 -0.002352 -0.000223 0.014142 0.000000 0.000000 0.000000
# 4 0.000000 0.000000 0.000000 0.054398 0.000000 0.000000
# 5 0.000000 0.000000 0.000000 0.000000 0.027997 0.000000
# 6 0.000000 0.000000 0.000000 0.000000 0.000000 0.016489
#
#
# Mechanical properties :
#
#
# Convention : Reuss Voigt Hill
#
# Bulk Modulus (GPa) = 40.42650 47.83933 44.13291
# Shear Modulus (GPa) = 34.16519 41.96063 38.06291
#
# Velocity S-wave (km/s) = 3.77594 4.18460 3.98551
# Velocity P-wave (km/s) = 5.99008 6.58119 6.29258
#
# Compressibility (1/GPa) = 0.02473625
#
# Stress axis : x y z
#
# Youngs Moduli (GPa) = 156.04914 87.51146 70.71195
#
# Poissons Ratio (x) = 0.09144 0.16635
# Poissons Ratio (y) = 0.16305 0.01578
# Poissons Ratio (z) = 0.36710 0.01953
#
# Static dielectric constant tensor:
#      x y z
#    x 1.899780 0.000000 0.000000 
#    y 0.000000 2.201820 0.000000 
#    z 0.000000 0.000000 2.116020 
# 
# From -- ./inp_files/13187.got.cif
#   From: 2010.05.17/outbox.cif.g08.bks.cpg/sg36_7_cif.got.tgz:13187.got - 2010.06.03 17:41:39.
