data_PCOD9352093
_publ_section_title
;
Structure prediction by ZEFSAII (Michael W. Deem and Ramdas Pophale) SiO2 
 PCOD9352093
Probable space group: C M C 21
;
_chemical_formula_sum "Si O2"
_cell_formula_units_Z 40
_cell_length_a 12.382311
_cell_length_b 16.291235
_cell_length_c 8.015126
_cell_angle_alpha 90.000000
_cell_angle_beta 90.000000
_cell_angle_gamma 90.000000
_cell_volume 1616.836371
_symmetry_space_group_name_H-M "C M C 21"
_symmetry_group_IT_number 36
_symmetry_cell_setting 'orthorhombic'
loop_
_space_group_symop_operation_xyz
x,y,z
-x,-y,1/2+z
x,-y,1/2+z
-x,y,z
1/2+x,1/2+y,z
1/2-x,1/2-y,1/2+z
1/2+x,1/2-y,1/2+z
1/2-x,1/2+y,z
loop_
_atom_site_type_symbol
_atom_site_label
_atom_site_fract_x
_atom_site_fract_y
_atom_site_fract_z
Si Si1 0.376608 0.400416 0.899940
Si Si2 0.500000 0.864417 0.049861
Si Si3 0.325243 0.245967 0.684531
Si Si4 0.129291 0.933693 0.270059
Si Si5 0.792769 0.631792 0.992056
Si Si6 0.000000 0.463229 0.409084
O O1 0.500000 0.427236 0.920996
O O2 0.378022 0.317084 0.798047
O O3 0.327078 0.472579 0.786956
O O4 0.332722 0.399389 0.089109
O O5 0.600830 0.800252 0.047891
O O6 0.500000 0.918082 0.225992
O O7 0.500000 0.937461 0.914216
O O8 0.219746 0.294074 0.620977
O O9 0.309912 0.175497 0.816344
O O10 0.173143 0.900740 0.447367
O O11 0.000000 0.923562 0.269881
O O12 0.891482 0.568920 0.004277
#
# Coordination Sequence:
#
# PCOD9352093 Si02
#       6
#     8   4   8   8   8   4
#     4  10  20  39  65  97 137 174 217 290 349 409
#     4  10  24  46  72  96 134 182 230 282 342 410
#     4  11  23  41  67  98 135 177 233 286 348 402
#     4  10  22  38  66 101 135 178 229 278 352 417
#     4  11  25  43  66  99 137 183 233 284 348 414
#     4  10  26  48  66  94 140 184 226 276 342 422
#
# _framework density 24.739671000000001
#
# number of rings (size 3 to 8) (size 9 to 14) (size 15 to 20)
#    0.000    1.600    1.000    2.400    1.400   11.200 
#    1.800    0.000    0.000    0.000    0.000    0.000 
#    0.000    0.000    0.000    0.000    0.000    0.000 
#
# Total GULP energy -111353.272641 kJ/mol
# GULP energy per Si atom -5567.663632 kJ/mol
# Density = 2.468336 g / cm^3
# Si number density = 24.739671 Si / 1000 Ang^3
#
#
#
# Elastic Constant Matrix: (Units=GPa)
#
#
# Indices 1 2 3 4 5 6 
#
# 1 58.7954 12.9147 22.2685 0.0000 0.0000 0.0000
# 2 12.9147 97.8160 29.2270 0.0000 0.0000 0.0000
# 3 22.2685 29.2270 76.5666 0.0000 0.0000 0.0000
# 4 0.0000 0.0000 0.0000 40.1929 0.0000 0.0000
# 5 0.0000 0.0000 0.0000 0.0000 18.6144 0.0000
# 6 0.0000 0.0000 0.0000 0.0000 0.0000 47.5785
#
#
#
# Elastic Compliance Matrix: (Units=1/GPa)
#
#
# Indices 1 2 3 4 5 6 
#
# 1 0.019196 -0.000978 -0.005210 0.000000 0.000000 0.000000
# 2 -0.000978 0.011589 -0.004139 0.000000 0.000000 0.000000
# 3 -0.005210 -0.004139 0.016156 0.000000 0.000000 0.000000
# 4 0.000000 0.000000 0.000000 0.024880 0.000000 0.000000
# 5 0.000000 0.000000 0.000000 0.000000 0.053722 0.000000
# 6 0.000000 0.000000 0.000000 0.000000 0.000000 0.021018
#
#
# Mechanical properties :
#
#
# Convention : Reuss Voigt Hill
#
# Bulk Modulus (GPa) = 38.04142 40.22207 39.13174
# Shear Modulus (GPa) = 28.41279 32.52834 30.47057
#
# Velocity S-wave (km/s) = 3.39259 3.62999 3.51329
# Velocity P-wave (km/s) = 5.54583 5.81915 5.68413
#
# Compressibility (1/GPa) = 0.02628714
#
# Stress axis : x y z
#
# Youngs Moduli (GPa) = 52.09402 86.28702 61.89724
#
# Poissons Ratio (x) = 0.08437 0.32247
# Poissons Ratio (y) = 0.05094 0.25622
# Poissons Ratio (z) = 0.27139 0.35718
#
# Static dielectric constant tensor:
#      x y z
#    x 2.137070 0.000000 0.000000 
#    y 0.000000 2.153950 0.000000 
#    z 0.000000 0.000000 2.047870 
# 
# From -- ./inp_files/3844.got.cif
#   From: 2010.05.17/outbox.cif.g08.bks.cpg/sg36_2_cif.got.tgz:3844.got - 2010.06.03 17:41:39.
