data_PCOD9352632
_publ_section_title
;
Structure prediction by ZEFSAII (Michael W. Deem and Ramdas Pophale) SiO2 
 PCOD9352632
Probable space group: C M C 21
;
_chemical_formula_sum "Si O2"
_cell_formula_units_Z 40
_cell_length_a 15.211985
_cell_length_b 9.481606
_cell_length_c 13.266468
_cell_angle_alpha 90.000000
_cell_angle_beta 90.000000
_cell_angle_gamma 90.000000
_cell_volume 1913.476386
_symmetry_space_group_name_H-M "C M C 21"
_symmetry_group_IT_number 36
_symmetry_cell_setting 'orthorhombic'
loop_
_space_group_symop_operation_xyz
x,y,z
-x,-y,1/2+z
x,-y,1/2+z
-x,y,z
1/2+x,1/2+y,z
1/2-x,1/2-y,1/2+z
1/2+x,1/2-y,1/2+z
1/2-x,1/2+y,z
loop_
_atom_site_type_symbol
_atom_site_label
_atom_site_fract_x
_atom_site_fract_y
_atom_site_fract_z
Si Si1 0.500000 0.822987 0.664820
Si Si2 0.000000 0.088598 0.838905
Si Si3 0.500000 0.861627 0.236243
Si Si4 0.000000 0.147415 0.066903
Si Si5 0.857419 0.157631 0.329508
Si Si6 0.310274 0.461847 0.633361
Si Si7 0.679274 0.244515 0.052361
O O1 0.500000 0.697593 0.747297
O O2 0.414509 0.808065 0.593846
O O3 0.500000 0.971454 0.724325
O O4 0.918559 0.981127 0.835751
O O5 0.000000 0.161642 0.947579
O O6 0.500000 0.795476 0.124160
O O7 0.416092 0.789751 0.290774
O O8 0.912442 0.065933 0.104079
O O9 0.791563 0.110263 0.241321
O O10 0.825163 0.193965 0.440074
O O11 0.292861 0.626596 0.625034
O O12 0.249194 0.379607 0.555931
#
# Coordination Sequence:
#
# PCOD9352632 Si02
#       7
#     4   4   4   4   8   8   8
#     4  12  25  44  69 103 140 188 236 284 342 421
#     4  11  19  40  79  98 126 193 243 264 345 427
#     4   9  23  41  67 104 139 177 226 297 336 399
#     4  10  21  43  71  95 137 184 227 277 347 405
#     4  10  22  44  71  98 139 181 228 289 349 406
#     4  11  25  44  69 102 137 181 232 283 342 418
#     4  12  26  44  72 103 140 183 232 285 348 420
#
# _framework density 20.904361999999999
#
# number of rings (size 3 to 8) (size 9 to 14) (size 15 to 20)
#    0.000    1.200    4.000    2.400    5.600    4.800 
#    0.000    0.000    0.000    0.000    0.000    0.000 
#    0.000    0.000    0.000    0.000    0.000    0.000 
#
# Total GULP energy -111788.366682 kJ/mol
# GULP energy per Si atom -5589.418334 kJ/mol
# Density = 2.085678 g / cm^3
# Si number density = 20.904362 Si / 1000 Ang^3
#
#
#
# Elastic Constant Matrix: (Units=GPa)
#
#
# Indices 1 2 3 4 5 6 
#
# 1 55.7986 35.6951 13.2567 0.0000 0.0000 0.0000
# 2 35.6951 120.9220 15.6777 0.0000 0.0000 0.0000
# 3 13.2567 15.6777 118.3479 0.0000 0.0000 0.0000
# 4 0.0000 0.0000 0.0000 24.7732 0.0000 0.0000
# 5 0.0000 0.0000 0.0000 0.0000 16.8559 0.0000
# 6 0.0000 0.0000 0.0000 0.0000 0.0000 8.0047
#
#
#
# Elastic Compliance Matrix: (Units=1/GPa)
#
#
# Indices 1 2 3 4 5 6 
#
# 1 0.022411 -0.006400 -0.001663 0.000000 0.000000 0.000000
# 2 -0.006400 0.010242 -0.000640 0.000000 0.000000 0.000000
# 3 -0.001663 -0.000640 0.008721 0.000000 0.000000 0.000000
# 4 0.000000 0.000000 0.000000 0.040366 0.000000 0.000000
# 5 0.000000 0.000000 0.000000 0.000000 0.059326 0.000000
# 6 0.000000 0.000000 0.000000 0.000000 0.000000 0.124927
#
#
# Mechanical properties :
#
#
# Convention : Reuss Voigt Hill
#
# Bulk Modulus (GPa) = 41.72110 47.14751 44.43431
# Shear Modulus (GPa) = 17.15934 25.28936 21.22435
#
# Velocity S-wave (km/s) = 2.86816 3.48194 3.18985
# Velocity P-wave (km/s) = 5.56505 6.22640 5.90499
#
# Compressibility (1/GPa) = 0.02396869
#
# Stress axis : x y z
#
# Youngs Moduli (GPa) = 44.62163 97.63774 114.67025
#
# Poissons Ratio (x) = 0.62487 0.19064
# Poissons Ratio (y) = 0.28557 0.07338
# Poissons Ratio (z) = 0.07418 0.06248
#
# Static dielectric constant tensor:
#      x y z
#    x 1.767180 0.000000 0.000000 
#    y 0.000000 1.715350 0.000000 
#    z 0.000000 0.000000 1.766540 
# 
# From -- ./inp_files/8801.got.cif
#   From: 2010.05.17/outbox.cif.g08.bks.cpg/sg36_5_cif.got.tgz:8801.got - 2010.06.03 17:41:39.
