data_PCOD9352256
_publ_section_title
;
Structure prediction by ZEFSAII (Michael W. Deem and Ramdas Pophale) SiO2 
 PCOD9352256
Probable space group: C M C 21
;
_chemical_formula_sum "Si O2"
_cell_formula_units_Z 24
_cell_length_a 5.328461
_cell_length_b 24.833569
_cell_length_c 7.632700
_cell_angle_alpha 90.000000
_cell_angle_beta 90.000000
_cell_angle_gamma 90.000000
_cell_volume 1009.994768
_symmetry_space_group_name_H-M "C M C 21"
_symmetry_group_IT_number 36
_symmetry_cell_setting 'orthorhombic'
loop_
_space_group_symop_operation_xyz
x,y,z
-x,-y,1/2+z
x,-y,1/2+z
-x,y,z
1/2+x,1/2+y,z
1/2-x,1/2-y,1/2+z
1/2+x,1/2-y,1/2+z
1/2-x,1/2+y,z
loop_
_atom_site_type_symbol
_atom_site_label
_atom_site_fract_x
_atom_site_fract_y
_atom_site_fract_z
Si Si1 0.000000 0.024964 0.284650
Si Si2 0.000000 0.357693 0.060427
Si Si3 0.000000 0.692542 0.062022
Si Si4 0.500000 0.919073 0.686747
Si Si5 0.000000 0.755473 0.694628
Si Si6 0.000000 0.913229 0.156853
O O1 0.747562 0.044616 0.188437
O O2 0.000000 0.053959 0.472757
O O3 0.000000 0.960675 0.297359
O O4 0.000000 0.293542 0.056331
O O5 0.747646 0.377218 0.156092
O O6 0.000000 0.385951 0.870831
O O7 0.747421 0.709491 0.163417
O O8 0.000000 0.628058 0.044120
O O9 0.000000 0.725636 0.881164
#
# Coordination Sequence:
#
# PCOD9352256 Si02
#       6
#     4   4   4   4   4   4
#     4  10  21  36  57  83 115 153 195 244 297 351
#     4  10  21  38  58  84 117 155 197 246 299 353
#     4  12  25  42  65  93 124 162 205 254 307 366
#     4  10  21  38  58  84 117 155 197 246 299 353
#     4  12  25  42  65  93 124 162 205 254 307 366
#     4  10  21  36  57  83 115 153 195 244 297 351
#
# _framework density 23.762499999999999
#
# number of rings (size 3 to 8) (size 9 to 14) (size 15 to 20)
#    0.000    1.333    0.000    6.000    0.000    5.333 
#    0.000    0.000    0.000    0.000    0.000    0.000 
#    0.000    0.000    0.000    0.000    0.000    0.000 
#
# Total GULP energy -67254.419134 kJ/mol
# GULP energy per Si atom -5604.534928 kJ/mol
# Density = 2.370842 g / cm^3
# Si number density = 23.762500 Si / 1000 Ang^3
#
#
#
# Elastic Constant Matrix: (Units=GPa)
#
#
# Indices 1 2 3 4 5 6 
#
# 1 205.9582 36.6712 19.3138 0.0000 0.0000 0.0000
# 2 36.6712 69.5564 -26.9221 0.0000 0.0000 0.0000
# 3 19.3138 -26.9221 67.9948 0.0000 0.0000 0.0000
# 4 0.0000 0.0000 0.0000 36.1076 0.0000 0.0000
# 5 0.0000 0.0000 0.0000 0.0000 10.9071 0.0000
# 6 0.0000 0.0000 0.0000 0.0000 0.0000 47.8777
#
#
#
# Elastic Compliance Matrix: (Units=1/GPa)
#
#
# Indices 1 2 3 4 5 6 
#
# 1 0.005984 -0.004502 -0.003482 0.000000 0.000000 0.000000
# 2 -0.004502 0.020367 0.009343 0.000000 0.000000 0.000000
# 3 -0.003482 0.009343 0.019395 0.000000 0.000000 0.000000
# 4 0.000000 0.000000 0.000000 0.027695 0.000000 0.000000
# 5 0.000000 0.000000 0.000000 0.000000 0.091683 0.000000
# 6 0.000000 0.000000 0.000000 0.000000 0.000000 0.020887
#
#
# Mechanical properties :
#
#
# Convention : Reuss Voigt Hill
#
# Bulk Modulus (GPa) = 20.63459 44.62614 32.63037
# Shear Modulus (GPa) = 25.06912 39.94158 32.50535
#
# Velocity S-wave (km/s) = 3.25158 4.10428 3.70256
# Velocity P-wave (km/s) = 4.77489 6.42503 5.66041
#
# Compressibility (1/GPa) = 0.04846231
#
# Stress axis : x y z
#
# Youngs Moduli (GPa) = 167.12377 49.09936 51.55840
#
# Poissons Ratio (x) = 0.22107 0.17954
# Poissons Ratio (y) = 0.75247 -0.48171
# Poissons Ratio (z) = 0.58199 -0.45874
#
# Static dielectric constant tensor:
#      x y z
#    x 1.823920 0.000000 0.000000 
#    y 0.000000 1.830780 0.000000 
#    z 0.000000 0.000000 1.967600 
# 
# From -- ./inp_files/1998.got.cif
#   From: 2010.05.17/outbox.cif.g08.bks.cpg/sg36_1_cif.got.tgz:1998.got - 2010.06.03 17:41:39.
