data_PCOD9352388
_publ_section_title
;
Structure prediction by ZEFSAII (Michael W. Deem and Ramdas Pophale) SiO2 
 PCOD9352388
Probable space group: C M C 21
;
_chemical_formula_sum "Si O2"
_cell_formula_units_Z 48
_cell_length_a 8.562774
_cell_length_b 20.109822
_cell_length_c 11.842260
_cell_angle_alpha 90.000000
_cell_angle_beta 90.000000
_cell_angle_gamma 90.000000
_cell_volume 2039.188156
_symmetry_space_group_name_H-M "C M C 21"
_symmetry_group_IT_number 36
_symmetry_cell_setting 'orthorhombic'
loop_
_space_group_symop_operation_xyz
x,y,z
-x,-y,1/2+z
x,-y,1/2+z
-x,y,z
1/2+x,1/2+y,z
1/2-x,1/2-y,1/2+z
1/2+x,1/2-y,1/2+z
1/2-x,1/2+y,z
loop_
_atom_site_type_symbol
_atom_site_label
_atom_site_fract_x
_atom_site_fract_y
_atom_site_fract_z
Si Si1 0.674395 0.941075 0.886230
Si Si2 0.319655 0.238427 0.631277
Si Si3 0.180074 0.916943 0.417855
Si Si4 0.822450 0.896298 0.100255
Si Si5 0.312399 0.225724 0.880539
Si Si6 0.824385 0.950431 0.671737
O O1 0.500000 0.928813 0.927017
O O2 0.699714 0.922561 0.757506
O O3 0.715595 0.019332 0.889633
O O4 0.797177 0.905426 0.966612
O O5 0.500000 0.258712 0.619972
O O6 0.299432 0.158498 0.638119
O O7 0.265131 0.260509 0.759186
O O8 0.239917 0.252779 0.508378
O O9 0.242793 0.848420 0.372098
O O10 0.182100 0.913866 0.553267
O O11 0.000000 0.928845 0.383713
O O12 0.000000 0.875152 0.124750
O O13 0.799539 0.970833 0.147617
O O14 0.500000 0.225554 0.879952
O O15 0.000000 0.943300 0.718198
#
# Coordination Sequence:
#
# PCOD9352388 Si02
#       6
#     8   8   8   8   8   8
#     4  11  21  33  55  87 122 158 197 246 302 362
#     4  11  25  44  66  93 124 161 208 259 311 370
#     4  10  21  38  60  85 117 158 201 248 303 363
#     4  10  21  38  60  85 117 158 201 247 302 363
#     4  11  25  44  67  94 124 162 208 258 312 370
#     4   9  19  35  56  84 118 157 199 244 300 364
#
# _framework density 23.538779999999999
#
# number of rings (size 3 to 8) (size 9 to 14) (size 15 to 20)
#    0.000    1.667    0.000    5.500    0.000   10.667 
#    0.000    1.667    0.000    0.000    0.000    0.000 
#    0.000    0.000    0.000    0.000    0.000    0.000 
#
# Total GULP energy -133980.820724 kJ/mol
# GULP energy per Si atom -5582.534197 kJ/mol
# Density = 2.348520 g / cm^3
# Si number density = 23.538780 Si / 1000 Ang^3
#
#
#
# Elastic Constant Matrix: (Units=GPa)
#
#
# Indices 1 2 3 4 5 6 
#
# 1 52.4149 -3.9709 28.6283 0.0000 0.0000 0.0000
# 2 -3.9709 46.4538 4.9253 0.0000 0.0000 0.0000
# 3 28.6283 4.9253 171.6612 0.0000 0.0000 0.0000
# 4 0.0000 0.0000 0.0000 2.9489 0.0000 0.0000
# 5 0.0000 0.0000 0.0000 0.0000 30.3912 0.0000
# 6 0.0000 0.0000 0.0000 0.0000 0.0000 27.8761
#
#
#
# Elastic Compliance Matrix: (Units=1/GPa)
#
#
# Indices 1 2 3 4 5 6 
#
# 1 0.021211 0.002195 -0.003600 0.000000 0.000000 0.000000
# 2 0.002195 0.021820 -0.000992 0.000000 0.000000 0.000000
# 3 -0.003600 -0.000992 0.006454 0.000000 0.000000 0.000000
# 4 0.000000 0.000000 0.000000 0.339111 0.000000 0.000000
# 5 0.000000 0.000000 0.000000 0.000000 0.032904 0.000000
# 6 0.000000 0.000000 0.000000 0.000000 0.000000 0.035873
#
#
# Mechanical properties :
#
#
# Convention : Reuss Voigt Hill
#
# Bulk Modulus (GPa) = 22.37639 36.63281 29.50460
# Shear Modulus (GPa) = 10.48075 28.30640 19.39357
#
# Velocity S-wave (km/s) = 2.11239 3.47153 2.87348
# Velocity P-wave (km/s) = 3.93401 5.62719 4.85498
#
# Compressibility (1/GPa) = 0.04468996
#
# Stress axis : x y z
#
# Youngs Moduli (GPa) = 47.14464 45.83043 154.93445
#
# Poissons Ratio (x) = -0.10059 0.55783
# Poissons Ratio (y) = -0.10348 0.15371
# Poissons Ratio (z) = 0.16974 0.04547
#
# Static dielectric constant tensor:
#      x y z
#    x 1.800200 0.000000 0.000000 
#    y 0.000000 1.889930 0.000000 
#    z 0.000000 0.000000 2.008140 
# 
# From -- ./inp_files/6752.got.cif
#   From: 2010.05.17/outbox.cif.g08.bks.cpg/sg36_4_cif.got.tgz:6752.got - 2010.06.03 17:41:39.
