data_PCOD9352517
_publ_section_title
;
Structure prediction by ZEFSAII (Michael W. Deem and Ramdas Pophale) SiO2 
 PCOD9352517
Probable space group: C M C 21
;
_chemical_formula_sum "Si O2"
_cell_formula_units_Z 56
_cell_length_a 14.693476
_cell_length_b 29.814213
_cell_length_c 6.244353
_cell_angle_alpha 90.000000
_cell_angle_beta 90.000000
_cell_angle_gamma 90.000000
_cell_volume 2735.491339
_symmetry_space_group_name_H-M "C M C 21"
_symmetry_group_IT_number 36
_symmetry_cell_setting 'orthorhombic'
loop_
_space_group_symop_operation_xyz
x,y,z
-x,-y,1/2+z
x,-y,1/2+z
-x,y,z
1/2+x,1/2+y,z
1/2-x,1/2-y,1/2+z
1/2+x,1/2-y,1/2+z
1/2-x,1/2+y,z
loop_
_atom_site_type_symbol
_atom_site_label
_atom_site_fract_x
_atom_site_fract_y
_atom_site_fract_z
Si Si1 0.893863 0.254388 0.042430
Si Si2 0.902552 0.829503 0.864546
Si Si3 0.798992 0.553070 0.342601
Si Si4 0.308153 0.612141 0.049404
Si Si5 0.500000 0.019647 0.314624
Si Si6 0.728915 0.694592 0.740848
Si Si7 0.310158 0.461331 0.214200
Si Si8 0.500000 0.518372 0.539034
O O1 0.901969 0.213194 0.208499
O O2 0.828935 0.289824 0.165834
O O3 0.000000 0.266990 0.988655
O O4 0.832469 0.235161 0.844241
O O5 0.885580 0.871351 0.710342
O O6 0.000000 0.833128 0.976931
O O7 0.823959 0.823291 0.034244
O O8 0.772994 0.593269 0.190263
O O9 0.768821 0.563610 0.583105
O O10 0.739023 0.508183 0.280668
O O11 0.903847 0.543782 0.322167
O O12 0.275680 0.654302 0.910749
O O13 0.338698 0.569521 0.911636
O O14 0.500000 0.998203 0.561908
O O15 0.399067 0.461771 0.065084
O O16 0.500000 0.504769 0.284195
#
# Coordination Sequence:
#
# PCOD9352517 Si02
#       8
#     8   8   8   8   4   8   8   4
#     4  10  21  39  72 103 130 176 224 271 351 435
#     4  10  22  42  68 100 135 178 227 277 348 433
#     4  12  23  45  68  95 129 180 235 298 352 426
#     4  11  25  42  65  96 141 175 229 295 354 411
#     4  12  24  42  76 102 126 178 250 305 366 427
#     4  11  21  43  68  99 141 177 225 292 347 434
#     4  12  23  43  66  90 136 177 232 286 350 422
#     4  12  24  40  66 100 130 180 232 289 354 425
#
# _framework density 20.471641999999999
#
# number of rings (size 3 to 8) (size 9 to 14) (size 15 to 20)
#    0.000    0.857    5.714    1.286    1.000    0.571 
#    6.429    0.000    4.714    0.000    0.000    0.000 
#    0.000    0.000    0.000    0.000    0.000    0.000 
#
# Total GULP energy -155908.083061 kJ/mol
# GULP energy per Si atom -5568.145824 kJ/mol
# Density = 2.042505 g / cm^3
# Si number density = 20.471642 Si / 1000 Ang^3
#
#
#
# Elastic Constant Matrix: (Units=GPa)
#
#
# Indices 1 2 3 4 5 6 
#
# 1 125.7720 37.0474 2.8845 0.0000 0.0000 0.0000
# 2 37.0474 49.6845 17.6372 0.0000 0.0000 0.0000
# 3 2.8845 17.6372 74.6337 0.0000 0.0000 0.0000
# 4 0.0000 0.0000 0.0000 34.4367 0.0000 0.0000
# 5 0.0000 0.0000 0.0000 0.0000 -153.4123 0.0000
# 6 0.0000 0.0000 0.0000 0.0000 0.0000 15.0842
#
#
#
# Elastic Compliance Matrix: (Units=1/GPa)
#
#
# Indices 1 2 3 4 5 6 
#
# 1 0.010351 -0.008270 0.001554 0.000000 0.000000 0.000000
# 2 -0.008270 0.028578 -0.006434 0.000000 0.000000 0.000000
# 3 0.001554 -0.006434 0.014859 0.000000 0.000000 0.000000
# 4 0.000000 0.000000 0.000000 0.029039 0.000000 0.000000
# 5 0.000000 0.000000 0.000000 0.000000 -0.006518 0.000000
# 6 0.000000 0.000000 0.000000 0.000000 0.000000 0.066295
#
#
# Mechanical properties :
#
#
# Convention : Reuss Voigt Hill
#
# Bulk Modulus (GPa) = 36.37855 40.58094 38.47975
# Shear Modulus (GPa) = 28.07956 -7.94355 10.06801
#
# Velocity S-wave (km/s) = 3.70757 -1.97198 2.22007
# Velocity P-wave (km/s) = 6.01140 3.83159 5.04074
#
# Compressibility (1/GPa) = 0.02748872
#
# Stress axis : x y z
#
# Youngs Moduli (GPa) = 96.60588 34.99241 67.29879
#
# Poissons Ratio (x) = 0.28940 -0.10460
# Poissons Ratio (y) = 0.79896 0.43298
# Poissons Ratio (z) = -0.15016 0.22513
#
# Static dielectric constant tensor:
#      x y z
#    x 2.122390 0.000000 0.000000 
#    y 0.000000 1.766850 0.000000 
#    z 0.000000 0.000000 1.878900 
# 
# From -- ./inp_files/961.got.cif
#   From: 2010.05.17/outbox.cif.g08.bks.cpg/sg36_1_cif.got.tgz:961.got - 2010.06.03 17:41:39.
