data_PCOD9352587
_publ_section_title
;
Structure prediction by ZEFSAII (Michael W. Deem and Ramdas Pophale) SiO2 
 PCOD9352587
Probable space group: C M C 21
;
_chemical_formula_sum "Si O2"
_cell_formula_units_Z 64
_cell_length_a 7.904784
_cell_length_b 31.780893
_cell_length_c 12.165538
_cell_angle_alpha 90.000000
_cell_angle_beta 90.000000
_cell_angle_gamma 90.000000
_cell_volume 3056.239771
_symmetry_space_group_name_H-M "C M C 21"
_symmetry_group_IT_number 36
_symmetry_cell_setting 'orthorhombic'
loop_
_space_group_symop_operation_xyz
x,y,z
-x,-y,1/2+z
x,-y,1/2+z
-x,y,z
1/2+x,1/2+y,z
1/2-x,1/2-y,1/2+z
1/2+x,1/2-y,1/2+z
1/2-x,1/2+y,z
loop_
_atom_site_type_symbol
_atom_site_label
_atom_site_fract_x
_atom_site_fract_y
_atom_site_fract_z
Si Si1 0.199408 0.835517 0.935840
Si Si2 0.199481 0.946792 0.184740
Si Si3 0.197422 0.959705 0.713204
Si Si4 0.205390 0.792493 0.715747
Si Si5 0.199663 0.876375 0.594039
Si Si6 0.801490 0.627886 0.843935
Si Si7 0.794385 0.698265 0.673732
Si Si8 0.693519 0.072523 0.440406
O O1 0.244194 0.801825 0.842908
O O2 0.297822 0.878250 0.912763
O O3 0.000000 0.845026 0.924375
O O4 0.236437 0.820174 0.057801
O O5 0.279214 0.913383 0.268315
O O6 0.000000 0.947665 0.210922
O O7 0.271158 0.994142 0.191661
O O8 0.224875 0.932330 0.059712
O O9 0.271191 0.919202 0.648924
O O10 0.212317 0.951102 0.842673
O O11 0.000000 0.962336 0.680527
O O12 0.267334 0.832550 0.644921
O O13 0.266308 0.746244 0.683786
O O14 0.000000 0.791246 0.704645
O O15 0.218882 0.876883 0.463036
O O16 0.000000 0.876422 0.622241
O O17 0.736843 0.667577 0.772303
O O18 0.000000 0.634474 0.863794
O O19 0.000000 0.697632 0.675308
O O20 0.500000 0.058171 0.444990
#
# Coordination Sequence:
#
# PCOD9352587 Si02
#       8
#     8   8   8   8   8   8   8   8
#     4  11  21  39  66  90 117 161 210 253 299 362
#     4  11  24  42  66  91 120 162 211 253 296 361
#     4  10  23  43  66  91 119 159 208 254 299 360
#     4   9  20  39  63  88 119 159 202 252 305 359
#     4  10  21  41  64  87 119 161 207 251 301 364
#     4  11  24  40  59  88 129 164 198 250 309 364
#     4  10  22  40  60  88 125 161 198 252 311 359
#     4  12  24  40  64  93 126 159 198 257 314 363
#
# _framework density 20.940764000000001
#
# number of rings (size 3 to 8) (size 9 to 14) (size 15 to 20)
#    0.000    1.500    2.500    2.250    3.500    2.000 
#    0.000    1.250    0.000    0.000    0.000    0.000 
#    0.000    0.000    0.000    0.000    0.000    0.000 
#
# Total GULP energy -178776.062468 kJ/mol
# GULP energy per Si atom -5586.751952 kJ/mol
# Density = 2.089310 g / cm^3
# Si number density = 20.940764 Si / 1000 Ang^3
#
#
#
# Elastic Constant Matrix: (Units=GPa)
#
#
# Indices 1 2 3 4 5 6 
#
# 1 23.4875 4.1166 -12.3463 0.0000 0.0000 0.0000
# 2 4.1166 130.5845 24.7992 0.0000 0.0000 0.0000
# 3 -12.3463 24.7992 84.6543 0.0000 0.0000 0.0000
# 4 0.0000 0.0000 0.0000 19.4740 0.0000 0.0000
# 5 0.0000 0.0000 0.0000 0.0000 -25.7287 0.0000
# 6 0.0000 0.0000 0.0000 0.0000 0.0000 -4.7196
#
#
#
# Elastic Compliance Matrix: (Units=1/GPa)
#
#
# Indices 1 2 3 4 5 6 
#
# 1 0.047166 -0.002958 0.007745 0.000000 0.000000 0.000000
# 2 -0.002958 0.008294 -0.002861 0.000000 0.000000 0.000000
# 3 0.007745 -0.002861 0.013781 0.000000 0.000000 0.000000
# 4 0.000000 0.000000 0.000000 0.051351 0.000000 0.000000
# 5 0.000000 0.000000 0.000000 0.000000 -0.038867 0.000000
# 6 0.000000 0.000000 0.000000 0.000000 0.000000 -0.211881
#
#
# Mechanical properties :
#
#
# Convention : Reuss Voigt Hill
#
# Bulk Modulus (GPa) = 13.68116 30.20725 21.94420
# Shear Modulus (GPa) = -45.60165 12.61559 -16.49303
#
# Velocity S-wave (km/s) = -4.67159 2.45713 -2.80947
# Velocity P-wave (km/s) = 4.74878 4.74409 0.14918
#
# Compressibility (1/GPa) = 0.07309321
#
# Stress axis : x y z
#
# Youngs Moduli (GPa) = 21.20189 120.56197 72.56614
#
# Poissons Ratio (x) = 0.35659 -0.56204
# Poissons Ratio (y) = 0.06271 0.20763
# Poissons Ratio (z) = -0.16421 0.34495
#
# Static dielectric constant tensor:
#      x y z
#    x 1.776810 0.000000 0.000000 
#    y 0.000000 1.758770 0.000000 
#    z 0.000000 0.000000 1.693170 
# 
# From -- ./inp_files/7172.got.cif
#   From: 2010.05.17/outbox.cif.g08.bks.cpg/sg36_4_cif.got.tgz:7172.got - 2010.06.03 17:41:39.
