data_PCOD9352259
_publ_section_title
;
Structure prediction by ZEFSAII (Michael W. Deem and Ramdas Pophale) SiO2 
 PCOD9352259
Probable space group: C M C 21
;
_chemical_formula_sum "Si O2"
_cell_formula_units_Z 48
_cell_length_a 8.448512
_cell_length_b 24.559180
_cell_length_c 12.309074
_cell_angle_alpha 90.000000
_cell_angle_beta 90.000000
_cell_angle_gamma 90.000000
_cell_volume 2553.991632
_symmetry_space_group_name_H-M "C M C 21"
_symmetry_group_IT_number 36
_symmetry_cell_setting 'orthorhombic'
loop_
_space_group_symop_operation_xyz
x,y,z
-x,-y,1/2+z
x,-y,1/2+z
-x,y,z
1/2+x,1/2+y,z
1/2-x,1/2-y,1/2+z
1/2+x,1/2-y,1/2+z
1/2-x,1/2+y,z
loop_
_atom_site_type_symbol
_atom_site_label
_atom_site_fract_x
_atom_site_fract_y
_atom_site_fract_z
Si Si1 0.810432 0.289644 0.440570
Si Si2 0.307373 0.859103 0.235368
Si Si3 0.811884 0.890790 0.575200
Si Si4 0.691602 0.960777 0.378185
Si Si5 0.691764 0.082271 0.314772
Si Si6 0.308782 0.830246 0.993975
O O1 0.758104 0.313755 0.323561
O O2 0.757325 0.334198 0.529002
O O3 0.743256 0.230477 0.464787
O O4 0.000000 0.287257 0.440339
O O5 0.500000 0.858806 0.233188
O O6 0.260103 0.917442 0.285184
O O7 0.251420 0.847010 0.114172
O O8 0.755404 0.937390 0.491405
O O9 0.752693 0.903159 0.695704
O O10 0.000000 0.887454 0.573528
O O11 0.500000 0.959911 0.384219
O O12 0.742422 0.021729 0.350391
O O13 0.500000 0.082458 0.312018
O O14 0.744529 0.126746 0.403126
O O15 0.500000 0.831773 0.995995
#
# Coordination Sequence:
#
# PCOD9352259 Si02
#       6
#     8   8   8   8   8   8
#     4  10  21  39  60  83 113 154 197 238 292 355
#     4   8  17  35  58  82 111 146 186 233 290 346
#     4  11  23  39  60  85 120 158 195 242 294 347
#     4   9  19  38  64  88 114 152 197 241 290 350
#     4  10  22  37  61  91 120 153 196 242 287 350
#     4  10  21  36  57  89 118 147 189 242 295 346
#
# _framework density 18.794111000000001
#
# number of rings (size 3 to 8) (size 9 to 14) (size 15 to 20)
#    0.000    2.333    0.000    3.000    4.667    1.333 
#    0.000    3.333    0.000    0.000    0.000    0.000 
#    0.000    0.000    0.000    0.000    0.000    0.000 
#
# Total GULP energy -134001.576599 kJ/mol
# GULP energy per Si atom -5583.399025 kJ/mol
# Density = 1.875133 g / cm^3
# Si number density = 18.794111 Si / 1000 Ang^3
#
#
#
# Elastic Constant Matrix: (Units=GPa)
#
#
# Indices 1 2 3 4 5 6 
#
# 1 16.4950 17.6329 24.8234 0.0000 0.0000 0.0000
# 2 17.6329 168.3697 126.8766 0.0000 0.0000 0.0000
# 3 24.8234 126.8766 201.4432 0.0000 0.0000 0.0000
# 4 0.0000 0.0000 0.0000 13.1453 0.0000 0.0000
# 5 0.0000 0.0000 0.0000 0.0000 10.3125 0.0000
# 6 0.0000 0.0000 0.0000 0.0000 0.0000 27.1980
#
#
#
# Elastic Compliance Matrix: (Units=1/GPa)
#
#
# Indices 1 2 3 4 5 6 
#
# 1 0.074677 -0.001687 -0.008140 0.000000 0.000000 0.000000
# 2 -0.001687 0.011343 -0.006936 0.000000 0.000000 0.000000
# 3 -0.008140 -0.006936 0.010336 0.000000 0.000000 0.000000
# 4 0.000000 0.000000 0.000000 0.076073 0.000000 0.000000
# 5 0.000000 0.000000 0.000000 0.000000 0.096970 0.000000
# 6 0.000000 0.000000 0.000000 0.000000 0.000000 0.036767
#
#
# Mechanical properties :
#
#
# Convention : Reuss Voigt Hill
#
# Bulk Modulus (GPa) = 15.91597 80.55262 48.23429
# Shear Modulus (GPa) = 13.86442 24.59617 19.23030
#
# Velocity S-wave (km/s) = 2.71901 3.62154 3.20223
# Velocity P-wave (km/s) = 4.28303 7.77438 6.27636
#
# Compressibility (1/GPa) = 0.06282996
#
# Stress axis : x y z
#
# Youngs Moduli (GPa) = 13.39098 88.16079 96.74929
#
# Poissons Ratio (x) = 0.14872 0.78752
# Poissons Ratio (y) = 0.02259 0.67108
# Poissons Ratio (z) = 0.10900 0.61151
#
# Static dielectric constant tensor:
#      x y z
#    x 1.644170 0.000000 0.000000 
#    y 0.000000 1.626480 0.000000 
#    z 0.000000 0.000000 1.630990 
# 
# From -- ./inp_files/6705.got.cif
#   From: 2010.05.17/outbox.cif.g08.bks.cpg/sg36_4_cif.got.tgz:6705.got - 2010.06.03 17:41:39.
