data_PCOD9352790
_publ_section_title
;
Structure prediction by ZEFSAII (Michael W. Deem and Ramdas Pophale) SiO2 
 PCOD9352790
Probable space group: C M C 21
;
_chemical_formula_sum "Si O2"
_cell_formula_units_Z 52
_cell_length_a 7.624604
_cell_length_b 14.799521
_cell_length_c 17.704213
_cell_angle_alpha 90.000000
_cell_angle_beta 90.000000
_cell_angle_gamma 90.000000
_cell_volume 1997.752017
_symmetry_space_group_name_H-M "C M C 21"
_symmetry_group_IT_number 36
_symmetry_cell_setting 'orthorhombic'
loop_
_space_group_symop_operation_xyz
x,y,z
-x,-y,1/2+z
x,-y,1/2+z
-x,y,z
1/2+x,1/2+y,z
1/2-x,1/2-y,1/2+z
1/2+x,1/2-y,1/2+z
1/2-x,1/2+y,z
loop_
_atom_site_type_symbol
_atom_site_label
_atom_site_fract_x
_atom_site_fract_y
_atom_site_fract_z
Si Si1 0.000000 0.684955 0.801940
Si Si2 0.297855 0.393201 0.412234
Si Si3 0.206983 0.985293 0.704629
Si Si4 0.797874 0.854133 0.116481
Si Si5 0.198859 0.319510 0.800916
Si Si6 0.797874 0.409918 0.949056
Si Si7 0.207377 0.838729 0.578148
O O1 0.842050 0.629722 0.848163
O O2 0.847579 0.755490 0.769292
O O3 0.500000 0.364653 0.396331
O O4 0.305061 0.499851 0.429864
O O5 0.235130 0.350669 0.492022
O O6 0.290873 0.920726 0.766737
O O7 0.232204 0.928721 0.626990
O O8 0.000000 0.990258 0.724561
O O9 0.281852 0.084268 0.683612
O O10 0.792061 0.746727 0.118399
O O11 0.000000 0.882881 0.114425
O O12 0.721229 0.880001 0.035095
O O13 0.246205 0.331049 0.889821
O O14 0.000000 0.287874 0.789945
O O15 0.000000 0.431208 0.934869
O O16 0.000000 0.820973 0.575674
#
# Coordination Sequence:
#
# PCOD9352790 Si02
#       7
#     4   8   8   8   8   8   8
#     4  12  24  44  68  98 136 178 228 290 344 414
#     4  11  23  41  68 104 138 177 230 293 356 414
#     4  10  22  46  67  93 140 187 231 288 353 415
#     4  11  23  39  69 102 134 181 231 287 353 419
#     4  11  26  45  69  99 139 189 237 285 350 425
#     4  11  23  42  66 101 138 182 236 292 351 414
#     4  10  22  41  65 100 138 174 230 293 345 420
#
# _framework density 26.029257000000001
#
# number of rings (size 3 to 8) (size 9 to 14) (size 15 to 20)
#    0.000    1.231    3.077    2.308    5.385    4.308 
#    2.769    0.000    0.000    0.000    0.000    0.000 
#    0.000    0.000    0.000    0.000    0.000    0.000 
#
# Total GULP energy -145199.776475 kJ/mol
# GULP energy per Si atom -5584.606787 kJ/mol
# Density = 2.597001 g / cm^3
# Si number density = 26.029257 Si / 1000 Ang^3
#
#
#
# Elastic Constant Matrix: (Units=GPa)
#
#
# Indices 1 2 3 4 5 6 
#
# 1 95.8616 30.5868 21.0592 0.0000 0.0000 0.0000
# 2 30.5868 102.3772 4.6820 0.0000 0.0000 0.0000
# 3 21.0592 4.6820 105.2177 0.0000 0.0000 0.0000
# 4 0.0000 0.0000 0.0000 46.9212 0.0000 0.0000
# 5 0.0000 0.0000 0.0000 0.0000 8.2297 0.0000
# 6 0.0000 0.0000 0.0000 0.0000 0.0000 -33.1818
#
#
#
# Elastic Compliance Matrix: (Units=1/GPa)
#
#
# Indices 1 2 3 4 5 6 
#
# 1 0.012042 -0.003495 -0.002255 0.000000 0.000000 0.000000
# 2 -0.003495 0.010802 0.000219 0.000000 0.000000 0.000000
# 3 -0.002255 0.000219 0.009946 0.000000 0.000000 0.000000
# 4 0.000000 0.000000 0.000000 0.021312 0.000000 0.000000
# 5 0.000000 0.000000 0.000000 0.000000 0.121511 0.000000
# 6 0.000000 0.000000 0.000000 0.000000 0.000000 -0.030137
#
#
# Mechanical properties :
#
#
# Convention : Reuss Voigt Hill
#
# Bulk Modulus (GPa) = 46.02256 46.23471 46.12863
# Shear Modulus (GPa) = 30.52869 20.86905 25.69887
#
# Velocity S-wave (km/s) = 3.42842 2.83460 3.14555
# Velocity P-wave (km/s) = 5.77854 5.33989 5.56354
#
# Compressibility (1/GPa) = 0.02172848
#
# Stress axis : x y z
#
# Youngs Moduli (GPa) = 83.04214 92.57650 100.54651
#
# Poissons Ratio (x) = 0.32352 0.22670
# Poissons Ratio (y) = 0.29020 -0.02200
# Poissons Ratio (z) = 0.18724 -0.02025
#
# Static dielectric constant tensor:
#      x y z
#    x 1.944210 0.000000 0.000000 
#    y 0.000000 2.086830 0.000000 
#    z 0.000000 0.000000 2.090830 
# 
# From -- ./inp_files/15441.got.cif
#   From: 2010.05.17/outbox.cif.g08.bks.cpg/sg36_8_cif.got.tgz:15441.got - 2010.06.03 17:41:39.
