data_PCOD9352736
_publ_section_title
;
Structure prediction by ZEFSAII (Michael W. Deem and Ramdas Pophale) SiO2 
 PCOD9352736
Probable space group: C M C 21
;
_chemical_formula_sum "Si O2"
_cell_formula_units_Z 48
_cell_length_a 16.032312
_cell_length_b 10.837409
_cell_length_c 11.651147
_cell_angle_alpha 90.000000
_cell_angle_beta 90.000000
_cell_angle_gamma 90.000000
_cell_volume 2024.371905
_symmetry_space_group_name_H-M "C M C 21"
_symmetry_group_IT_number 36
_symmetry_cell_setting 'orthorhombic'
loop_
_space_group_symop_operation_xyz
x,y,z
-x,-y,1/2+z
x,-y,1/2+z
-x,y,z
1/2+x,1/2+y,z
1/2-x,1/2-y,1/2+z
1/2+x,1/2-y,1/2+z
1/2-x,1/2+y,z
loop_
_atom_site_type_symbol
_atom_site_label
_atom_site_fract_x
_atom_site_fract_y
_atom_site_fract_z
Si Si1 0.500000 0.605005 0.372241
Si Si2 0.000000 0.536624 0.474327
Si Si3 0.500000 0.222708 0.665858
Si Si4 0.000000 0.707743 0.069614
Si Si5 0.821748 0.464480 0.888700
Si Si6 0.827774 0.712795 0.607927
Si Si7 0.353306 0.414490 0.430889
Si Si8 0.156593 0.741775 0.223885
O O1 0.500000 0.647932 0.238446
O O2 0.500000 0.731743 0.444450
O O3 0.418366 0.525958 0.411037
O O4 0.000000 0.675625 0.527653
O O5 0.917711 0.500028 0.405726
O O6 0.000000 0.440187 0.578116
O O7 0.405972 0.175417 0.687183
O O8 0.915733 0.748064 0.131494
O O9 0.743063 0.552147 0.904544
O O10 0.819540 0.393928 0.768489
O O11 0.812916 0.370875 0.996693
O O12 0.852550 0.847521 0.554876
O O13 0.742630 0.708085 0.675747
O O14 0.376448 0.314943 0.334076
#
# Coordination Sequence:
#
# PCOD9352736 Si02
#       8
#     4   4   4   4   8   8   8   8
#     4  12  26  41  64  97 128 163 212 262 318 382
#     4  10  23  43  66  89 126 165 205 264 312 364
#     4  10  23  42  65  94 125 166 211 256 312 376
#     4  12  26  42  63  92 123 162 212 260 314 382
#     4  10  22  40  63  91 122 163 209 255 311 373
#     4  10  22  41  63  92 128 166 210 254 311 380
#     4  11  24  42  64  93 130 165 205 266 316 366
#     4  11  24  41  63  91 125 166 211 255 312 382
#
# _framework density 23.711058999999999
#
# number of rings (size 3 to 8) (size 9 to 14) (size 15 to 20)
#    0.000    1.333    0.000    4.500    0.000   17.333 
#    0.000    0.000    0.000    0.000    0.000    0.000 
#    0.000    0.000    0.000    0.000    0.000    0.000 
#
# Total GULP energy -133865.782270 kJ/mol
# GULP energy per Si atom -5577.740928 kJ/mol
# Density = 2.365709 g / cm^3
# Si number density = 23.711059 Si / 1000 Ang^3
#
#
#
# Elastic Constant Matrix: (Units=GPa)
#
#
# Indices 1 2 3 4 5 6 
#
# 1 160.1073 9.6244 35.3052 0.0000 0.0000 0.0000
# 2 9.6244 63.4638 27.5868 0.0000 0.0000 0.0000
# 3 35.3052 27.5868 72.6248 0.0000 0.0000 0.0000
# 4 0.0000 0.0000 0.0000 33.6337 0.0000 0.0000
# 5 0.0000 0.0000 0.0000 0.0000 -35.5382 0.0000
# 6 0.0000 0.0000 0.0000 0.0000 0.0000 47.5093
#
#
#
# Elastic Compliance Matrix: (Units=1/GPa)
#
#
# Indices 1 2 3 4 5 6 
#
# 1 0.007009 0.000501 -0.003598 0.000000 0.000000 0.000000
# 2 0.000501 0.018909 -0.007426 0.000000 0.000000 0.000000
# 3 -0.003598 -0.007426 0.018339 0.000000 0.000000 0.000000
# 4 0.000000 0.000000 0.000000 0.029732 0.000000 0.000000
# 5 0.000000 0.000000 0.000000 0.000000 -0.028139 0.000000
# 6 0.000000 0.000000 0.000000 0.000000 0.000000 0.021048
#
#
# Mechanical properties :
#
#
# Convention : Reuss Voigt Hill
#
# Bulk Modulus (GPa) = 43.08204 49.02540 46.05372
# Shear Modulus (GPa) = 52.25643 24.03294 38.14469
#
# Velocity S-wave (km/s) = 4.69965 3.18712 4.01525
# Velocity P-wave (km/s) = 6.90347 5.85361 6.40011
#
# Compressibility (1/GPa) = 0.02321153
#
# Stress axis : x y z
#
# Youngs Moduli (GPa) = 142.67378 52.88453 54.52813
#
# Poissons Ratio (x) = -0.02649 0.19617
# Poissons Ratio (y) = -0.07146 0.40494
# Poissons Ratio (z) = 0.51328 0.39273
#
# Static dielectric constant tensor:
#      x y z
#    x 1.963640 0.000000 0.000000 
#    y 0.000000 1.972210 0.000000 
#    z 0.000000 0.000000 1.911760 
# 
# From -- ./inp_files/8908.got.cif
#   From: 2010.05.17/outbox.cif.g08.bks.cpg/sg36_5_cif.got.tgz:8908.got - 2010.06.03 17:41:39.
