data_PCOD9352084
_publ_section_title
;
Structure prediction by ZEFSAII (Michael W. Deem and Ramdas Pophale) SiO2 
 PCOD9352084
Probable space group: C M C 21
;
_chemical_formula_sum "Si O2"
_cell_formula_units_Z 48
_cell_length_a 8.724784
_cell_length_b 20.609944
_cell_length_c 14.311462
_cell_angle_alpha 90.000000
_cell_angle_beta 90.000000
_cell_angle_gamma 90.000000
_cell_volume 2573.448594
_symmetry_space_group_name_H-M "C M C 21"
_symmetry_group_IT_number 36
_symmetry_cell_setting 'orthorhombic'
loop_
_space_group_symop_operation_xyz
x,y,z
-x,-y,1/2+z
x,-y,1/2+z
-x,y,z
1/2+x,1/2+y,z
1/2-x,1/2-y,1/2+z
1/2+x,1/2-y,1/2+z
1/2-x,1/2+y,z
loop_
_atom_site_type_symbol
_atom_site_label
_atom_site_fract_x
_atom_site_fract_y
_atom_site_fract_z
Si Si1 0.684311 0.323494 0.137210
Si Si2 0.313535 0.189773 0.235572
Si Si3 0.321801 0.057756 0.753658
Si Si4 0.315881 0.858433 0.938989
Si Si5 0.179089 0.434244 0.618166
Si Si6 0.180097 0.996973 0.437571
O O1 0.500000 0.326748 0.136258
O O2 0.732418 0.258352 0.191911
O O3 0.750978 0.385085 0.192116
O O4 0.744589 0.326347 0.031203
O O5 0.500000 0.188062 0.237011
O O6 0.264926 0.175183 0.341948
O O7 0.264918 0.131118 0.167955
O O8 0.500000 0.071493 0.774050
O O9 0.230708 0.044470 0.848197
O O10 0.315213 0.991725 0.693842
O O11 0.500000 0.855206 0.944969
O O12 0.267430 0.934033 0.936865
O O13 0.274085 0.457418 0.529625
O O14 0.000000 0.426009 0.590803
O O15 0.000000 0.010183 0.435936
#
# Coordination Sequence:
#
# PCOD9352084 Si02
#       6
#     8   8   8   8   8   8
#     4  11  23  40  62  93 128 158 199 258 313 359
#     4   9  21  41  64  88 121 162 205 254 302 362
#     4  11  22  39  64  89 120 163 207 246 297 369
#     4  11  21  40  64  87 119 166 211 246 305 378
#     4  10  20  39  64  88 118 160 208 248 297 366
#     4  12  24  37  60  95 128 157 202 264 312 352
#
# _framework density 18.652014000000001
#
# number of rings (size 3 to 8) (size 9 to 14) (size 15 to 20)
#    0.000    1.333    3.333    3.000    0.000    2.000 
#    0.000    8.333    0.000    0.000    0.000    0.000 
#    0.000    0.000    0.000    0.000    0.000    0.000 
#
# Total GULP energy -134127.975102 kJ/mol
# GULP energy per Si atom -5588.665629 kJ/mol
# Density = 1.860956 g / cm^3
# Si number density = 18.652014 Si / 1000 Ang^3
#
#
#
# Elastic Constant Matrix: (Units=GPa)
#
#
# Indices 1 2 3 4 5 6 
#
# 1 52.1107 4.7961 4.2709 0.0000 0.0000 0.0000
# 2 4.7961 78.6095 8.8805 0.0000 0.0000 0.0000
# 3 4.2709 8.8805 87.1418 0.0000 0.0000 0.0000
# 4 0.0000 0.0000 0.0000 28.0687 0.0000 0.0000
# 5 0.0000 0.0000 0.0000 0.0000 24.7867 0.0000
# 6 0.0000 0.0000 0.0000 0.0000 0.0000 16.2371
#
#
#
# Elastic Compliance Matrix: (Units=1/GPa)
#
#
# Indices 1 2 3 4 5 6 
#
# 1 0.019359 -0.001086 -0.000838 0.000000 0.000000 0.000000
# 2 -0.001086 0.012930 -0.001264 0.000000 0.000000 0.000000
# 3 -0.000838 -0.001264 0.011645 0.000000 0.000000 0.000000
# 4 0.000000 0.000000 0.000000 0.035627 0.000000 0.000000
# 5 0.000000 0.000000 0.000000 0.000000 0.040344 0.000000
# 6 0.000000 0.000000 0.000000 0.000000 0.000000 0.061588
#
#
# Mechanical properties :
#
#
# Convention : Reuss Voigt Hill
#
# Bulk Modulus (GPa) = 26.62660 28.19522 27.41091
# Shear Modulus (GPa) = 24.95140 27.14613 26.04877
#
# Velocity S-wave (km/s) = 3.66147 3.81911 3.74112
# Velocity P-wave (km/s) = 5.67288 5.88190 5.77834
#
# Compressibility (1/GPa) = 0.03755643
#
# Stress axis : x y z
#
# Youngs Moduli (GPa) = 51.65666 77.33810 85.87025
#
# Poissons Ratio (x) = 0.08402 0.07196
# Poissons Ratio (y) = 0.05612 0.10858
# Poissons Ratio (z) = 0.04329 0.09779
#
# Static dielectric constant tensor:
#      x y z
#    x 1.634350 0.000000 0.000000 
#    y 0.000000 1.616300 0.000000 
#    z 0.000000 0.000000 1.632680 
# 
# From -- ./inp_files/6759.got.cif
#   From: 2010.05.17/outbox.cif.g08.bks.cpg/sg36_4_cif.got.tgz:6759.got - 2010.06.03 17:41:39.
