data_PCOD9352564
_publ_section_title
;
Structure prediction by ZEFSAII (Michael W. Deem and Ramdas Pophale) SiO2 
 PCOD9352564
Probable space group: C M C 21
;
_chemical_formula_sum "Si O2"
_cell_formula_units_Z 32
_cell_length_a 21.799063
_cell_length_b 5.545782
_cell_length_c 9.689288
_cell_angle_alpha 90.000000
_cell_angle_beta 90.000000
_cell_angle_gamma 90.000000
_cell_volume 1171.365652
_symmetry_space_group_name_H-M "C M C 21"
_symmetry_group_IT_number 36
_symmetry_cell_setting 'orthorhombic'
loop_
_space_group_symop_operation_xyz
x,y,z
-x,-y,1/2+z
x,-y,1/2+z
-x,y,z
1/2+x,1/2+y,z
1/2-x,1/2-y,1/2+z
1/2+x,1/2-y,1/2+z
1/2-x,1/2+y,z
loop_
_atom_site_type_symbol
_atom_site_label
_atom_site_fract_x
_atom_site_fract_y
_atom_site_fract_z
Si Si1 0.365769 0.784289 0.870730
Si Si2 0.713406 0.496373 0.554372
Si Si3 0.500000 0.242603 0.870604
Si Si4 0.622858 0.203472 0.689490
Si Si5 0.000000 0.238371 0.894038
O O1 0.321250 0.565123 0.911801
O O2 0.434634 0.732161 0.817077
O O3 0.340822 0.004570 0.780075
O O4 0.379180 0.883016 0.029368
O O5 0.743382 0.757267 0.566347
O O6 0.658155 0.453972 0.661314
O O7 0.559091 0.234767 0.769893
O O8 0.500000 0.479206 0.966000
O O9 0.500000 0.001069 0.959732
#
# Coordination Sequence:
#
# PCOD9352564 Si02
#       5
#     8   8   4   8   4
#     4   9  21  42  67  98 133 172 222 274 335 391
#     4  10  24  41  64  93 132 178 226 270 324 388
#     4  10  21  40  66  96 126 162 208 266 330 390
#     4   9  21  42  67  98 133 172 222 274 335 391
#     4  10  21  40  66  96 126 162 208 266 330 390
#
# _framework density 27.318541
#
# number of rings (size 3 to 8) (size 9 to 14) (size 15 to 20)
#    1.500    1.000    0.000    0.750    0.000   10.000 
#    0.000   10.000    0.000    0.000    0.000    0.000 
#    0.000    0.000    0.000    0.000    0.000    0.000 
#
# Total GULP energy -89071.701240 kJ/mol
# GULP energy per Si atom -5566.981327 kJ/mol
# Density = 2.725636 g / cm^3
# Si number density = 27.318541 Si / 1000 Ang^3
#
#
#
# Elastic Constant Matrix: (Units=GPa)
#
#
# Indices 1 2 3 4 5 6 
#
# 1 134.5427 14.8911 1.9684 0.0000 0.0000 0.0000
# 2 14.8911 154.7072 4.5896 0.0000 0.0000 0.0000
# 3 1.9684 4.5896 111.9234 0.0000 0.0000 0.0000
# 4 0.0000 0.0000 0.0000 39.3958 0.0000 0.0000
# 5 0.0000 0.0000 0.0000 0.0000 14.2448 0.0000
# 6 0.0000 0.0000 0.0000 0.0000 0.0000 -38.7806
#
#
#
# Elastic Compliance Matrix: (Units=1/GPa)
#
#
# Indices 1 2 3 4 5 6 
#
# 1 0.007514 -0.000720 -0.000103 0.000000 0.000000 0.000000
# 2 -0.000720 0.006541 -0.000256 0.000000 0.000000 0.000000
# 3 -0.000103 -0.000256 0.008947 0.000000 0.000000 0.000000
# 4 0.000000 0.000000 0.000000 0.025383 0.000000 0.000000
# 5 0.000000 0.000000 0.000000 0.000000 0.070201 0.000000
# 6 0.000000 0.000000 0.000000 0.000000 0.000000 -0.025786
#
#
# Mechanical properties :
#
#
# Convention : Reuss Voigt Hill
#
# Bulk Modulus (GPa) = 47.97360 49.34128 48.65744
# Shear Modulus (GPa) = 49.06537 28.28694 38.67616
#
# Velocity S-wave (km/s) = 4.24258 3.22133 3.76672
# Velocity P-wave (km/s) = 6.44967 5.65125 6.06361
#
# Compressibility (1/GPa) = 0.02084480
#
# Stress axis : x y z
#
# Youngs Moduli (GPa) = 133.08849 152.88828 111.76972
#
# Poissons Ratio (x) = 0.11011 0.01147
# Poissons Ratio (y) = 0.09585 0.02856
# Poissons Ratio (z) = 0.01366 0.03907
#
# Static dielectric constant tensor:
#      x y z
#    x 2.266690 0.000000 0.000000 
#    y 0.000000 2.233010 0.000000 
#    z 0.000000 0.000000 2.197800 
# 
# From -- ./inp_files/9363.got.cif
#   From: 2010.05.17/outbox.cif.g08.bks.cpg/sg36_5_cif.got.tgz:9363.got - 2010.06.03 17:41:39.
