data_PCOD9352868
_publ_section_title
;
Structure prediction by ZEFSAII (Michael W. Deem and Ramdas Pophale) SiO2 
 PCOD9352868
Probable space group: C M C 21
;
_chemical_formula_sum "Si O2"
_cell_formula_units_Z 40
_cell_length_a 15.927158
_cell_length_b 8.666709
_cell_length_c 13.270991
_cell_angle_alpha 90.000000
_cell_angle_beta 90.000000
_cell_angle_gamma 90.000000
_cell_volume 1831.875092
_symmetry_space_group_name_H-M "C M C 21"
_symmetry_group_IT_number 36
_symmetry_cell_setting 'orthorhombic'
loop_
_space_group_symop_operation_xyz
x,y,z
-x,-y,1/2+z
x,-y,1/2+z
-x,y,z
1/2+x,1/2+y,z
1/2-x,1/2-y,1/2+z
1/2+x,1/2-y,1/2+z
1/2-x,1/2+y,z
loop_
_atom_site_type_symbol
_atom_site_label
_atom_site_fract_x
_atom_site_fract_y
_atom_site_fract_z
Si Si1 0.591335 0.294503 0.801550
Si Si2 0.177130 0.081952 0.483673
Si Si3 0.724612 0.518401 0.699859
Si Si4 0.677890 0.267389 0.380661
Si Si5 0.091567 0.556955 0.230967
O O1 0.500000 0.363276 0.778552
O O2 0.611329 0.319666 0.919430
O O3 0.660666 0.386966 0.737816
O O4 0.588351 0.115633 0.775274
O O5 0.185706 0.097999 0.602097
O O6 0.157659 0.902806 0.459043
O O7 0.264930 0.139689 0.434606
O O8 0.773199 0.137352 0.793167
O O9 0.817337 0.451018 0.675611
O O10 0.604876 0.180382 0.320668
O O11 0.000000 0.585123 0.181077
#
# Coordination Sequence:
#
# PCOD9352868 Si02
#       5
#     8   8   8   8   8
#     4  10  22  44  66  95 134 172 222 280 335 393
#     4  11  23  38  70  95 130 174 225 266 341 394
#     4  11  23  42  71  95 135 177 224 276 333 400
#     4  11  22  41  65  97 128 172 221 274 327 395
#     4  11  22  43  68  94 133 175 216 274 332 390
#
# _framework density 21.835550000000001
#
# number of rings (size 3 to 8) (size 9 to 14) (size 15 to 20)
#    0.000    1.200    6.000    0.000    5.600    4.000 
#    0.000    1.000    0.000    0.000    0.000    0.000 
#    0.000    0.000    0.000    0.000    0.000    0.000 
#
# Total GULP energy -111530.029173 kJ/mol
# GULP energy per Si atom -5576.501459 kJ/mol
# Density = 2.178585 g / cm^3
# Si number density = 21.835550 Si / 1000 Ang^3
#
#
#
# Elastic Constant Matrix: (Units=GPa)
#
#
# Indices 1 2 3 4 5 6 
#
# 1 118.2377 5.3702 -7.4580 0.0000 0.0000 0.0000
# 2 5.3702 77.5520 6.3862 0.0000 0.0000 0.0000
# 3 -7.4580 6.3862 76.5080 0.0000 0.0000 0.0000
# 4 0.0000 0.0000 0.0000 12.2396 0.0000 0.0000
# 5 0.0000 0.0000 0.0000 0.0000 12.6207 0.0000
# 6 0.0000 0.0000 0.0000 0.0000 0.0000 24.3170
#
#
#
# Elastic Compliance Matrix: (Units=1/GPa)
#
#
# Indices 1 2 3 4 5 6 
#
# 1 0.008544 -0.000665 0.000888 0.000000 0.000000 0.000000
# 2 -0.000665 0.013036 -0.001153 0.000000 0.000000 0.000000
# 3 0.000888 -0.001153 0.013253 0.000000 0.000000 0.000000
# 4 0.000000 0.000000 0.000000 0.081702 0.000000 0.000000
# 5 0.000000 0.000000 0.000000 0.000000 0.079235 0.000000
# 6 0.000000 0.000000 0.000000 0.000000 0.000000 0.041123
#
#
# Mechanical properties :
#
#
# Convention : Reuss Voigt Hill
#
# Bulk Modulus (GPa) = 30.32693 31.21051 30.76872
# Shear Modulus (GPa) = 20.02057 27.70208 23.86132
#
# Velocity S-wave (km/s) = 3.03129 3.56570 3.30930
# Velocity P-wave (km/s) = 5.11572 5.59256 5.35945
#
# Compressibility (1/GPa) = 0.03297399
#
# Stress axis : x y z
#
# Youngs Moduli (GPa) = 117.04438 76.71334 75.45254
#
# Poissons Ratio (x) = 0.05100 -0.06703
# Poissons Ratio (y) = 0.07781 0.08699
# Poissons Ratio (z) = -0.10397 0.08844
#
# Static dielectric constant tensor:
#      x y z
#    x 1.870920 0.000000 0.000000 
#    y 0.000000 1.828530 0.000000 
#    z 0.000000 0.000000 1.774600 
# 
# From -- ./inp_files/12433.got.cif
#   From: 2010.05.17/outbox.cif.g08.bks.cpg/sg36_7_cif.got.tgz:12433.got - 2010.06.03 17:41:39.
