data_PCOD9352619
_publ_section_title
;
Structure prediction by ZEFSAII (Michael W. Deem and Ramdas Pophale) SiO2 
 PCOD9352619
Probable space group: C M C 21
;
_chemical_formula_sum "Si O2"
_cell_formula_units_Z 52
_cell_length_a 8.132859
_cell_length_b 29.464164
_cell_length_c 11.736889
_cell_angle_alpha 90.000000
_cell_angle_beta 90.000000
_cell_angle_gamma 90.000000
_cell_volume 2812.485962
_symmetry_space_group_name_H-M "C M C 21"
_symmetry_group_IT_number 36
_symmetry_cell_setting 'orthorhombic'
loop_
_space_group_symop_operation_xyz
x,y,z
-x,-y,1/2+z
x,-y,1/2+z
-x,y,z
1/2+x,1/2+y,z
1/2-x,1/2-y,1/2+z
1/2+x,1/2-y,1/2+z
1/2-x,1/2+y,z
loop_
_atom_site_type_symbol
_atom_site_label
_atom_site_fract_x
_atom_site_fract_y
_atom_site_fract_z
Si Si1 0.000000 0.443374 0.512060
Si Si2 0.692061 0.392606 0.625335
Si Si3 0.186323 0.154146 0.744424
Si Si4 0.000000 0.449633 0.016919
Si Si5 0.189760 0.198307 0.992789
Si Si6 0.500000 0.909175 0.254300
Si Si7 0.186479 0.201007 0.507473
Si Si8 0.679262 0.118707 0.365988
O O1 0.167185 0.426122 0.575462
O O2 0.000000 0.497384 0.494409
O O3 0.000000 0.423804 0.384645
O O4 0.500000 0.401463 0.589719
O O5 0.738608 0.342420 0.577401
O O6 0.700265 0.391818 0.762570
O O7 0.200258 0.178469 0.865723
O O8 0.333929 0.119170 0.735572
O O9 0.206861 0.188490 0.639819
O O10 0.000000 0.134838 0.736528
O O11 0.000000 0.445257 0.152864
O O12 0.847965 0.421773 0.958354
O O13 0.000000 0.208835 0.019093
O O14 0.281236 0.245906 0.995337
O O15 0.289300 0.165561 0.432246
O O16 0.000000 0.191138 0.474155
O O17 0.500000 0.122429 0.308654
#
# Coordination Sequence:
#
# PCOD9352619 Si02
#       8
#     4   8   8   4   8   4   8   8
#     4  12  25  44  75  98 128 173 218 281 336 394
#     4  11  24  44  66  96 135 174 219 271 328 395
#     4  10  22  41  60  89 125 169 218 269 316 387
#     4  10  25  44  71 102 126 169 228 267 342 398
#     4  10  23  39  58  89 127 170 220 270 319 384
#     4  12  22  42  76  86 130 176 208 278 336 372
#     4  11  23  37  60  91 129 174 221 266 327 383
#     4  10  21  42  65  90 131 172 212 269 320 393
#
# _framework density 18.488980999999999
#
# number of rings (size 3 to 8) (size 9 to 14) (size 15 to 20)
#    0.462    0.923    3.846    0.923    7.538    0.000 
#    0.000    2.308    0.000    0.000    0.000    0.000 
#    0.000    0.000    0.000    0.000    0.000    0.000 
#
# Total GULP energy -144878.458032 kJ/mol
# GULP energy per Si atom -5572.248386 kJ/mol
# Density = 1.844690 g / cm^3
# Si number density = 18.488981 Si / 1000 Ang^3
#
#
#
# Elastic Constant Matrix: (Units=GPa)
#
#
# Indices 1 2 3 4 5 6 
#
# 1 68.2352 26.9696 15.5516 0.0000 0.0000 0.0000
# 2 26.9696 76.0073 3.4657 0.0000 0.0000 0.0000
# 3 15.5516 3.4657 63.5505 0.0000 0.0000 0.0000
# 4 0.0000 0.0000 0.0000 7.7851 0.0000 0.0000
# 5 0.0000 0.0000 0.0000 0.0000 29.3887 0.0000
# 6 0.0000 0.0000 0.0000 0.0000 0.0000 1.1350
#
#
#
# Elastic Compliance Matrix: (Units=1/GPa)
#
#
# Indices 1 2 3 4 5 6 
#
# 1 0.018041 -0.006216 -0.004076 0.000000 0.000000 0.000000
# 2 -0.006216 0.015331 0.000685 0.000000 0.000000 0.000000
# 3 -0.004076 0.000685 0.016696 0.000000 0.000000 0.000000
# 4 0.000000 0.000000 0.000000 0.128451 0.000000 0.000000
# 5 0.000000 0.000000 0.000000 0.000000 0.034027 0.000000
# 6 0.000000 0.000000 0.000000 0.000000 0.000000 0.881031
#
#
# Mechanical properties :
#
#
# Convention : Reuss Voigt Hill
#
# Bulk Modulus (GPa) = 32.41032 33.30741 32.85886
# Shear Modulus (GPa) = 4.45207 18.44883 11.45045
#
# Velocity S-wave (km/s) = 1.55344 3.16227 2.49130
# Velocity P-wave (km/s) = 4.55908 5.60242 5.10746
#
# Compressibility (1/GPa) = 0.03085437
#
# Stress axis : x y z
#
# Youngs Moduli (GPa) = 55.42994 65.22787 59.89611
#
# Poissons Ratio (x) = 0.40543 0.24413
# Poissons Ratio (y) = 0.34453 -0.04103
# Poissons Ratio (z) = 0.22592 -0.04468
#
# Static dielectric constant tensor:
#      x y z
#    x 1.659720 0.000000 0.000000 
#    y 0.000000 1.622120 0.000000 
#    z 0.000000 0.000000 1.629850 
# 
# From -- ./inp_files/6933.got.cif
#   From: 2010.05.17/outbox.cif.g08.bks.cpg/sg36_4_cif.got.tgz:6933.got - 2010.06.03 17:41:39.
