data_PCOD9352995
_publ_section_title
;
Structure prediction by ZEFSAII (Michael W. Deem and Ramdas Pophale) SiO2 
 PCOD9352995
Probable space group: C M C 21
;
_chemical_formula_sum "Si O2"
_cell_formula_units_Z 64
_cell_length_a 32.027002
_cell_length_b 8.938539
_cell_length_c 10.719196
_cell_angle_alpha 90.000000
_cell_angle_beta 90.000000
_cell_angle_gamma 90.000000
_cell_volume 3068.633616
_symmetry_space_group_name_H-M "C M C 21"
_symmetry_group_IT_number 36
_symmetry_cell_setting 'orthorhombic'
loop_
_space_group_symop_operation_xyz
x,y,z
-x,-y,1/2+z
x,-y,1/2+z
-x,y,z
1/2+x,1/2+y,z
1/2-x,1/2-y,1/2+z
1/2+x,1/2-y,1/2+z
1/2-x,1/2+y,z
loop_
_atom_site_type_symbol
_atom_site_label
_atom_site_fract_x
_atom_site_fract_y
_atom_site_fract_z
Si Si1 0.454021 0.796880 0.169080
Si Si2 0.693492 0.738184 0.595476
Si Si3 0.099333 0.180585 0.946826
Si Si4 0.904487 0.554072 0.266450
Si Si5 0.884185 0.648333 0.998295
Si Si6 0.451666 0.374802 0.924148
Si Si7 0.740880 0.988864 0.987839
Si Si8 0.192121 0.788870 0.380741
O O1 0.500000 0.793354 0.111759
O O2 0.451604 0.675607 0.279340
O O3 0.445167 0.956636 0.232992
O O4 0.419299 0.763509 0.067125
O O5 0.654597 0.737925 0.500859
O O6 0.727378 0.614101 0.563615
O O7 0.680019 0.714131 0.736458
O O8 0.715221 0.898505 0.574570
O O9 0.088607 0.284552 0.827473
O O10 0.149616 0.170581 0.953458
O O11 0.075400 0.023831 0.939302
O O12 0.881652 0.568386 0.133072
O O13 0.882494 0.458905 0.377799
O O14 0.927302 0.740528 0.993452
O O15 0.500000 0.392410 0.963479
O O16 0.710021 0.873700 0.918940
O O17 0.770338 0.093948 0.902619
#
# Coordination Sequence:
#
# PCOD9352995 Si02
#       8
#     8   8   8   8   8   8   8   8
#     4  10  24  44  63  94 135 173 225 277 329 397
#     4  11  22  41  65  93 132 169 218 271 333 395
#     4  12  23  40  69  98 129 176 224 275 337 402
#     4  11  23  42  67  97 128 175 225 270 327 389
#     4  11  23  44  70  97 131 176 220 274 331 402
#     4  10  25  45  65  96 134 173 220 276 336 398
#     4  10  24  41  62  95 127 171 215 273 329 395
#     4  11  23  41  65  92 132 167 221 268 336 400
#
# _framework density 20.856186999999998
#
# number of rings (size 3 to 8) (size 9 to 14) (size 15 to 20)
#    0.000    1.250    2.500    2.625    1.750    2.500 
#    0.000    2.500    0.000    0.000    0.000    0.000 
#    0.000    0.000    0.000    0.000    0.000    0.000 
#
# Total GULP energy -178692.671444 kJ/mol
# GULP energy per Si atom -5584.145983 kJ/mol
# Density = 2.080872 g / cm^3
# Si number density = 20.856187 Si / 1000 Ang^3
#
#
#
# Elastic Constant Matrix: (Units=GPa)
#
#
# Indices 1 2 3 4 5 6 
#
# 1 137.5306 36.3263 30.5197 0.0000 0.0000 0.0000
# 2 36.3263 94.2157 15.1074 0.0000 0.0000 0.0000
# 3 30.5197 15.1074 89.3291 0.0000 0.0000 0.0000
# 4 0.0000 0.0000 0.0000 16.6810 0.0000 0.0000
# 5 0.0000 0.0000 0.0000 0.0000 28.5459 0.0000
# 6 0.0000 0.0000 0.0000 0.0000 0.0000 18.9177
#
#
#
# Elastic Compliance Matrix: (Units=1/GPa)
#
#
# Indices 1 2 3 4 5 6 
#
# 1 0.008583 -0.002918 -0.002439 0.000000 0.000000 0.000000
# 2 -0.002918 0.011902 -0.001016 0.000000 0.000000 0.000000
# 3 -0.002439 -0.001016 0.012200 0.000000 0.000000 0.000000
# 4 0.000000 0.000000 0.000000 0.059949 0.000000 0.000000
# 5 0.000000 0.000000 0.000000 0.000000 0.035031 0.000000
# 6 0.000000 0.000000 0.000000 0.000000 0.000000 0.052861
#
#
# Mechanical properties :
#
#
# Convention : Reuss Voigt Hill
#
# Bulk Modulus (GPa) = 50.15371 53.88692 52.02031
# Shear Modulus (GPa) = 25.01032 28.77038 26.89035
#
# Velocity S-wave (km/s) = 3.46667 3.71814 3.59461
# Velocity P-wave (km/s) = 6.33430 6.65780 6.49806
#
# Compressibility (1/GPa) = 0.01993870
#
# Stress axis : x y z
#
# Youngs Moduli (GPa) = 116.50731 84.01931 81.96970
#
# Poissons Ratio (x) = 0.24519 0.19992
# Poissons Ratio (y) = 0.34000 0.08327
# Poissons Ratio (z) = 0.28415 0.08535
#
# Static dielectric constant tensor:
#      x y z
#    x 1.757760 0.000000 0.000000 
#    y 0.000000 1.776520 0.000000 
#    z 0.000000 0.000000 1.727800 
# 
# From -- ./inp_files/9733.got.cif
#   From: 2010.05.17/outbox.cif.g08.bks.cpg/sg36_5_cif.got.tgz:9733.got - 2010.06.03 17:41:39.
