data_PCOD9352010
_publ_section_title
;
Structure prediction by ZEFSAII (Michael W. Deem and Ramdas Pophale) SiO2 
 PCOD9352010
Probable space group: C M C 21
;
_chemical_formula_sum "Si O2"
_cell_formula_units_Z 64
_cell_length_a 8.849336
_cell_length_b 29.596381
_cell_length_c 12.483540
_cell_angle_alpha 90.000000
_cell_angle_beta 90.000000
_cell_angle_gamma 90.000000
_cell_volume 3269.542987
_symmetry_space_group_name_H-M "C M C 21"
_symmetry_group_IT_number 36
_symmetry_cell_setting 'orthorhombic'
loop_
_space_group_symop_operation_xyz
x,y,z
-x,-y,1/2+z
x,-y,1/2+z
-x,y,z
1/2+x,1/2+y,z
1/2-x,1/2-y,1/2+z
1/2+x,1/2-y,1/2+z
1/2-x,1/2+y,z
loop_
_atom_site_type_symbol
_atom_site_label
_atom_site_fract_x
_atom_site_fract_y
_atom_site_fract_z
Si Si1 0.321151 0.839081 0.076010
Si Si2 0.827467 0.076956 0.467983
Si Si3 0.318615 0.317482 0.462228
Si Si4 0.818104 0.885418 0.282704
Si Si5 0.673120 0.478342 0.185957
Si Si6 0.321484 0.065097 0.252722
Si Si7 0.180799 0.224927 0.407405
Si Si8 0.817397 0.837314 0.704622
O O1 0.500000 0.833618 0.084669
O O2 0.275367 0.880526 0.998530
O O3 0.252412 0.853776 0.190147
O O4 0.248561 0.796520 0.016113
O O5 0.830798 0.044745 0.569897
O O6 0.755932 0.053707 0.366060
O O7 0.000000 0.092385 0.446481
O O8 0.500000 0.311183 0.457885
O O9 0.283919 0.363482 0.397329
O O10 0.239970 0.275866 0.402912
O O11 0.273504 0.319589 0.586784
O O12 0.770885 0.937434 0.262951
O O13 0.000000 0.885187 0.266781
O O14 0.500000 0.490347 0.216129
O O15 0.773468 0.522742 0.181306
O O16 0.500000 0.069075 0.261441
O O17 0.251920 0.113062 0.219137
O O18 0.227465 0.195431 0.303121
O O19 0.000000 0.223850 0.412557
O O20 0.000000 0.840796 0.706537
#
# Coordination Sequence:
#
# PCOD9352010 Si02
#       8
#     8   8   8   8   8   8   8   8
#     4  11  21  35  60  89 118 152 199 256 307 357
#     4  10  20  38  61  85 115 156 206 253 305 367
#     4  10  23  42  64  92 125 162 209 260 309 366
#     4   9  20  40  63  89 123 163 207 252 306 368
#     4   9  20  38  61  87 119 165 213 252 301 369
#     4  12  24  37  60  93 127 161 202 258 316 366
#     4  11  23  39  61  89 122 162 204 250 310 374
#     4  10  23  43  64  88 125 167 210 255 306 373
#
# _framework density 19.574601000000001
#
# number of rings (size 3 to 8) (size 9 to 14) (size 15 to 20)
#    0.000    1.750    1.250    3.750    1.750    5.000 
#    0.000    2.500    0.000    0.000    0.000    0.000 
#    0.000    0.000    0.000    0.000    0.000    0.000 
#
# Total GULP energy -178681.529102 kJ/mol
# GULP energy per Si atom -5583.797784 kJ/mol
# Density = 1.953005 g / cm^3
# Si number density = 19.574601 Si / 1000 Ang^3
#
#
#
# Elastic Constant Matrix: (Units=GPa)
#
#
# Indices 1 2 3 4 5 6 
#
# 1 46.4350 33.6225 24.6636 0.0000 0.0000 0.0000
# 2 33.6225 105.1770 32.3839 0.0000 0.0000 0.0000
# 3 24.6636 32.3839 65.9868 0.0000 0.0000 0.0000
# 4 0.0000 0.0000 0.0000 18.7536 0.0000 0.0000
# 5 0.0000 0.0000 0.0000 0.0000 19.2447 0.0000
# 6 0.0000 0.0000 0.0000 0.0000 0.0000 28.5789
#
#
#
# Elastic Compliance Matrix: (Units=1/GPa)
#
#
# Indices 1 2 3 4 5 6 
#
# 1 0.031220 -0.007524 -0.007976 0.000000 0.000000 0.000000
# 2 -0.007524 0.013014 -0.003574 0.000000 0.000000 0.000000
# 3 -0.007976 -0.003574 0.019890 0.000000 0.000000 0.000000
# 4 0.000000 0.000000 0.000000 0.053323 0.000000 0.000000
# 5 0.000000 0.000000 0.000000 0.000000 0.051962 0.000000
# 6 0.000000 0.000000 0.000000 0.000000 0.000000 0.034991
#
#
# Mechanical properties :
#
#
# Convention : Reuss Voigt Hill
#
# Bulk Modulus (GPa) = 38.50029 44.32652 41.41341
# Shear Modulus (GPa) = 19.90381 21.77738 20.84059
#
# Velocity S-wave (km/s) = 3.19222 3.33908 3.26648
# Velocity P-wave (km/s) = 5.77046 6.12862 5.95224
#
# Compressibility (1/GPa) = 0.02597383
#
# Stress axis : x y z
#
# Youngs Moduli (GPa) = 32.03038 76.84227 50.27662
#
# Poissons Ratio (x) = 0.57820 0.40103
# Poissons Ratio (y) = 0.24101 0.17970
# Poissons Ratio (z) = 0.25549 0.27465
#
# Static dielectric constant tensor:
#      x y z
#    x 1.658560 0.000000 0.000000 
#    y 0.000000 1.691980 0.000000 
#    z 0.000000 0.000000 1.703800 
# 
# From -- ./inp_files/7179.got.cif
#   From: 2010.05.17/outbox.cif.g08.bks.cpg/sg36_4_cif.got.tgz:7179.got - 2010.06.03 17:41:39.
