data_PCOD9352132
_publ_section_title
;
Structure prediction by ZEFSAII (Michael W. Deem and Ramdas Pophale) SiO2 
 PCOD9352132
Probable space group: C M C 21
;
_chemical_formula_sum "Si O2"
_cell_formula_units_Z 48
_cell_length_a 13.407991
_cell_length_b 14.052780
_cell_length_c 9.498183
_cell_angle_alpha 90.000000
_cell_angle_beta 90.000000
_cell_angle_gamma 90.000000
_cell_volume 1789.643345
_symmetry_space_group_name_H-M "C M C 21"
_symmetry_group_IT_number 36
_symmetry_cell_setting 'orthorhombic'
loop_
_space_group_symop_operation_xyz
x,y,z
-x,-y,1/2+z
x,-y,1/2+z
-x,y,z
1/2+x,1/2+y,z
1/2-x,1/2-y,1/2+z
1/2+x,1/2-y,1/2+z
1/2-x,1/2+y,z
loop_
_atom_site_type_symbol
_atom_site_label
_atom_site_fract_x
_atom_site_fract_y
_atom_site_fract_z
Si Si1 0.889939 0.662084 0.895500
Si Si2 0.812938 0.984506 0.267640
Si Si3 0.390537 0.365471 0.020138
Si Si4 0.382721 0.624535 0.038008
Si Si5 0.384058 0.065023 0.178713
Si Si6 0.780617 0.286620 0.869575
O O1 0.799268 0.709315 0.807642
O O2 0.000000 0.651625 0.829038
O O3 0.900438 0.752165 0.003831
O O4 0.868992 0.580355 0.010921
O O5 0.693775 0.986622 0.236639
O O6 0.784440 0.128870 0.439362
O O7 0.871229 0.906161 0.173046
O O8 0.849106 0.081591 0.187454
O O9 0.500000 0.401243 0.969168
O O10 0.348364 0.546622 0.922172
O O11 0.500000 0.634630 0.039355
O O12 0.334725 0.723017 0.987443
O O13 0.500000 0.044160 0.201400
O O14 0.354082 0.160244 0.264670
#
# Coordination Sequence:
#
# PCOD9352132 Si02
#       6
#     8   8   8   8   8   8
#     4   8  17  37  64  89 120 168 217 263 327 392
#     4  12  24  43  65 100 137 179 223 282 345 407
#     4   9  18  37  64  93 126 167 212 272 336 392
#     4  12  25  41  66 100 138 179 226 283 341 401
#     4  11  22  40  63  91 130 177 222 276 337 400
#     4  10  20  40  68  93 127 176 230 270 328 406
#
# _framework density 26.820986000000001
#
# number of rings (size 3 to 8) (size 9 to 14) (size 15 to 20)
#    1.000    0.667    1.667    4.000    0.000    1.333 
#    0.000    9.167    0.000    0.000    0.000    0.000 
#    0.000    0.000    0.000    0.000    0.000    0.000 
#
# Total GULP energy -134012.925708 kJ/mol
# GULP energy per Si atom -5583.871904 kJ/mol
# Density = 2.675994 g / cm^3
# Si number density = 26.820986 Si / 1000 Ang^3
#
#
#
# Elastic Constant Matrix: (Units=GPa)
#
#
# Indices 1 2 3 4 5 6 
#
# 1 197.4897 22.8853 41.5253 0.0000 0.0000 0.0000
# 2 22.8853 95.4790 35.2548 0.0000 0.0000 0.0000
# 3 41.5253 35.2548 100.2281 0.0000 0.0000 0.0000
# 4 0.0000 0.0000 0.0000 34.1124 0.0000 0.0000
# 5 0.0000 0.0000 0.0000 0.0000 33.5074 0.0000
# 6 0.0000 0.0000 0.0000 0.0000 0.0000 38.0175
#
#
#
# Elastic Compliance Matrix: (Units=1/GPa)
#
#
# Indices 1 2 3 4 5 6 
#
# 1 0.005572 -0.000555 -0.002113 0.000000 0.000000 0.000000
# 2 -0.000555 0.012092 -0.004023 0.000000 0.000000 0.000000
# 3 -0.002113 -0.004023 0.012268 0.000000 0.000000 0.000000
# 4 0.000000 0.000000 0.000000 0.029315 0.000000 0.000000
# 5 0.000000 0.000000 0.000000 0.000000 0.029844 0.000000
# 6 0.000000 0.000000 0.000000 0.000000 0.000000 0.026304
#
#
# Mechanical properties :
#
#
# Convention : Reuss Voigt Hill
#
# Bulk Modulus (GPa) = 60.42805 65.83638 63.13221
# Shear Modulus (GPa) = 37.23143 40.69622 38.96382
#
# Velocity S-wave (km/s) = 3.72982 3.89951 3.81561
# Velocity P-wave (km/s) = 6.41310 6.69887 6.55754
#
# Compressibility (1/GPa) = 0.01654861
#
# Stress axis : x y z
#
# Youngs Moduli (GPa) = 179.46044 82.69810 81.51296
#
# Poissons Ratio (x) = 0.04592 0.17226
# Poissons Ratio (y) = 0.09965 0.32795
# Poissons Ratio (z) = 0.37926 0.33272
#
# Static dielectric constant tensor:
#      x y z
#    x 2.154310 0.000000 0.000000 
#    y 0.000000 2.393670 0.000000 
#    z 0.000000 0.000000 2.233780 
# 
# From -- ./inp_files/12095.got.cif
#   From: 2010.05.17/outbox.cif.g08.bks.cpg/sg36_7_cif.got.tgz:12095.got - 2010.06.03 17:41:39.
