data_PCOD9352139
_publ_section_title
;
Structure prediction by ZEFSAII (Michael W. Deem and Ramdas Pophale) SiO2 
 PCOD9352139
Probable space group: C M C 21
;
_chemical_formula_sum "Si O2"
_cell_formula_units_Z 52
_cell_length_a 7.570479
_cell_length_b 15.206777
_cell_length_c 17.823644
_cell_angle_alpha 90.000000
_cell_angle_beta 90.000000
_cell_angle_gamma 90.000000
_cell_volume 2051.903988
_symmetry_space_group_name_H-M "C M C 21"
_symmetry_group_IT_number 36
_symmetry_cell_setting 'orthorhombic'
loop_
_space_group_symop_operation_xyz
x,y,z
-x,-y,1/2+z
x,-y,1/2+z
-x,y,z
1/2+x,1/2+y,z
1/2-x,1/2-y,1/2+z
1/2+x,1/2-y,1/2+z
1/2-x,1/2+y,z
loop_
_atom_site_type_symbol
_atom_site_label
_atom_site_fract_x
_atom_site_fract_y
_atom_site_fract_z
Si Si1 0.500000 0.814552 0.354180
Si Si2 0.715406 0.654207 0.120901
Si Si3 0.701736 0.389461 0.457473
Si Si4 0.198684 0.143664 0.364141
Si Si5 0.212201 0.985651 0.737847
Si Si6 0.787794 0.660865 0.667525
Si Si7 0.703197 0.078288 0.513043
O O1 0.344536 0.873485 0.393989
O O2 0.653549 0.739140 0.330744
O O3 0.500000 0.651789 0.121371
O O4 0.774658 0.566192 0.163312
O O5 0.762539 0.660516 0.033678
O O6 0.778605 0.739674 0.166038
O O7 0.500000 0.365864 0.437344
O O8 0.704939 0.490441 0.484536
O O9 0.278423 0.072655 0.307448
O O10 0.291491 0.146829 0.444148
O O11 0.000000 0.111417 0.383145
O O12 0.000000 0.979631 0.740139
O O13 0.256665 0.087965 0.730976
O O14 0.722464 0.618327 0.589428
O O15 0.000000 0.668596 0.665404
O O16 0.500000 0.055702 0.527877
#
# Coordination Sequence:
#
# PCOD9352139 Si02
#       7
#     4   8   8   8   8   8   8
#     4  10  22  42  60  94 128 168 220 276 316 396
#     4   9  19  37  61  89 121 166 211 269 334 392
#     4  11  21  38  65  97 130 168 216 277 338 385
#     4   9  22  40  59  85 129 171 217 264 324 396
#     4  10  20  41  62  85 124 170 210 259 331 394
#     4  10  21  37  61  94 124 160 218 275 326 397
#     4  11  21  38  63  95 130 171 221 276 334 392
#
# _framework density 25.342316
#
# number of rings (size 3 to 8) (size 9 to 14) (size 15 to 20)
#    0.462    1.538    2.308    1.385    0.000    3.077 
#    4.154    0.000    0.000    0.000    0.000    0.000 
#    0.000    0.000    0.000    0.000    0.000    0.000 
#
# Total GULP energy -144782.661725 kJ/mol
# GULP energy per Si atom -5568.563912 kJ/mol
# Density = 2.528464 g / cm^3
# Si number density = 25.342316 Si / 1000 Ang^3
#
#
#
# Elastic Constant Matrix: (Units=GPa)
#
#
# Indices 1 2 3 4 5 6 
#
# 1 86.3163 0.2298 13.4777 0.0000 0.0000 0.0000
# 2 0.2298 115.7118 19.5937 0.0000 0.0000 0.0000
# 3 13.4777 19.5937 91.1639 0.0000 0.0000 0.0000
# 4 0.0000 0.0000 0.0000 32.6052 0.0000 0.0000
# 5 0.0000 0.0000 0.0000 0.0000 12.6784 0.0000
# 6 0.0000 0.0000 0.0000 0.0000 0.0000 38.9878
#
#
#
# Elastic Compliance Matrix: (Units=1/GPa)
#
#
# Indices 1 2 3 4 5 6 
#
# 1 0.011868 0.000284 -0.001816 0.000000 0.000000 0.000000
# 2 0.000284 0.008975 -0.001971 0.000000 0.000000 0.000000
# 3 -0.001816 -0.001971 0.011661 0.000000 0.000000 0.000000
# 4 0.000000 0.000000 0.000000 0.030670 0.000000 0.000000
# 5 0.000000 0.000000 0.000000 0.000000 0.078875 0.000000
# 6 0.000000 0.000000 0.000000 0.000000 0.000000 0.025649
#
#
# Mechanical properties :
#
#
# Convention : Reuss Voigt Hill
#
# Bulk Modulus (GPa) = 39.21690 39.97714 39.59702
# Shear Modulus (GPa) = 27.29206 34.18033 30.73619
#
# Velocity S-wave (km/s) = 3.28523 3.67651 3.48636
# Velocity P-wave (km/s) = 5.46798 5.81648 5.64492
#
# Compressibility (1/GPa) = 0.02549921
#
# Stress axis : x y z
#
# Youngs Moduli (GPa) = 84.25999 111.41623 85.75370
#
# Poissons Ratio (x) = -0.03163 0.15569
# Poissons Ratio (y) = -0.02392 0.16902
# Poissons Ratio (z) = 0.15298 0.21960
#
# Static dielectric constant tensor:
#      x y z
#    x 1.943420 0.000000 0.000000 
#    y 0.000000 2.065000 0.000000 
#    z 0.000000 0.000000 2.085070 
# 
# From -- ./inp_files/15382.got.cif
#   From: 2010.05.17/outbox.cif.g08.bks.cpg/sg36_8_cif.got.tgz:15382.got - 2010.06.03 17:41:39.
