data_PCOD9352528
_publ_section_title
;
Structure prediction by ZEFSAII (Michael W. Deem and Ramdas Pophale) SiO2 
 PCOD9352528
Probable space group: C M C 21
;
_chemical_formula_sum "Si O2"
_cell_formula_units_Z 32
_cell_length_a 11.272576
_cell_length_b 9.822621
_cell_length_c 9.558494
_cell_angle_alpha 90.000000
_cell_angle_beta 90.000000
_cell_angle_gamma 90.000000
_cell_volume 1058.376117
_symmetry_space_group_name_H-M "C M C 21"
_symmetry_group_IT_number 36
_symmetry_cell_setting 'orthorhombic'
loop_
_space_group_symop_operation_xyz
x,y,z
-x,-y,1/2+z
x,-y,1/2+z
-x,y,z
1/2+x,1/2+y,z
1/2-x,1/2-y,1/2+z
1/2+x,1/2-y,1/2+z
1/2-x,1/2+y,z
loop_
_atom_site_type_symbol
_atom_site_label
_atom_site_fract_x
_atom_site_fract_y
_atom_site_fract_z
Si Si1 0.750001 0.522666 0.904230
Si Si2 0.000000 0.671009 0.078546
Si Si3 0.500000 0.052972 0.783688
Si Si4 0.749999 0.778234 0.081879
Si Si5 0.500000 0.328993 0.578551
Si Si6 0.500000 0.552969 0.783696
O O1 0.749999 0.680736 0.946205
O O2 0.750002 0.434754 0.044058
O O3 0.628386 0.491348 0.828026
O O4 0.871614 0.491351 0.828021
O O5 0.000000 0.513327 0.125289
O O6 0.000000 0.671814 0.908945
O O7 0.117724 0.745997 0.139564
O O8 0.617724 0.745997 0.139568
O O9 0.500000 0.486675 0.625295
O O10 0.500000 0.328189 0.408951
#
# Coordination Sequence:
#
# PCOD9352528 Si02
#       6
#     8   4   4   8   4   4
#     4  10  21  40  62  90 124 164 208 258 312 372
#     4  10  21  40  65  96 130 170 214 264 320 382
#     4  10  21  40  65  96 130 170 214 264 320 382
#     4  10  21  40  62  90 124 164 208 258 312 372
#     4  10  21  40  65  96 130 170 214 264 320 382
#     4  10  21  40  65  96 130 170 214 264 320 382
#
# _framework density 30.235001
#
# number of rings (size 3 to 8) (size 9 to 14) (size 15 to 20)
#    0.000    2.000    0.000    3.000    0.000    0.000 
#    0.000   60.000    0.000    0.000    0.000    0.000 
#    0.000    0.000    0.000    0.000    0.000    0.000 
#
# Total GULP energy -89137.516368 kJ/mol
# GULP energy per Si atom -5571.094773 kJ/mol
# Density = 3.016619 g / cm^3
# Si number density = 30.235001 Si / 1000 Ang^3
#
#
#
# Elastic Constant Matrix: (Units=GPa)
#
#
# Indices 1 2 3 4 5 6 
#
# 1 250.5418 3.0061 20.1979 0.0000 0.0000 0.0000
# 2 3.0061 70.0943 25.8982 0.0000 0.0000 0.0000
# 3 20.1979 25.8982 136.6227 0.0000 0.0000 0.0000
# 4 0.0000 0.0000 0.0000 49.4794 0.0000 0.0000
# 5 0.0000 0.0000 0.0000 0.0000 9.6249 0.0000
# 6 0.0000 0.0000 0.0000 0.0000 0.0000-1993.0977
#
#
#
# Elastic Compliance Matrix: (Units=1/GPa)
#
#
# Indices 1 2 3 4 5 6 
#
# 1 0.004040 0.000051 -0.000607 0.000000 0.000000 0.000000
# 2 0.000051 0.015342 -0.002916 0.000000 0.000000 0.000000
# 3 -0.000607 -0.002916 0.007962 0.000000 0.000000 0.000000
# 4 0.000000 0.000000 0.000000 0.020210 0.000000 0.000000
# 5 0.000000 0.000000 0.000000 0.000000 0.103898 0.000000
# 6 0.000000 0.000000 0.000000 0.000000 0.000000 -0.000502
#
#
# Mechanical properties :
#
#
# Convention : Reuss Voigt Hill
#
# Bulk Modulus (GPa) = 49.01980 61.71816 55.36898
# Shear Modulus (GPa) = 30.35959 -359.58826 -164.61434
#
# Velocity S-wave (km/s) = 3.17222 -10.91739 -7.38669
# Velocity P-wave (km/s) = 5.44660 11.76699 7.37552
#
# Compressibility (1/GPa) = 0.02039992
#
# Stress axis : x y z
#
# Youngs Moduli (GPa) = 247.54541 65.18231 125.59906
#
# Poissons Ratio (x) = -0.00332 0.07622
# Poissons Ratio (y) = -0.01262 0.36621
# Poissons Ratio (z) = 0.15023 0.19005
#
# Static dielectric constant tensor:
#      x y z
#    x 2.355870 0.000000 0.000000 
#    y 0.000000 2.642150 0.000000 
#    z 0.000000 0.000000 2.378160 
# 
# From -- ./inp_files/7393.got.cif
#   From: 2010.05.17/outbox.cif.g08.bks.cpg/sg36_4_cif.got.tgz:7393.got - 2010.06.03 17:41:39.
