data_PCOD9352300
_publ_section_title
;
Structure prediction by ZEFSAII (Michael W. Deem and Ramdas Pophale) SiO2 
 PCOD9352300
Probable space group: C M C 21
;
_chemical_formula_sum "Si O2"
_cell_formula_units_Z 64
_cell_length_a 7.930050
_cell_length_b 24.614975
_cell_length_c 15.787944
_cell_angle_alpha 90.000000
_cell_angle_beta 90.000000
_cell_angle_gamma 90.000000
_cell_volume 3081.774817
_symmetry_space_group_name_H-M "C M C 21"
_symmetry_group_IT_number 36
_symmetry_cell_setting 'orthorhombic'
loop_
_space_group_symop_operation_xyz
x,y,z
-x,-y,1/2+z
x,-y,1/2+z
-x,y,z
1/2+x,1/2+y,z
1/2-x,1/2-y,1/2+z
1/2+x,1/2-y,1/2+z
1/2-x,1/2+y,z
loop_
_atom_site_type_symbol
_atom_site_label
_atom_site_fract_x
_atom_site_fract_y
_atom_site_fract_z
Si Si1 0.201789 0.390484 0.027830
Si Si2 0.706384 0.179259 0.367574
Si Si3 0.196024 0.505905 0.973073
Si Si4 0.803116 0.394688 0.712008
Si Si5 0.706669 0.695919 0.869605
Si Si6 0.697214 0.495100 0.283932
Si Si7 0.796627 0.120968 0.714740
Si Si8 0.303679 0.376003 0.526672
O O1 0.239886 0.367127 0.119807
O O2 0.000000 0.394414 0.017759
O O3 0.263912 0.353437 0.950664
O O4 0.266691 0.452358 0.019155
O O5 0.500000 0.179921 0.367851
O O6 0.760132 0.146757 0.283750
O O7 0.761096 0.241699 0.368602
O O8 0.210036 0.494821 0.872728
O O9 0.000000 0.513276 0.996836
O O10 0.285990 0.562096 0.994456
O O11 0.716684 0.453059 0.723760
O O12 0.781255 0.372214 0.617927
O O13 0.000000 0.404156 0.728402
O O14 0.500000 0.694799 0.870166
O O15 0.760995 0.663307 0.785939
O O16 0.763317 0.663477 0.953201
O O17 0.500000 0.487621 0.304551
O O18 0.760203 0.439574 0.241461
O O19 0.000000 0.120872 0.715036
O O20 0.500000 0.363500 0.538727
#
# Coordination Sequence:
#
# PCOD9352300 Si02
#       8
#     8   8   8   8   8   8   8   8
#     4  10  21  37  57  85 113 147 188 228 282 340
#     4   9  19  38  60  80 111 154 195 237 287 341
#     4  11  21  36  59  87 118 152 190 235 290 349
#     4  11  22  38  59  87 118 153 195 237 289 349
#     4   9  19  38  60  80 111 154 195 237 287 341
#     4  11  21  36  59  87 118 152 190 235 290 349
#     4  10  21  37  57  85 113 147 188 228 282 340
#     4  11  22  38  59  87 118 153 195 237 289 349
#
# _framework density 20.767256
#
# number of rings (size 3 to 8) (size 9 to 14) (size 15 to 20)
#    0.000    1.750    2.500    2.250    0.000    5.000 
#    0.000    0.000    0.000    5.250    0.000    0.000 
#    0.000    0.000    0.000    0.000    0.000    0.000 
#
# Total GULP energy -178848.149841 kJ/mol
# GULP energy per Si atom -5589.004683 kJ/mol
# Density = 2.071999 g / cm^3
# Si number density = 20.767256 Si / 1000 Ang^3
#
#
#
# Elastic Constant Matrix: (Units=GPa)
#
#
# Indices 1 2 3 4 5 6 
#
# 1 21.2475 7.2774 -1.4798 0.0000 0.0000 0.0000
# 2 7.2774 136.8499 47.5508 0.0000 0.0000 0.0000
# 3 -1.4798 47.5508 119.3466 0.0000 0.0000 0.0000
# 4 0.0000 0.0000 0.0000 5.4013 0.0000 0.0000
# 5 0.0000 0.0000 0.0000 0.0000 28.9648 0.0000
# 6 0.0000 0.0000 0.0000 0.0000 0.0000 12.4298
#
#
#
# Elastic Compliance Matrix: (Units=1/GPa)
#
#
# Indices 1 2 3 4 5 6 
#
# 1 0.048299 -0.003223 0.001883 0.000000 0.000000 0.000000
# 2 -0.003223 0.008696 -0.003505 0.000000 0.000000 0.000000
# 3 0.001883 -0.003505 0.009799 0.000000 0.000000 0.000000
# 4 0.000000 0.000000 0.000000 0.185141 0.000000 0.000000
# 5 0.000000 0.000000 0.000000 0.000000 0.034525 0.000000
# 6 0.000000 0.000000 0.000000 0.000000 0.000000 0.080452
#
#
# Mechanical properties :
#
#
# Convention : Reuss Voigt Hill
#
# Bulk Modulus (GPa) = 17.51154 42.68230 30.09692
# Shear Modulus (GPa) = 12.63785 24.29888 18.46837
#
# Velocity S-wave (km/s) = 2.46955 3.42432 2.98535
# Velocity P-wave (km/s) = 4.07212 6.01930 5.13878
#
# Compressibility (1/GPa) = 0.05710521
#
# Stress axis : x y z
#
# Youngs Moduli (GPa) = 20.70422 114.98920 102.05407
#
# Poissons Ratio (x) = 0.37057 -0.19216
# Poissons Ratio (y) = 0.06672 0.35768
# Poissons Ratio (z) = -0.03898 0.40302
#
# Static dielectric constant tensor:
#      x y z
#    x 1.757080 0.000000 0.000000 
#    y 0.000000 1.717490 0.000000 
#    z 0.000000 0.000000 1.718480 
# 
# From -- ./inp_files/5656.got.cif
#   From: 2010.05.17/outbox.cif.g08.bks.cpg/sg36_3_cif.got.tgz:5656.got - 2010.06.03 17:41:39.
