data_PCOD9352166
_publ_section_title
;
Structure prediction by ZEFSAII (Michael W. Deem and Ramdas Pophale) SiO2 
 PCOD9352166
Probable space group: C M C 21
;
_chemical_formula_sum "Si O2"
_cell_formula_units_Z 48
_cell_length_a 22.467568
_cell_length_b 8.002011
_cell_length_c 11.544612
_cell_angle_alpha 90.000000
_cell_angle_beta 90.000000
_cell_angle_gamma 90.000000
_cell_volume 2075.556453
_symmetry_space_group_name_H-M "C M C 21"
_symmetry_group_IT_number 36
_symmetry_cell_setting 'orthorhombic'
loop_
_space_group_symop_operation_xyz
x,y,z
-x,-y,1/2+z
x,-y,1/2+z
-x,y,z
1/2+x,1/2+y,z
1/2-x,1/2-y,1/2+z
1/2+x,1/2-y,1/2+z
1/2-x,1/2+y,z
loop_
_atom_site_type_symbol
_atom_site_label
_atom_site_fract_x
_atom_site_fract_y
_atom_site_fract_z
Si Si1 0.348641 0.151418 0.851720
Si Si2 0.162246 0.703925 0.238799
Si Si3 0.433253 0.097521 0.066018
Si Si4 0.341107 0.655522 0.984551
Si Si5 0.234843 0.165637 0.532599
Si Si6 0.067551 0.218918 0.162194
O O1 0.384107 0.275581 0.765478
O O2 0.328312 0.985279 0.784162
O O3 0.398292 0.097064 0.945552
O O4 0.295588 0.235917 0.924350
O O5 0.104367 0.703833 0.157326
O O6 0.152415 0.822741 0.348225
O O7 0.215083 0.760159 0.155406
O O8 0.500000 0.159757 0.049731
O O9 0.436183 0.911441 0.118758
O O10 0.305820 0.823944 0.023551
O O11 0.294551 0.514242 0.020441
O O12 0.401552 0.627227 0.053847
O O13 0.000000 0.165215 0.190618
#
# Coordination Sequence:
#
# PCOD9352166 Si02
#       6
#     8   8   8   8   8   8
#     4  10  20  42  69  98 137 173 227 281 338 413
#     4  10  23  42  65  99 135 176 225 281 347 401
#     4   9  18  37  68 102 130 172 227 274 329 407
#     4  12  26  44  67  99 138 181 229 289 349 414
#     4  11  28  42  69  99 134 181 230 284 353 414
#     4  10  22  39  66  99 135 179 222 275 340 405
#
# _framework density 23.126328999999998
#
# number of rings (size 3 to 8) (size 9 to 14) (size 15 to 20)
#    0.000    1.667    1.667    1.500    9.333    1.333 
#    0.000    4.167    0.000    0.000    0.000    0.000 
#    0.000    0.000    0.000    0.000    0.000    0.000 
#
# Total GULP energy -134304.702183 kJ/mol
# GULP energy per Si atom -5596.029258 kJ/mol
# Density = 2.307369 g / cm^3
# Si number density = 23.126329 Si / 1000 Ang^3
#
#
#
# Elastic Constant Matrix: (Units=GPa)
#
#
# Indices 1 2 3 4 5 6 
#
# 1 97.7516 7.8183 31.4405 0.0000 0.0000 0.0000
# 2 7.8183 41.2079 24.4753 0.0000 0.0000 0.0000
# 3 31.4405 24.4753 141.4438 0.0000 0.0000 0.0000
# 4 0.0000 0.0000 0.0000 28.6727 0.0000 0.0000
# 5 0.0000 0.0000 0.0000 0.0000 21.5699 0.0000
# 6 0.0000 0.0000 0.0000 0.0000 0.0000 18.0270
#
#
#
# Elastic Compliance Matrix: (Units=1/GPa)
#
#
# Indices 1 2 3 4 5 6 
#
# 1 0.011036 -0.000710 -0.002330 0.000000 0.000000 0.000000
# 2 -0.000710 0.027093 -0.004530 0.000000 0.000000 0.000000
# 3 -0.002330 -0.004530 0.008372 0.000000 0.000000 0.000000
# 4 0.000000 0.000000 0.000000 0.034876 0.000000 0.000000
# 5 0.000000 0.000000 0.000000 0.000000 0.046361 0.000000
# 6 0.000000 0.000000 0.000000 0.000000 0.000000 0.055472
#
#
# Mechanical properties :
#
#
# Convention : Reuss Voigt Hill
#
# Bulk Modulus (GPa) = 31.88786 45.31905 38.60346
# Shear Modulus (GPa) = 23.94582 28.09852 26.02217
#
# Velocity S-wave (km/s) = 3.22131 3.48947 3.35807
# Velocity P-wave (km/s) = 5.25873 5.98949 5.63597
#
# Compressibility (1/GPa) = 0.03135989
#
# Stress axis : x y z
#
# Youngs Moduli (GPa) = 90.61001 36.91042 119.44766
#
# Poissons Ratio (x) = 0.02620 0.27836
# Poissons Ratio (y) = 0.06431 0.54113
# Poissons Ratio (z) = 0.21115 0.16722
#
# Static dielectric constant tensor:
#      x y z
#    x 1.825930 0.000000 0.000000 
#    y 0.000000 1.966730 0.000000 
#    z 0.000000 0.000000 1.859260 
# 
# From -- ./inp_files/9420.got.cif
#   From: 2010.05.17/outbox.cif.g08.bks.cpg/sg36_5_cif.got.tgz:9420.got - 2010.06.03 17:41:39.
