data_PCOD9352869
_publ_section_title
;
Structure prediction by ZEFSAII (Michael W. Deem and Ramdas Pophale) SiO2 
 PCOD9352869
Probable space group: C M C 21
;
_chemical_formula_sum "Si O2"
_cell_formula_units_Z 60
_cell_length_a 11.948932
_cell_length_b 26.376349
_cell_length_c 8.949309
_cell_angle_alpha 90.000000
_cell_angle_beta 90.000000
_cell_angle_gamma 90.000000
_cell_volume 2820.546564
_symmetry_space_group_name_H-M "C M C 21"
_symmetry_group_IT_number 36
_symmetry_cell_setting 'orthorhombic'
loop_
_space_group_symop_operation_xyz
x,y,z
-x,-y,1/2+z
x,-y,1/2+z
-x,y,z
1/2+x,1/2+y,z
1/2-x,1/2-y,1/2+z
1/2+x,1/2-y,1/2+z
1/2-x,1/2+y,z
loop_
_atom_site_type_symbol
_atom_site_label
_atom_site_fract_x
_atom_site_fract_y
_atom_site_fract_z
Si Si1 0.867986 0.858635 0.301920
Si Si2 0.622887 0.728507 0.298432
Si Si3 0.368716 0.998325 0.571435
Si Si4 0.208678 0.969494 0.304887
Si Si5 0.776376 0.299849 0.538880
Si Si6 0.500000 0.458569 0.866496
Si Si7 0.127170 0.609986 0.239435
Si Si8 0.678356 0.625464 0.464364
O O1 0.841866 0.915941 0.354829
O O2 0.814574 0.821843 0.423254
O O3 0.000000 0.850684 0.290656
O O4 0.818131 0.856017 0.134894
O O5 0.500000 0.737309 0.234255
O O6 0.715474 0.731813 0.169189
O O7 0.644293 0.765886 0.436453
O O8 0.630171 0.671713 0.364281
O O9 0.500000 0.012887 0.555326
O O10 0.302853 0.987636 0.420273
O O11 0.365448 0.944911 0.661419
O O12 0.285121 0.035823 0.658042
O O13 0.101733 0.006582 0.290177
O O14 0.835249 0.347151 0.620803
O O15 0.403622 0.422172 0.944774
O O16 0.205355 0.613003 0.383647
O O17 0.000000 0.619293 0.282481
#
# Coordination Sequence:
#
# PCOD9352869 Si02
#       8
#     8   8   8   8   8   4   8   8
#     4  12  24  43  64 101 139 178 225 286 342 411
#     4  11  23  44  71 100 132 177 223 284 349 409
#     4  11  24  43  63  92 134 181 229 277 330 400
#     4  12  25  41  66  99 136 183 231 277 338 409
#     4  11  24  44  69 102 134 175 227 282 347 412
#     4  12  22  42  64 102 138 182 226 284 340 402
#     4  10  22  44  67  94 134 178 226 282 338 401
#     4  11  23  43  67  98 138 177 229 282 345 407
#
# _framework density 21.272473999999999
#
# number of rings (size 3 to 8) (size 9 to 14) (size 15 to 20)
#    0.000    0.800    4.667    2.800    0.000    0.533 
#    4.800   10.667    0.000    0.000    0.000    0.000 
#    0.000    0.000    0.000    0.000    0.000    0.000 
#
# Total GULP energy -167177.024317 kJ/mol
# GULP energy per Si atom -5572.567477 kJ/mol
# Density = 2.122406 g / cm^3
# Si number density = 21.272474 Si / 1000 Ang^3
#
#
#
# Elastic Constant Matrix: (Units=GPa)
#
#
# Indices 1 2 3 4 5 6 
#
# 1 173.6539 21.2057 58.4565 0.0000 0.0000 0.0000
# 2 21.2057 37.1500 3.7901 0.0000 0.0000 0.0000
# 3 58.4565 3.7901 84.1195 0.0000 0.0000 0.0000
# 4 0.0000 0.0000 0.0000 35.6049 0.0000 0.0000
# 5 0.0000 0.0000 0.0000 0.0000 19.5452 0.0000
# 6 0.0000 0.0000 0.0000 0.0000 0.0000 14.6461
#
#
#
# Elastic Compliance Matrix: (Units=1/GPa)
#
#
# Indices 1 2 3 4 5 6 
#
# 1 0.008084 -0.004060 -0.005435 0.000000 0.000000 0.000000
# 2 -0.004060 0.029081 0.001511 0.000000 0.000000 0.000000
# 3 -0.005435 0.001511 0.015596 0.000000 0.000000 0.000000
# 4 0.000000 0.000000 0.000000 0.028086 0.000000 0.000000
# 5 0.000000 0.000000 0.000000 0.000000 0.051163 0.000000
# 6 0.000000 0.000000 0.000000 0.000000 0.000000 0.068278
#
#
# Mechanical properties :
#
#
# Convention : Reuss Voigt Hill
#
# Bulk Modulus (GPa) = 27.17808 51.31422 39.24615
# Shear Modulus (GPa) = 21.87987 28.05731 24.96859
#
# Velocity S-wave (km/s) = 3.21059 3.63567 3.42972
# Velocity P-wave (km/s) = 5.15245 6.46521 5.84579
#
# Compressibility (1/GPa) = 0.03679436
#
# Stress axis : x y z
#
# Youngs Moduli (GPa) = 123.70389 34.38646 64.11711
#
# Poissons Ratio (x) = 0.13961 0.34846
# Poissons Ratio (y) = 0.50223 -0.09688
# Poissons Ratio (z) = 0.67229 -0.05196
#
# Static dielectric constant tensor:
#      x y z
#    x 1.735190 0.000000 0.000000 
#    y 0.000000 1.793850 0.000000 
#    z 0.000000 0.000000 1.804730 
# 
# From -- ./inp_files/3499.got.cif
#   From: 2010.05.17/outbox.cif.g08.bks.cpg/sg36_2_cif.got.tgz:3499.got - 2010.06.03 17:41:39.
