data_PCOD9352013
_publ_section_title
;
Structure prediction by ZEFSAII (Michael W. Deem and Ramdas Pophale) SiO2 
 PCOD9352013
Probable space group: C M C 21
;
_chemical_formula_sum "Si O2"
_cell_formula_units_Z 64
_cell_length_a 8.820842
_cell_length_b 29.345979
_cell_length_c 12.395334
_cell_angle_alpha 90.000000
_cell_angle_beta 90.000000
_cell_angle_gamma 90.000000
_cell_volume 3208.609604
_symmetry_space_group_name_H-M "C M C 21"
_symmetry_group_IT_number 36
_symmetry_cell_setting 'orthorhombic'
loop_
_space_group_symop_operation_xyz
x,y,z
-x,-y,1/2+z
x,-y,1/2+z
-x,y,z
1/2+x,1/2+y,z
1/2-x,1/2-y,1/2+z
1/2+x,1/2-y,1/2+z
1/2-x,1/2+y,z
loop_
_atom_site_type_symbol
_atom_site_label
_atom_site_fract_x
_atom_site_fract_y
_atom_site_fract_z
Si Si1 0.181718 0.334341 0.110830
Si Si2 0.822134 0.067347 0.656992
Si Si3 0.673007 0.978845 0.594049
Si Si4 0.326276 0.924163 0.373253
Si Si5 0.318985 0.224268 0.821113
Si Si6 0.682178 0.114960 0.199325
Si Si7 0.819557 0.839252 0.489532
Si Si8 0.180200 0.825280 0.877667
O O1 0.234483 0.386262 0.129581
O O2 0.228695 0.303280 0.213626
O O3 0.000000 0.331886 0.102746
O O4 0.255580 0.319891 0.997906
O O5 0.765689 0.054327 0.776349
O O6 0.000000 0.075921 0.651973
O O7 0.774028 0.023550 0.589134
O O8 0.500000 0.991354 0.625841
O O9 0.668090 0.956253 0.476609
O O10 0.726705 0.937315 0.671281
O O11 0.500000 0.913078 0.341866
O O12 0.239504 0.878909 0.409893
O O13 0.500000 0.217262 0.833817
O O14 0.238565 0.205624 0.928886
O O15 0.291115 0.278117 0.813839
O O16 0.500000 0.116433 0.193826
O O17 0.741508 0.133796 0.312487
O O18 0.747998 0.147395 0.104612
O O19 0.000000 0.839029 0.499035
O O20 0.000000 0.832834 0.882214
#
# Coordination Sequence:
#
# PCOD9352013 Si02
#       8
#     8   8   8   8   8   8   8   8
#     4  11  24  44  67  91 128 173 215 256 317 390
#     4  12  24  38  62  95 127 162 208 267 324 370
#     4   9  21  40  63  89 121 167 215 257 310 385
#     4  10  20  38  61  86 119 160 208 257 312 381
#     4  10  23  42  64  91 125 167 210 258 315 382
#     4  10  22  42  65  91 127 170 214 255 316 386
#     4  11  21  35  62  93 122 156 204 264 316 364
#     4  11  25  43  64  96 133 167 214 270 322 374
#
# _framework density 19.946334
#
# number of rings (size 3 to 8) (size 9 to 14) (size 15 to 20)
#    0.000    1.500    1.250    4.500    1.750    5.500 
#    0.000    1.250    0.000    0.000    0.000    0.000 
#    0.000    0.000    0.000    0.000    0.000    0.000 
#
# Total GULP energy -178778.679011 kJ/mol
# GULP energy per Si atom -5586.833719 kJ/mol
# Density = 1.990094 g / cm^3
# Si number density = 19.946334 Si / 1000 Ang^3
#
#
#
# Elastic Constant Matrix: (Units=GPa)
#
#
# Indices 1 2 3 4 5 6 
#
# 1 67.8429 28.9909 15.5993 0.0000 0.0000 0.0000
# 2 28.9909 79.4979 23.0897 0.0000 0.0000 0.0000
# 3 15.5993 23.0897 59.9678 0.0000 0.0000 0.0000
# 4 0.0000 0.0000 0.0000 15.7448 0.0000 0.0000
# 5 0.0000 0.0000 0.0000 0.0000 30.1291 0.0000
# 6 0.0000 0.0000 0.0000 0.0000 0.0000 24.4653
#
#
#
# Elastic Compliance Matrix: (Units=1/GPa)
#
#
# Indices 1 2 3 4 5 6 
#
# 1 0.017761 -0.005782 -0.002394 0.000000 0.000000 0.000000
# 2 -0.005782 0.016045 -0.004674 0.000000 0.000000 0.000000
# 3 -0.002394 -0.004674 0.019098 0.000000 0.000000 0.000000
# 4 0.000000 0.000000 0.000000 0.063513 0.000000 0.000000
# 5 0.000000 0.000000 0.000000 0.000000 0.033190 0.000000
# 6 0.000000 0.000000 0.000000 0.000000 0.000000 0.040874
#
#
# Mechanical properties :
#
#
# Convention : Reuss Voigt Hill
#
# Bulk Modulus (GPa) = 36.75821 38.07427 37.41624
# Shear Modulus (GPa) = 22.19765 23.37642 22.78704
#
# Velocity S-wave (km/s) = 3.33959 3.42711 3.38363
# Velocity P-wave (km/s) = 5.77400 5.89830 5.83648
#
# Compressibility (1/GPa) = 0.02720481
#
# Stress axis : x y z
#
# Youngs Moduli (GPa) = 56.30302 62.32513 52.36161
#
# Poissons Ratio (x) = 0.36035 0.12535
# Poissons Ratio (y) = 0.32553 0.24473
# Poissons Ratio (z) = 0.13479 0.29130
#
# Static dielectric constant tensor:
#      x y z
#    x 1.671100 0.000000 0.000000 
#    y 0.000000 1.734770 0.000000 
#    z 0.000000 0.000000 1.739090 
# 
# From -- ./inp_files/7180.got.cif
#   From: 2010.05.17/outbox.cif.g08.bks.cpg/sg36_4_cif.got.tgz:7180.got - 2010.06.03 17:41:39.
