data_PCOD9352414
_publ_section_title
;
Structure prediction by ZEFSAII (Michael W. Deem and Ramdas Pophale) SiO2 
 PCOD9352414
Probable space group: C M C 21
;
_chemical_formula_sum "Si O2"
_cell_formula_units_Z 56
_cell_length_a 29.532838
_cell_length_b 5.036517
_cell_length_c 14.387420
_cell_angle_alpha 90.000000
_cell_angle_beta 90.000000
_cell_angle_gamma 90.000000
_cell_volume 2140.022843
_symmetry_space_group_name_H-M "C M C 21"
_symmetry_group_IT_number 36
_symmetry_cell_setting 'orthorhombic'
loop_
_space_group_symop_operation_xyz
x,y,z
-x,-y,1/2+z
x,-y,1/2+z
-x,y,z
1/2+x,1/2+y,z
1/2-x,1/2-y,1/2+z
1/2+x,1/2-y,1/2+z
1/2-x,1/2+y,z
loop_
_atom_site_type_symbol
_atom_site_label
_atom_site_fract_x
_atom_site_fract_y
_atom_site_fract_z
Si Si1 0.223103 0.148582 0.708840
Si Si2 0.047529 0.983745 0.792543
Si Si3 0.914841 0.032077 0.977028
Si Si4 0.274838 0.708292 0.934942
Si Si5 0.050031 0.360780 0.127326
Si Si6 0.625758 0.145094 0.217363
Si Si7 0.136674 0.460797 0.419751
O O1 0.239287 0.860734 0.677974
O O2 0.224063 0.169130 0.822143
O O3 0.172463 0.228730 0.682559
O O4 0.050546 0.927689 0.900746
O O5 0.092325 0.137916 0.762094
O O6 0.000000 0.125445 0.770425
O O7 0.046598 0.714512 0.735336
O O8 0.903042 0.333475 0.946219
O O9 0.873404 0.828959 0.961359
O O10 0.938160 0.085333 0.074904
O O11 0.234871 0.909090 0.966252
O O12 0.319588 0.877894 0.955053
O O13 0.096381 0.526328 0.133075
O O14 0.000000 0.454237 0.095446
O O15 0.638827 0.954038 0.305799
#
# Coordination Sequence:
#
# PCOD9352414 Si02
#       7
#     8   8   8   8   8   8   8
#     4   9  19  32  57  91 124 159 208 259 316 380
#     4  10  22  41  64  94 130 170 218 268 322 387
#     4  11  23  41  62  92 127 170 210 265 319 380
#     4   9  16  29  54  88 119 154 203 260 310 374
#     4  11  24  41  64  94 128 173 220 267 324 385
#     4  10  21  38  65  91 130 168 215 266 323 381
#     4  10  21  38  62  90 126 166 212 257 323 381
#
# _framework density 26.167946000000001
#
# number of rings (size 3 to 8) (size 9 to 14) (size 15 to 20)
#    0.000    2.000    1.429    1.714    4.000    3.429 
#    0.000    1.429    0.000    5.143    0.000    0.000 
#    0.000    0.000    0.000    0.000    0.000    0.000 
#
# Total GULP energy -156390.606923 kJ/mol
# GULP energy per Si atom -5585.378819 kJ/mol
# Density = 2.610839 g / cm^3
# Si number density = 26.167946 Si / 1000 Ang^3
#
#
#
# Elastic Constant Matrix: (Units=GPa)
#
#
# Indices 1 2 3 4 5 6 
#
# 1 132.3034 7.5862 -0.6988 0.0000 0.0000 0.0000
# 2 7.5862 93.7789 0.5884 0.0000 0.0000 0.0000
# 3 -0.6988 0.5884 54.7916 0.0000 0.0000 0.0000
# 4 0.0000 0.0000 0.0000 32.4662 0.0000 0.0000
# 5 0.0000 0.0000 0.0000 0.0000 11.4168 0.0000
# 6 0.0000 0.0000 0.0000 0.0000 0.0000 25.5200
#
#
#
# Elastic Compliance Matrix: (Units=1/GPa)
#
#
# Indices 1 2 3 4 5 6 
#
# 1 0.007594 -0.000615 0.000103 0.000000 0.000000 0.000000
# 2 -0.000615 0.010714 -0.000123 0.000000 0.000000 0.000000
# 3 0.000103 -0.000123 0.018254 0.000000 0.000000 0.000000
# 4 0.000000 0.000000 0.000000 0.030801 0.000000 0.000000
# 5 0.000000 0.000000 0.000000 0.000000 0.087590 0.000000
# 6 0.000000 0.000000 0.000000 0.000000 0.000000 0.039185
#
#
# Mechanical properties :
#
#
# Convention : Reuss Voigt Hill
#
# Bulk Modulus (GPa) = 28.33436 32.86953 30.60194
# Shear Modulus (GPa) = 24.13458 32.10712 28.12085
#
# Velocity S-wave (km/s) = 3.04023 3.50660 3.28171
# Velocity P-wave (km/s) = 4.81408 5.38361 5.10679
#
# Compressibility (1/GPa) = 0.03529284
#
# Stress axis : x y z
#
# Youngs Moduli (GPa) = 131.67957 93.33670 54.78368
#
# Poissons Ratio (x) = 0.05740 -0.00567
# Poissons Ratio (y) = 0.08098 0.00673
# Poissons Ratio (z) = -0.01362 0.01147
#
# Static dielectric constant tensor:
#      x y z
#    x 2.136510 0.000000 0.000000 
#    y 0.000000 2.040210 0.000000 
#    z 0.000000 0.000000 2.139760 
# 
# From -- ./inp_files/13156.got.cif
#   From: 2010.05.17/outbox.cif.g08.bks.cpg/sg36_7_cif.got.tgz:13156.got - 2010.06.03 17:41:39.
