data_PCOD9352428
_publ_section_title
;
Structure prediction by ZEFSAII (Michael W. Deem and Ramdas Pophale) SiO2 
 PCOD9352428
Probable space group: C M C 21
;
_chemical_formula_sum "Si O2"
_cell_formula_units_Z 48
_cell_length_a 14.027107
_cell_length_b 27.636824
_cell_length_c 5.268969
_cell_angle_alpha 90.000000
_cell_angle_beta 90.000000
_cell_angle_gamma 90.000000
_cell_volume 2042.593220
_symmetry_space_group_name_H-M "C M C 21"
_symmetry_group_IT_number 36
_symmetry_cell_setting 'orthorhombic'
loop_
_space_group_symop_operation_xyz
x,y,z
-x,-y,1/2+z
x,-y,1/2+z
-x,y,z
1/2+x,1/2+y,z
1/2-x,1/2-y,1/2+z
1/2+x,1/2-y,1/2+z
1/2-x,1/2+y,z
loop_
_atom_site_type_symbol
_atom_site_label
_atom_site_fract_x
_atom_site_fract_y
_atom_site_fract_z
Si Si1 0.108486 0.749248 0.265120
Si Si2 0.403697 0.664837 0.412551
Si Si3 0.165822 0.906730 0.285799
Si Si4 0.297327 0.969742 0.965110
Si Si5 0.754281 0.676096 0.043843
Si Si6 0.000000 0.531791 0.576672
Si Si7 0.500000 0.532489 0.023393
O O1 0.152846 0.698981 0.169536
O O2 0.187934 0.779731 0.427562
O O3 0.000000 0.746224 0.372468
O O4 0.100183 0.780771 0.009937
O O5 0.500000 0.656516 0.259547
O O6 0.403261 0.632014 0.658214
O O7 0.309747 0.654758 0.265526
O O8 0.207281 0.940935 0.067221
O O9 0.253835 0.871403 0.368622
O O10 0.097980 0.937061 0.474893
O O11 0.398624 0.943709 0.020993
O O12 0.297166 0.014416 0.171025
O O13 0.000000 0.488427 0.364205
O O14 0.500000 0.491988 0.799412
#
# Coordination Sequence:
#
# PCOD9352428 Si02
#       7
#     8   8   8   8   8   4   4
#     4  10  21  40  63  95 124 173 224 270 340 415
#     4  10  21  38  64  88 124 168 214 267 328 407
#     4  11  25  38  60  95 128 168 218 274 345 409
#     4  10  21  39  63  87 119 164 211 265 328 396
#     4  11  22  39  64  93 133 171 221 280 337 420
#     4   8  16  34  60  84 104 146 206 246 296 378
#     4  12  28  46  68 100 140 182 234 294 356 428
#
# _framework density 23.499538999999999
#
# number of rings (size 3 to 8) (size 9 to 14) (size 15 to 20)
#    0.000    1.667    2.500    1.500    7.000    0.000 
#    1.500    0.000    1.833    0.000    0.000    0.000 
#    0.000    0.000    0.000    0.000    0.000    0.000 
#
# Total GULP energy -133727.684751 kJ/mol
# GULP energy per Si atom -5571.986865 kJ/mol
# Density = 2.344605 g / cm^3
# Si number density = 23.499539 Si / 1000 Ang^3
#
#
#
# Elastic Constant Matrix: (Units=GPa)
#
#
# Indices 1 2 3 4 5 6 
#
# 1 77.0980 22.8979 -6.7598 0.0000 0.0000 0.0000
# 2 22.8979 66.9544 7.1319 0.0000 0.0000 0.0000
# 3 -6.7598 7.1319 63.3133 0.0000 0.0000 0.0000
# 4 0.0000 0.0000 0.0000 26.2062 0.0000 0.0000
# 5 0.0000 0.0000 0.0000 0.0000 -9.4583 0.0000
# 6 0.0000 0.0000 0.0000 0.0000 0.0000 -24.8229
#
#
#
# Elastic Compliance Matrix: (Units=1/GPa)
#
#
# Indices 1 2 3 4 5 6 
#
# 1 0.014724 -0.005266 0.002165 0.000000 0.000000 0.000000
# 2 -0.005266 0.017000 -0.002477 0.000000 0.000000 0.000000
# 3 0.002165 -0.002477 0.016305 0.000000 0.000000 0.000000
# 4 0.000000 0.000000 0.000000 0.038159 0.000000 0.000000
# 5 0.000000 0.000000 0.000000 0.000000 -0.105727 0.000000
# 6 0.000000 0.000000 0.000000 0.000000 0.000000 -0.040285
#
#
# Mechanical properties :
#
#
# Convention : Reuss Voigt Hill
#
# Bulk Modulus (GPa) = 27.12006 28.21174 27.66590
# Shear Modulus (GPa) = -137.45231 10.65805 -63.39713
#
# Velocity S-wave (km/s) = -7.65627 2.13196 -5.19967
# Velocity P-wave (km/s) = 8.16041 4.25343 4.92446
#
# Compressibility (1/GPa) = 0.03687307
#
# Stress axis : x y z
#
# Youngs Moduli (GPa) = 67.91431 58.82196 61.33203
#
# Poissons Ratio (x) = 0.30977 -0.13280
# Poissons Ratio (y) = 0.35766 0.15194
# Poissons Ratio (z) = -0.14706 0.14572
#
# Static dielectric constant tensor:
#      x y z
#    x 2.119040 0.000000 0.000000 
#    y 0.000000 1.903030 0.000000 
#    z 0.000000 0.000000 1.974020 
# 
# From -- ./inp_files/843.got.cif
#   From: 2010.05.17/outbox.cif.g08.bks.cpg/sg36_1_cif.got.tgz:843.got - 2010.06.03 17:41:39.
