data_PCOD9352384
_publ_section_title
;
Structure prediction by ZEFSAII (Michael W. Deem and Ramdas Pophale) SiO2 
 PCOD9352384
Probable space group: C M C 21
;
_chemical_formula_sum "Si O2"
_cell_formula_units_Z 64
_cell_length_a 7.763489
_cell_length_b 30.176706
_cell_length_c 12.685547
_cell_angle_alpha 90.000000
_cell_angle_beta 90.000000
_cell_angle_gamma 90.000000
_cell_volume 2971.925870
_symmetry_space_group_name_H-M "C M C 21"
_symmetry_group_IT_number 36
_symmetry_cell_setting 'orthorhombic'
loop_
_space_group_symop_operation_xyz
x,y,z
-x,-y,1/2+z
x,-y,1/2+z
-x,y,z
1/2+x,1/2+y,z
1/2-x,1/2-y,1/2+z
1/2+x,1/2-y,1/2+z
1/2-x,1/2+y,z
loop_
_atom_site_type_symbol
_atom_site_label
_atom_site_fract_x
_atom_site_fract_y
_atom_site_fract_z
Si Si1 0.210955 0.819024 0.281400
Si Si2 0.801347 0.723138 0.333784
Si Si3 0.292328 0.583206 0.832036
Si Si4 0.797878 0.634766 0.227477
Si Si5 0.204419 0.969338 0.125443
Si Si6 0.205311 0.434845 0.568533
Si Si7 0.198120 0.084205 0.433242
Si Si8 0.698169 0.679329 0.541023
O O1 0.273352 0.772394 0.327785
O O2 0.270216 0.865792 0.328418
O O3 0.261685 0.817830 0.159064
O O4 0.000000 0.820457 0.287131
O O5 0.722631 0.682143 0.266101
O O6 0.797188 0.706589 0.453436
O O7 0.000000 0.727332 0.299324
O O8 0.500000 0.583468 0.824455
O O9 0.228757 0.555885 0.729504
O O10 0.248388 0.563241 0.945316
O O11 0.725516 0.609702 0.125429
O O12 0.783222 0.600152 0.324962
O O13 0.000000 0.642745 0.209250
O O14 0.000000 0.959431 0.120217
O O15 0.228191 0.021732 0.128257
O O16 0.275789 0.952041 0.012585
O O17 0.000000 0.434563 0.579448
O O18 0.198124 0.128411 0.504926
O O19 0.000000 0.072275 0.406644
O O20 0.500000 0.694832 0.538736
#
# Coordination Sequence:
#
# PCOD9352384 Si02
#       8
#     8   8   8   8   8   8   8   8
#     4   9  17  33  58  82 108 145 185 229 279 331
#     4   9  18  33  54  80 110 148 189 226 274 332
#     4  10  21  40  62  85 113 145 189 237 284 335
#     4   9  20  37  53  76 114 153 185 222 274 335
#     4  10  21  38  60  84 108 140 187 239 284 332
#     4  11  25  40  55  81 120 156 187 226 281 344
#     4   9  17  32  57  82 102 131 181 239 280 321
#     4   9  16  31  53  78 105 138 181 230 280 326
#
# _framework density 21.534856999999999
#
# number of rings (size 3 to 8) (size 9 to 14) (size 15 to 20)
#    0.000    2.500    1.250    0.375    1.750    3.000 
#    0.000    3.125    0.000    0.000    0.000    0.000 
#    0.000    0.000    0.000    0.000    0.000    0.000 
#
# Total GULP energy -178440.909558 kJ/mol
# GULP energy per Si atom -5576.278424 kJ/mol
# Density = 2.148584 g / cm^3
# Si number density = 21.534857 Si / 1000 Ang^3
#
#
#
# Elastic Constant Matrix: (Units=GPa)
#
#
# Indices 1 2 3 4 5 6 
#
# 1 27.0173 -0.4034 -3.1715 0.0000 0.0000 0.0000
# 2 -0.4034 114.9219 44.3536 0.0000 0.0000 0.0000
# 3 -3.1715 44.3536 60.9900 0.0000 0.0000 0.0000
# 4 0.0000 0.0000 0.0000 21.6421 0.0000 0.0000
# 5 0.0000 0.0000 0.0000 0.0000 24.0961 0.0000
# 6 0.0000 0.0000 0.0000 0.0000 0.0000 12.3821
#
#
#
# Elastic Compliance Matrix: (Units=1/GPa)
#
#
# Indices 1 2 3 4 5 6 
#
# 1 0.037302 -0.000859 0.002564 0.000000 0.000000 0.000000
# 2 -0.000859 0.012117 -0.008856 0.000000 0.000000 0.000000
# 3 0.002564 -0.008856 0.022970 0.000000 0.000000 0.000000
# 4 0.000000 0.000000 0.000000 0.046206 0.000000 0.000000
# 5 0.000000 0.000000 0.000000 0.000000 0.041500 0.000000
# 6 0.000000 0.000000 0.000000 0.000000 0.000000 0.080762
#
#
# Mechanical properties :
#
#
# Convention : Reuss Voigt Hill
#
# Bulk Modulus (GPa) = 17.21569 31.60962 24.41266
# Shear Modulus (GPa) = 18.21361 22.43409 20.32385
#
# Velocity S-wave (km/s) = 2.91137 3.23113 3.07541
# Velocity P-wave (km/s) = 4.39467 5.35074 4.89610
#
# Compressibility (1/GPa) = 0.05808656
#
# Stress axis : x y z
#
# Youngs Moduli (GPa) = 26.80856 82.53191 43.53527
#
# Poissons Ratio (x) = 0.07087 -0.11163
# Poissons Ratio (y) = 0.02302 0.38555
# Poissons Ratio (z) = -0.06874 0.73091
#
# Static dielectric constant tensor:
#      x y z
#    x 1.807670 0.000000 0.000000 
#    y 0.000000 1.802020 0.000000 
#    z 0.000000 0.000000 1.771400 
# 
# From -- ./inp_files/7245.got.cif
#   From: 2010.05.17/outbox.cif.g08.bks.cpg/sg36_4_cif.got.tgz:7245.got - 2010.06.03 17:41:39.
