data_PCOD9352871
_publ_section_title
;
Structure prediction by ZEFSAII (Michael W. Deem and Ramdas Pophale) SiO2 
 PCOD9352871
Probable space group: C M C 21
;
_chemical_formula_sum "Si O2"
_cell_formula_units_Z 48
_cell_length_a 18.216939
_cell_length_b 10.380121
_cell_length_c 11.470915
_cell_angle_alpha 90.000000
_cell_angle_beta 90.000000
_cell_angle_gamma 90.000000
_cell_volume 2169.081557
_symmetry_space_group_name_H-M "C M C 21"
_symmetry_group_IT_number 36
_symmetry_cell_setting 'orthorhombic'
loop_
_space_group_symop_operation_xyz
x,y,z
-x,-y,1/2+z
x,-y,1/2+z
-x,y,z
1/2+x,1/2+y,z
1/2-x,1/2-y,1/2+z
1/2+x,1/2-y,1/2+z
1/2-x,1/2+y,z
loop_
_atom_site_type_symbol
_atom_site_label
_atom_site_fract_x
_atom_site_fract_y
_atom_site_fract_z
Si Si1 0.415179 0.468331 0.475310
Si Si2 0.915795 0.677890 0.192543
Si Si3 0.177485 0.420473 0.233522
Si Si4 0.650245 0.547284 0.728972
Si Si5 0.419412 0.896078 0.431379
Si Si6 0.581882 0.178208 0.540115
O O1 0.500000 0.512029 0.477945
O O2 0.379381 0.512969 0.351816
O O3 0.379519 0.499452 0.602350
O O4 0.414663 0.312183 0.473758
O O5 0.871069 0.549796 0.221966
O O6 0.875693 0.804928 0.232852
O O7 0.000000 0.671715 0.234422
O O8 0.918210 0.679424 0.052161
O O9 0.261947 0.454752 0.228849
O O10 0.149303 0.359347 0.353244
O O11 0.148364 0.329843 0.130697
O O12 0.500000 0.876186 0.376361
O O13 0.413471 0.047642 0.465251
O O14 0.500000 0.172530 0.596123
#
# Coordination Sequence:
#
# PCOD9352871 Si02
#       6
#     8   8   8   8   8   8
#     4  11  25  48  69  94 134 183 232 271 333 413
#     4  10  22  44  68  93 132 184 229 270 337 413
#     4  11  23  37  65 102 138 165 220 287 343 395
#     4  12  28  42  71  99 138 180 224 284 342 395
#     4   9  18  36  66  98 129 171 225 275 331 403
#     4   9  20  39  67  94 129 177 224 273 334 405
#
# _framework density 22.129180999999999
#
# number of rings (size 3 to 8) (size 9 to 14) (size 15 to 20)
#    0.000    1.667    0.000    5.000    7.000    2.667 
#    0.000    1.667    0.000    0.000    0.000    0.000 
#    0.000    0.000    0.000    0.000    0.000    0.000 
#
# Total GULP energy -134031.568200 kJ/mol
# GULP energy per Si atom -5584.648675 kJ/mol
# Density = 2.207881 g / cm^3
# Si number density = 22.129181 Si / 1000 Ang^3
#
#
#
# Elastic Constant Matrix: (Units=GPa)
#
#
# Indices 1 2 3 4 5 6 
#
# 1 142.1578 -18.9956 41.0219 0.0000 0.0000 0.0000
# 2 -18.9956 34.0833 -17.8332 0.0000 0.0000 0.0000
# 3 41.0219 -17.8332 129.5229 0.0000 0.0000 0.0000
# 4 0.0000 0.0000 0.0000 4.5373 0.0000 0.0000
# 5 0.0000 0.0000 0.0000 0.0000 66.5072 0.0000
# 6 0.0000 0.0000 0.0000 0.0000 0.0000 33.0868
#
#
#
# Elastic Compliance Matrix: (Units=1/GPa)
#
#
# Indices 1 2 3 4 5 6 
#
# 1 0.008095 0.003416 -0.002093 0.000000 0.000000 0.000000
# 2 0.003416 0.033059 0.003470 0.000000 0.000000 0.000000
# 3 -0.002093 0.003470 0.008861 0.000000 0.000000 0.000000
# 4 0.000000 0.000000 0.000000 0.220395 0.000000 0.000000
# 5 0.000000 0.000000 0.000000 0.000000 0.015036 0.000000
# 6 0.000000 0.000000 0.000000 0.000000 0.000000 0.030224
#
#
# Mechanical properties :
#
#
# Convention : Reuss Voigt Hill
#
# Bulk Modulus (GPa) = 16.77830 34.90558 25.84194
# Shear Modulus (GPa) = 15.33970 40.93099 28.13534
#
# Velocity S-wave (km/s) = 2.63570 4.30541 3.56956
# Velocity P-wave (km/s) = 4.10622 6.36578 5.35650
#
# Compressibility (1/GPa) = 0.05960080
#
# Stress axis : x y z
#
# Youngs Moduli (GPa) = 123.53264 30.24867 112.84900
#
# Poissons Ratio (x) = -0.10334 0.23624
# Poissons Ratio (y) = -0.42202 -0.39156
# Poissons Ratio (z) = 0.25861 -0.10496
#
# Static dielectric constant tensor:
#      x y z
#    x 1.746320 0.000000 0.000000 
#    y 0.000000 1.854780 0.000000 
#    z 0.000000 0.000000 1.949510 
# 
# From -- ./inp_files/8861.got.cif
#   From: 2010.05.17/outbox.cif.g08.bks.cpg/sg36_5_cif.got.tgz:8861.got - 2010.06.03 17:41:39.
