data_PCOD9352199
_publ_section_title
;
Structure prediction by ZEFSAII (Michael W. Deem and Ramdas Pophale) SiO2 
 PCOD9352199
Probable space group: C M C 21
;
_chemical_formula_sum "Si O2"
_cell_formula_units_Z 56
_cell_length_a 15.340078
_cell_length_b 16.674297
_cell_length_c 9.957516
_cell_angle_alpha 90.000000
_cell_angle_beta 90.000000
_cell_angle_gamma 90.000000
_cell_volume 2546.983395
_symmetry_space_group_name_H-M "C M C 21"
_symmetry_group_IT_number 36
_symmetry_cell_setting 'orthorhombic'
loop_
_space_group_symop_operation_xyz
x,y,z
-x,-y,1/2+z
x,-y,1/2+z
-x,y,z
1/2+x,1/2+y,z
1/2-x,1/2-y,1/2+z
1/2+x,1/2-y,1/2+z
1/2-x,1/2+y,z
loop_
_atom_site_type_symbol
_atom_site_label
_atom_site_fract_x
_atom_site_fract_y
_atom_site_fract_z
Si Si1 0.404713 0.369194 0.284780
Si Si2 0.598281 0.525858 0.458726
Si Si3 0.397342 0.908117 0.120890
Si Si4 0.307032 0.339795 0.801140
Si Si5 0.598143 0.740349 0.048838
Si Si6 0.261635 0.950659 0.594681
Si Si7 0.722743 0.162776 0.836357
O O1 0.500000 0.353699 0.218903
O O2 0.403267 0.459364 0.341107
O O3 0.403954 0.312054 0.415858
O O4 0.306064 0.351937 0.236060
O O5 0.500000 0.527351 0.512713
O O6 0.628582 0.609658 0.395345
O O7 0.669491 0.494954 0.564911
O O8 0.500000 0.926639 0.121894
O O9 0.362531 0.869126 0.259836
O O10 0.338424 0.984652 0.091248
O O11 0.378529 0.832940 0.022104
O O12 0.348967 0.304724 0.663748
O O13 0.240511 0.404756 0.737594
O O14 0.278376 0.257021 0.869639
O O15 0.500000 0.744365 0.103329
O O16 0.270610 0.889166 0.470930
#
# Coordination Sequence:
#
# PCOD9352199 Si02
#       7
#     8   8   8   8   8   8   8
#     4   9  17  35  58  86 117 153 197 245 303 366
#     4  10  21  34  57  91 122 155 200 249 304 371
#     4  10  23  41  62  87 118 164 217 260 308 371
#     4  11  21  35  60  89 127 162 203 250 309 372
#     4   9  17  34  60  83 110 156 203 241 296 365
#     4  11  22  40  62  88 124 164 203 259 312 363
#     4  10  22  39  63  90 122 160 211 260 306 372
#
# _framework density 21.986795000000001
#
# number of rings (size 3 to 8) (size 9 to 14) (size 15 to 20)
#    0.000    2.000    2.857    2.143    2.000    1.714 
#    0.000    1.429    0.000    0.000    0.000    0.000 
#    0.000    0.000    0.000    0.000    0.000    0.000 
#
# Total GULP energy -156203.944425 kJ/mol
# GULP energy per Si atom -5578.712301 kJ/mol
# Density = 2.193675 g / cm^3
# Si number density = 21.986795 Si / 1000 Ang^3
#
#
#
# Elastic Constant Matrix: (Units=GPa)
#
#
# Indices 1 2 3 4 5 6 
#
# 1 136.6204 77.4601 24.5138 0.0000 0.0000 0.0000
# 2 77.4601 176.4921 35.2567 0.0000 0.0000 0.0000
# 3 24.5138 35.2567 48.1912 0.0000 0.0000 0.0000
# 4 0.0000 0.0000 0.0000 29.2152 0.0000 0.0000
# 5 0.0000 0.0000 0.0000 0.0000 15.7027 0.0000
# 6 0.0000 0.0000 0.0000 0.0000 0.0000 31.2240
#
#
#
# Elastic Compliance Matrix: (Units=1/GPa)
#
#
# Indices 1 2 3 4 5 6 
#
# 1 0.009937 -0.003925 -0.002183 0.000000 0.000000 0.000000
# 2 -0.003925 0.008186 -0.003992 0.000000 0.000000 0.000000
# 3 -0.002183 -0.003992 0.024782 0.000000 0.000000 0.000000
# 4 0.000000 0.000000 0.000000 0.034229 0.000000 0.000000
# 5 0.000000 0.000000 0.000000 0.000000 0.063683 0.000000
# 6 0.000000 0.000000 0.000000 0.000000 0.000000 0.032027
#
#
# Mechanical properties :
#
#
# Convention : Reuss Voigt Hill
#
# Bulk Modulus (GPa) = 44.04530 70.64055 57.34293
# Shear Modulus (GPa) = 24.92371 30.16659 27.54515
#
# Velocity S-wave (km/s) = 3.37051 3.70811 3.54334
# Velocity P-wave (km/s) = 5.93492 7.10858 6.54810
#
# Compressibility (1/GPa) = 0.02270390
#
# Stress axis : x y z
#
# Youngs Moduli (GPa) = 100.63808 122.15783 40.35181
#
# Poissons Ratio (x) = 0.47946 0.08809
# Poissons Ratio (y) = 0.39500 0.16110
# Poissons Ratio (z) = 0.21970 0.48771
#
# Static dielectric constant tensor:
#      x y z
#    x 1.880760 0.000000 0.000000 
#    y 0.000000 1.840470 0.000000 
#    z 0.000000 0.000000 1.824950 
# 
# From -- ./inp_files/8468.got.cif
#   From: 2010.05.17/outbox.cif.g08.bks.cpg/sg36_5_cif.got.tgz:8468.got - 2010.06.03 17:41:39.
