data_PCOD9352016
_publ_section_title
;
Structure prediction by ZEFSAII (Michael W. Deem and Ramdas Pophale) SiO2 
 PCOD9352016
Probable space group: C M C 21
;
_chemical_formula_sum "Si O2"
_cell_formula_units_Z 40
_cell_length_a 25.132696
_cell_length_b 15.398211
_cell_length_c 4.984150
_cell_angle_alpha 90.000000
_cell_angle_beta 90.000000
_cell_angle_gamma 90.000000
_cell_volume 1928.858853
_symmetry_space_group_name_H-M "C M C 21"
_symmetry_group_IT_number 36
_symmetry_cell_setting 'orthorhombic'
loop_
_space_group_symop_operation_xyz
x,y,z
-x,-y,1/2+z
x,-y,1/2+z
-x,y,z
1/2+x,1/2+y,z
1/2-x,1/2-y,1/2+z
1/2+x,1/2-y,1/2+z
1/2-x,1/2+y,z
loop_
_atom_site_type_symbol
_atom_site_label
_atom_site_fract_x
_atom_site_fract_y
_atom_site_fract_z
Si Si1 0.564474 0.950638 0.139330
Si Si2 0.936683 0.738703 0.880918
Si Si3 0.273978 0.793722 0.165677
Si Si4 0.799170 0.056997 0.702264
Si Si5 0.374840 0.290949 0.407846
O O1 0.500000 0.955187 0.124473
O O2 0.583792 0.024484 0.345200
O O3 0.575427 0.856362 0.257668
O O4 0.907617 0.751224 0.162393
O O5 0.000000 0.745988 0.914498
O O6 0.914057 0.805301 0.659124
O O7 0.231728 0.759716 0.941705
O O8 0.256583 0.891274 0.231622
O O9 0.329379 0.772820 0.025389
O O10 0.844107 0.124445 0.799588
O O11 0.802912 0.974787 0.898031
#
# Coordination Sequence:
#
# PCOD9352016 Si02
#       5
#     8   8   8   8   8
#     4   9  17  31  50  73 104 144 192 242 287 330
#     4  11  22  37  59  86 120 167 214 250 291 356
#     4  10  20  38  61  87 117 151 191 243 309 375
#     4  11  22  39  64  91 119 152 196 250 310 374
#     4  11  22  39  62  87 120 160 202 249 304 367
#
# _framework density 20.737651
#
# number of rings (size 3 to 8) (size 9 to 14) (size 15 to 20)
#    0.000    1.600    0.000    7.800    0.000    3.200 
#    0.000    6.000    0.000   12.000    0.000    0.000 
#    0.000    0.000    0.000    0.000    0.000    0.000 
#
# Total GULP energy -111716.931709 kJ/mol
# GULP energy per Si atom -5585.846585 kJ/mol
# Density = 2.069045 g / cm^3
# Si number density = 20.737651 Si / 1000 Ang^3
#
#
#
# Elastic Constant Matrix: (Units=GPa)
#
#
# Indices 1 2 3 4 5 6 
#
# 1 69.3028 24.0180 5.2491 0.0000 0.0000 0.0000
# 2 24.0180 45.9631 -3.1423 0.0000 0.0000 0.0000
# 3 5.2491 -3.1423 89.3785 0.0000 0.0000 0.0000
# 4 0.0000 0.0000 0.0000 37.1246 0.0000 0.0000
# 5 0.0000 0.0000 0.0000 0.0000 42.8305 0.0000
# 6 0.0000 0.0000 0.0000 0.0000 0.0000 13.1177
#
#
#
# Elastic Compliance Matrix: (Units=1/GPa)
#
#
# Indices 1 2 3 4 5 6 
#
# 1 0.017787 -0.009389 -0.001375 0.000000 0.000000 0.000000
# 2 -0.009389 0.026765 0.001492 0.000000 0.000000 0.000000
# 3 -0.001375 0.001492 0.011322 0.000000 0.000000 0.000000
# 4 0.000000 0.000000 0.000000 0.026936 0.000000 0.000000
# 5 0.000000 0.000000 0.000000 0.000000 0.023348 0.000000
# 6 0.000000 0.000000 0.000000 0.000000 0.000000 0.076233
#
#
# Mechanical properties :
#
#
# Convention : Reuss Voigt Hill
#
# Bulk Modulus (GPa) = 26.78711 28.54380 27.66546
# Shear Modulus (GPa) = 23.43275 30.51587 26.97431
#
# Velocity S-wave (km/s) = 3.36514 3.84020 3.61049
# Velocity P-wave (km/s) = 5.29566 5.78420 5.54531
#
# Compressibility (1/GPa) = 0.03733139
#
# Stress axis : x y z
#
# Youngs Moduli (GPa) = 56.21967 37.36266 88.32695
#
# Poissons Ratio (x) = 0.35079 0.12142
# Poissons Ratio (y) = 0.52783 -0.13181
# Poissons Ratio (z) = 0.07729 -0.05576
#
# Static dielectric constant tensor:
#      x y z
#    x 1.766290 0.000000 0.000000 
#    y 0.000000 1.749070 0.000000 
#    z 0.000000 0.000000 1.728700 
# 
# From -- ./inp_files/1704.got.cif
#   From: 2010.05.17/outbox.cif.g08.bks.cpg/sg36_1_cif.got.tgz:1704.got - 2010.06.03 17:41:39.
