data_PCOD9352224
_publ_section_title
;
Structure prediction by ZEFSAII (Michael W. Deem and Ramdas Pophale) SiO2 
 PCOD9352224
Probable space group: C M C 21
;
_chemical_formula_sum "Si O2"
_cell_formula_units_Z 48
_cell_length_a 25.031451
_cell_length_b 10.611425
_cell_length_c 9.090330
_cell_angle_alpha 90.000000
_cell_angle_beta 90.000000
_cell_angle_gamma 90.000000
_cell_volume 2414.567682
_symmetry_space_group_name_H-M "C M C 21"
_symmetry_group_IT_number 36
_symmetry_cell_setting 'orthorhombic'
loop_
_space_group_symop_operation_xyz
x,y,z
-x,-y,1/2+z
x,-y,1/2+z
-x,y,z
1/2+x,1/2+y,z
1/2-x,1/2-y,1/2+z
1/2+x,1/2-y,1/2+z
1/2-x,1/2+y,z
loop_
_atom_site_type_symbol
_atom_site_label
_atom_site_fract_x
_atom_site_fract_y
_atom_site_fract_z
Si Si1 0.378780 0.170872 0.436070
Si Si2 0.330130 0.325982 0.967600
Si Si3 0.383796 0.090450 0.101799
Si Si4 0.500000 0.038346 0.176355
Si Si5 0.500000 0.828004 0.973329
Si Si6 0.225920 0.174416 0.968962
Si Si7 0.196725 0.005288 0.217889
O O1 0.367548 0.121103 0.269984
O O2 0.439855 0.225156 0.449002
O O3 0.334099 0.272955 0.472630
O O4 0.372517 0.050148 0.543459
O O5 0.360508 0.196199 0.994263
O O6 0.267794 0.286414 0.962387
O O7 0.336565 0.417103 0.107555
O O8 0.339288 0.405092 0.820354
O O9 0.447611 0.099384 0.108991
O O10 0.500000 0.061229 0.349837
O O11 0.500000 0.892437 0.132474
O O12 0.233848 0.091163 0.114627
O O13 0.229590 0.084323 0.827574
#
# Coordination Sequence:
#
# PCOD9352224 Si02
#       7
#     8   8   8   4   4   8   8
#     4  10  21  35  59  87 114 146 188 234 287 332
#     4  11  23  38  59  80 114 151 188 230 279 333
#     4  10  21  35  59  87 114 146 188 234 287 332
#     4   8  16  34  54  81 113 142 180 237 284 326
#     4   8  16  34  54  81 113 142 180 237 284 326
#     4  11  23  38  59  80 114 151 188 230 279 333
#     4  10  24  40  54  79 116 149 188 232 272 332
#
# _framework density 19.879335000000001
#
# number of rings (size 3 to 8) (size 9 to 14) (size 15 to 20)
#    0.000    2.000    1.667    1.000    7.000    0.000 
#    0.000    0.000    0.000    6.000    0.000    0.000 
#    0.000    0.000    0.000    0.000    0.000    0.000 
#
# Total GULP energy -133877.503138 kJ/mol
# GULP energy per Si atom -5578.229297 kJ/mol
# Density = 1.983409 g / cm^3
# Si number density = 19.879335 Si / 1000 Ang^3
#
#
#
# Elastic Constant Matrix: (Units=GPa)
#
#
# Indices 1 2 3 4 5 6 
#
# 1 58.3515 32.6588 22.6437 0.0000 0.0000 0.0000
# 2 32.6588 70.7388 28.7205 0.0000 0.0000 0.0000
# 3 22.6437 28.7205 88.3913 0.0000 0.0000 0.0000
# 4 0.0000 0.0000 0.0000 33.2808 0.0000 0.0000
# 5 0.0000 0.0000 0.0000 0.0000 12.7191 0.0000
# 6 0.0000 0.0000 0.0000 0.0000 0.0000 21.4153
#
#
#
# Elastic Compliance Matrix: (Units=1/GPa)
#
#
# Indices 1 2 3 4 5 6 
#
# 1 0.023738 -0.009781 -0.002903 0.000000 0.000000 0.000000
# 2 -0.009781 0.020315 -0.004095 0.000000 0.000000 0.000000
# 3 -0.002903 -0.004095 0.013388 0.000000 0.000000 0.000000
# 4 0.000000 0.000000 0.000000 0.030047 0.000000 0.000000
# 5 0.000000 0.000000 0.000000 0.000000 0.078622 0.000000
# 6 0.000000 0.000000 0.000000 0.000000 0.000000 0.046696
#
#
# Mechanical properties :
#
#
# Convention : Reuss Voigt Hill
#
# Bulk Modulus (GPa) = 41.87167 42.83641 42.35404
# Shear Modulus (GPa) = 19.65988 22.38028 21.02008
#
# Velocity S-wave (km/s) = 3.14819 3.35894 3.25527
# Velocity P-wave (km/s) = 5.85862 6.05296 5.95658
#
# Compressibility (1/GPa) = 0.02388249
#
# Stress axis : x y z
#
# Youngs Moduli (GPa) = 42.12587 49.22513 74.69564
#
# Poissons Ratio (x) = 0.48146 0.21685
# Poissons Ratio (y) = 0.41203 0.30589
# Poissons Ratio (z) = 0.12230 0.20158
#
# Static dielectric constant tensor:
#      x y z
#    x 1.708130 0.000000 0.000000 
#    y 0.000000 1.687060 0.000000 
#    z 0.000000 0.000000 1.763970 
# 
# From -- ./inp_files/5562.got.cif
#   From: 2010.05.17/outbox.cif.g08.bks.cpg/sg36_3_cif.got.tgz:5562.got - 2010.06.03 17:41:39.
