data_PCOD9352821
_publ_section_title
;
Structure prediction by ZEFSAII (Michael W. Deem and Ramdas Pophale) SiO2 
 PCOD9352821
Probable space group: C M C 21
;
_chemical_formula_sum "Si O2"
_cell_formula_units_Z 48
_cell_length_a 24.725309
_cell_length_b 10.999046
_cell_length_c 7.878732
_cell_angle_alpha 90.000000
_cell_angle_beta 90.000000
_cell_angle_gamma 90.000000
_cell_volume 2142.659072
_symmetry_space_group_name_H-M "C M C 21"
_symmetry_group_IT_number 36
_symmetry_cell_setting 'orthorhombic'
loop_
_space_group_symop_operation_xyz
x,y,z
-x,-y,1/2+z
x,-y,1/2+z
-x,y,z
1/2+x,1/2+y,z
1/2-x,1/2-y,1/2+z
1/2+x,1/2-y,1/2+z
1/2-x,1/2+y,z
loop_
_atom_site_type_symbol
_atom_site_label
_atom_site_fract_x
_atom_site_fract_y
_atom_site_fract_z
Si Si1 0.148516 0.699179 0.303690
Si Si2 0.063742 0.852156 0.794041
Si Si3 0.823637 0.743681 0.765710
Si Si4 0.771692 0.151457 0.596116
Si Si5 0.561838 0.373159 0.200509
Si Si6 0.815246 0.476554 0.509065
O O1 0.190358 0.808305 0.252359
O O2 0.093293 0.771550 0.303869
O O3 0.156830 0.603202 0.454635
O O4 0.154500 0.608257 0.142932
O O5 0.000000 0.827945 0.746705
O O6 0.066112 0.847370 0.999448
O O7 0.078743 0.988524 0.735648
O O8 0.113767 0.770573 0.728995
O O9 0.777578 0.748700 0.621662
O O10 0.814852 0.608991 0.843782
O O11 0.804372 0.827810 0.922575
O O12 0.743614 0.020765 0.573399
O O13 0.500000 0.368884 0.252791
#
# Coordination Sequence:
#
# PCOD9352821 Si02
#       6
#     8   8   8   8   8   8
#     4  11  23  41  60  90 125 171 205 264 321 376
#     4  10  22  43  67  92 127 167 215 271 324 383
#     4  11  23  41  61  93 123 169 209 263 322 382
#     4  11  22  38  58  93 125 164 205 259 316 386
#     4  10  22  42  65  93 126 162 217 270 320 385
#     4  11  22  39  60  85 129 161 207 257 317 378
#
# _framework density 22.402069000000001
#
# number of rings (size 3 to 8) (size 9 to 14) (size 15 to 20)
#    0.000    1.333    6.667    0.000    0.000    5.333 
#    0.000    1.667    0.000    1.000    0.000    0.000 
#    0.000    0.000    0.000    0.000    0.000    0.000 
#
# Total GULP energy -133805.318272 kJ/mol
# GULP energy per Si atom -5575.221595 kJ/mol
# Density = 2.235108 g / cm^3
# Si number density = 22.402069 Si / 1000 Ang^3
#
#
#
# Elastic Constant Matrix: (Units=GPa)
#
#
# Indices 1 2 3 4 5 6 
#
# 1 87.8481 54.4577 11.3260 0.0000 0.0000 0.0000
# 2 54.4577 118.1963 8.0395 0.0000 0.0000 0.0000
# 3 11.3260 8.0395 44.2899 0.0000 0.0000 0.0000
# 4 0.0000 0.0000 0.0000 34.6063 0.0000 0.0000
# 5 0.0000 0.0000 0.0000 0.0000 20.2517 0.0000
# 6 0.0000 0.0000 0.0000 0.0000 0.0000 49.3640
#
#
#
# Elastic Compliance Matrix: (Units=1/GPa)
#
#
# Indices 1 2 3 4 5 6 
#
# 1 0.016279 -0.007307 -0.002836 0.000000 0.000000 0.000000
# 2 -0.007307 0.011846 -0.000282 0.000000 0.000000 0.000000
# 3 -0.002836 -0.000282 0.023355 0.000000 0.000000 0.000000
# 4 0.000000 0.000000 0.000000 0.028896 0.000000 0.000000
# 5 0.000000 0.000000 0.000000 0.000000 0.049379 0.000000
# 6 0.000000 0.000000 0.000000 0.000000 0.000000 0.020258
#
#
# Mechanical properties :
#
#
# Convention : Reuss Voigt Hill
#
# Bulk Modulus (GPa) = 32.64854 44.22010 38.43432
# Shear Modulus (GPa) = 27.61302 32.61181 30.11241
#
# Velocity S-wave (km/s) = 3.51466 3.81957 3.67028
# Velocity P-wave (km/s) = 5.57459 6.26373 5.92918
#
# Compressibility (1/GPa) = 0.03062924
#
# Stress axis : x y z
#
# Youngs Moduli (GPa) = 61.42924 84.41334 42.81734
#
# Poissons Ratio (x) = 0.61684 0.12145
# Poissons Ratio (y) = 0.44889 0.01206
# Poissons Ratio (z) = 0.17424 0.02378
#
# Static dielectric constant tensor:
#      x y z
#    x 1.861880 0.000000 0.000000 
#    y 0.000000 1.838450 0.000000 
#    z 0.000000 0.000000 1.986400 
# 
# From -- ./inp_files/5548.got.cif
#   From: 2010.05.17/outbox.cif.g08.bks.cpg/sg36_3_cif.got.tgz:5548.got - 2010.06.03 17:41:39.
