data_PCOD9352560
_publ_section_title
;
Structure prediction by ZEFSAII (Michael W. Deem and Ramdas Pophale) SiO2 
 PCOD9352560
Probable space group: C M C 21
;
_chemical_formula_sum "Si O2"
_cell_formula_units_Z 64
_cell_length_a 16.162780
_cell_length_b 13.361649
_cell_length_c 13.084976
_cell_angle_alpha 90.000000
_cell_angle_beta 90.000000
_cell_angle_gamma 90.000000
_cell_volume 2825.849647
_symmetry_space_group_name_H-M "C M C 21"
_symmetry_group_IT_number 36
_symmetry_cell_setting 'orthorhombic'
loop_
_space_group_symop_operation_xyz
x,y,z
-x,-y,1/2+z
x,-y,1/2+z
-x,y,z
1/2+x,1/2+y,z
1/2-x,1/2-y,1/2+z
1/2+x,1/2-y,1/2+z
1/2-x,1/2+y,z
loop_
_atom_site_type_symbol
_atom_site_label
_atom_site_fract_x
_atom_site_fract_y
_atom_site_fract_z
Si Si1 0.153192 0.797393 0.475240
Si Si2 0.592208 0.729789 0.344644
Si Si3 0.406791 0.923743 0.007729
Si Si4 0.827485 0.111054 0.757750
Si Si5 0.359358 0.064685 0.163895
Si Si6 0.662232 0.744409 0.554500
Si Si7 0.850900 0.452830 0.342485
Si Si8 0.337951 0.405604 0.675627
O O1 0.109784 0.691366 0.491675
O O2 0.138874 0.835222 0.359878
O O3 0.250768 0.775998 0.500523
O O4 0.126955 0.873016 0.565775
O O5 0.500000 0.699605 0.316686
O O6 0.614373 0.695440 0.459616
O O7 0.598835 0.850445 0.346453
O O8 0.650875 0.681940 0.258989
O O9 0.500000 0.951128 0.977781
O O10 0.342048 0.997750 0.952896
O O11 0.392304 0.958763 0.122933
O O12 0.822420 0.177746 0.655175
O O13 0.736155 0.079201 0.795355
O O14 0.871711 0.008224 0.723928
O O15 0.387978 0.159844 0.099241
O O16 0.260287 0.077235 0.160527
O O17 0.383948 0.050486 0.281322
#
# Coordination Sequence:
#
# PCOD9352560 Si02
#       8
#     8   8   8   8   8   8   8   8
#     4  11  23  41  69 102 142 181 231 300 342 417
#     4  12  25  44  69 101 144 185 228 289 357 424
#     4  12  25  40  64 103 145 180 218 278 363 426
#     4  11  23  42  73 104 130 181 242 296 342 406
#     4  10  21  40  65  97 136 177 224 277 337 414
#     4  11  23  41  69 102 137 181 238 287 343 425
#     4  11  21  40  66 101 137 170 223 281 350 417
#     4  10  24  42  69 102 130 185 244 286 335 413
#
# _framework density 22.648053999999998
#
# number of rings (size 3 to 8) (size 9 to 14) (size 15 to 20)
#    0.000    1.000    2.500    5.625    5.250    2.500 
#    0.000    3.125    0.000    0.000    0.000    0.000 
#    0.000    0.000    0.000    0.000    0.000    0.000 
#
# Total GULP energy -178554.534607 kJ/mol
# GULP energy per Si atom -5579.829206 kJ/mol
# Density = 2.259651 g / cm^3
# Si number density = 22.648054 Si / 1000 Ang^3
#
#
#
# Elastic Constant Matrix: (Units=GPa)
#
#
# Indices 1 2 3 4 5 6 
#
# 1 41.7725 15.7659 11.4473 0.0000 0.0000 0.0000
# 2 15.7659 82.9170 26.8100 0.0000 0.0000 0.0000
# 3 11.4473 26.8100 102.3116 0.0000 0.0000 0.0000
# 4 0.0000 0.0000 0.0000 61.2738 0.0000 0.0000
# 5 0.0000 0.0000 0.0000 0.0000 7.4705 0.0000
# 6 0.0000 0.0000 0.0000 0.0000 0.0000 8.9939
#
#
#
# Elastic Compliance Matrix: (Units=1/GPa)
#
#
# Indices 1 2 3 4 5 6 
#
# 1 0.026080 -0.004387 -0.001768 0.000000 0.000000 0.000000
# 2 -0.004387 0.013915 -0.003155 0.000000 0.000000 0.000000
# 3 -0.001768 -0.003155 0.010799 0.000000 0.000000 0.000000
# 4 0.000000 0.000000 0.000000 0.016320 0.000000 0.000000
# 5 0.000000 0.000000 0.000000 0.000000 0.133859 0.000000
# 6 0.000000 0.000000 0.000000 0.000000 0.000000 0.111186
#
#
# Mechanical properties :
#
#
# Convention : Reuss Voigt Hill
#
# Bulk Modulus (GPa) = 31.08346 37.22750 34.15548
# Shear Modulus (GPa) = 14.64113 27.07952 20.86032
#
# Velocity S-wave (km/s) = 2.54532 3.46159 3.03820
# Velocity P-wave (km/s) = 4.73208 5.69648 5.23653
#
# Compressibility (1/GPa) = 0.03217145
#
# Stress axis : x y z
#
# Youngs Moduli (GPa) = 38.34418 71.86666 92.60317
#
# Poissons Ratio (x) = 0.31528 0.16376
# Poissons Ratio (y) = 0.16822 0.29220
# Poissons Ratio (z) = 0.06781 0.22677
#
# Static dielectric constant tensor:
#      x y z
#    x 1.847740 0.000000 0.000000 
#    y 0.000000 1.866820 0.000000 
#    z 0.000000 0.000000 1.870350 
# 
# From -- ./inp_files/9000.got.cif
#   From: 2010.05.17/outbox.cif.g08.bks.cpg/sg36_5_cif.got.tgz:9000.got - 2010.06.03 17:41:39.
