data_PCOD9352501
_publ_section_title
;
Structure prediction by ZEFSAII (Michael W. Deem and Ramdas Pophale) SiO2 
 PCOD9352501
Probable space group: C M C 21
;
_chemical_formula_sum "Si O2"
_cell_formula_units_Z 48
_cell_length_a 20.358509
_cell_length_b 9.918401
_cell_length_c 12.216157
_cell_angle_alpha 90.000000
_cell_angle_beta 90.000000
_cell_angle_gamma 90.000000
_cell_volume 2466.733527
_symmetry_space_group_name_H-M "C M C 21"
_symmetry_group_IT_number 36
_symmetry_cell_setting 'orthorhombic'
loop_
_space_group_symop_operation_xyz
x,y,z
-x,-y,1/2+z
x,-y,1/2+z
-x,y,z
1/2+x,1/2+y,z
1/2-x,1/2-y,1/2+z
1/2+x,1/2-y,1/2+z
1/2-x,1/2+y,z
loop_
_atom_site_type_symbol
_atom_site_label
_atom_site_fract_x
_atom_site_fract_y
_atom_site_fract_z
Si Si1 0.261041 0.641566 0.580520
Si Si2 0.572910 0.258512 0.401798
Si Si3 0.377485 0.190082 0.171842
Si Si4 0.312946 0.067963 0.777025
Si Si5 0.924542 0.555786 0.948625
Si Si6 0.291043 0.380602 0.451176
O O1 0.329004 0.695849 0.628351
O O2 0.203273 0.655227 0.670129
O O3 0.270791 0.488457 0.542925
O O4 0.240800 0.736782 0.480425
O O5 0.500000 0.303349 0.433860
O O6 0.576908 0.241757 0.269914
O O7 0.631931 0.355462 0.437226
O O8 0.583746 0.107129 0.450221
O O9 0.333313 0.077136 0.231470
O O10 0.411511 0.120107 0.067400
O O11 0.371098 0.108546 0.860593
O O12 0.245041 0.066625 0.843078
O O13 0.000000 0.581466 0.914831
#
# Coordination Sequence:
#
# PCOD9352501 Si02
#       6
#     8   8   8   8   8   8
#     4  12  23  38  62  96 124 161 210 261 308 370
#     4  10  22  40  63  89 127 171 207 255 316 378
#     4  11  20  39  62  96 125 164 208 261 308 376
#     4  11  21  38  61  94 126 158 211 256 318 361
#     4  10  21  39  64  95 128 164 210 261 312 375
#     4  12  24  40  64  92 127 164 210 260 313 372
#
# _framework density 19.458932000000001
#
# number of rings (size 3 to 8) (size 9 to 14) (size 15 to 20)
#    0.000    1.000    5.000    3.500    0.000    0.667 
#    0.000    2.500    0.000    0.000    0.000    0.000 
#    0.000    0.000    0.000    0.000    0.000    0.000 
#
# Total GULP energy -133972.433615 kJ/mol
# GULP energy per Si atom -5582.184734 kJ/mol
# Density = 1.941464 g / cm^3
# Si number density = 19.458932 Si / 1000 Ang^3
#
#
#
# Elastic Constant Matrix: (Units=GPa)
#
#
# Indices 1 2 3 4 5 6 
#
# 1 122.3161 32.8529 25.6535 0.0000 0.0000 0.0000
# 2 32.8529 37.8315 16.2220 0.0000 0.0000 0.0000
# 3 25.6535 16.2220 73.3711 0.0000 0.0000 0.0000
# 4 0.0000 0.0000 0.0000 11.2964 0.0000 0.0000
# 5 0.0000 0.0000 0.0000 0.0000 28.8694 0.0000
# 6 0.0000 0.0000 0.0000 0.0000 0.0000 22.7254
#
#
#
# Elastic Compliance Matrix: (Units=1/GPa)
#
#
# Indices 1 2 3 4 5 6 
#
# 1 0.010897 -0.008649 -0.001898 0.000000 0.000000 0.000000
# 2 -0.008649 0.036066 -0.004950 0.000000 0.000000 0.000000
# 3 -0.001898 -0.004950 0.015387 0.000000 0.000000 0.000000
# 4 0.000000 0.000000 0.000000 0.088524 0.000000 0.000000
# 5 0.000000 0.000000 0.000000 0.000000 0.034639 0.000000
# 6 0.000000 0.000000 0.000000 0.000000 0.000000 0.044004
#
#
# Mechanical properties :
#
#
# Convention : Reuss Voigt Hill
#
# Bulk Modulus (GPa) = 31.89093 42.55284 37.22188
# Shear Modulus (GPa) = 18.45277 23.16425 20.80851
#
# Velocity S-wave (km/s) = 3.08278 3.45399 3.27365
# Velocity P-wave (km/s) = 5.39405 6.14997 5.78437
#
# Compressibility (1/GPa) = 0.03135688
#
# Stress axis : x y z
#
# Youngs Moduli (GPa) = 91.77229 27.72675 64.98869
#
# Poissons Ratio (x) = 0.23980 0.12333
# Poissons Ratio (y) = 0.79373 0.32170
# Poissons Ratio (z) = 0.17415 0.13725
#
# Static dielectric constant tensor:
#      x y z
#    x 1.690990 0.000000 0.000000 
#    y 0.000000 1.655070 0.000000 
#    z 0.000000 0.000000 1.715950 
# 
# From -- ./inp_files/8854.got.cif
#   From: 2010.05.17/outbox.cif.g08.bks.cpg/sg36_5_cif.got.tgz:8854.got - 2010.06.03 17:41:39.
