data_PCOD9352627
_publ_section_title
;
Structure prediction by ZEFSAII (Michael W. Deem and Ramdas Pophale) SiO2 
 PCOD9352627
Probable space group: C M C 21
;
_chemical_formula_sum "Si O2"
_cell_formula_units_Z 48
_cell_length_a 19.056500
_cell_length_b 13.386354
_cell_length_c 7.795240
_cell_angle_alpha 90.000000
_cell_angle_beta 90.000000
_cell_angle_gamma 90.000000
_cell_volume 1988.542767
_symmetry_space_group_name_H-M "C M C 21"
_symmetry_group_IT_number 36
_symmetry_cell_setting 'orthorhombic'
loop_
_space_group_symop_operation_xyz
x,y,z
-x,-y,1/2+z
x,-y,1/2+z
-x,y,z
1/2+x,1/2+y,z
1/2-x,1/2-y,1/2+z
1/2+x,1/2-y,1/2+z
1/2-x,1/2+y,z
loop_
_atom_site_type_symbol
_atom_site_label
_atom_site_fract_x
_atom_site_fract_y
_atom_site_fract_z
Si Si1 0.500000 0.900749 0.050130
Si Si2 0.851676 0.632604 0.727478
Si Si3 0.848604 0.149299 0.380707
Si Si4 0.000000 0.142209 0.836022
Si Si5 0.707036 0.066041 0.373661
Si Si6 0.500000 0.576392 0.437730
Si Si7 0.376400 0.246821 0.206782
Si Si8 0.500000 0.126698 0.135777
O O1 0.569065 0.867405 0.153047
O O2 0.500000 0.019823 0.057902
O O3 0.500000 0.880681 0.844870
O O4 0.834136 0.742884 0.794879
O O5 0.834187 0.538390 0.851241
O O6 0.804504 0.601111 0.566656
O O7 0.789477 0.069072 0.330225
O O8 0.842891 0.171041 0.585408
O O9 0.928072 0.113090 0.350104
O O10 0.926433 0.202346 0.851033
O O11 0.000000 0.112708 0.634402
O O12 0.000000 0.042889 0.942899
O O13 0.672255 0.157916 0.269665
O O14 0.432433 0.189148 0.085572
#
# Coordination Sequence:
#
# PCOD9352627 Si02
#       8
#     4   8   8   4   8   4   8   4
#     4  12  21  38  66 102 135 170 213 278 329 411
#     4  12  25  42  68 100 137 176 219 276 339 409
#     4  11  26  44  68  93 133 175 227 280 332 400
#     4   9  22  40  71  87 127 167 217 272 319 390
#     4  12  25  43  65  98 137 175 220 272 340 405
#     4  10  23  46  63  97 121 174 223 276 330 388
#     4  10  21  43  63  97 130 173 221 271 330 396
#     4  11  22  36  66  96 137 169 219 268 336 399
#
# _framework density 24.138278
#
# number of rings (size 3 to 8) (size 9 to 14) (size 15 to 20)
#    0.000    1.000    3.333    3.000    2.333    5.333 
#    0.000    0.000    0.000    0.000    0.000    0.000 
#    0.000    0.000    0.000    0.000    0.000    0.000 
#
# Total GULP energy -134188.976553 kJ/mol
# GULP energy per Si atom -5591.207356 kJ/mol
# Density = 2.408334 g / cm^3
# Si number density = 24.138278 Si / 1000 Ang^3
#
#
#
# Elastic Constant Matrix: (Units=GPa)
#
#
# Indices 1 2 3 4 5 6 
#
# 1 150.8005 31.5296 18.4170 0.0000 0.0000 0.0000
# 2 31.5296 93.5865 10.7132 0.0000 0.0000 0.0000
# 3 18.4170 10.7132 41.9930 0.0000 0.0000 0.0000
# 4 0.0000 0.0000 0.0000 35.0419 0.0000 0.0000
# 5 0.0000 0.0000 0.0000 0.0000 20.0887 0.0000
# 6 0.0000 0.0000 0.0000 0.0000 0.0000 30.0749
#
#
#
# Elastic Compliance Matrix: (Units=1/GPa)
#
#
# Indices 1 2 3 4 5 6 
#
# 1 0.007418 -0.002191 -0.002695 0.000000 0.000000 0.000000
# 2 -0.002191 0.011654 -0.002012 0.000000 0.000000 0.000000
# 3 -0.002695 -0.002012 0.025509 0.000000 0.000000 0.000000
# 4 0.000000 0.000000 0.000000 0.028537 0.000000 0.000000
# 5 0.000000 0.000000 0.000000 0.000000 0.049779 0.000000
# 6 0.000000 0.000000 0.000000 0.000000 0.000000 0.033250
#
#
# Mechanical properties :
#
#
# Convention : Reuss Voigt Hill
#
# Bulk Modulus (GPa) = 32.48287 45.29994 38.89140
# Shear Modulus (GPa) = 27.74622 32.08912 29.91767
#
# Velocity S-wave (km/s) = 3.39406 3.65003 3.52437
# Velocity P-wave (km/s) = 5.37082 6.04742 5.71913
#
# Compressibility (1/GPa) = 0.03078546
#
# Stress axis : x y z
#
# Youngs Moduli (GPa) = 134.79947 85.80926 39.20238
#
# Poissons Ratio (x) = 0.18799 0.10563
# Poissons Ratio (y) = 0.29532 0.07889
# Poissons Ratio (z) = 0.36323 0.17267
#
# Static dielectric constant tensor:
#      x y z
#    x 1.959260 0.000000 0.000000 
#    y 0.000000 1.940430 0.000000 
#    z 0.000000 0.000000 1.978160 
# 
# From -- ./inp_files/5161.got.cif
#   From: 2010.05.17/outbox.cif.g08.bks.cpg/sg36_3_cif.got.tgz:5161.got - 2010.06.03 17:41:39.
