data_PCOD9352112
_publ_section_title
;
Structure prediction by ZEFSAII (Michael W. Deem and Ramdas Pophale) SiO2 
 PCOD9352112
Probable space group: C M C 21
;
_chemical_formula_sum "Si O2"
_cell_formula_units_Z 60
_cell_length_a 13.480663
_cell_length_b 8.989409
_cell_length_c 23.533773
_cell_angle_alpha 90.000000
_cell_angle_beta 90.000000
_cell_angle_gamma 90.000000
_cell_volume 2851.897762
_symmetry_space_group_name_H-M "C M C 21"
_symmetry_group_IT_number 36
_symmetry_cell_setting 'orthorhombic'
loop_
_space_group_symop_operation_xyz
x,y,z
-x,-y,1/2+z
x,-y,1/2+z
-x,y,z
1/2+x,1/2+y,z
1/2-x,1/2-y,1/2+z
1/2+x,1/2-y,1/2+z
1/2-x,1/2+y,z
loop_
_atom_site_type_symbol
_atom_site_label
_atom_site_fract_x
_atom_site_fract_y
_atom_site_fract_z
Si Si1 0.302429 0.217809 0.401360
Si Si2 0.178483 0.374442 0.238079
Si Si3 0.733479 0.127814 0.158998
Si Si4 0.000000 0.223881 0.301275
Si Si5 0.607945 0.751362 0.475883
Si Si6 0.890717 0.410183 0.014029
Si Si7 0.308769 0.617647 0.580375
Si Si8 0.681734 0.500388 0.829581
O O1 0.195966 0.244650 0.431422
O O2 0.371204 0.155170 0.451247
O O3 0.340187 0.371223 0.375458
O O4 0.273901 0.098020 0.353526
O O5 0.167832 0.510077 0.193748
O O6 0.087248 0.340125 0.278642
O O7 0.275878 0.416600 0.274323
O O8 0.201683 0.226892 0.201649
O O9 0.803066 0.031451 0.116904
O O10 0.671154 0.244943 0.122033
O O11 0.088308 0.102993 0.317907
O O12 0.500000 0.739136 0.448045
O O13 0.623429 0.627871 0.524669
O O14 0.614619 0.911523 0.506279
O O15 0.000000 0.369200 0.034502
O O16 0.802381 0.361340 0.054969
#
# Coordination Sequence:
#
# PCOD9352112 Si02
#       8
#     8   8   8   4   8   8   8   8
#     4  11  23  41  65  94 136 178 220 279 340 398
#     4  11  23  47  68  99 135 173 225 293 339 410
#     4  10  21  42  69  89 137 174 216 283 352 391
#     4  12  26  44  74  98 136 176 230 280 352 398
#     4  10  21  38  62  95 132 175 224 271 333 408
#     4  10  21  39  61  96 134 174 225 270 328 405
#     4  10  20  40  63  95 127 176 216 275 336 402
#     4  12  24  45  68  98 135 177 227 287 341 408
#
# _framework density 21.038623000000001
#
# number of rings (size 3 to 8) (size 9 to 14) (size 15 to 20)
#    0.000    1.333    5.333    0.000    1.867    0.000 
#    8.400    3.333    0.000    0.000    0.000    0.000 
#    0.000    0.000    0.000    0.000    0.000    0.000 
#
# Total GULP energy -167060.723194 kJ/mol
# GULP energy per Si atom -5568.690773 kJ/mol
# Density = 2.099074 g / cm^3
# Si number density = 21.038623 Si / 1000 Ang^3
#
#
#
# Elastic Constant Matrix: (Units=GPa)
#
#
# Indices 1 2 3 4 5 6 
#
# 1 78.6421 7.7632 11.9047 0.0000 0.0000 0.0000
# 2 7.7632 90.4950 21.5507 0.0000 0.0000 0.0000
# 3 11.9047 21.5507 50.9955 0.0000 0.0000 0.0000
# 4 0.0000 0.0000 0.0000 50.6255 0.0000 0.0000
# 5 0.0000 0.0000 0.0000 0.0000 10.2208 0.0000
# 6 0.0000 0.0000 0.0000 0.0000 0.0000 15.6992
#
#
#
# Elastic Compliance Matrix: (Units=1/GPa)
#
#
# Indices 1 2 3 4 5 6 
#
# 1 0.013198 -0.000443 -0.002894 0.000000 0.000000 0.000000
# 2 -0.000443 0.012302 -0.005095 0.000000 0.000000 0.000000
# 3 -0.002894 -0.005095 0.022438 0.000000 0.000000 0.000000
# 4 0.000000 0.000000 0.000000 0.019753 0.000000 0.000000
# 5 0.000000 0.000000 0.000000 0.000000 0.097840 0.000000
# 6 0.000000 0.000000 0.000000 0.000000 0.000000 0.063698
#
#
# Mechanical properties :
#
#
# Convention : Reuss Voigt Hill
#
# Bulk Modulus (GPa) = 32.18163 33.61889 32.90026
# Shear Modulus (GPa) = 19.49696 27.23668 23.36682
#
# Velocity S-wave (km/s) = 3.04751 3.60196 3.33628
# Velocity P-wave (km/s) = 5.26429 5.77175 5.52385
#
# Compressibility (1/GPa) = 0.03107362
#
# Stress axis : x y z
#
# Youngs Moduli (GPa) = 75.77122 81.28922 44.56650
#
# Poissons Ratio (x) = 0.03602 0.12896
# Poissons Ratio (y) = 0.03357 0.22708
# Poissons Ratio (z) = 0.21926 0.41419
#
# Static dielectric constant tensor:
#      x y z
#    x 1.698140 0.000000 0.000000 
#    y 0.000000 1.769810 0.000000 
#    z 0.000000 0.000000 1.832800 
# 
# From -- ./inp_files/16946.got.cif
#   From: 2010.05.17/outbox.cif.g08.bks.cpg/sg36_9_cif.got.tgz:16946.got - 2010.06.03 17:41:39.
