data_PCOD9352684
_publ_section_title
;
Structure prediction by ZEFSAII (Michael W. Deem and Ramdas Pophale) SiO2 
 PCOD9352684
Probable space group: C M C 21
;
_chemical_formula_sum "Si O2"
_cell_formula_units_Z 48
_cell_length_a 8.782555
_cell_length_b 20.143476
_cell_length_c 14.219171
_cell_angle_alpha 90.000000
_cell_angle_beta 90.000000
_cell_angle_gamma 90.000000
_cell_volume 2515.530404
_symmetry_space_group_name_H-M "C M C 21"
_symmetry_group_IT_number 36
_symmetry_cell_setting 'orthorhombic'
loop_
_space_group_symop_operation_xyz
x,y,z
-x,-y,1/2+z
x,-y,1/2+z
-x,y,z
1/2+x,1/2+y,z
1/2-x,1/2-y,1/2+z
1/2+x,1/2-y,1/2+z
1/2-x,1/2+y,z
loop_
_atom_site_type_symbol
_atom_site_label
_atom_site_fract_x
_atom_site_fract_y
_atom_site_fract_z
Si Si1 0.821062 0.578120 0.655850
Si Si2 0.682721 0.857655 0.857989
Si Si3 0.181109 0.177564 0.159241
Si Si4 0.181810 0.485448 0.358264
Si Si5 0.819629 0.801408 0.051335
Si Si6 0.821283 0.041633 0.047913
O O1 0.788430 0.549419 0.758930
O O2 0.724298 0.641261 0.625581
O O3 0.779341 0.518965 0.585144
O O4 0.000000 0.594310 0.648763
O O5 0.500000 0.853491 0.859058
O O6 0.746327 0.824790 0.762898
O O7 0.724079 0.936330 0.856134
O O8 0.748168 0.823618 0.951639
O O9 0.251481 0.233886 0.093066
O O10 0.208243 0.106490 0.109962
O O11 0.000000 0.187643 0.167150
O O12 0.273795 0.449375 0.440236
O O13 0.000000 0.481790 0.376130
O O14 0.000000 0.796106 0.041022
O O15 0.000000 0.024934 0.055373
#
# Coordination Sequence:
#
# PCOD9352684 Si02
#       6
#     8   8   8   8   8   8
#     4  11  22  40  64  92 126 165 211 261 315 376
#     4  11  22  41  67  95 126 168 214 261 320 387
#     4  11  25  44  65  94 131 172 214 266 322 380
#     4  10  22  38  64  95 127 168 211 260 317 376
#     4  12  26  43  65  95 130 172 215 264 321 382
#     4  11  23  38  63  95 126 161 209 262 313 373
#
# _framework density 19.081462999999999
#
# number of rings (size 3 to 8) (size 9 to 14) (size 15 to 20)
#    0.000    1.000    3.333    3.500    0.000    5.333 
#    0.000    3.333    0.000    0.000    0.000    0.000 
#    0.000    0.000    0.000    0.000    0.000    0.000 
#
# Total GULP energy -134222.656146 kJ/mol
# GULP energy per Si atom -5592.610673 kJ/mol
# Density = 1.903803 g / cm^3
# Si number density = 19.081463 Si / 1000 Ang^3
#
#
#
# Elastic Constant Matrix: (Units=GPa)
#
#
# Indices 1 2 3 4 5 6 
#
# 1 48.1711 19.6429 22.4409 0.0000 0.0000 0.0000
# 2 19.6429 34.4748 4.2665 0.0000 0.0000 0.0000
# 3 22.4409 4.2665 88.1409 0.0000 0.0000 0.0000
# 4 0.0000 0.0000 0.0000 28.0833 0.0000 0.0000
# 5 0.0000 0.0000 0.0000 0.0000 38.3615 0.0000
# 6 0.0000 0.0000 0.0000 0.0000 0.0000 30.8320
#
#
#
# Elastic Compliance Matrix: (Units=1/GPa)
#
#
# Indices 1 2 3 4 5 6 
#
# 1 0.030856 -0.016709 -0.007047 0.000000 0.000000 0.000000
# 2 -0.016709 0.038229 0.002404 0.000000 0.000000 0.000000
# 3 -0.007047 0.002404 0.013023 0.000000 0.000000 0.000000
# 4 0.000000 0.000000 0.000000 0.035608 0.000000 0.000000
# 5 0.000000 0.000000 0.000000 0.000000 0.026068 0.000000
# 6 0.000000 0.000000 0.000000 0.000000 0.000000 0.032434
#
#
# Mechanical properties :
#
#
# Convention : Reuss Voigt Hill
#
# Bulk Modulus (GPa) = 25.37816 29.27636 27.32726
# Shear Modulus (GPa) = 21.54636 27.75111 24.64874
#
# Velocity S-wave (km/s) = 3.36397 3.81773 3.59801
# Velocity P-wave (km/s) = 5.33077 5.89996 5.62258
#
# Compressibility (1/GPa) = 0.03940397
#
# Stress axis : x y z
#
# Youngs Moduli (GPa) = 32.40894 26.15783 76.78517
#
# Poissons Ratio (x) = 0.43706 0.54112
# Poissons Ratio (y) = 0.54151 -0.18456
# Poissons Ratio (z) = 0.22839 -0.06287
#
# Static dielectric constant tensor:
#      x y z
#    x 1.638530 0.000000 0.000000 
#    y 0.000000 1.642270 0.000000 
#    z 0.000000 0.000000 1.650730 
# 
# From -- ./inp_files/10399.got.cif
#   From: 2010.05.17/outbox.cif.g08.bks.cpg/sg36_6_cif.got.tgz:10399.got - 2010.06.03 17:41:39.
