data_PCOD9352959
_publ_section_title
;
Structure prediction by ZEFSAII (Michael W. Deem and Ramdas Pophale) SiO2 
 PCOD9352959
Probable space group: C M C 21
;
_chemical_formula_sum "Si O2"
_cell_formula_units_Z 40
_cell_length_a 7.629466
_cell_length_b 26.013168
_cell_length_c 7.944419
_cell_angle_alpha 90.000000
_cell_angle_beta 90.000000
_cell_angle_gamma 90.000000
_cell_volume 1576.701675
_symmetry_space_group_name_H-M "C M C 21"
_symmetry_group_IT_number 36
_symmetry_cell_setting 'orthorhombic'
loop_
_space_group_symop_operation_xyz
x,y,z
-x,-y,1/2+z
x,-y,1/2+z
-x,y,z
1/2+x,1/2+y,z
1/2-x,1/2-y,1/2+z
1/2+x,1/2-y,1/2+z
1/2-x,1/2+y,z
loop_
_atom_site_type_symbol
_atom_site_label
_atom_site_fract_x
_atom_site_fract_y
_atom_site_fract_z
Si Si1 0.300952 0.534892 0.747760
Si Si2 0.790150 0.615681 0.465704
Si Si3 0.793388 0.823100 0.521373
Si Si4 0.744564 0.930603 0.628256
Si Si5 0.211778 0.285788 0.152227
O O1 0.500000 0.519456 0.701503
O O2 0.303848 0.549591 0.943470
O O3 0.245315 0.582558 0.632917
O O4 0.183571 0.485850 0.701324
O O5 0.689488 0.590648 0.309992
O O6 0.737847 0.674147 0.505833
O O7 0.685662 0.873918 0.564709
O O8 0.732075 0.772364 0.619136
O O9 0.780091 0.807853 0.326696
O O10 0.000000 0.834280 0.556193
O O11 0.500000 0.886783 0.929225
O O12 0.000000 0.285785 0.157521
#
# Coordination Sequence:
#
# PCOD9352959 Si02
#       5
#     8   8   8   8   8
#     4  12  25  44  70 101 135 177 232 291 342 399
#     4  11  26  46  69  99 139 183 225 280 345 413
#     4  11  23  42  69 100 134 179 229 278 341 408
#     4  12  25  43  69 102 139 180 228 287 343 403
#     4  10  23  43  67 100 139 175 222 282 341 405
#
# _framework density 25.369418
#
# number of rings (size 3 to 8) (size 9 to 14) (size 15 to 20)
#    0.000    0.800    4.000    3.000    0.000    4.800 
#    0.000    0.000    0.000    0.000    0.000    0.000 
#    0.000    0.000    0.000    0.000    0.000    0.000 
#
# Total GULP energy -111457.669249 kJ/mol
# GULP energy per Si atom -5572.883462 kJ/mol
# Density = 2.531168 g / cm^3
# Si number density = 25.369418 Si / 1000 Ang^3
#
#
#
# Elastic Constant Matrix: (Units=GPa)
#
#
# Indices 1 2 3 4 5 6 
#
# 1 112.5079 39.0978 20.8820 0.0000 0.0000 0.0000
# 2 39.0978 230.4475 64.6449 0.0000 0.0000 0.0000
# 3 20.8820 64.6449 189.4601 0.0000 0.0000 0.0000
# 4 0.0000 0.0000 0.0000 72.8276 0.0000 0.0000
# 5 0.0000 0.0000 0.0000 0.0000 5.3990 0.0000
# 6 0.0000 0.0000 0.0000 0.0000 0.0000 -18.4097
#
#
#
# Elastic Compliance Matrix: (Units=1/GPa)
#
#
# Indices 1 2 3 4 5 6 
#
# 1 0.009497 -0.001457 -0.000550 0.000000 0.000000 0.000000
# 2 -0.001457 0.005022 -0.001553 0.000000 0.000000 0.000000
# 3 -0.000550 -0.001553 0.005869 0.000000 0.000000 0.000000
# 4 0.000000 0.000000 0.000000 0.013731 0.000000 0.000000
# 5 0.000000 0.000000 0.000000 0.000000 0.185219 0.000000
# 6 0.000000 0.000000 0.000000 0.000000 0.000000 -0.054319
#
#
# Mechanical properties :
#
#
# Convention : Reuss Voigt Hill
#
# Bulk Modulus (GPa) = 75.36795 86.85166 81.10980
# Shear Modulus (GPa) = 28.31892 39.14942 33.73417
#
# Velocity S-wave (km/s) = 3.34468 3.93259 3.65049
# Velocity P-wave (km/s) = 6.68494 7.41144 7.05755
#
# Compressibility (1/GPa) = 0.01326824
#
# Stress axis : x y z
#
# Youngs Moduli (GPa) = 105.30082 199.11436 170.39757
#
# Poissons Ratio (x) = 0.29012 0.09364
# Poissons Ratio (y) = 0.15343 0.26463
# Poissons Ratio (z) = 0.05787 0.30923
#
# Static dielectric constant tensor:
#      x y z
#    x 2.198910 0.000000 0.000000 
#    y 0.000000 1.947360 0.000000 
#    z 0.000000 0.000000 1.922180 
# 
# From -- ./inp_files/2530.got.cif
#   From: 2010.05.17/outbox.cif.g08.bks.cpg/sg36_2_cif.got.tgz:2530.got - 2010.06.03 17:41:39.
