data_PCOD9352958
_publ_section_title
;
Structure prediction by ZEFSAII (Michael W. Deem and Ramdas Pophale) SiO2 
 PCOD9352958
Probable space group: C M C 21
;
_chemical_formula_sum "Si O2"
_cell_formula_units_Z 40
_cell_length_a 21.921867
_cell_length_b 9.109237
_cell_length_c 7.652201
_cell_angle_alpha 90.000000
_cell_angle_beta 90.000000
_cell_angle_gamma 90.000000
_cell_volume 1528.079358
_symmetry_space_group_name_H-M "C M C 21"
_symmetry_group_IT_number 36
_symmetry_cell_setting 'orthorhombic'
loop_
_space_group_symop_operation_xyz
x,y,z
-x,-y,1/2+z
x,-y,1/2+z
-x,y,z
1/2+x,1/2+y,z
1/2-x,1/2-y,1/2+z
1/2+x,1/2-y,1/2+z
1/2-x,1/2+y,z
loop_
_atom_site_type_symbol
_atom_site_label
_atom_site_fract_x
_atom_site_fract_y
_atom_site_fract_z
Si Si1 0.112383 0.151602 0.743940
Si Si2 0.300213 0.039789 0.900194
Si Si3 0.756785 0.268617 0.697886
Si Si4 0.929988 0.165767 0.127903
Si Si5 0.933039 0.623290 0.960605
O O1 0.181572 0.174831 0.683293
O O2 0.073791 0.260039 0.618780
O O3 0.094509 0.983419 0.715414
O O4 0.104442 0.191979 0.946396
O O5 0.297132 0.157594 0.740237
O O6 0.370092 0.031968 0.963020
O O7 0.270714 0.887406 0.849086
O O8 0.256174 0.123472 0.034134
O O9 0.931089 0.289378 0.277235
O O10 0.000000 0.138401 0.074985
O O11 0.000000 0.549380 0.974343
#
# Coordination Sequence:
#
# PCOD9352958 Si02
#       5
#     8   8   8   8   8
#     4  11  23  38  66 100 141 183 230 290 342 414
#     4  11  26  48  71 105 134 188 228 295 350 425
#     4  11  27  45  74 100 142 179 237 291 356 420
#     4  11  21  36  65  98 138 184 228 280 339 408
#     4  10  23  43  66  97 139 184 231 282 343 419
#
# _framework density 26.176653000000002
#
# number of rings (size 3 to 8) (size 9 to 14) (size 15 to 20)
#    0.000    1.200    2.000    3.000    8.400    0.000 
#    0.000    6.000    0.000    0.000    0.000    0.000 
#    0.000    0.000    0.000    0.000    0.000    0.000 
#
# Total GULP energy -112131.579562 kJ/mol
# GULP energy per Si atom -5606.578978 kJ/mol
# Density = 2.611707 g / cm^3
# Si number density = 26.176653 Si / 1000 Ang^3
#
#
#
# Elastic Constant Matrix: (Units=GPa)
#
#
# Indices 1 2 3 4 5 6 
#
# 1 141.0995 38.8882 -5.9789 0.0000 0.0000 0.0000
# 2 38.8882 107.6228 10.6484 0.0000 0.0000 0.0000
# 3 -5.9789 10.6484 128.4542 0.0000 0.0000 0.0000
# 4 0.0000 0.0000 0.0000 27.4696 0.0000 0.0000
# 5 0.0000 0.0000 0.0000 0.0000 16.9490 0.0000
# 6 0.0000 0.0000 0.0000 0.0000 0.0000 24.9297
#
#
#
# Elastic Compliance Matrix: (Units=1/GPa)
#
#
# Indices 1 2 3 4 5 6 
#
# 1 0.007918 -0.002922 0.000611 0.000000 0.000000 0.000000
# 2 -0.002922 0.010447 -0.001002 0.000000 0.000000 0.000000
# 3 0.000611 -0.001002 0.007896 0.000000 0.000000 0.000000
# 4 0.000000 0.000000 0.000000 0.036404 0.000000 0.000000
# 5 0.000000 0.000000 0.000000 0.000000 0.059000 0.000000
# 6 0.000000 0.000000 0.000000 0.000000 0.000000 0.040113
#
#
# Mechanical properties :
#
#
# Convention : Reuss Voigt Hill
#
# Bulk Modulus (GPa) = 50.92805 51.58798 51.25801
# Shear Modulus (GPa) = 28.57974 36.11092 32.34533
#
# Velocity S-wave (km/s) = 3.30783 3.71820 3.51900
# Velocity P-wave (km/s) = 5.83838 6.17930 6.01126
#
# Compressibility (1/GPa) = 0.01963554
#
# Stress axis : x y z
#
# Youngs Moduli (GPa) = 126.28983 95.72558 126.64056
#
# Poissons Ratio (x) = 0.27967 -0.07735
# Poissons Ratio (y) = 0.36897 0.12689
# Poissons Ratio (z) = -0.07713 0.09591
#
# Static dielectric constant tensor:
#      x y z
#    x 2.019830 0.000000 0.000000 
#    y 0.000000 1.999480 0.000000 
#    z 0.000000 0.000000 2.213470 
# 
# From -- ./inp_files/5471.got.cif
#   From: 2010.05.17/outbox.cif.g08.bks.cpg/sg36_3_cif.got.tgz:5471.got - 2010.06.03 17:41:39.
