data_PCOD9352457
_publ_section_title
;
Structure prediction by ZEFSAII (Michael W. Deem and Ramdas Pophale) SiO2 
 PCOD9352457
Probable space group: C M C 21
;
_chemical_formula_sum "Si O2"
_cell_formula_units_Z 40
_cell_length_a 13.223395
_cell_length_b 18.452273
_cell_length_c 7.322464
_cell_angle_alpha 90.000000
_cell_angle_beta 90.000000
_cell_angle_gamma 90.000000
_cell_volume 1786.693624
_symmetry_space_group_name_H-M "C M C 21"
_symmetry_group_IT_number 36
_symmetry_cell_setting 'orthorhombic'
loop_
_space_group_symop_operation_xyz
x,y,z
-x,-y,1/2+z
x,-y,1/2+z
-x,y,z
1/2+x,1/2+y,z
1/2-x,1/2-y,1/2+z
1/2+x,1/2-y,1/2+z
1/2-x,1/2+y,z
loop_
_atom_site_type_symbol
_atom_site_label
_atom_site_fract_x
_atom_site_fract_y
_atom_site_fract_z
Si Si1 0.120805 0.728859 0.750000
Si Si2 0.615129 0.920581 0.149197
Si Si3 0.379086 0.206972 0.170045
Si Si4 0.380008 0.338757 0.444073
Si Si5 0.802381 0.567793 0.031254
O O1 0.154792 0.661100 0.624523
O O2 0.137776 0.802096 0.641703
O O3 0.000000 0.718963 0.752537
O O4 0.150448 0.727550 0.961285
O O5 0.500000 0.929746 0.080061
O O6 0.615839 0.923856 0.369890
O O7 0.687681 0.985209 0.089906
O O8 0.500000 0.200055 0.186815
O O9 0.352988 0.275273 0.298331
O O10 0.334392 0.125596 0.187727
O O11 0.500000 0.355179 0.422765
O O12 0.304382 0.406616 0.445664
#
# Coordination Sequence:
#
# PCOD9352457 Si02
#       5
#     8   8   8   8   8
#     4   8  17  36  61  87 120 159 200 254 314 367
#     4  10  21  39  60  90 127 157 202 262 319 375
#     4   9  19  36  59  88 121 155 200 257 311 364
#     4  10  22  40  62  90 123 164 211 260 308 368
#     4  11  23  37  61  93 123 167 210 249 319 386
#
# _framework density 22.387722
#
# number of rings (size 3 to 8) (size 9 to 14) (size 15 to 20)
#    0.000    2.400    0.000    3.000    8.400    0.000 
#    3.600    1.000    0.000    0.000    0.000    0.000 
#    0.000    0.000    0.000    0.000    0.000    0.000 
#
# Total GULP energy -111576.307694 kJ/mol
# GULP energy per Si atom -5578.815385 kJ/mol
# Density = 2.233677 g / cm^3
# Si number density = 22.387722 Si / 1000 Ang^3
#
#
#
# Elastic Constant Matrix: (Units=GPa)
#
#
# Indices 1 2 3 4 5 6 
#
# 1 117.4352 72.7470 4.6080 0.0000 0.0000 0.0000
# 2 72.7470 91.8140 16.9963 0.0000 0.0000 0.0000
# 3 4.6080 16.9963 38.3837 0.0000 0.0000 0.0000
# 4 0.0000 0.0000 0.0000 29.2369 0.0000 0.0000
# 5 0.0000 0.0000 0.0000 0.0000 28.4441 0.0000
# 6 0.0000 0.0000 0.0000 0.0000 0.0000 37.1448
#
#
#
# Elastic Compliance Matrix: (Units=1/GPa)
#
#
# Indices 1 2 3 4 5 6 
#
# 1 0.017371 -0.014572 0.004367 0.000000 0.000000 0.000000
# 2 -0.014572 0.024088 -0.008917 0.000000 0.000000 0.000000
# 3 0.004367 -0.008917 0.029477 0.000000 0.000000 0.000000
# 4 0.000000 0.000000 0.000000 0.034203 0.000000 0.000000
# 5 0.000000 0.000000 0.000000 0.000000 0.035157 0.000000
# 6 0.000000 0.000000 0.000000 0.000000 0.000000 0.026922
#
#
# Mechanical properties :
#
#
# Convention : Reuss Voigt Hill
#
# Bulk Modulus (GPa) = 30.58821 48.48172 39.53497
# Shear Modulus (GPa) = 23.10995 29.18392 26.14693
#
# Velocity S-wave (km/s) = 3.21637 3.61441 3.42118
# Velocity P-wave (km/s) = 5.24270 6.25469 5.77092
#
# Compressibility (1/GPa) = 0.03269234
#
# Stress axis : x y z
#
# Youngs Moduli (GPa) = 57.56859 41.51492 33.92502
#
# Poissons Ratio (x) = 0.60494 -0.14815
# Poissons Ratio (y) = 0.83887 0.30250
# Poissons Ratio (z) = -0.25140 0.37018
#
# Static dielectric constant tensor:
#      x y z
#    x 1.883590 0.000000 0.000000 
#    y 0.000000 1.887350 0.000000 
#    z 0.000000 0.000000 1.875470 
# 
# From -- ./inp_files/3798.got.cif
#   From: 2010.05.17/outbox.cif.g08.bks.cpg/sg36_2_cif.got.tgz:3798.got - 2010.06.03 17:41:39.
