data_PCOD9352284
_publ_section_title
;
Structure prediction by ZEFSAII (Michael W. Deem and Ramdas Pophale) SiO2 
 PCOD9352284
Probable space group: C M C 21
;
_chemical_formula_sum "Si O2"
_cell_formula_units_Z 64
_cell_length_a 21.019912
_cell_length_b 18.092437
_cell_length_c 7.945941
_cell_angle_alpha 90.000000
_cell_angle_beta 90.000000
_cell_angle_gamma 90.000000
_cell_volume 3021.852754
_symmetry_space_group_name_H-M "C M C 21"
_symmetry_group_IT_number 36
_symmetry_cell_setting 'orthorhombic'
loop_
_space_group_symop_operation_xyz
x,y,z
-x,-y,1/2+z
x,-y,1/2+z
-x,y,z
1/2+x,1/2+y,z
1/2-x,1/2-y,1/2+z
1/2+x,1/2-y,1/2+z
1/2-x,1/2+y,z
loop_
_atom_site_type_symbol
_atom_site_label
_atom_site_fract_x
_atom_site_fract_y
_atom_site_fract_z
Si Si1 0.429131 0.757003 0.375000
Si Si2 0.114039 0.885267 0.050088
Si Si3 0.309113 0.164818 0.011726
Si Si4 0.190240 0.246456 0.864754
Si Si5 0.428540 0.672009 0.017741
Si Si6 0.764065 0.384341 0.049547
Si Si7 0.764587 0.472740 0.700873
Si Si8 0.385922 0.529128 0.198868
O O1 0.500000 0.788314 0.383280
O O2 0.422335 0.689432 0.508155
O O3 0.373978 0.814140 0.419137
O O4 0.420382 0.719023 0.192039
O O5 0.189018 0.866482 0.070119
O O6 0.108384 0.935663 0.882189
O O7 0.091871 0.944345 0.188274
O O8 0.306210 0.211650 0.187362
O O9 0.300584 0.081346 0.073522
O O10 0.250195 0.193395 0.899414
O O11 0.197346 0.310954 0.006492
O O12 0.126009 0.200911 0.894090
O O13 0.500000 0.683864 0.955246
O O14 0.418756 0.587547 0.075517
O O15 0.768644 0.435271 0.882184
O O16 0.785601 0.442176 0.190913
O O17 0.689389 0.472021 0.654858
#
# Coordination Sequence:
#
# PCOD9352284 Si02
#       8
#     8   8   8   8   8   8   8   8
#     4  10  21  37  54  75 108 146 180 218 266 316
#     4   9  17  31  48  72 105 140 177 214 256 308
#     4  11  21  35  56  81 108 138 178 222 265 313
#     4  11  21  35  56  81 108 138 178 222 265 313
#     4  10  21  37  54  75 108 146 180 218 266 316
#     4   9  18  32  51  77 106 134 169 216 265 311
#     4   9  18  32  51  77 106 134 169 216 265 311
#     4   9  17  31  48  72 105 140 177 214 256 308
#
# _framework density 21.179058000000001
#
# number of rings (size 3 to 8) (size 9 to 14) (size 15 to 20)
#    0.000    2.250    2.500    0.750    0.000    4.000 
#    0.000    0.000    0.000    0.750    0.000    0.000 
#    0.000    0.000    0.000    0.000    0.000    0.000 
#
# Total GULP energy -178943.618513 kJ/mol
# GULP energy per Si atom -5591.988079 kJ/mol
# Density = 2.113085 g / cm^3
# Si number density = 21.179058 Si / 1000 Ang^3
#
#
#
# Elastic Constant Matrix: (Units=GPa)
#
#
# Indices 1 2 3 4 5 6 
#
# 1 100.2135 23.1944 23.3065 0.0000 0.0000 0.0000
# 2 23.1944 92.6525 3.5845 0.0000 0.0000 0.0000
# 3 23.3065 3.5845 67.7265 0.0000 0.0000 0.0000
# 4 0.0000 0.0000 0.0000 41.6011 0.0000 0.0000
# 5 0.0000 0.0000 0.0000 0.0000 17.7645 0.0000
# 6 0.0000 0.0000 0.0000 0.0000 0.0000 23.1072
#
#
#
# Elastic Compliance Matrix: (Units=1/GPa)
#
#
# Indices 1 2 3 4 5 6 
#
# 1 0.011497 -0.002731 -0.003812 0.000000 0.000000 0.000000
# 2 -0.002731 0.011464 0.000333 0.000000 0.000000 0.000000
# 3 -0.003812 0.000333 0.016059 0.000000 0.000000 0.000000
# 4 0.000000 0.000000 0.000000 0.024038 0.000000 0.000000
# 5 0.000000 0.000000 0.000000 0.000000 0.056292 0.000000
# 6 0.000000 0.000000 0.000000 0.000000 0.000000 0.043277
#
#
# Mechanical properties :
#
#
# Convention : Reuss Voigt Hill
#
# Bulk Modulus (GPa) = 37.59259 40.08482 38.83871
# Shear Modulus (GPa) = 27.18670 30.52836 28.85753
#
# Velocity S-wave (km/s) = 3.58671 3.80075 3.69528
# Velocity P-wave (km/s) = 5.91109 6.18293 6.04854
#
# Compressibility (1/GPa) = 0.02660099
#
# Stress axis : x y z
#
# Youngs Moduli (GPa) = 86.97721 87.23158 62.26869
#
# Poissons Ratio (x) = 0.23821 0.23737
# Poissons Ratio (y) = 0.23751 -0.02073
# Poissons Ratio (z) = 0.33156 -0.02905
#
# Static dielectric constant tensor:
#      x y z
#    x 1.708630 0.000000 0.000000 
#    y 0.000000 1.770550 0.000000 
#    z 0.000000 0.000000 1.881770 
# 
# From -- ./inp_files/4922.got.cif
#   From: 2010.05.17/outbox.cif.g08.bks.cpg/sg36_3_cif.got.tgz:4922.got - 2010.06.03 17:41:39.
