data_PCOD9352031
_publ_section_title
;
Structure prediction by ZEFSAII (Michael W. Deem and Ramdas Pophale) SiO2 
 PCOD9352031
Probable space group: C M C 21
;
_chemical_formula_sum "Si O2"
_cell_formula_units_Z 40
_cell_length_a 12.467818
_cell_length_b 23.907153
_cell_length_c 6.090808
_cell_angle_alpha 90.000000
_cell_angle_beta 90.000000
_cell_angle_gamma 90.000000
_cell_volume 1815.487339
_symmetry_space_group_name_H-M "C M C 21"
_symmetry_group_IT_number 36
_symmetry_cell_setting 'orthorhombic'
loop_
_space_group_symop_operation_xyz
x,y,z
-x,-y,1/2+z
x,-y,1/2+z
-x,y,z
1/2+x,1/2+y,z
1/2-x,1/2-y,1/2+z
1/2+x,1/2-y,1/2+z
1/2-x,1/2+y,z
loop_
_atom_site_type_symbol
_atom_site_label
_atom_site_fract_x
_atom_site_fract_y
_atom_site_fract_z
Si Si1 0.680742 0.507002 0.056340
Si Si2 0.379900 0.694464 0.474326
Si Si3 0.184361 0.692996 0.795331
Si Si4 0.239998 0.621166 0.180332
Si Si5 0.118691 0.578447 0.558187
O O1 0.631818 0.505398 0.309914
O O2 0.715360 0.571359 0.035179
O O3 0.785440 0.466621 0.084044
O O4 0.500000 0.684794 0.552344
O O5 0.295322 0.703257 0.668776
O O6 0.377541 0.748733 0.315402
O O7 0.331606 0.641223 0.347545
O O8 0.132272 0.637317 0.688502
O O9 0.207756 0.673995 0.040952
O O10 0.137449 0.597965 0.308466
O O11 0.000000 0.555569 0.600530
#
# Coordination Sequence:
#
# PCOD9352031 Si02
#       5
#     8   8   8   8   8
#     4  10  20  38  62  91 130 177 217 274 340 401
#     4  11  24  41  67  95 128 177 224 274 342 406
#     4  11  21  43  61  93 133 167 219 279 334 403
#     4  10  22  41  60  88 132 173 217 274 330 402
#     4  10  22  37  61  97 133 172 216 269 343 416
#
# _framework density 22.032653
#
# number of rings (size 3 to 8) (size 9 to 14) (size 15 to 20)
#    0.000    1.600    4.000    0.600    0.000    5.600 
#    0.000    0.000    0.000   10.800    0.000    0.000 
#    0.000    0.000    0.000    0.000    0.000    0.000 
#
# Total GULP energy -111364.196205 kJ/mol
# GULP energy per Si atom -5568.209810 kJ/mol
# Density = 2.198251 g / cm^3
# Si number density = 22.032653 Si / 1000 Ang^3
#
#
#
# Elastic Constant Matrix: (Units=GPa)
#
#
# Indices 1 2 3 4 5 6 
#
# 1 98.6787 4.0756 6.5763 0.0000 0.0000 0.0000
# 2 4.0756 89.2320 -6.6382 0.0000 0.0000 0.0000
# 3 6.5763 -6.6382 83.2681 0.0000 0.0000 0.0000
# 4 0.0000 0.0000 0.0000 42.3509 0.0000 0.0000
# 5 0.0000 0.0000 0.0000 0.0000 -5.7865 0.0000
# 6 0.0000 0.0000 0.0000 0.0000 0.0000 7.1564
#
#
#
# Elastic Compliance Matrix: (Units=1/GPa)
#
#
# Indices 1 2 3 4 5 6 
#
# 1 0.010212 -0.000530 -0.000849 0.000000 0.000000 0.000000
# 2 -0.000530 0.011301 0.000943 0.000000 0.000000 0.000000
# 3 -0.000849 0.000943 0.012152 0.000000 0.000000 0.000000
# 4 0.000000 0.000000 0.000000 0.023612 0.000000 0.000000
# 5 0.000000 0.000000 0.000000 0.000000 -0.172815 0.000000
# 6 0.000000 0.000000 0.000000 0.000000 0.000000 0.139736
#
#
# Mechanical properties :
#
#
# Convention : Reuss Voigt Hill
#
# Bulk Modulus (GPa) = 30.49354 31.02289 30.75821
# Shear Modulus (GPa) = 138.88731 26.55515 82.72123
#
# Velocity S-wave (km/s) = 7.94820 3.47546 6.13403
# Velocity P-wave (km/s) = 9.90465 5.49691 8.00993
#
# Compressibility (1/GPa) = 0.03279384
#
# Stress axis : x y z
#
# Youngs Moduli (GPa) = 97.92080 88.48720 82.29371
#
# Poissons Ratio (x) = 0.04686 0.06985
# Poissons Ratio (y) = 0.05186 -0.07758
# Poissons Ratio (z) = 0.08311 -0.08342
#
# Static dielectric constant tensor:
#      x y z
#    x 1.786400 0.000000 0.000000 
#    y 0.000000 1.785260 0.000000 
#    z 0.000000 0.000000 1.884850 
# 
# From -- ./inp_files/496.got.cif
#   From: 2010.05.17/outbox.cif.g08.bks.cpg/sg36_1_cif.got.tgz:496.got - 2010.06.03 17:41:39.
