data_PCOD9352143
_publ_section_title
;
Structure prediction by ZEFSAII (Michael W. Deem and Ramdas Pophale) SiO2 
 PCOD9352143
Probable space group: C M C 21
;
_chemical_formula_sum "Si O2"
_cell_formula_units_Z 64
_cell_length_a 8.944254
_cell_length_b 19.722094
_cell_length_c 17.064003
_cell_angle_alpha 90.000000
_cell_angle_beta 90.000000
_cell_angle_gamma 90.000000
_cell_volume 3010.080200
_symmetry_space_group_name_H-M "C M C 21"
_symmetry_group_IT_number 36
_symmetry_cell_setting 'orthorhombic'
loop_
_space_group_symop_operation_xyz
x,y,z
-x,-y,1/2+z
x,-y,1/2+z
-x,y,z
1/2+x,1/2+y,z
1/2-x,1/2-y,1/2+z
1/2+x,1/2-y,1/2+z
1/2-x,1/2+y,z
loop_
_atom_site_type_symbol
_atom_site_label
_atom_site_fract_x
_atom_site_fract_y
_atom_site_fract_z
Si Si1 0.680165 0.081906 0.179270
Si Si2 0.322539 0.657253 0.032141
Si Si3 0.678325 0.950346 0.265158
Si Si4 0.178704 0.406487 0.994807
Si Si5 0.172681 0.791400 0.081478
Si Si6 0.177661 0.966901 0.428958
Si Si7 0.318972 0.168587 0.334472
Si Si8 0.674494 0.304114 0.261836
O O1 0.500000 0.087399 0.166754
O O2 0.765788 0.114906 0.107144
O O3 0.717813 0.123086 0.258826
O O4 0.718323 0.003396 0.196642
O O5 0.500000 0.668561 0.036733
O O6 0.240473 0.728927 0.033703
O O7 0.291478 0.609471 0.957862
O O8 0.500000 0.949652 0.270005
O O9 0.740504 0.874804 0.258891
O O10 0.744031 0.978877 0.346267
O O11 0.254630 0.479482 0.989843
O O12 0.226548 0.366314 0.915362
O O13 0.000000 0.413553 0.996062
O O14 0.234637 0.359088 0.064489
O O15 0.179627 0.774168 0.173694
O O16 0.000000 0.802755 0.061182
O O17 0.000000 0.975540 0.423340
O O18 0.500000 0.172134 0.336631
O O19 0.266571 0.245517 0.319298
O O20 0.500000 0.318169 0.280783
#
# Coordination Sequence:
#
# PCOD9352143 Si02
#       8
#     8   8   8   8   8   8   8   8
#     4  10  20  41  66  89 119 159 204 254 312 370
#     4  11  25  42  63  92 125 164 212 260 311 375
#     4  11  24  41  64  95 126 160 209 263 313 370
#     4  11  23  41  66  93 127 166 210 262 314 375
#     4  11  24  43  65  92 127 167 210 257 315 379
#     4  11  25  44  63  90 128 169 212 258 313 376
#     4   9  18  39  65  87 116 159 201 245 308 369
#     4  10  22  41  64  88 124 166 202 251 314 376
#
# _framework density 21.261892
#
# number of rings (size 3 to 8) (size 9 to 14) (size 15 to 20)
#    0.000    1.500    2.500    1.875    3.500    4.000 
#    0.000    0.625    0.000    0.000    0.000    0.000 
#    0.000    0.000    0.000    0.000    0.000    0.000 
#
# Total GULP energy -178965.530023 kJ/mol
# GULP energy per Si atom -5592.672813 kJ/mol
# Density = 2.121350 g / cm^3
# Si number density = 21.261892 Si / 1000 Ang^3
#
#
#
# Elastic Constant Matrix: (Units=GPa)
#
#
# Indices 1 2 3 4 5 6 
#
# 1 41.9912 28.1733 -0.8256 0.0000 0.0000 0.0000
# 2 28.1733 111.4672 -11.9954 0.0000 0.0000 0.0000
# 3 -0.8256 -11.9954 28.8786 0.0000 0.0000 0.0000
# 4 0.0000 0.0000 0.0000 35.8623 0.0000 0.0000
# 5 0.0000 0.0000 0.0000 0.0000 27.5437 0.0000
# 6 0.0000 0.0000 0.0000 0.0000 0.0000 37.7371
#
#
#
# Elastic Compliance Matrix: (Units=1/GPa)
#
#
# Indices 1 2 3 4 5 6 
#
# 1 0.028823 -0.007533 -0.002305 0.000000 0.000000 0.000000
# 2 -0.007533 0.011360 0.004503 0.000000 0.000000 0.000000
# 3 -0.002305 0.004503 0.036432 0.000000 0.000000 0.000000
# 4 0.000000 0.000000 0.000000 0.027884 0.000000 0.000000
# 5 0.000000 0.000000 0.000000 0.000000 0.036306 0.000000
# 6 0.000000 0.000000 0.000000 0.000000 0.000000 0.026499
#
#
# Mechanical properties :
#
#
# Convention : Reuss Voigt Hill
#
# Bulk Modulus (GPa) = 15.16402 23.67130 19.41766
# Shear Modulus (GPa) = 25.00536 31.36094 28.18315
#
# Velocity S-wave (km/s) = 3.43310 3.84472 3.64472
# Velocity P-wave (km/s) = 4.78146 5.55576 5.18309
#
# Compressibility (1/GPa) = 0.06594560
#
# Stress axis : x y z
#
# Youngs Moduli (GPa) = 34.69394 88.02924 27.44812
#
# Poissons Ratio (x) = 0.66314 0.06327
# Poissons Ratio (y) = 0.26136 -0.12360
# Poissons Ratio (z) = 0.07997 -0.39642
#
# Static dielectric constant tensor:
#      x y z
#    x 1.702420 0.000000 0.000000 
#    y 0.000000 1.782930 0.000000 
#    z 0.000000 0.000000 1.786060 
# 
# From -- ./inp_files/13984.got.cif
#   From: 2010.05.17/outbox.cif.g08.bks.cpg/sg36_7_cif.got.tgz:13984.got - 2010.06.03 17:41:39.
