data_PCOD9352327
_publ_section_title
;
Structure prediction by ZEFSAII (Michael W. Deem and Ramdas Pophale) SiO2 
 PCOD9352327
Probable space group: C M C 21
;
_chemical_formula_sum "Si O2"
_cell_formula_units_Z 56
_cell_length_a 14.179682
_cell_length_b 22.718910
_cell_length_c 8.965141
_cell_angle_alpha 90.000000
_cell_angle_beta 90.000000
_cell_angle_gamma 90.000000
_cell_volume 2888.092553
_symmetry_space_group_name_H-M "C M C 21"
_symmetry_group_IT_number 36
_symmetry_cell_setting 'orthorhombic'
loop_
_space_group_symop_operation_xyz
x,y,z
-x,-y,1/2+z
x,-y,1/2+z
-x,y,z
1/2+x,1/2+y,z
1/2-x,1/2-y,1/2+z
1/2+x,1/2-y,1/2+z
1/2-x,1/2+y,z
loop_
_atom_site_type_symbol
_atom_site_label
_atom_site_fract_x
_atom_site_fract_y
_atom_site_fract_z
Si Si1 0.778411 0.583467 0.253390
Si Si2 0.388771 0.568590 0.764298
Si Si3 0.108369 0.296976 0.781286
Si Si4 0.725889 0.500507 0.511029
Si Si5 0.110143 0.838097 0.816293
Si Si6 0.605394 0.783914 0.133943
Si Si7 0.307969 0.683024 0.646577
O O1 0.846994 0.638846 0.262459
O O2 0.781421 0.544763 0.403114
O O3 0.672068 0.610278 0.243877
O O4 0.790716 0.540883 0.113026
O O5 0.500000 0.559339 0.765501
O O6 0.339332 0.539546 0.906089
O O7 0.340129 0.538120 0.621257
O O8 0.364608 0.637425 0.748570
O O9 0.165777 0.249338 0.688218
O O10 0.000000 0.296456 0.732713
O O11 0.111603 0.278007 0.954910
O O12 0.114403 0.778736 0.717661
O O13 0.000000 0.853565 0.836457
O O14 0.159487 0.827154 0.976329
O O15 0.500000 0.807057 0.169041
O O16 0.695976 0.823548 0.172016
#
# Coordination Sequence:
#
# PCOD9352327 Si02
#       7
#     8   8   8   8   8   8   8
#     4  11  22  43  61  86 123 160 205 258 307 362
#     4  11  22  37  58  88 124 163 206 253 302 365
#     4  11  23  40  64  92 122 157 202 255 312 367
#     4  10  24  39  60  83 119 168 211 251 304 359
#     4  11  22  36  58  87 125 165 194 236 300 369
#     4  10  21  37  59  87 120 159 198 237 300 371
#     4  12  21  38  59  93 127 158 195 252 310 367
#
# _framework density 19.389962000000001
#
# number of rings (size 3 to 8) (size 9 to 14) (size 15 to 20)
#    0.000    1.143    4.286    1.714    2.000    4.000 
#    0.000    0.714    0.000    3.429    0.000    0.000 
#    0.000    0.000    0.000    0.000    0.000    0.000 
#
# Total GULP energy -156451.238778 kJ/mol
# GULP energy per Si atom -5587.544242 kJ/mol
# Density = 1.934583 g / cm^3
# Si number density = 19.389962 Si / 1000 Ang^3
#
#
#
# Elastic Constant Matrix: (Units=GPa)
#
#
# Indices 1 2 3 4 5 6 
#
# 1 84.8617 14.0516 12.7666 0.0000 0.0000 0.0000
# 2 14.0516 75.8989 31.6696 0.0000 0.0000 0.0000
# 3 12.7666 31.6696 61.7446 0.0000 0.0000 0.0000
# 4 0.0000 0.0000 0.0000 30.4302 0.0000 0.0000
# 5 0.0000 0.0000 0.0000 0.0000 16.3024 0.0000
# 6 0.0000 0.0000 0.0000 0.0000 0.0000 8.6228
#
#
#
# Elastic Compliance Matrix: (Units=1/GPa)
#
#
# Indices 1 2 3 4 5 6 
#
# 1 0.012303 -0.001548 -0.001750 0.000000 0.000000 0.000000
# 2 -0.001548 0.016958 -0.008378 0.000000 0.000000 0.000000
# 3 -0.001750 -0.008378 0.020855 0.000000 0.000000 0.000000
# 4 0.000000 0.000000 0.000000 0.032862 0.000000 0.000000
# 5 0.000000 0.000000 0.000000 0.000000 0.061340 0.000000
# 6 0.000000 0.000000 0.000000 0.000000 0.000000 0.115972
#
#
# Mechanical properties :
#
#
# Convention : Reuss Voigt Hill
#
# Bulk Modulus (GPa) = 37.36256 37.72008 37.54132
# Shear Modulus (GPa) = 17.09034 22.00558 19.54796
#
# Velocity S-wave (km/s) = 2.97206 3.37248 3.17858
# Velocity P-wave (km/s) = 5.57570 5.88731 5.73362
#
# Compressibility (1/GPa) = 0.02676476
#
# Stress axis : x y z
#
# Youngs Moduli (GPa) = 81.27828 58.97045 47.95081
#
# Poissons Ratio (x) = 0.09126 0.08392
# Poissons Ratio (y) = 0.12578 0.40172
# Poissons Ratio (z) = 0.14225 0.49404
#
# Static dielectric constant tensor:
#      x y z
#    x 1.667530 0.000000 0.000000 
#    y 0.000000 1.672020 0.000000 
#    z 0.000000 0.000000 1.683380 
# 
# From -- ./inp_files/4179.got.cif
#   From: 2010.05.17/outbox.cif.g08.bks.cpg/sg36_3_cif.got.tgz:4179.got - 2010.06.03 17:41:39.
