data_PCOD9352904
_publ_section_title
;
Structure prediction by ZEFSAII (Michael W. Deem and Ramdas Pophale) SiO2 
 PCOD9352904
Probable space group: C M C 21
;
_chemical_formula_sum "Si O2"
_cell_formula_units_Z 52
_cell_length_a 20.594624
_cell_length_b 18.620274
_cell_length_c 5.706856
_cell_angle_alpha 90.000000
_cell_angle_beta 90.000000
_cell_angle_gamma 90.000000
_cell_volume 2188.451110
_symmetry_space_group_name_H-M "C M C 21"
_symmetry_group_IT_number 36
_symmetry_cell_setting 'orthorhombic'
loop_
_space_group_symop_operation_xyz
x,y,z
-x,-y,1/2+z
x,-y,1/2+z
-x,y,z
1/2+x,1/2+y,z
1/2-x,1/2-y,1/2+z
1/2+x,1/2-y,1/2+z
1/2-x,1/2+y,z
loop_
_atom_site_type_symbol
_atom_site_label
_atom_site_fract_x
_atom_site_fract_y
_atom_site_fract_z
Si Si1 0.929161 0.806209 0.552870
Si Si2 0.337640 0.778335 0.716424
Si Si3 0.388536 0.461717 0.706438
Si Si4 0.500000 0.957692 0.220055
Si Si5 0.239303 0.339008 0.089281
Si Si6 0.598963 0.165399 0.823275
Si Si7 0.755254 0.491702 0.206933
O O1 0.871799 0.780401 0.382987
O O2 0.913534 0.880612 0.681432
O O3 0.930942 0.738629 0.726668
O O4 0.000000 0.813285 0.436586
O O5 0.287209 0.727806 0.580914
O O6 0.395769 0.822098 0.598819
O O7 0.293071 0.838815 0.834785
O O8 0.407480 0.502381 0.459225
O O9 0.309780 0.460984 0.707861
O O10 0.438255 0.904054 0.238279
O O11 0.500000 0.996636 0.965271
O O12 0.174354 0.333679 0.246156
O O13 0.271894 0.410667 0.179714
O O14 0.790597 0.496423 0.457583
#
# Coordination Sequence:
#
# PCOD9352904 Si02
#       7
#     8   8   8   4   8   8   8
#     4  11  26  45  76 108 149 206 264 315 379 464
#     4  11  24  43  72 109 152 191 260 325 390 463
#     4  10  23  43  66 105 151 200 248 301 366 435
#     4  12  32  58  86 112 160 204 270 346 410 484
#     4  11  24  42  71 110 149 196 252 320 390 473
#     4  11  27  48  77 111 149 201 263 323 409 467
#     4  10  23  38  64  96 145 191 238 285 375 441
#
# _framework density 23.761096999999999
#
# number of rings (size 3 to 8) (size 9 to 14) (size 15 to 20)
#    0.000    1.231    2.308    1.846   14.000    1.846 
#    0.000    0.000    0.000    0.000    0.000    0.000 
#    0.000    0.000    0.000    0.000    0.000    0.000 
#
# Total GULP energy -144985.540450 kJ/mol
# GULP energy per Si atom -5576.366940 kJ/mol
# Density = 2.370702 g / cm^3
# Si number density = 23.761097 Si / 1000 Ang^3
#
#
#
# Elastic Constant Matrix: (Units=GPa)
#
#
# Indices 1 2 3 4 5 6 
#
# 1 83.7772 29.2540 9.9885 0.0000 0.0000 0.0000
# 2 29.2540 112.6925 38.9204 0.0000 0.0000 0.0000
# 3 9.9885 38.9204 129.0974 0.0000 0.0000 0.0000
# 4 0.0000 0.0000 0.0000 30.6767 0.0000 0.0000
# 5 0.0000 0.0000 0.0000 0.0000 2.3711 0.0000
# 6 0.0000 0.0000 0.0000 0.0000 0.0000 34.5740
#
#
#
# Elastic Compliance Matrix: (Units=1/GPa)
#
#
# Indices 1 2 3 4 5 6 
#
# 1 0.013126 -0.003412 0.000013 0.000000 0.000000 0.000000
# 2 -0.003412 0.010792 -0.002990 0.000000 0.000000 0.000000
# 3 0.000013 -0.002990 0.008646 0.000000 0.000000 0.000000
# 4 0.000000 0.000000 0.000000 0.032598 0.000000 0.000000
# 5 0.000000 0.000000 0.000000 0.000000 0.421753 0.000000
# 6 0.000000 0.000000 0.000000 0.000000 0.000000 0.028923
#
#
# Mechanical properties :
#
#
# Convention : Reuss Voigt Hill
#
# Bulk Modulus (GPa) = 50.53673 53.54365 52.04019
# Shear Modulus (GPa) = 9.34210 30.01798 19.68004
#
# Velocity S-wave (km/s) = 1.98500 3.55818 2.88105
# Velocity P-wave (km/s) = 5.15446 6.28204 5.74598
#
# Compressibility (1/GPa) = 0.01978759
#
# Stress axis : x y z
#
# Youngs Moduli (GPa) = 76.18304 92.66184 115.65538
#
# Poissons Ratio (x) = 0.31616 -0.00151
# Poissons Ratio (y) = 0.25993 0.34576
# Poissons Ratio (z) = -0.00099 0.27702
#
# Static dielectric constant tensor:
#      x y z
#    x 1.948870 0.000000 0.000000 
#    y 0.000000 1.886140 0.000000 
#    z 0.000000 0.000000 2.143490 
# 
# From -- ./inp_files/1390.got.cif
#   From: 2010.05.17/outbox.cif.g08.bks.cpg/sg36_1_cif.got.tgz:1390.got - 2010.06.03 17:41:39.
