data_PCOD9352724
_publ_section_title
;
Structure prediction by ZEFSAII (Michael W. Deem and Ramdas Pophale) SiO2 
 PCOD9352724
Probable space group: C M C 21
;
_chemical_formula_sum "Si O2"
_cell_formula_units_Z 64
_cell_length_a 8.937261
_cell_length_b 31.192507
_cell_length_c 12.158624
_cell_angle_alpha 90.000000
_cell_angle_beta 90.000000
_cell_angle_gamma 90.000000
_cell_volume 3389.527413
_symmetry_space_group_name_H-M "C M C 21"
_symmetry_group_IT_number 36
_symmetry_cell_setting 'orthorhombic'
loop_
_space_group_symop_operation_xyz
x,y,z
-x,-y,1/2+z
x,-y,1/2+z
-x,y,z
1/2+x,1/2+y,z
1/2-x,1/2-y,1/2+z
1/2+x,1/2-y,1/2+z
1/2-x,1/2+y,z
loop_
_atom_site_type_symbol
_atom_site_label
_atom_site_fract_x
_atom_site_fract_y
_atom_site_fract_z
Si Si1 0.677221 0.951938 0.330520
Si Si2 0.179743 0.293019 0.774835
Si Si3 0.679230 0.695891 0.826703
Si Si4 0.319321 0.877728 0.914225
Si Si5 0.180524 0.374475 0.170997
Si Si6 0.822576 0.958114 0.785039
Si Si7 0.175501 0.576944 0.080454
Si Si8 0.678721 0.667509 0.072262
O O1 0.500000 0.960507 0.313504
O O2 0.725909 0.916995 0.239648
O O3 0.695306 0.932300 0.451883
O O4 0.765422 0.996198 0.326913
O O5 0.216219 0.246175 0.821198
O O6 0.221261 0.332977 0.853796
O O7 0.263714 0.298163 0.659465
O O8 0.000000 0.295309 0.758681
O O9 0.500000 0.691826 0.814594
O O10 0.755327 0.666835 0.733901
O O11 0.719832 0.678857 0.947535
O O12 0.500000 0.881759 0.908875
O O13 0.248748 0.918519 0.852662
O O14 0.275558 0.876617 0.042942
O O15 0.000000 0.372411 0.175527
O O16 0.765200 0.954417 0.659728
O O17 0.000000 0.954897 0.790317
O O18 0.238696 0.623870 0.103935
O O19 0.000000 0.574522 0.106843
O O20 0.500000 0.662534 0.079219
#
# Coordination Sequence:
#
# PCOD9352724 Si02
#       8
#     8   8   8   8   8   8   8   8
#     4  10  23  42  64  91 121 160 209 250 298 365
#     4  10  22  40  61  87 122 167 206 245 304 366
#     4  10  23  40  60  91 127 161 200 252 313 363
#     4  10  22  41  64  87 121 164 207 252 298 359
#     4  10  22  41  65  91 119 161 209 249 298 362
#     4  12  26  41  62  93 126 159 202 252 310 363
#     4  11  22  41  67  90 120 160 205 252 301 365
#     4  11  22  38  63  92 122 156 202 260 312 355
#
# _framework density 18.881688
#
# number of rings (size 3 to 8) (size 9 to 14) (size 15 to 20)
#    0.000    1.500    2.500    1.875    3.500    3.000 
#    0.000    0.000    0.000    0.000    0.000    0.000 
#    0.000    0.000    0.000    0.000    0.000    0.000 
#
# Total GULP energy -178780.556571 kJ/mol
# GULP energy per Si atom -5586.892393 kJ/mol
# Density = 1.883871 g / cm^3
# Si number density = 18.881688 Si / 1000 Ang^3
#
#
#
# Elastic Constant Matrix: (Units=GPa)
#
#
# Indices 1 2 3 4 5 6 
#
# 1 33.1147 35.8613 38.1276 0.0000 0.0000 0.0000
# 2 35.8613 108.1829 36.5928 0.0000 0.0000 0.0000
# 3 38.1276 36.5928 108.3633 0.0000 0.0000 0.0000
# 4 0.0000 0.0000 0.0000 18.4286 0.0000 0.0000
# 5 0.0000 0.0000 0.0000 0.0000 26.4611 0.0000
# 6 0.0000 0.0000 0.0000 0.0000 0.0000 31.2282
#
#
#
# Elastic Compliance Matrix: (Units=1/GPa)
#
#
# Indices 1 2 3 4 5 6 
#
# 1 0.070494 -0.016910 -0.019093 0.000000 0.000000 0.000000
# 2 -0.016910 0.014492 0.001056 0.000000 0.000000 0.000000
# 3 -0.019093 0.001056 0.015590 0.000000 0.000000 0.000000
# 4 0.000000 0.000000 0.000000 0.054264 0.000000 0.000000
# 5 0.000000 0.000000 0.000000 0.000000 0.037791 0.000000
# 6 0.000000 0.000000 0.000000 0.000000 0.000000 0.032022
#
#
# Mechanical properties :
#
#
# Convention : Reuss Voigt Hill
#
# Bulk Modulus (GPa) = 32.59284 52.31383 42.45334
# Shear Modulus (GPa) = 16.40568 24.49553 20.45060
#
# Velocity S-wave (km/s) = 2.95085 3.60574 3.29461
# Velocity P-wave (km/s) = 5.37672 6.71576 6.08319
#
# Compressibility (1/GPa) = 0.03068158
#
# Stress axis : x y z
#
# Youngs Moduli (GPa) = 14.18567 69.00480 64.14563
#
# Poissons Ratio (x) = 1.16684 1.22474
# Poissons Ratio (y) = 0.23987 -0.06774
# Poissons Ratio (z) = 0.27085 -0.07287
#
# Static dielectric constant tensor:
#      x y z
#    x 1.631220 0.000000 0.000000 
#    y 0.000000 1.661410 0.000000 
#    z 0.000000 0.000000 1.637710 
# 
# From -- ./inp_files/7169.got.cif
#   From: 2010.05.17/outbox.cif.g08.bks.cpg/sg36_4_cif.got.tgz:7169.got - 2010.06.03 17:41:39.
