data_PCOD9352157
_publ_section_title
;
Structure prediction by ZEFSAII (Michael W. Deem and Ramdas Pophale) SiO2 
 PCOD9352157
Probable space group: C M C 21
;
_chemical_formula_sum "Si O2"
_cell_formula_units_Z 60
_cell_length_a 11.309933
_cell_length_b 27.115278
_cell_length_c 9.893063
_cell_angle_alpha 90.000000
_cell_angle_beta 90.000000
_cell_angle_gamma 90.000000
_cell_volume 3033.925193
_symmetry_space_group_name_H-M "C M C 21"
_symmetry_group_IT_number 36
_symmetry_cell_setting 'orthorhombic'
loop_
_space_group_symop_operation_xyz
x,y,z
-x,-y,1/2+z
x,-y,1/2+z
-x,y,z
1/2+x,1/2+y,z
1/2-x,1/2-y,1/2+z
1/2+x,1/2-y,1/2+z
1/2-x,1/2+y,z
loop_
_atom_site_type_symbol
_atom_site_label
_atom_site_fract_x
_atom_site_fract_y
_atom_site_fract_z
Si Si1 0.500000 0.276828 0.366500
Si Si2 0.722734 0.785342 0.794382
Si Si3 0.864754 0.595201 0.645158
Si Si4 0.635303 0.889229 0.824707
Si Si5 0.780383 0.145567 0.876463
Si Si6 0.233401 0.491664 0.733535
Si Si7 0.137821 0.041964 0.979500
Si Si8 0.361761 0.770024 0.507819
O O1 0.395391 0.234147 0.367956
O O2 0.605617 0.319444 0.361110
O O3 0.716695 0.843996 0.778851
O O4 0.713906 0.761798 0.644509
O O5 0.829767 0.767773 0.888235
O O6 0.850233 0.604690 0.486184
O O7 0.842144 0.537543 0.677396
O O8 0.000000 0.607855 0.682557
O O9 0.772482 0.626192 0.734716
O O10 0.500000 0.875963 0.794034
O O11 0.662639 0.941441 0.756892
O O12 0.815556 0.097595 0.961884
O O13 0.678746 0.177349 0.949742
O O14 0.334973 0.479151 0.626394
O O15 0.290039 0.509282 0.873132
O O16 0.000000 0.040836 0.948081
O O17 0.500000 0.767525 0.545003
#
# Coordination Sequence:
#
# PCOD9352157 Si02
#       8
#     4   8   8   8   8   8   8   8
#     4  10  20  42  64  94 128 176 210 276 330 394
#     4  11  24  42  68  96 133 178 222 275 343 394
#     4  10  22  39  63  98 131 170 216 270 332 399
#     4  11  22  40  65  96 130 166 215 271 331 390
#     4  10  22  40  67  94 128 173 226 264 335 392
#     4  11  22  41  62  93 128 169 213 268 331 387
#     4  11  22  40  63  91 127 171 215 269 321 395
#     4  11  24  45  65  99 134 174 226 282 330 401
#
# _framework density 19.77636
#
# number of rings (size 3 to 8) (size 9 to 14) (size 15 to 20)
#    0.000    1.333    3.333    2.000    3.733    0.000 
#    4.800    2.667    0.000    0.000    0.000    0.000 
#    0.000    0.000    0.000    0.000    0.000    0.000 
#
# Total GULP energy -167036.259203 kJ/mol
# GULP energy per Si atom -5567.875307 kJ/mol
# Density = 1.973135 g / cm^3
# Si number density = 19.776360 Si / 1000 Ang^3
#
#
#
# Elastic Constant Matrix: (Units=GPa)
#
#
# Indices 1 2 3 4 5 6 
#
# 1 41.0568 1.9594 1.5968 0.0000 0.0000 0.0000
# 2 1.9594 87.5759 5.5917 0.0000 0.0000 0.0000
# 3 1.5968 5.5917 59.3250 0.0000 0.0000 0.0000
# 4 0.0000 0.0000 0.0000 20.0181 0.0000 0.0000
# 5 0.0000 0.0000 0.0000 0.0000 20.3086 0.0000
# 6 0.0000 0.0000 0.0000 0.0000 0.0000 35.4789
#
#
#
# Elastic Compliance Matrix: (Units=1/GPa)
#
#
# Indices 1 2 3 4 5 6 
#
# 1 0.024404 -0.000507 -0.000609 0.000000 0.000000 0.000000
# 2 -0.000507 0.011498 -0.001070 0.000000 0.000000 0.000000
# 3 -0.000609 -0.001070 0.016974 0.000000 0.000000 0.000000
# 4 0.000000 0.000000 0.000000 0.049955 0.000000 0.000000
# 5 0.000000 0.000000 0.000000 0.000000 0.049240 0.000000
# 6 0.000000 0.000000 0.000000 0.000000 0.000000 0.028186
#
#
# Mechanical properties :
#
#
# Convention : Reuss Voigt Hill
#
# Bulk Modulus (GPa) = 20.61698 22.91703 21.76700
# Shear Modulus (GPa) = 24.90070 27.08179 25.99125
#
# Velocity S-wave (km/s) = 3.55225 3.70456 3.62920
# Velocity P-wave (km/s) = 5.22229 5.46915 5.34714
#
# Compressibility (1/GPa) = 0.04850371
#
# Stress axis : x y z
#
# Youngs Moduli (GPa) = 40.97620 86.96909 58.91517
#
# Poissons Ratio (x) = 0.04410 0.03588
# Poissons Ratio (y) = 0.02078 0.06305
# Poissons Ratio (z) = 0.02496 0.09307
#
# Static dielectric constant tensor:
#      x y z
#    x 1.656210 0.000000 0.000000 
#    y 0.000000 1.709220 0.000000 
#    z 0.000000 0.000000 1.706160 
# 
# From -- ./inp_files/3486.got.cif
#   From: 2010.05.17/outbox.cif.g08.bks.cpg/sg36_2_cif.got.tgz:3486.got - 2010.06.03 17:41:39.
