data_PCOD9352383
_publ_section_title
;
Structure prediction by ZEFSAII (Michael W. Deem and Ramdas Pophale) SiO2 
 PCOD9352383
Probable space group: C M C 21
;
_chemical_formula_sum "Si O2"
_cell_formula_units_Z 40
_cell_length_a 10.682427
_cell_length_b 19.635465
_cell_length_c 7.764501
_cell_angle_alpha 90.000000
_cell_angle_beta 90.000000
_cell_angle_gamma 90.000000
_cell_volume 1628.638415
_symmetry_space_group_name_H-M "C M C 21"
_symmetry_group_IT_number 36
_symmetry_cell_setting 'orthorhombic'
loop_
_space_group_symop_operation_xyz
x,y,z
-x,-y,1/2+z
x,-y,1/2+z
-x,y,z
1/2+x,1/2+y,z
1/2-x,1/2-y,1/2+z
1/2+x,1/2-y,1/2+z
1/2-x,1/2+y,z
loop_
_atom_site_type_symbol
_atom_site_label
_atom_site_fract_x
_atom_site_fract_y
_atom_site_fract_z
Si Si1 0.000000 0.214457 0.609980
Si Si2 0.000000 0.104299 0.357721
Si Si3 0.500000 0.684844 0.042727
Si Si4 0.500000 0.599339 0.782272
Si Si5 0.289793 0.923374 0.233338
Si Si6 0.790819 0.319432 0.538414
Si Si7 0.784499 0.572020 0.340161
O O1 0.000000 0.134903 0.554322
O O2 0.879906 0.255363 0.562116
O O3 0.000000 0.187603 0.807767
O O4 0.000000 0.174951 0.256566
O O5 0.867815 0.068378 0.339744
O O6 0.350740 0.707171 0.035774
O O7 0.500000 0.600543 0.997518
O O8 0.361526 0.571836 0.746172
O O9 0.321398 0.863338 0.367056
O O10 0.336548 0.997868 0.290073
O O11 0.323249 0.909477 0.034904
O O12 0.814409 0.370680 0.698926
#
# Coordination Sequence:
#
# PCOD9352383 Si02
#       7
#     4   4   4   4   8   8   8
#     4  12  24  44  59  88 143 176 212 254 306 404
#     4  10  21  38  59  98 127 168 205 271 329 373
#     4   8  20  38  61  90 121 158 218 260 310 370
#     4  10  21  38  59  98 127 168 205 271 329 373
#     4  11  20  38  66  94 127 160 215 276 331 371
#     4  10  24  41  62  94 130 173 216 262 317 382
#     4  11  20  38  66  94 127 160 215 276 331 371
#
# _framework density 24.560393999999999
#
# number of rings (size 3 to 8) (size 9 to 14) (size 15 to 20)
#    0.000    1.600    4.000    0.600    0.000    6.400 
#    3.600    1.000    0.000    0.000    0.000    0.000 
#    0.000    0.000    0.000    0.000    0.000    0.000 
#
# Total GULP energy -111569.472145 kJ/mol
# GULP energy per Si atom -5578.473607 kJ/mol
# Density = 2.450449 g / cm^3
# Si number density = 24.560394 Si / 1000 Ang^3
#
#
#
# Elastic Constant Matrix: (Units=GPa)
#
#
# Indices 1 2 3 4 5 6 
#
# 1 78.1565 34.5371 13.6446 0.0000 0.0000 0.0000
# 2 34.5371 110.7407 29.9778 0.0000 0.0000 0.0000
# 3 13.6446 29.9778 119.8464 0.0000 0.0000 0.0000
# 4 0.0000 0.0000 0.0000 34.2699 0.0000 0.0000
# 5 0.0000 0.0000 0.0000 0.0000 -20.9405 0.0000
# 6 0.0000 0.0000 0.0000 0.0000 0.0000 18.0213
#
#
#
# Elastic Compliance Matrix: (Units=1/GPa)
#
#
# Indices 1 2 3 4 5 6 
#
# 1 0.014876 -0.004485 -0.000572 0.000000 0.000000 0.000000
# 2 -0.004485 0.011038 -0.002250 0.000000 0.000000 0.000000
# 3 -0.000572 -0.002250 0.008972 0.000000 0.000000 0.000000
# 4 0.000000 0.000000 0.000000 0.029180 0.000000 0.000000
# 5 0.000000 0.000000 0.000000 0.000000 -0.047754 0.000000
# 6 0.000000 0.000000 0.000000 0.000000 0.000000 0.055490
#
#
# Mechanical properties :
#
#
# Convention : Reuss Voigt Hill
#
# Bulk Modulus (GPa) = 49.32825 51.67363 50.50094
# Shear Modulus (GPa) = 53.66335 21.64244 37.65289
#
# Velocity S-wave (km/s) = 4.67942 2.97171 3.91970
# Velocity P-wave (km/s) = 7.02311 5.73235 6.41030
#
# Compressibility (1/GPa) = 0.02027236
#
# Stress axis : x y z
#
# Youngs Moduli (GPa) = 67.22018 90.59628 111.45753
#
# Poissons Ratio (x) = 0.40630 0.06374
# Poissons Ratio (y) = 0.30147 0.25082
# Poissons Ratio (z) = 0.03844 0.20388
#
# Static dielectric constant tensor:
#      x y z
#    x 1.927720 0.000000 0.000000 
#    y 0.000000 1.915130 0.000000 
#    z 0.000000 0.000000 2.093370 
# 
# From -- ./inp_files/3125.got.cif
#   From: 2010.05.17/outbox.cif.g08.bks.cpg/sg36_2_cif.got.tgz:3125.got - 2010.06.03 17:41:39.
