data_PCOD9352165
_publ_section_title
;
Structure prediction by ZEFSAII (Michael W. Deem and Ramdas Pophale) SiO2 
 PCOD9352165
Probable space group: C M C 21
;
_chemical_formula_sum "Si O2"
_cell_formula_units_Z 56
_cell_length_a 19.004170
_cell_length_b 14.626089
_cell_length_c 7.830296
_cell_angle_alpha 90.000000
_cell_angle_beta 90.000000
_cell_angle_gamma 90.000000
_cell_volume 2176.483094
_symmetry_space_group_name_H-M "C M C 21"
_symmetry_group_IT_number 36
_symmetry_cell_setting 'orthorhombic'
loop_
_space_group_symop_operation_xyz
x,y,z
-x,-y,1/2+z
x,-y,1/2+z
-x,y,z
1/2+x,1/2+y,z
1/2-x,1/2-y,1/2+z
1/2+x,1/2-y,1/2+z
1/2-x,1/2+y,z
loop_
_atom_site_type_symbol
_atom_site_label
_atom_site_fract_x
_atom_site_fract_y
_atom_site_fract_z
Si Si1 0.579032 0.533003 0.383080
Si Si2 0.923281 0.631448 0.504697
Si Si3 0.786619 0.382566 0.386243
Si Si4 0.727623 0.456244 0.711940
Si Si5 0.578323 0.348867 0.228053
Si Si6 0.922509 0.573913 0.103382
Si Si7 0.693955 0.216310 0.364009
O O1 0.500000 0.555728 0.314393
O O2 0.648862 0.555088 0.277470
O O3 0.579493 0.422001 0.382728
O O4 0.585269 0.587399 0.560682
O O5 0.917660 0.536150 0.602109
O O6 0.856424 0.696735 0.526980
O O7 0.000000 0.671994 0.541726
O O8 0.920553 0.605654 0.301148
O O9 0.732051 0.431748 0.515287
O O10 0.766200 0.445314 0.226098
O O11 0.862334 0.392371 0.474468
O O12 0.761482 0.279353 0.383979
O O13 0.776966 0.380467 0.800811
O O14 0.500000 0.306105 0.222257
O O15 0.641016 0.276644 0.245316
O O16 0.000000 0.597975 0.035264
#
# Coordination Sequence:
#
# PCOD9352165 Si02
#       7
#     8   8   8   8   8   8   8
#     4  10  22  43  69  97 131 175 222 274 335 400
#     4  10  21  42  70  98 131 174 224 278 336 404
#     4  12  25  44  66 103 134 181 222 286 335 404
#     4  12  26  44  69  97 138 177 227 279 343 399
#     4  10  22  42  70  98 131 176 224 276 337 403
#     4  10  20  42  69  96 131 176 223 269 334 398
#     4  12  25  39  66  99 136 171 228 276 335 400
#
# _framework density 25.729581
#
# number of rings (size 3 to 8) (size 9 to 14) (size 15 to 20)
#    0.000    1.143    4.286    1.286    2.000    0.000 
#    2.571    1.429    0.000    0.000    0.000    0.000 
#    0.000    0.000    0.000    0.000    0.000    0.000 
#
# Total GULP energy -156606.608275 kJ/mol
# GULP energy per Si atom -5593.093153 kJ/mol
# Density = 2.567102 g / cm^3
# Si number density = 25.729581 Si / 1000 Ang^3
#
#
#
# Elastic Constant Matrix: (Units=GPa)
#
#
# Indices 1 2 3 4 5 6 
#
# 1 224.9571 25.2926 26.9891 0.0000 0.0000 0.0000
# 2 25.2926 89.5524 -2.8854 0.0000 0.0000 0.0000
# 3 26.9891 -2.8854 25.2824 0.0000 0.0000 0.0000
# 4 0.0000 0.0000 0.0000 24.5874 0.0000 0.0000
# 5 0.0000 0.0000 0.0000 0.0000 30.9773 0.0000
# 6 0.0000 0.0000 0.0000 0.0000 0.0000 44.7862
#
#
#
# Elastic Compliance Matrix: (Units=1/GPa)
#
#
# Indices 1 2 3 4 5 6 
#
# 1 0.005344 -0.001699 -0.005899 0.000000 0.000000 0.000000
# 2 -0.001699 0.011748 0.003155 0.000000 0.000000 0.000000
# 3 -0.005899 0.003155 0.046210 0.000000 0.000000 0.000000
# 4 0.000000 0.000000 0.000000 0.040671 0.000000 0.000000
# 5 0.000000 0.000000 0.000000 0.000000 0.032282 0.000000
# 6 0.000000 0.000000 0.000000 0.000000 0.000000 0.022328
#
#
# Mechanical properties :
#
#
# Convention : Reuss Voigt Hill
#
# Bulk Modulus (GPa) = 18.37691 48.73162 33.55427
# Shear Modulus (GPa) = 26.93834 39.42988 33.18411
#
# Velocity S-wave (km/s) = 3.23922 3.91893 3.59517
# Velocity P-wave (km/s) = 4.59868 6.28159 5.50483
#
# Compressibility (1/GPa) = 0.05441610
#
# Stress axis : x y z
#
# Youngs Moduli (GPa) = 187.12353 85.11890 21.64022
#
# Poissons Ratio (x) = 0.14465 0.12765
# Poissons Ratio (y) = 0.31800 -0.06827
# Poissons Ratio (z) = 1.10380 -0.26855
#
# Static dielectric constant tensor:
#      x y z
#    x 2.098830 0.000000 0.000000 
#    y 0.000000 2.109860 0.000000 
#    z 0.000000 0.000000 2.153530 
# 
# From -- ./inp_files/5201.got.cif
#   From: 2010.05.17/outbox.cif.g08.bks.cpg/sg36_3_cif.got.tgz:5201.got - 2010.06.03 17:41:39.
