data_PCOD9352046
_publ_section_title
;
Structure prediction by ZEFSAII (Michael W. Deem and Ramdas Pophale) SiO2 
 PCOD9352046
Probable space group: C M C 21
;
_chemical_formula_sum "Si O2"
_cell_formula_units_Z 64
_cell_length_a 9.055623
_cell_length_b 24.511083
_cell_length_c 15.585339
_cell_angle_alpha 90.000000
_cell_angle_beta 90.000000
_cell_angle_gamma 90.000000
_cell_volume 3459.370579
_symmetry_space_group_name_H-M "C M C 21"
_symmetry_group_IT_number 36
_symmetry_cell_setting 'orthorhombic'
loop_
_space_group_symop_operation_xyz
x,y,z
-x,-y,1/2+z
x,-y,1/2+z
-x,y,z
1/2+x,1/2+y,z
1/2-x,1/2-y,1/2+z
1/2+x,1/2-y,1/2+z
1/2-x,1/2+y,z
loop_
_atom_site_type_symbol
_atom_site_label
_atom_site_fract_x
_atom_site_fract_y
_atom_site_fract_z
Si Si1 0.169661 0.633326 0.003260
Si Si2 0.825355 0.979757 0.767336
Si Si3 0.822102 0.484668 0.442603
Si Si4 0.322597 0.751623 0.760527
Si Si5 0.821549 0.677778 0.615303
Si Si6 0.168744 0.374802 0.705451
Si Si7 0.322158 0.950284 0.116571
Si Si8 0.177401 0.244913 0.958702
O O1 0.169744 0.618224 0.103362
O O2 0.000000 0.646611 0.979384
O O3 0.216927 0.578960 0.954224
O O4 0.268684 0.685809 0.988580
O O5 0.758086 0.993235 0.859518
O O6 0.778041 0.918167 0.745455
O O7 0.000000 0.986222 0.766634
O O8 0.753435 0.019017 0.695654
O O9 0.783889 0.518747 0.528079
O O10 0.000000 0.487949 0.432711
O O11 0.500000 0.742615 0.757654
O O12 0.245920 0.708086 0.698095
O O13 0.294172 0.812358 0.725449
O O14 0.273520 0.751210 0.859889
O O15 0.782522 0.613764 0.612673
O O16 0.773039 0.709960 0.528628
O O17 0.000000 0.681285 0.619878
O O18 0.000000 0.385068 0.736232
O O19 0.500000 0.954275 0.126887
O O20 0.000000 0.247363 0.957864
#
# Coordination Sequence:
#
# PCOD9352046 Si02
#       8
#     8   8   8   8   8   8   8   8
#     4  10  20  38  64  89 112 153 205 251 292 344
#     4  12  26  40  60  92 126 157 194 249 314 361
#     4  10  22  41  65  88 116 158 210 250 290 356
#     4  10  22  39  62  88 119 159 198 240 295 355
#     4  10  22  39  61  88 120 156 198 246 296 348
#     4  10  20  40  66  87 113 155 208 250 290 354
#     4  10  22  43  66  87 117 163 209 248 292 354
#     4  10  22  38  58  89 123 155 192 242 303 354
#
# _framework density 18.500475999999999
#
# number of rings (size 3 to 8) (size 9 to 14) (size 15 to 20)
#    0.000    1.750    2.500    1.125    3.500    3.000 
#    0.000    0.000    0.000    0.000    0.000    0.000 
#    0.000    0.000    0.000    0.000    0.000    0.000 
#
# Total GULP energy -178691.468806 kJ/mol
# GULP energy per Si atom -5584.108400 kJ/mol
# Density = 1.845837 g / cm^3
# Si number density = 18.500476 Si / 1000 Ang^3
#
#
#
# Elastic Constant Matrix: (Units=GPa)
#
#
# Indices 1 2 3 4 5 6 
#
# 1 16.3180 30.9591 25.9046 0.0000 0.0000 0.0000
# 2 30.9591 84.9608 26.1022 0.0000 0.0000 0.0000
# 3 25.9046 26.1022 85.1462 0.0000 0.0000 0.0000
# 4 0.0000 0.0000 0.0000 27.6108 0.0000 0.0000
# 5 0.0000 0.0000 0.0000 0.0000 19.4774 0.0000
# 6 0.0000 0.0000 0.0000 0.0000 0.0000 30.1653
#
#
#
# Elastic Compliance Matrix: (Units=1/GPa)
#
#
# Indices 1 2 3 4 5 6 
#
# 1 0.644148 -0.192660 -0.136912 0.000000 0.000000 0.000000
# 2 -0.192660 0.070617 0.036966 0.000000 0.000000 0.000000
# 3 -0.136912 0.036966 0.042066 0.000000 0.000000 0.000000
# 4 0.000000 0.000000 0.000000 0.036218 0.000000 0.000000
# 5 0.000000 0.000000 0.000000 0.000000 0.051342 0.000000
# 6 0.000000 0.000000 0.000000 0.000000 0.000000 0.033151
#
#
# Mechanical properties :
#
#
# Convention : Reuss Voigt Hill
#
# Bulk Modulus (GPa) = 5.82686 39.15076 22.48881
# Shear Modulus (GPa) = 3.28956 22.34798 12.81877
#
# Velocity S-wave (km/s) = 1.33490 3.47935 2.63513
# Velocity P-wave (km/s) = 2.35209 6.11140 4.63042
#
# Compressibility (1/GPa) = 0.17161905
#
# Stress axis : x y z
#
# Youngs Moduli (GPa) = 1.55244 14.16085 23.77223
#
# Poissons Ratio (x) = 2.72823 3.25470
# Poissons Ratio (y) = 0.29909 -0.87876
# Poissons Ratio (z) = 0.21255 -0.52347
#
# Static dielectric constant tensor:
#      x y z
#    x 1.627500 0.000000 0.000000 
#    y 0.000000 1.623690 0.000000 
#    z 0.000000 0.000000 1.642040 
# 
# From -- ./inp_files/10957.got.cif
#   From: 2010.05.17/outbox.cif.g08.bks.cpg/sg36_6_cif.got.tgz:10957.got - 2010.06.03 17:41:39.
