data_PCOD9352045
_publ_section_title
;
Structure prediction by ZEFSAII (Michael W. Deem and Ramdas Pophale) SiO2 
 PCOD9352045
Probable space group: C M C 21
;
_chemical_formula_sum "Si O2"
_cell_formula_units_Z 24
_cell_length_a 7.618071
_cell_length_b 25.153044
_cell_length_c 4.931098
_cell_angle_alpha 90.000000
_cell_angle_beta 90.000000
_cell_angle_gamma 90.000000
_cell_volume 944.885534
_symmetry_space_group_name_H-M "C M C 21"
_symmetry_group_IT_number 36
_symmetry_cell_setting 'orthorhombic'
loop_
_space_group_symop_operation_xyz
x,y,z
-x,-y,1/2+z
x,-y,1/2+z
-x,y,z
1/2+x,1/2+y,z
1/2-x,1/2-y,1/2+z
1/2+x,1/2-y,1/2+z
1/2-x,1/2+y,z
loop_
_atom_site_type_symbol
_atom_site_label
_atom_site_fract_x
_atom_site_fract_y
_atom_site_fract_z
Si Si1 0.798591 0.782692 0.016220
Si Si2 0.799719 0.108819 0.767555
Si Si3 0.000000 0.460700 0.515802
Si Si4 0.500000 0.536549 0.401027
O O1 0.791092 0.736863 0.243113
O O2 0.000000 0.794427 0.945154
O O3 0.726346 0.835497 0.159476
O O4 0.667134 0.076901 0.954974
O O5 0.000000 0.119011 0.880062
O O6 0.838320 0.071592 0.506385
O O7 0.000000 0.508903 0.298659
O O8 0.500000 0.485482 0.601024
#
# Coordination Sequence:
#
# PCOD9352045 Si02
#       4
#     8   8   4   4
#     4  11  25  45  71 101 136 180 227 284 345 404
#     4   9  24  45  66  98 131 179 219 270 334 403
#     4  12  26  42  66 100 132 172 222 274 330 390
#     4  10  20  38  64  88 124 168 214 264 314 388
#
# _framework density 25.399902999999998
#
# number of rings (size 3 to 8) (size 9 to 14) (size 15 to 20)
#    1.000    0.667    0.000    3.000    4.667    5.333 
#    0.000    0.000    0.000    0.000    0.000    0.000 
#    0.000    0.000    0.000    0.000    0.000    0.000 
#
# Total GULP energy -67186.904028 kJ/mol
# GULP energy per Si atom -5598.908669 kJ/mol
# Density = 2.534209 g / cm^3
# Si number density = 25.399903 Si / 1000 Ang^3
#
#
#
# Elastic Constant Matrix: (Units=GPa)
#
#
# Indices 1 2 3 4 5 6 
#
# 1 105.0076 0.8746 14.2040 0.0000 0.0000 0.0000
# 2 0.8746 75.8093 -0.1053 0.0000 0.0000 0.0000
# 3 14.2040 -0.1053 88.4781 0.0000 0.0000 0.0000
# 4 0.0000 0.0000 0.0000 17.2045 0.0000 0.0000
# 5 0.0000 0.0000 0.0000 0.0000 38.6173 0.0000
# 6 0.0000 0.0000 0.0000 0.0000 0.0000 66.9880
#
#
#
# Elastic Compliance Matrix: (Units=1/GPa)
#
#
# Indices 1 2 3 4 5 6 
#
# 1 0.009736 -0.000114 -0.001563 0.000000 0.000000 0.000000
# 2 -0.000114 0.013192 0.000034 0.000000 0.000000 0.000000
# 3 -0.001563 0.000034 0.011553 0.000000 0.000000 0.000000
# 4 0.000000 0.000000 0.000000 0.058124 0.000000 0.000000
# 5 0.000000 0.000000 0.000000 0.000000 0.025895 0.000000
# 6 0.000000 0.000000 0.000000 0.000000 0.000000 0.014928
#
#
# Mechanical properties :
#
#
# Convention : Reuss Voigt Hill
#
# Bulk Modulus (GPa) = 32.05727 33.24906 32.65317
# Shear Modulus (GPa) = 33.98740 41.51677 37.75208
#
# Velocity S-wave (km/s) = 3.66196 4.04731 3.85945
# Velocity P-wave (km/s) = 5.52525 5.91267 5.72224
#
# Compressibility (1/GPa) = 0.03119417
#
# Stress axis : x y z
#
# Youngs Moduli (GPa) = 102.71685 75.80141 86.55615
#
# Poissons Ratio (x) = 0.00868 0.13529
# Poissons Ratio (y) = 0.01176 -0.00295
# Poissons Ratio (z) = 0.16055 -0.00258
#
# Static dielectric constant tensor:
#      x y z
#    x 2.038880 0.000000 0.000000 
#    y 0.000000 2.017510 0.000000 
#    z 0.000000 0.000000 1.952370 
# 
# From -- ./inp_files/184.got.cif
#   From: 2010.05.17/outbox.cif.g08.bks.cpg/sg36_1_cif.got.tgz:184.got - 2010.06.03 17:41:39.
