data_PCOD9352929
_publ_section_title
;
Structure prediction by ZEFSAII (Michael W. Deem and Ramdas Pophale) SiO2 
 PCOD9352929
Probable space group: C M C 21
;
_chemical_formula_sum "Si O2"
_cell_formula_units_Z 56
_cell_length_a 20.779763
_cell_length_b 23.650845
_cell_length_c 5.308153
_cell_angle_alpha 90.000000
_cell_angle_beta 90.000000
_cell_angle_gamma 90.000000
_cell_volume 2608.739320
_symmetry_space_group_name_H-M "C M C 21"
_symmetry_group_IT_number 36
_symmetry_cell_setting 'orthorhombic'
loop_
_space_group_symop_operation_xyz
x,y,z
-x,-y,1/2+z
x,-y,1/2+z
-x,y,z
1/2+x,1/2+y,z
1/2-x,1/2-y,1/2+z
1/2+x,1/2-y,1/2+z
1/2-x,1/2+y,z
loop_
_atom_site_type_symbol
_atom_site_label
_atom_site_fract_x
_atom_site_fract_y
_atom_site_fract_z
Si Si1 0.396548 0.703805 0.024840
Si Si2 0.350674 0.866466 0.495340
Si Si3 0.076226 0.661238 0.501127
Si Si4 0.247223 0.221305 0.097687
Si Si5 0.637871 0.524047 0.621837
Si Si6 0.214848 0.521374 0.122693
Si Si7 0.428910 0.636697 0.524982
O O1 0.320195 0.692408 0.038309
O O2 0.423898 0.674054 0.273675
O O3 0.409331 0.771090 0.022178
O O4 0.422187 0.676459 0.768696
O O5 0.396600 0.862041 0.737383
O O6 0.309637 0.809535 0.494943
O O7 0.297482 0.915289 0.532851
O O8 0.389315 0.869095 0.236304
O O9 0.000000 0.653885 0.514541
O O10 0.254285 0.226209 0.399806
O O11 0.608984 0.486253 0.397598
O O12 0.712037 0.502350 0.649937
O O13 0.625729 0.588337 0.540295
O O14 0.184776 0.514952 0.397666
O O15 0.500000 0.609487 0.530141
#
# Coordination Sequence:
#
# PCOD9352929 Si02
#       7
#     8   8   8   8   8   8   8
#     4  12  25  43  67 102 139 180 221 270 324 388
#     4  12  24  43  69 100 131 177 220 272 339 395
#     4  12  25  45  69  99 140 179 219 260 324 415
#     4  12  23  42  64 101 137 170 220 278 333 388
#     4  10  23  42  62  93 124 174 227 279 330 367
#     4  10  23  41  65  96 127 161 221 280 335 390
#     4  12  26  42  66  97 139 187 228 265 317 393
#
# _framework density 21.466307
#
# number of rings (size 3 to 8) (size 9 to 14) (size 15 to 20)
#    0.000    0.571    2.857    5.143    8.000    0.571 
#    0.000    0.000    0.000    8.571    0.000    0.000 
#    0.000    0.000    0.000    0.000    0.000    0.000 
#
# Total GULP energy -156274.937024 kJ/mol
# GULP energy per Si atom -5581.247751 kJ/mol
# Density = 2.141745 g / cm^3
# Si number density = 21.466307 Si / 1000 Ang^3
#
#
#
# Elastic Constant Matrix: (Units=GPa)
#
#
# Indices 1 2 3 4 5 6 
#
# 1 106.9742 6.8032 23.1758 0.0000 0.0000 0.0000
# 2 6.8032 59.0720 8.8578 0.0000 0.0000 0.0000
# 3 23.1758 8.8578 143.8352 0.0000 0.0000 0.0000
# 4 0.0000 0.0000 0.0000 29.5765 0.0000 0.0000
# 5 0.0000 0.0000 0.0000 0.0000 34.1857 0.0000
# 6 0.0000 0.0000 0.0000 0.0000 0.0000 14.8144
#
#
#
# Elastic Compliance Matrix: (Units=1/GPa)
#
#
# Indices 1 2 3 4 5 6 
#
# 1 0.009733 -0.000894 -0.001513 0.000000 0.000000 0.000000
# 2 -0.000894 0.017168 -0.000913 0.000000 0.000000 0.000000
# 3 -0.001513 -0.000913 0.007252 0.000000 0.000000 0.000000
# 4 0.000000 0.000000 0.000000 0.033811 0.000000 0.000000
# 5 0.000000 0.000000 0.000000 0.000000 0.029252 0.000000
# 6 0.000000 0.000000 0.000000 0.000000 0.000000 0.067502
#
#
# Mechanical properties :
#
#
# Convention : Reuss Voigt Hill
#
# Bulk Modulus (GPa) = 36.34673 43.06167 39.70420
# Shear Modulus (GPa) = 27.69628 33.78498 30.74063
#
# Velocity S-wave (km/s) = 3.59586 3.97150 3.78834
# Velocity P-wave (km/s) = 5.84885 6.41358 6.13771
#
# Compressibility (1/GPa) = 0.02751279
#
# Stress axis : x y z
#
# Youngs Moduli (GPa) = 102.74618 58.24654 137.88446
#
# Poissons Ratio (x) = 0.05207 0.20864
# Poissons Ratio (y) = 0.09186 0.12592
# Poissons Ratio (z) = 0.15547 0.05319
#
# Static dielectric constant tensor:
#      x y z
#    x 1.763240 0.000000 0.000000 
#    y 0.000000 1.829000 0.000000 
#    z 0.000000 0.000000 1.820600 
# 
# From -- ./inp_files/1419.got.cif
#   From: 2010.05.17/outbox.cif.g08.bks.cpg/sg36_1_cif.got.tgz:1419.got - 2010.06.03 17:41:39.
