data_PCOD9352484
_publ_section_title
;
Structure prediction by ZEFSAII (Michael W. Deem and Ramdas Pophale) SiO2 
 PCOD9352484
Probable space group: C M C 21
;
_chemical_formula_sum "Si O2"
_cell_formula_units_Z 64
_cell_length_a 8.541587
_cell_length_b 23.275365
_cell_length_c 16.433684
_cell_angle_alpha 90.000000
_cell_angle_beta 90.000000
_cell_angle_gamma 90.000000
_cell_volume 3267.156971
_symmetry_space_group_name_H-M "C M C 21"
_symmetry_group_IT_number 36
_symmetry_cell_setting 'orthorhombic'
loop_
_space_group_symop_operation_xyz
x,y,z
-x,-y,1/2+z
x,-y,1/2+z
-x,y,z
1/2+x,1/2+y,z
1/2-x,1/2-y,1/2+z
1/2+x,1/2-y,1/2+z
1/2-x,1/2+y,z
loop_
_atom_site_type_symbol
_atom_site_label
_atom_site_fract_x
_atom_site_fract_y
_atom_site_fract_z
Si Si1 0.683111 0.009777 0.072400
Si Si2 0.190666 0.171676 0.370990
Si Si3 0.185999 0.032330 0.745917
Si Si4 0.308932 0.277180 0.698209
Si Si5 0.682582 0.634604 0.059632
Si Si6 0.679518 0.208782 0.928040
Si Si7 0.689457 0.458444 0.903922
Si Si8 0.320542 0.841510 0.246225
O O1 0.500000 0.997911 0.070317
O O2 0.718640 0.077253 0.065558
O O3 0.748239 0.989826 0.159826
O O4 0.758146 0.981276 0.991893
O O5 0.242102 0.191335 0.281062
O O6 0.233696 0.224885 0.429404
O O7 0.242635 0.107649 0.392220
O O8 0.000000 0.171167 0.370190
O O9 0.228145 0.099508 0.751033
O O10 0.000000 0.024819 0.743758
O O11 0.243063 0.997553 0.826662
O O12 0.500000 0.273966 0.700748
O O13 0.265449 0.317986 0.624700
O O14 0.255088 0.211083 0.692086
O O15 0.500000 0.620424 0.073339
O O16 0.708619 0.665648 0.974376
O O17 0.500000 0.204902 0.959120
O O18 0.673997 0.188225 0.834770
O O19 0.500000 0.459167 0.902581
O O20 0.500000 0.855052 0.221855
#
# Coordination Sequence:
#
# PCOD9352484 Si02
#       8
#     8   8   8   8   8   8   8   8
#     4  12  26  41  58  83 117 154 195 240 287 346
#     4   8  15  32  57  81 107 142 183 226 276 334
#     4  11  23  39  61  87 117 154 195 240 288 338
#     4   8  16  32  55  81 107 140 180 225 279 337
#     4  11  21  35  56  80 108 140 182 233 283 335
#     4   9  18  33  55  82 111 143 179 222 276 338
#     4  10  21  39  63  88 117 154 195 240 288 338
#     4   9  18  35  57  80 110 147 185 224 275 338
#
# _framework density 19.588896999999999
#
# number of rings (size 3 to 8) (size 9 to 14) (size 15 to 20)
#    0.000    2.250    0.000    4.875    0.000    6.500 
#    0.000    4.375    0.000    3.750    0.000    0.000 
#    0.000    0.000    0.000    0.000    0.000    0.000 
#
# Total GULP energy -178478.892459 kJ/mol
# GULP energy per Si atom -5577.465389 kJ/mol
# Density = 1.954431 g / cm^3
# Si number density = 19.588897 Si / 1000 Ang^3
#
#
#
# Elastic Constant Matrix: (Units=GPa)
#
#
# Indices 1 2 3 4 5 6 
#
# 1 28.7157 18.4782 17.9363 0.0000 0.0000 0.0000
# 2 18.4782 138.0658 40.6150 0.0000 0.0000 0.0000
# 3 17.9363 40.6150 75.7997 0.0000 0.0000 0.0000
# 4 0.0000 0.0000 0.0000 29.9242 0.0000 0.0000
# 5 0.0000 0.0000 0.0000 0.0000 17.0379 0.0000
# 6 0.0000 0.0000 0.0000 0.0000 0.0000 8.0780
#
#
#
# Elastic Compliance Matrix: (Units=1/GPa)
#
#
# Indices 1 2 3 4 5 6 
#
# 1 0.042025 -0.003204 -0.008227 0.000000 0.000000 0.000000
# 2 -0.003204 0.008843 -0.003980 0.000000 0.000000 0.000000
# 3 -0.008227 -0.003980 0.017272 0.000000 0.000000 0.000000
# 4 0.000000 0.000000 0.000000 0.033418 0.000000 0.000000
# 5 0.000000 0.000000 0.000000 0.000000 0.058693 0.000000
# 6 0.000000 0.000000 0.000000 0.000000 0.000000 0.123792
#
#
# Mechanical properties :
#
#
# Convention : Reuss Voigt Hill
#
# Bulk Modulus (GPa) = 26.79770 44.07115 35.43443
# Shear Modulus (GPa) = 15.27633 22.04482 18.66058
#
# Velocity S-wave (km/s) = 2.79560 3.35830 3.08979
# Velocity P-wave (km/s) = 4.91226 6.13061 5.55494
#
# Compressibility (1/GPa) = 0.03731663
#
# Stress axis : x y z
#
# Youngs Moduli (GPa) = 23.79540 113.09012 57.89739
#
# Poissons Ratio (x) = 0.36236 0.47634
# Poissons Ratio (y) = 0.07625 0.23042
# Poissons Ratio (z) = 0.19577 0.45008
#
# Static dielectric constant tensor:
#      x y z
#    x 1.688710 0.000000 0.000000 
#    y 0.000000 1.690440 0.000000 
#    z 0.000000 0.000000 1.690410 
# 
# From -- ./inp_files/14090.got.cif
#   From: 2010.05.17/outbox.cif.g08.bks.cpg/sg36_8_cif.got.tgz:14090.got - 2010.06.03 17:41:39.
