data_PCOD9352575
_publ_section_title
;
Structure prediction by ZEFSAII (Michael W. Deem and Ramdas Pophale) SiO2 
 PCOD9352575
Probable space group: C M C 21
;
_chemical_formula_sum "Si O2"
_cell_formula_units_Z 44
_cell_length_a 14.776721
_cell_length_b 7.429981
_cell_length_c 15.825287
_cell_angle_alpha 90.000000
_cell_angle_beta 90.000000
_cell_angle_gamma 90.000000
_cell_volume 1737.470228
_symmetry_space_group_name_H-M "C M C 21"
_symmetry_group_IT_number 36
_symmetry_cell_setting 'orthorhombic'
loop_
_space_group_symop_operation_xyz
x,y,z
-x,-y,1/2+z
x,-y,1/2+z
-x,y,z
1/2+x,1/2+y,z
1/2-x,1/2-y,1/2+z
1/2+x,1/2-y,1/2+z
1/2-x,1/2+y,z
loop_
_atom_site_type_symbol
_atom_site_label
_atom_site_fract_x
_atom_site_fract_y
_atom_site_fract_z
Si Si1 0.361181 0.574193 0.268020
Si Si2 0.904883 0.326950 0.421321
Si Si3 0.000000 0.464188 0.795020
Si Si4 0.218610 0.156355 0.546563
Si Si5 0.662520 0.816189 0.727778
Si Si6 0.103556 0.194252 0.077420
O O1 0.403436 0.685341 0.343520
O O2 0.377670 0.361290 0.273883
O O3 0.253029 0.603457 0.267615
O O4 0.395199 0.648688 0.177842
O O5 0.921472 0.510073 0.369824
O O6 0.816386 0.286024 0.473009
O O7 0.000000 0.297137 0.470821
O O8 0.080121 0.451157 0.724530
O O9 0.192045 0.243475 0.636461
O O10 0.327325 0.145812 0.552953
O O11 0.157137 0.978609 0.539159
O O12 0.000000 0.213482 0.049834
#
# Coordination Sequence:
#
# PCOD9352575 Si02
#       6
#     8   8   4   8   8   8
#     4  10  21  40  68  98 136 174 233 287 346 407
#     4  10  23  41  66  97 142 179 215 298 352 405
#     4  10  24  36  64  98 128 178 232 268 350 414
#     4  10  23  43  69  98 142 179 232 290 352 402
#     4  10  22  40  68  96 131 183 233 285 334 430
#     4  10  22  43  72 102 132 187 235 285 345 431
#
# _framework density 25.324176000000001
#
# number of rings (size 3 to 8) (size 9 to 14) (size 15 to 20)
#    0.545    1.455    0.000    2.182    7.636    4.364 
#    0.000    1.818    6.000    0.000    0.000    0.000 
#    0.000    0.000    0.000    0.000    0.000    0.000 
#
# Total GULP energy -122478.089183 kJ/mol
# GULP energy per Si atom -5567.185872 kJ/mol
# Density = 2.526654 g / cm^3
# Si number density = 25.324176 Si / 1000 Ang^3
#
#
#
# Elastic Constant Matrix: (Units=GPa)
#
#
# Indices 1 2 3 4 5 6 
#
# 1 224.6152 16.3751 34.6957 0.0000 0.0000 0.0000
# 2 16.3751 85.5726 6.4592 0.0000 0.0000 0.0000
# 3 34.6957 6.4592 33.3738 0.0000 0.0000 0.0000
# 4 0.0000 0.0000 0.0000 19.3384 0.0000 0.0000
# 5 0.0000 0.0000 0.0000 0.0000 43.6533 0.0000
# 6 0.0000 0.0000 0.0000 0.0000 0.0000 -18.0852
#
#
#
# Elastic Compliance Matrix: (Units=1/GPa)
#
#
# Indices 1 2 3 4 5 6 
#
# 1 0.005335 -0.000611 -0.005428 0.000000 0.000000 0.000000
# 2 -0.000611 0.011929 -0.001673 0.000000 0.000000 0.000000
# 3 -0.005428 -0.001673 0.035931 0.000000 0.000000 0.000000
# 4 0.000000 0.000000 0.000000 0.051711 0.000000 0.000000
# 5 0.000000 0.000000 0.000000 0.000000 0.022908 0.000000
# 6 0.000000 0.000000 0.000000 0.000000 0.000000 -0.055294
#
#
# Mechanical properties :
#
#
# Convention : Reuss Voigt Hill
#
# Bulk Modulus (GPa) = 26.47637 50.95796 38.71717
# Shear Modulus (GPa) = 49.73417 28.05009 38.89213
#
# Velocity S-wave (km/s) = 4.43640 3.33173 3.92314
# Velocity P-wave (km/s) = 6.05969 5.91325 5.98692
#
# Compressibility (1/GPa) = 0.03776953
#
# Stress axis : x y z
#
# Youngs Moduli (GPa) = 187.43853 83.82760 27.83146
#
# Poissons Ratio (x) = 0.05124 0.15107
# Poissons Ratio (y) = 0.11456 0.04657
# Poissons Ratio (z) = 1.01744 0.14028
#
# Static dielectric constant tensor:
#      x y z
#    x 1.953120 0.000000 0.000000 
#    y 0.000000 2.197040 0.000000 
#    z 0.000000 0.000000 2.018860 
# 
# From -- ./inp_files/14544.got.cif
#   From: 2010.05.17/outbox.cif.g08.bks.cpg/sg36_8_cif.got.tgz:14544.got - 2010.06.03 17:41:39.
