data_PCOD9352753
_publ_section_title
;
Structure prediction by ZEFSAII (Michael W. Deem and Ramdas Pophale) SiO2 
 PCOD9352753
Probable space group: C M C 21
;
_chemical_formula_sum "Si O2"
_cell_formula_units_Z 40
_cell_length_a 28.739382
_cell_length_b 10.679662
_cell_length_c 4.811910
_cell_angle_alpha 90.000000
_cell_angle_beta 90.000000
_cell_angle_gamma 90.000000
_cell_volume 1476.904551
_symmetry_space_group_name_H-M "C M C 21"
_symmetry_group_IT_number 36
_symmetry_cell_setting 'orthorhombic'
loop_
_space_group_symop_operation_xyz
x,y,z
-x,-y,1/2+z
x,-y,1/2+z
-x,y,z
1/2+x,1/2+y,z
1/2-x,1/2-y,1/2+z
1/2+x,1/2-y,1/2+z
1/2-x,1/2+y,z
loop_
_atom_site_type_symbol
_atom_site_label
_atom_site_fract_x
_atom_site_fract_y
_atom_site_fract_z
Si Si1 0.826484 0.234226 0.713680
Si Si2 0.901990 0.914332 0.543766
Si Si3 0.102635 0.411478 0.410254
Si Si4 0.500000 0.085526 0.866545
Si Si5 0.000000 0.911929 0.390062
Si Si6 0.756934 0.583716 0.532836
O O1 0.858838 0.317108 0.515252
O O2 0.859626 0.163674 0.929523
O O3 0.794820 0.140099 0.532966
O O4 0.951445 0.850099 0.471528
O O5 0.901059 0.957705 0.860250
O O6 0.107551 0.463807 0.100258
O O7 0.208506 0.683053 0.399577
O O8 0.050102 0.357938 0.440489
O O9 0.500000 0.043973 0.546136
O O10 0.000000 0.040064 0.576256
O O11 0.763555 0.459194 0.348947
#
# Coordination Sequence:
#
# PCOD9352753 Si02
#       6
#     8   8   8   4   4   8
#     4  12  26  45  72  96 128 179 230 278 348 404
#     4  10  22  40  65  98 134 172 218 271 327 400
#     4  10  22  40  65  98 134 172 218 271 327 400
#     4   8  16  35  60  91 134 172 206 262 328 388
#     4   8  16  35  60  91 134 172 206 262 328 388
#     4  12  28  48  68  96 134 174 226 290 346 404
#
# _framework density 27.083673999999998
#
# number of rings (size 3 to 8) (size 9 to 14) (size 15 to 20)
#    0.000    1.600    0.000    3.600    0.000    8.800 
#    0.000    0.000    0.000   14.400    0.000    0.000 
#    0.000    0.000    0.000    0.000    0.000    0.000 
#
# Total GULP energy -112265.805904 kJ/mol
# GULP energy per Si atom -5613.290295 kJ/mol
# Density = 2.702203 g / cm^3
# Si number density = 27.083674 Si / 1000 Ang^3
#
#
#
# Elastic Constant Matrix: (Units=GPa)
#
#
# Indices 1 2 3 4 5 6 
#
# 1 179.1105 48.1961 36.7631 0.0000 0.0000 0.0000
# 2 48.1961 72.5968 24.2030 0.0000 0.0000 0.0000
# 3 36.7631 24.2030 100.6038 0.0000 0.0000 0.0000
# 4 0.0000 0.0000 0.0000 37.4983 0.0000 0.0000
# 5 0.0000 0.0000 0.0000 0.0000 27.2298 0.0000
# 6 0.0000 0.0000 0.0000 0.0000 0.0000 -209.6483
#
#
#
# Elastic Compliance Matrix: (Units=1/GPa)
#
#
# Indices 1 2 3 4 5 6 
#
# 1 0.007018 -0.004136 -0.001570 0.000000 0.000000 0.000000
# 2 -0.004136 0.017413 -0.002678 0.000000 0.000000 0.000000
# 3 -0.001570 -0.002678 0.011158 0.000000 0.000000 0.000000
# 4 0.000000 0.000000 0.000000 0.026668 0.000000 0.000000
# 5 0.000000 0.000000 0.000000 0.000000 0.036724 0.000000
# 6 0.000000 0.000000 0.000000 0.000000 0.000000 -0.004770
#
#
# Mechanical properties :
#
#
# Convention : Reuss Voigt Hill
#
# Bulk Modulus (GPa) = 53.12817 63.40395 58.26606
# Shear Modulus (GPa) = 42.64283 -12.77411 14.93436
#
# Velocity S-wave (km/s) = 3.97228 -2.17412 2.35077
# Velocity P-wave (km/s) = 6.37947 4.14232 5.37850
#
# Compressibility (1/GPa) = 0.01882241
#
# Stress axis : x y z
#
# Youngs Moduli (GPa) = 142.48525 57.42718 89.62355
#
# Poissons Ratio (x) = 0.23752 0.14067
# Poissons Ratio (y) = 0.58933 0.24000
# Poissons Ratio (z) = 0.22365 0.15378
#
# Static dielectric constant tensor:
#      x y z
#    x 2.103570 0.000000 0.000000 
#    y 0.000000 2.084900 0.000000 
#    z 0.000000 0.000000 2.002880 
# 
# From -- ./inp_files/1709.got.cif
#   From: 2010.05.17/outbox.cif.g08.bks.cpg/sg36_1_cif.got.tgz:1709.got - 2010.06.03 17:41:39.
