data_PCOD9352366
_publ_section_title
;
Structure prediction by ZEFSAII (Michael W. Deem and Ramdas Pophale) SiO2 
 PCOD9352366
Probable space group: C M C 21
;
_chemical_formula_sum "Si O2"
_cell_formula_units_Z 64
_cell_length_a 7.951450
_cell_length_b 24.532463
_cell_length_c 15.880748
_cell_angle_alpha 90.000000
_cell_angle_beta 90.000000
_cell_angle_gamma 90.000000
_cell_volume 3097.836120
_symmetry_space_group_name_H-M "C M C 21"
_symmetry_group_IT_number 36
_symmetry_cell_setting 'orthorhombic'
loop_
_space_group_symop_operation_xyz
x,y,z
-x,-y,1/2+z
x,-y,1/2+z
-x,y,z
1/2+x,1/2+y,z
1/2-x,1/2-y,1/2+z
1/2+x,1/2-y,1/2+z
1/2-x,1/2+y,z
loop_
_atom_site_type_symbol
_atom_site_label
_atom_site_fract_x
_atom_site_fract_y
_atom_site_fract_z
Si Si1 0.695761 0.116200 0.988720
Si Si2 0.200385 0.497617 0.739976
Si Si3 0.203055 0.119814 0.477650
Si Si4 0.206065 0.621289 0.175675
Si Si5 0.202201 0.301674 0.826433
Si Si6 0.199567 0.178582 0.822909
Si Si7 0.196808 0.001399 0.930415
Si Si8 0.703559 0.609308 0.664604
O O1 0.500000 0.130620 0.986199
O O2 0.776892 0.145778 0.909200
O O3 0.714027 0.051211 0.976848
O O4 0.764024 0.131924 0.080549
O O5 0.257175 0.439194 0.705082
O O6 0.283003 0.509197 0.830291
O O7 0.241907 0.547002 0.677943
O O8 0.000000 0.495341 0.753056
O O9 0.258207 0.163951 0.409747
O O10 0.257970 0.130684 0.573348
O O11 0.000000 0.118658 0.475978
O O12 0.261663 0.058981 0.452100
O O13 0.263054 0.664811 0.244873
O O14 0.000000 0.621442 0.174159
O O15 0.267947 0.239955 0.829142
O O16 0.000000 0.299453 0.819947
O O17 0.268125 0.144622 0.743413
O O18 0.000000 0.183145 0.808528
O O19 0.000000 0.004133 0.952633
O O20 0.500000 0.609891 0.666056
#
# Coordination Sequence:
#
# PCOD9352366 Si02
#       8
#     8   8   8   8   8   8   8   8
#     4  11  22  37  60  87 116 150 191 237 285 340
#     4  11  20  34  59  88 115 146 190 234 282 343
#     4  10  22  38  59  88 116 151 192 235 286 341
#     4   9  20  37  58  86 115 147 188 234 286 342
#     4  10  21  40  61  81 112 154 195 239 290 340
#     4  10  22  39  59  82 113 154 195 237 290 341
#     4  11  21  35  56  85 121 152 185 230 288 346
#     4  10  21  38  58  83 118 154 188 228 287 349
#
# _framework density 20.659582
#
# number of rings (size 3 to 8) (size 9 to 14) (size 15 to 20)
#    0.000    1.750    2.500    1.875    0.000    2.500 
#    0.000    5.625    0.000    0.000    0.000    0.000 
#    0.000    0.000    0.000    0.000    0.000    0.000 
#
# Total GULP energy -178813.665489 kJ/mol
# GULP energy per Si atom -5587.927047 kJ/mol
# Density = 2.061256 g / cm^3
# Si number density = 20.659582 Si / 1000 Ang^3
#
#
#
# Elastic Constant Matrix: (Units=GPa)
#
#
# Indices 1 2 3 4 5 6 
#
# 1 18.3811 6.2174 4.4652 0.0000 0.0000 0.0000
# 2 6.2174 127.3717 37.8536 0.0000 0.0000 0.0000
# 3 4.4652 37.8536 106.7761 0.0000 0.0000 0.0000
# 4 0.0000 0.0000 0.0000 2.8731 0.0000 0.0000
# 5 0.0000 0.0000 0.0000 0.0000 11.3774 0.0000
# 6 0.0000 0.0000 0.0000 0.0000 0.0000 16.3448
#
#
#
# Elastic Compliance Matrix: (Units=1/GPa)
#
#
# Indices 1 2 3 4 5 6 
#
# 1 0.055537 -0.002259 -0.001522 0.000000 0.000000 0.000000
# 2 -0.002259 0.008867 -0.003049 0.000000 0.000000 0.000000
# 3 -0.001522 -0.003049 0.010510 0.000000 0.000000 0.000000
# 4 0.000000 0.000000 0.000000 0.348053 0.000000 0.000000
# 5 0.000000 0.000000 0.000000 0.000000 0.087894 0.000000
# 6 0.000000 0.000000 0.000000 0.000000 0.000000 0.061181
#
#
# Mechanical properties :
#
#
# Convention : Reuss Voigt Hill
#
# Bulk Modulus (GPa) = 16.32505 38.84458 27.58482
# Shear Modulus (GPa) = 8.24918 19.71859 13.98388
#
# Velocity S-wave (km/s) = 2.00039 3.09277 2.60450
# Velocity P-wave (km/s) = 3.64067 5.62109 4.73557
#
# Compressibility (1/GPa) = 0.06125556
#
# Stress axis : x y z
#
# Youngs Moduli (GPa) = 18.00593 112.77162 95.14737
#
# Poissons Ratio (x) = 0.25472 0.14479
# Poissons Ratio (y) = 0.04067 0.29012
# Poissons Ratio (z) = 0.02740 0.34386
#
# Static dielectric constant tensor:
#      x y z
#    x 1.747300 0.000000 0.000000 
#    y 0.000000 1.712790 0.000000 
#    z 0.000000 0.000000 1.727130 
# 
# From -- ./inp_files/11029.got.cif
#   From: 2010.05.17/outbox.cif.g08.bks.cpg/sg36_6_cif.got.tgz:11029.got - 2010.06.03 17:41:39.
