data_PCOD9352064
_publ_section_title
;
Structure prediction by ZEFSAII (Michael W. Deem and Ramdas Pophale) SiO2 
 PCOD9352064
Probable space group: C M C 21
;
_chemical_formula_sum "Si O2"
_cell_formula_units_Z 56
_cell_length_a 14.326103
_cell_length_b 11.304374
_cell_length_c 15.421788
_cell_angle_alpha 90.000000
_cell_angle_beta 90.000000
_cell_angle_gamma 90.000000
_cell_volume 2497.521960
_symmetry_space_group_name_H-M "C M C 21"
_symmetry_group_IT_number 36
_symmetry_cell_setting 'orthorhombic'
loop_
_space_group_symop_operation_xyz
x,y,z
-x,-y,1/2+z
x,-y,1/2+z
-x,y,z
1/2+x,1/2+y,z
1/2-x,1/2-y,1/2+z
1/2+x,1/2-y,1/2+z
1/2-x,1/2+y,z
loop_
_atom_site_type_symbol
_atom_site_label
_atom_site_fract_x
_atom_site_fract_y
_atom_site_fract_z
Si Si1 0.238420 0.854343 0.657060
Si Si2 0.679063 0.606009 0.696234
Si Si3 0.397761 0.165714 0.890590
Si Si4 0.607895 0.586921 0.496606
Si Si5 0.889337 0.260785 0.028507
Si Si6 0.602953 0.977300 0.557342
Si Si7 0.313117 0.618884 0.877163
O O1 0.263588 0.728948 0.697416
O O2 0.147180 0.831692 0.599118
O O3 0.325900 0.886119 0.597185
O O4 0.225176 0.975690 0.708698
O O5 0.636035 0.600971 0.598400
O O6 0.626435 0.613949 0.789016
O O7 0.500000 0.172912 0.843120
O O8 0.389465 0.287069 0.946522
O O9 0.295936 0.137781 0.852218
O O10 0.406568 0.058611 0.958182
O O11 0.500000 0.545445 0.494292
O O12 0.668818 0.494538 0.439772
O O13 0.859975 0.390053 0.061494
O O14 0.000000 0.260813 0.020634
O O15 0.842910 0.227877 0.937880
O O16 0.500000 0.970394 0.598299
#
# Coordination Sequence:
#
# PCOD9352064 Si02
#       7
#     8   8   8   8   8   8   8
#     4  12  23  45  68 102 141 187 233 296 352 431
#     4  12  27  42  72 106 146 192 245 295 368 426
#     4  10  22  41  68  95 131 180 230 284 353 427
#     4  11  24  45  70 103 143 186 233 296 364 426
#     4  11  23  41  69 101 139 186 233 291 361 422
#     4  10  20  38  70 101 131 180 231 285 357 428
#     4  12  26  42  72 100 145 183 246 297 360 420
#
# _framework density 22.422225999999998
#
# number of rings (size 3 to 8) (size 9 to 14) (size 15 to 20)
#    0.000    0.857    5.714    0.429    4.000    1.143 
#    0.000    1.429    0.000    0.857    0.000    0.000 
#    0.000    0.000    0.000    0.000    0.000    0.000 
#
# Total GULP energy -156032.436250 kJ/mol
# GULP energy per Si atom -5572.587009 kJ/mol
# Density = 2.237119 g / cm^3
# Si number density = 22.422226 Si / 1000 Ang^3
#
#
#
# Elastic Constant Matrix: (Units=GPa)
#
#
# Indices 1 2 3 4 5 6 
#
# 1 112.0026 39.8657 32.2970 0.0000 0.0000 0.0000
# 2 39.8657 138.8071 26.9108 0.0000 0.0000 0.0000
# 3 32.2970 26.9108 76.5483 0.0000 0.0000 0.0000
# 4 0.0000 0.0000 0.0000 18.0477 0.0000 0.0000
# 5 0.0000 0.0000 0.0000 0.0000 -27.7963 0.0000
# 6 0.0000 0.0000 0.0000 0.0000 0.0000 35.2995
#
#
#
# Elastic Compliance Matrix: (Units=1/GPa)
#
#
# Indices 1 2 3 4 5 6 
#
# 1 0.010859 -0.002394 -0.003740 0.000000 0.000000 0.000000
# 2 -0.002394 0.008259 -0.001894 0.000000 0.000000 0.000000
# 3 -0.003740 -0.001894 0.015307 0.000000 0.000000 0.000000
# 4 0.000000 0.000000 0.000000 0.055409 0.000000 0.000000
# 5 0.000000 0.000000 0.000000 0.000000 -0.035976 0.000000
# 6 0.000000 0.000000 0.000000 0.000000 0.000000 0.028329
#
#
# Mechanical properties :
#
#
# Convention : Reuss Voigt Hill
#
# Bulk Modulus (GPa) = 54.43475 58.38945 56.41210
# Shear Modulus (GPa) = 47.90910 20.32915 34.11913
#
# Velocity S-wave (km/s) = 4.62744 3.01433 3.90508
# Velocity P-wave (km/s) = 7.27191 6.18161 6.74882
#
# Compressibility (1/GPa) = 0.01837062
#
# Stress axis : x y z
#
# Youngs Moduli (GPa) = 92.09124 121.08318 65.32834
#
# Poissons Ratio (x) = 0.28982 0.24433
# Poissons Ratio (y) = 0.22043 0.12370
# Poissons Ratio (z) = 0.34442 0.22927
#
# Static dielectric constant tensor:
#      x y z
#    x 1.958790 0.000000 0.000000 
#    y 0.000000 1.848700 0.000000 
#    z 0.000000 0.000000 1.831890 
# 
# From -- ./inp_files/12155.got.cif
#   From: 2010.05.17/outbox.cif.g08.bks.cpg/sg36_7_cif.got.tgz:12155.got - 2010.06.03 17:41:39.
