data_PCOD9352515
_publ_section_title
;
Structure prediction by ZEFSAII (Michael W. Deem and Ramdas Pophale) SiO2 
 PCOD9352515
Probable space group: C M C 21
;
_chemical_formula_sum "Si O2"
_cell_formula_units_Z 56
_cell_length_a 12.954461
_cell_length_b 22.489451
_cell_length_c 8.774259
_cell_angle_alpha 90.000000
_cell_angle_beta 90.000000
_cell_angle_gamma 90.000000
_cell_volume 2556.281350
_symmetry_space_group_name_H-M "C M C 21"
_symmetry_group_IT_number 36
_symmetry_cell_setting 'orthorhombic'
loop_
_space_group_symop_operation_xyz
x,y,z
-x,-y,1/2+z
x,-y,1/2+z
-x,y,z
1/2+x,1/2+y,z
1/2-x,1/2-y,1/2+z
1/2+x,1/2-y,1/2+z
1/2-x,1/2+y,z
loop_
_atom_site_type_symbol
_atom_site_label
_atom_site_fract_x
_atom_site_fract_y
_atom_site_fract_z
Si Si1 0.622823 0.867054 0.277350
Si Si2 0.261135 0.967646 0.454081
Si Si3 0.616330 0.519894 0.688271
Si Si4 0.169631 0.592350 0.429533
Si Si5 0.888225 0.126668 0.456989
Si Si6 0.616856 0.793498 0.775172
Si Si7 0.302058 0.757343 0.455662
O O1 0.500000 0.873969 0.289062
O O2 0.681955 0.908820 0.398815
O O3 0.653548 0.800126 0.323895
O O4 0.655646 0.885738 0.105442
O O5 0.154676 0.971205 0.358235
O O6 0.211058 0.982584 0.616302
O O7 0.341570 0.021825 0.424329
O O8 0.500000 0.495820 0.676808
O O9 0.613285 0.584686 0.606513
O O10 0.287180 0.603333 0.374810
O O11 0.108502 0.637887 0.325938
O O12 0.865559 0.196086 0.476214
O O13 0.000000 0.118676 0.384662
O O14 0.500000 0.769740 0.759578
O O15 0.680237 0.788562 0.618052
O O16 0.686345 0.760482 0.903630
#
# Coordination Sequence:
#
# PCOD9352515 Si02
#       7
#     8   8   8   8   8   8   8
#     4  12  25  42  65  93 133 184 227 276 340 403
#     4  11  22  42  62  96 133 170 224 274 332 409
#     4  10  21  39  68  95 128 172 216 271 339 401
#     4  10  23  42  62  93 133 174 226 283 327 410
#     4   9  17  36  62  89 122 166 207 261 328 386
#     4  11  24  43  70  99 133 177 224 283 346 398
#     4  11  24  42  67 101 136 171 228 280 334 411
#
# _framework density 21.906821000000001
#
# number of rings (size 3 to 8) (size 9 to 14) (size 15 to 20)
#    0.000    1.429    2.857    3.857    2.000    1.714 
#    0.000    4.286    0.000    0.000    0.000    0.000 
#    0.000    0.000    0.000    0.000    0.000    0.000 
#
# Total GULP energy -156100.828119 kJ/mol
# GULP energy per Si atom -5575.029576 kJ/mol
# Density = 2.185696 g / cm^3
# Si number density = 21.906821 Si / 1000 Ang^3
#
#
#
# Elastic Constant Matrix: (Units=GPa)
#
#
# Indices 1 2 3 4 5 6 
#
# 1 127.5178 4.8098 20.2901 0.0000 0.0000 0.0000
# 2 4.8098 112.2077 40.8363 0.0000 0.0000 0.0000
# 3 20.2901 40.8363 71.6827 0.0000 0.0000 0.0000
# 4 0.0000 0.0000 0.0000 26.0235 0.0000 0.0000
# 5 0.0000 0.0000 0.0000 0.0000 4.0075 0.0000
# 6 0.0000 0.0000 0.0000 0.0000 0.0000 20.4496
#
#
#
# Elastic Compliance Matrix: (Units=1/GPa)
#
#
# Indices 1 2 3 4 5 6 
#
# 1 0.008247 0.000626 -0.002691 0.000000 0.000000 0.000000
# 2 0.000626 0.011291 -0.006609 0.000000 0.000000 0.000000
# 3 -0.002691 -0.006609 0.018477 0.000000 0.000000 0.000000
# 4 0.000000 0.000000 0.000000 0.038427 0.000000 0.000000
# 5 0.000000 0.000000 0.000000 0.000000 0.249531 0.000000
# 6 0.000000 0.000000 0.000000 0.000000 0.000000 0.048901
#
#
# Mechanical properties :
#
#
# Convention : Reuss Voigt Hill
#
# Bulk Modulus (GPa) = 48.38864 49.25341 48.82102
# Shear Modulus (GPa) = 12.52789 26.46093 19.49441
#
# Velocity S-wave (km/s) = 2.39398 3.47924 2.98632
# Velocity P-wave (km/s) = 5.45691 6.21869 5.85021
#
# Compressibility (1/GPa) = 0.02066601
#
# Stress axis : x y z
#
# Youngs Moduli (GPa) = 121.26245 88.56987 54.12111
#
# Poissons Ratio (x) = -0.05542 0.14562
# Poissons Ratio (y) = -0.07588 0.35769
# Poissons Ratio (z) = 0.32628 0.58537
#
# Static dielectric constant tensor:
#      x y z
#    x 1.801170 0.000000 0.000000 
#    y 0.000000 1.891250 0.000000 
#    z 0.000000 0.000000 1.842420 
# 
# From -- ./inp_files/4204.got.cif
#   From: 2010.05.17/outbox.cif.g08.bks.cpg/sg36_3_cif.got.tgz:4204.got - 2010.06.03 17:41:39.
