data_PCOD9352999
_publ_section_title
;
Structure prediction by ZEFSAII (Michael W. Deem and Ramdas Pophale) SiO2 
 PCOD9352999
Probable space group: C M C 21
;
_chemical_formula_sum "Si O2"
_cell_formula_units_Z 56
_cell_length_a 22.030084
_cell_length_b 14.198550
_cell_length_c 8.047007
_cell_angle_alpha 90.000000
_cell_angle_beta 90.000000
_cell_angle_gamma 90.000000
_cell_volume 2517.065560
_symmetry_space_group_name_H-M "C M C 21"
_symmetry_group_IT_number 36
_symmetry_cell_setting 'orthorhombic'
loop_
_space_group_symop_operation_xyz
x,y,z
-x,-y,1/2+z
x,-y,1/2+z
-x,y,z
1/2+x,1/2+y,z
1/2-x,1/2-y,1/2+z
1/2+x,1/2-y,1/2+z
1/2-x,1/2+y,z
loop_
_atom_site_type_symbol
_atom_site_label
_atom_site_fract_x
_atom_site_fract_y
_atom_site_fract_z
Si Si1 0.500000 0.944385 0.595250
Si Si2 0.387030 0.825612 0.688589
Si Si3 0.721365 0.058159 0.342547
Si Si4 0.639251 0.638989 0.826351
Si Si5 0.385005 0.744160 0.317178
Si Si6 0.000000 0.642324 0.725900
Si Si7 0.224176 0.362195 0.215801
Si Si8 0.142728 0.944173 0.694414
O O1 0.440979 0.900812 0.683314
O O2 0.500000 0.907418 0.407127
O O3 0.500000 0.056619 0.598875
O O4 0.326421 0.879198 0.743419
O O5 0.397461 0.735181 0.806540
O O6 0.382382 0.780395 0.505456
O O7 0.725612 0.097576 0.528859
O O8 0.787663 0.056350 0.258903
O O9 0.701405 0.948700 0.331862
O O10 0.708410 0.663950 0.773441
O O11 0.620260 0.550985 0.711013
O O12 0.639844 0.595349 0.009128
O O13 0.439898 0.795030 0.223228
O O14 0.321995 0.776426 0.232766
O O15 0.391420 0.632397 0.306223
#
# Coordination Sequence:
#
# PCOD9352999 Si02
#       8
#     4   8   8   8   8   4   8   8
#     4  10  24  42  63  86 115 150 189 234 282 332
#     4  11  22  39  59  84 115 152 193 237 284 338
#     4  11  21  35  56  86 119 154 190 234 286 342
#     4  11  22  38  59  86 116 151 189 235 286 340
#     4  11  22  39  59  84 115 152 193 237 284 338
#     4  10  24  42  63  86 115 150 189 234 282 332
#     4  11  21  35  56  86 119 154 190 234 286 342
#     4  11  22  38  59  86 116 151 189 235 286 340
#
# _framework density 22.24813
#
# number of rings (size 3 to 8) (size 9 to 14) (size 15 to 20)
#    0.000    1.143    0.000    9.429    0.000    4.571 
#    0.000    0.714    0.000    0.000    0.000    0.000 
#    0.000    0.000    0.000    0.000    0.000    0.000 
#
# Total GULP energy -156781.499364 kJ/mol
# GULP energy per Si atom -5599.339263 kJ/mol
# Density = 2.219749 g / cm^3
# Si number density = 22.248130 Si / 1000 Ang^3
#
#
#
# Elastic Constant Matrix: (Units=GPa)
#
#
# Indices 1 2 3 4 5 6 
#
# 1 20.7278 10.6787 -2.5711 0.0000 0.0000 0.0000
# 2 10.6787 88.9864 -24.2825 0.0000 0.0000 0.0000
# 3 -2.5711 -24.2825 70.1519 0.0000 0.0000 0.0000
# 4 0.0000 0.0000 0.0000 39.7563 0.0000 0.0000
# 5 0.0000 0.0000 0.0000 0.0000 13.9129 0.0000
# 6 0.0000 0.0000 0.0000 0.0000 0.0000 21.2956
#
#
#
# Elastic Compliance Matrix: (Units=1/GPa)
#
#
# Indices 1 2 3 4 5 6 
#
# 1 0.051429 -0.006247 -0.000278 0.000000 0.000000 0.000000
# 2 -0.006247 0.013169 0.004329 0.000000 0.000000 0.000000
# 3 -0.000278 0.004329 0.015743 0.000000 0.000000 0.000000
# 4 0.000000 0.000000 0.000000 0.025153 0.000000 0.000000
# 5 0.000000 0.000000 0.000000 0.000000 0.071876 0.000000
# 6 0.000000 0.000000 0.000000 0.000000 0.000000 0.046958
#
#
# Mechanical properties :
#
#
# Convention : Reuss Voigt Hill
#
# Bulk Modulus (GPa) = 13.16670 16.39070 14.77870
# Shear Modulus (GPa) = 19.68231 28.06236 23.87233
#
# Velocity S-wave (km/s) = 2.97757 3.55538 3.27923
# Velocity P-wave (km/s) = 4.21334 4.92316 4.58202
#
# Compressibility (1/GPa) = 0.07594916
#
# Stress axis : x y z
#
# Youngs Moduli (GPa) = 19.44444 75.93737 63.51974
#
# Poissons Ratio (x) = 0.47441 0.01763
# Poissons Ratio (y) = 0.12148 -0.27499
# Poissons Ratio (z) = 0.00540 -0.32875
#
# Static dielectric constant tensor:
#      x y z
#    x 1.777000 0.000000 0.000000 
#    y 0.000000 1.840800 0.000000 
#    z 0.000000 0.000000 1.849540 
# 
# From -- ./inp_files/5240.got.cif
#   From: 2010.05.17/outbox.cif.g08.bks.cpg/sg36_3_cif.got.tgz:5240.got - 2010.06.03 17:41:39.
