data_PCOD9352062
_publ_section_title
;
Structure prediction by ZEFSAII (Michael W. Deem and Ramdas Pophale) SiO2 
 PCOD9352062
Probable space group: C M C 21
;
_chemical_formula_sum "Si O2"
_cell_formula_units_Z 28
_cell_length_a 8.598772
_cell_length_b 31.941357
_cell_length_c 4.892288
_cell_angle_alpha 90.000000
_cell_angle_beta 90.000000
_cell_angle_gamma 90.000000
_cell_volume 1343.698436
_symmetry_space_group_name_H-M "C M C 21"
_symmetry_group_IT_number 36
_symmetry_cell_setting 'orthorhombic'
loop_
_space_group_symop_operation_xyz
x,y,z
-x,-y,1/2+z
x,-y,1/2+z
-x,y,z
1/2+x,1/2+y,z
1/2-x,1/2-y,1/2+z
1/2+x,1/2-y,1/2+z
1/2-x,1/2+y,z
loop_
_atom_site_type_symbol
_atom_site_label
_atom_site_fract_x
_atom_site_fract_y
_atom_site_fract_z
Si Si1 0.000000 0.527208 0.928840
Si Si2 0.682250 0.355844 0.114234
Si Si3 0.684001 0.772842 0.832574
Si Si4 0.824995 0.602591 0.137374
O O1 0.000000 0.514163 0.614754
O O2 0.145505 0.556451 0.013617
O O3 0.500000 0.349315 0.157334
O O4 0.764654 0.368057 0.395333
O O5 0.756462 0.315273 0.972024
O O6 0.714878 0.392894 0.896330
O O7 0.500000 0.773645 0.784696
O O8 0.772126 0.763131 0.551260
O O9 0.000000 0.615878 0.224246
#
# Coordination Sequence:
#
# PCOD9352062 Si02
#       4
#     4   8   8   8
#     4  10  20  38  68  96 122 154 208 256 308 376
#     4  12  23  40  61  89 127 163 207 259 308 369
#     4  12  25  42  62  88 124 165 213 259 314 363
#     4  10  22  38  64  92 118 158 209 247 310 357
#
# _framework density 20.838010000000001
#
# number of rings (size 3 to 8) (size 9 to 14) (size 15 to 20)
#    0.857    0.000    0.000    9.429    0.000    0.000 
#    0.000    0.000    0.000   17.143    0.000    0.000 
#    0.000    0.000    0.000    0.000    0.000    0.000 
#
# Total GULP energy -78285.344193 kJ/mol
# GULP energy per Si atom -5591.810299 kJ/mol
# Density = 2.079058 g / cm^3
# Si number density = 20.838010 Si / 1000 Ang^3
#
#
#
# Elastic Constant Matrix: (Units=GPa)
#
#
# Indices 1 2 3 4 5 6 
#
# 1 79.9687 10.3674 -24.2331 0.0000 0.0000 0.0000
# 2 10.3674 53.2773 -11.2342 0.0000 0.0000 0.0000
# 3 -24.2331 -11.2342 54.3612 0.0000 0.0000 0.0000
# 4 0.0000 0.0000 0.0000 42.1170 0.0000 0.0000
# 5 0.0000 0.0000 0.0000 0.0000 36.8503 0.0000
# 6 0.0000 0.0000 0.0000 0.0000 0.0000 246.2076
#
#
#
# Elastic Compliance Matrix: (Units=1/GPa)
#
#
# Indices 1 2 3 4 5 6 
#
# 1 0.014577 -0.001533 0.006181 0.000000 0.000000 0.000000
# 2 -0.001533 0.019786 0.003406 0.000000 0.000000 0.000000
# 3 0.006181 0.003406 0.021855 0.000000 0.000000 0.000000
# 4 0.000000 0.000000 0.000000 0.023743 0.000000 0.000000
# 5 0.000000 0.000000 0.000000 0.000000 0.027137 0.000000
# 6 0.000000 0.000000 0.000000 0.000000 0.000000 0.004062
#
#
# Mechanical properties :
#
#
# Convention : Reuss Voigt Hill
#
# Bulk Modulus (GPa) = 13.82654 15.26750 14.54702
# Shear Modulus (GPa) = 41.96018 79.21546 60.58782
#
# Velocity S-wave (km/s) = 4.49222 6.17231 5.39803
# Velocity P-wave (km/s) = 5.79279 7.62491 6.77110
#
# Compressibility (1/GPa) = 0.07232466
#
# Stress axis : x y z
#
# Youngs Moduli (GPa) = 68.60236 50.54035 45.75678
#
# Poissons Ratio (x) = 0.07749 -0.28283
# Poissons Ratio (y) = 0.10518 -0.15583
# Poissons Ratio (z) = -0.42404 -0.17212
#
# Static dielectric constant tensor:
#      x y z
#    x 1.700870 0.000000 0.000000 
#    y 0.000000 1.819230 0.000000 
#    z 0.000000 0.000000 1.729070 
# 
# From -- ./inp_files/190.got.cif
#   From: 2010.05.17/outbox.cif.g08.bks.cpg/sg36_1_cif.got.tgz:190.got - 2010.06.03 17:41:39.
