data_PCOD9352176
_publ_section_title
;
Structure prediction by ZEFSAII (Michael W. Deem and Ramdas Pophale) SiO2 
 PCOD9352176
Probable space group: C M C 21
;
_chemical_formula_sum "Si O2"
_cell_formula_units_Z 48
_cell_length_a 28.555807
_cell_length_b 7.753809
_cell_length_c 9.115403
_cell_angle_alpha 90.000000
_cell_angle_beta 90.000000
_cell_angle_gamma 90.000000
_cell_volume 2018.298562
_symmetry_space_group_name_H-M "C M C 21"
_symmetry_group_IT_number 36
_symmetry_cell_setting 'orthorhombic'
loop_
_space_group_symop_operation_xyz
x,y,z
-x,-y,1/2+z
x,-y,1/2+z
-x,y,z
1/2+x,1/2+y,z
1/2-x,1/2-y,1/2+z
1/2+x,1/2-y,1/2+z
1/2-x,1/2+y,z
loop_
_atom_site_type_symbol
_atom_site_label
_atom_site_fract_x
_atom_site_fract_y
_atom_site_fract_z
Si Si1 0.134781 0.824296 0.018090
Si Si2 0.730969 0.210380 0.967420
Si Si3 0.900326 0.124158 0.826838
Si Si4 0.395522 0.926837 0.055914
Si Si5 0.000000 0.248982 0.741731
Si Si6 0.500000 0.961639 0.039106
Si Si7 0.799046 0.397728 0.158140
O O1 0.132948 0.880627 0.186944
O O2 0.114879 0.627029 0.013907
O O3 0.188147 0.845184 0.962294
O O4 0.104258 0.956559 0.925498
O O5 0.729034 0.128589 0.807344
O O6 0.779555 0.278033 0.027758
O O7 0.712453 0.083540 0.093510
O O8 0.952946 0.144313 0.766958
O O9 0.889424 0.296706 0.920147
O O10 0.354867 0.879376 0.171754
O O11 0.449550 0.902520 0.102779
O O12 0.000000 0.397915 0.870319
O O13 0.000000 0.337841 0.582836
#
# Coordination Sequence:
#
# PCOD9352176 Si02
#       7
#     8   8   8   8   4   4   8
#     4  11  27  44  73 107 150 200 247 306 382 451
#     4  11  27  45  74 106 151 195 248 315 379 458
#     4  11  26  45  72 105 149 194 253 308 373 452
#     4  10  25  45  77 104 154 194 256 305 384 447
#     4  10  22  45  69 109 144 195 252 311 374 441
#     4  10  20  43  75 107 144 197 244 309 366 449
#     4  11  26  45  72 109 145 193 251 309 386 448
#
# _framework density 23.782409000000001
#
# number of rings (size 3 to 8) (size 9 to 14) (size 15 to 20)
#    0.000    1.333    1.667    1.000   16.333    1.333 
#    3.000    0.000    0.000    0.000    0.000    0.000 
#    0.000    0.000    0.000    0.000    0.000    0.000 
#
# Total GULP energy -134173.603735 kJ/mol
# GULP energy per Si atom -5590.566822 kJ/mol
# Density = 2.372828 g / cm^3
# Si number density = 23.782409 Si / 1000 Ang^3
#
#
#
# Elastic Constant Matrix: (Units=GPa)
#
#
# Indices 1 2 3 4 5 6 
#
# 1 132.9604 26.0194 31.6901 0.0000 0.0000 0.0000
# 2 26.0194 75.5509 32.7096 0.0000 0.0000 0.0000
# 3 31.6901 32.7096 76.2893 0.0000 0.0000 0.0000
# 4 0.0000 0.0000 0.0000 41.5614 0.0000 0.0000
# 5 0.0000 0.0000 0.0000 0.0000 22.9007 0.0000
# 6 0.0000 0.0000 0.0000 0.0000 0.0000 29.0678
#
#
#
# Elastic Compliance Matrix: (Units=1/GPa)
#
#
# Indices 1 2 3 4 5 6 
#
# 1 0.008526 -0.001723 -0.002803 0.000000 0.000000 0.000000
# 2 -0.001723 0.016601 -0.006402 0.000000 0.000000 0.000000
# 3 -0.002803 -0.006402 0.017017 0.000000 0.000000 0.000000
# 4 0.000000 0.000000 0.000000 0.024061 0.000000 0.000000
# 5 0.000000 0.000000 0.000000 0.000000 0.043667 0.000000
# 6 0.000000 0.000000 0.000000 0.000000 0.000000 0.034402
#
#
# Mechanical properties :
#
#
# Convention : Reuss Voigt Hill
#
# Bulk Modulus (GPa) = 49.28875 51.73764 50.51319
# Shear Modulus (GPa) = 28.91946 31.66476 30.29211
#
# Velocity S-wave (km/s) = 3.49091 3.65284 3.57279
# Velocity P-wave (km/s) = 6.08428 6.29228 6.18915
#
# Compressibility (1/GPa) = 0.02028861
#
# Stress axis : x y z
#
# Youngs Moduli (GPa) = 117.28451 60.23631 58.76337
#
# Poissons Ratio (x) = 0.10378 0.16472
# Poissons Ratio (y) = 0.20206 0.37622
# Poissons Ratio (z) = 0.32876 0.38565
#
# Static dielectric constant tensor:
#      x y z
#    x 1.973690 0.000000 0.000000 
#    y 0.000000 1.947780 0.000000 
#    z 0.000000 0.000000 1.880000 
# 
# From -- ./inp_files/6026.got.cif
#   From: 2010.05.17/outbox.cif.g08.bks.cpg/sg36_4_cif.got.tgz:6026.got - 2010.06.03 17:41:39.
