data_PCOD9352899
_publ_section_title
;
Structure prediction by ZEFSAII (Michael W. Deem and Ramdas Pophale) SiO2 
 PCOD9352899
Probable space group: C M C 21
;
_chemical_formula_sum "Si O2"
_cell_formula_units_Z 60
_cell_length_a 30.356429
_cell_length_b 6.673570
_cell_length_c 12.789578
_cell_angle_alpha 90.000000
_cell_angle_beta 90.000000
_cell_angle_gamma 90.000000
_cell_volume 2590.986301
_symmetry_space_group_name_H-M "C M C 21"
_symmetry_group_IT_number 36
_symmetry_cell_setting 'orthorhombic'
loop_
_space_group_symop_operation_xyz
x,y,z
-x,-y,1/2+z
x,-y,1/2+z
-x,y,z
1/2+x,1/2+y,z
1/2-x,1/2-y,1/2+z
1/2+x,1/2-y,1/2+z
1/2-x,1/2+y,z
loop_
_atom_site_type_symbol
_atom_site_label
_atom_site_fract_x
_atom_site_fract_y
_atom_site_fract_z
Si Si1 0.242415 0.507957 0.240270
Si Si2 0.247739 0.758806 0.407563
Si Si3 0.074777 0.772418 0.626978
Si Si4 0.692110 0.511173 0.542873
Si Si5 0.500000 0.946217 0.266266
Si Si6 0.639540 0.008759 0.731449
Si Si7 0.402083 0.321954 0.081663
Si Si8 0.419293 0.016229 0.421976
O O1 0.240637 0.507732 0.378463
O O2 0.251159 0.258451 0.272673
O O3 0.279812 0.509443 0.148802
O O4 0.191079 0.503450 0.208525
O O5 0.288552 0.707500 0.483930
O O6 0.203856 0.818103 0.472336
O O7 0.037967 0.648973 0.688152
O O8 0.119532 0.717267 0.689990
O O9 0.079058 0.687413 0.509760
O O10 0.065551 0.009153 0.625975
O O11 0.640895 0.550924 0.551244
O O12 0.460899 0.025865 0.345766
O O13 0.614824 0.835369 0.667077
O O14 0.624766 0.982728 0.851265
O O15 0.420505 0.193367 0.985937
#
# Coordination Sequence:
#
# PCOD9352899 Si02
#       8
#     8   8   8   8   4   8   8   8
#     4  11  22  39  59  89 127 181 232 280 341 393
#     4  10  23  36  58  88 118 181 234 277 338 399
#     4  10  24  42  71 100 133 175 218 280 344 418
#     4  11  23  40  59  88 136 175 231 296 327 397
#     4  10  22  48  70 104 132 170 220 268 354 418
#     4  10  23  41  64  94 136 178 226 279 340 405
#     4  11  24  42  64 103 135 177 229 279 348 400
#     4  10  23  45  71  98 138 176 216 285 345 426
#
# _framework density 23.157202999999999
#
# number of rings (size 3 to 8) (size 9 to 14) (size 15 to 20)
#    0.000    1.600    0.000    3.600    5.600    4.800 
#    2.400    6.667    0.000    0.000    0.000    0.000 
#    0.000    0.000    0.000    0.000    0.000    0.000 
#
# Total GULP energy -167043.204967 kJ/mol
# GULP energy per Si atom -5568.106832 kJ/mol
# Density = 2.310450 g / cm^3
# Si number density = 23.157203 Si / 1000 Ang^3
#
#
#
# Elastic Constant Matrix: (Units=GPa)
#
#
# Indices 1 2 3 4 5 6 
#
# 1 81.8367 2.1890 -4.6358 0.0000 0.0000 0.0000
# 2 2.1890 133.1187 24.0965 0.0000 0.0000 0.0000
# 3 -4.6358 24.0965 65.7322 0.0000 0.0000 0.0000
# 4 0.0000 0.0000 0.0000 41.5628 0.0000 0.0000
# 5 0.0000 0.0000 0.0000 0.0000 26.3290 0.0000
# 6 0.0000 0.0000 0.0000 0.0000 0.0000 12.1667
#
#
#
# Elastic Compliance Matrix: (Units=1/GPa)
#
#
# Indices 1 2 3 4 5 6 
#
# 1 0.012287 -0.000384 0.001007 0.000000 0.000000 0.000000
# 2 -0.000384 0.008058 -0.002981 0.000000 0.000000 0.000000
# 3 0.001007 -0.002981 0.016377 0.000000 0.000000 0.000000
# 4 0.000000 0.000000 0.000000 0.024060 0.000000 0.000000
# 5 0.000000 0.000000 0.000000 0.000000 0.037981 0.000000
# 6 0.000000 0.000000 0.000000 0.000000 0.000000 0.082192
#
#
# Mechanical properties :
#
#
# Convention : Reuss Voigt Hill
#
# Bulk Modulus (GPa) = 31.24428 35.99859 33.62143
# Shear Modulus (GPa) = 25.46614 33.28089 29.37351
#
# Velocity S-wave (km/s) = 3.31978 3.79512 3.56538
# Velocity P-wave (km/s) = 5.31189 5.89771 5.61245
#
# Compressibility (1/GPa) = 0.03200586
#
# Stress axis : x y z
#
# Youngs Moduli (GPa) = 81.38815 124.09976 61.06085
#
# Poissons Ratio (x) = 0.04770 -0.06152
# Poissons Ratio (y) = 0.03129 0.18203
# Poissons Ratio (z) = -0.08199 0.36995
#
# Static dielectric constant tensor:
#      x y z
#    x 1.815250 0.000000 0.000000 
#    y 0.000000 1.968080 0.000000 
#    z 0.000000 0.000000 1.890090 
# 
# From -- ./inp_files/9715.got.cif
#   From: 2010.05.17/outbox.cif.g08.bks.cpg/sg36_5_cif.got.tgz:9715.got - 2010.06.03 17:41:39.
