data_PCOD9352228
_publ_section_title
;
Structure prediction by ZEFSAII (Michael W. Deem and Ramdas Pophale) SiO2 
 PCOD9352228
Probable space group: C M C 21
;
_chemical_formula_sum "Si O2"
_cell_formula_units_Z 60
_cell_length_a 17.706104
_cell_length_b 29.192518
_cell_length_c 5.325809
_cell_angle_alpha 90.000000
_cell_angle_beta 90.000000
_cell_angle_gamma 90.000000
_cell_volume 2752.834831
_symmetry_space_group_name_H-M "C M C 21"
_symmetry_group_IT_number 36
_symmetry_cell_setting 'orthorhombic'
loop_
_space_group_symop_operation_xyz
x,y,z
-x,-y,1/2+z
x,-y,1/2+z
-x,y,z
1/2+x,1/2+y,z
1/2-x,1/2-y,1/2+z
1/2+x,1/2-y,1/2+z
1/2-x,1/2+y,z
loop_
_atom_site_type_symbol
_atom_site_label
_atom_site_fract_x
_atom_site_fract_y
_atom_site_fract_z
Si Si1 0.091044 0.525061 0.712140
Si Si2 0.086004 0.377245 0.454199
Si Si3 0.160865 0.699473 0.690416
Si Si4 0.624045 0.592683 0.216137
Si Si5 0.414564 0.646367 0.711341
Si Si6 0.267621 0.864047 0.795973
Si Si7 0.500000 0.521216 0.141617
Si Si8 0.192685 0.212796 0.951212
O O1 0.119284 0.505961 0.445558
O O2 0.102592 0.578599 0.777987
O O3 0.000000 0.519536 0.701929
O O4 0.154191 0.374005 0.652589
O O5 0.000000 0.383367 0.552542
O O6 0.093387 0.328140 0.315627
O O7 0.207390 0.658551 0.555821
O O8 0.145135 0.741727 0.510593
O O9 0.222236 0.724431 0.867498
O O10 0.590695 0.624430 0.437638
O O11 0.712835 0.592302 0.283610
O O12 0.575862 0.546962 0.226849
O O13 0.608912 0.611928 0.936322
O O14 0.500000 0.661115 0.760878
O O15 0.356000 0.687358 0.741453
O O16 0.214714 0.825524 0.659726
O O17 0.500000 0.479385 0.338797
#
# Coordination Sequence:
#
# PCOD9352228 Si02
#       8
#     8   8   8   8   8   8   4   8
#     4   9  19  38  64  89 119 161 212 263 322 400
#     4  10  24  41  62  98 133 175 222 286 360 406
#     4  11  20  38  62  90 126 180 223 279 340 409
#     4  11  22  41  65  94 128 171 231 267 328 412
#     4  11  20  37  63  95 123 168 219 281 317 387
#     4  10  22  39  65  88 125 184 225 274 330 407
#     4  12  24  42  68 102 142 180 210 288 366 408
#     4  10  21  35  61  89 126 168 232 274 327 394
#
# _framework density 21.795712999999999
#
# number of rings (size 3 to 8) (size 9 to 14) (size 15 to 20)
#    0.000    1.600    4.000    0.800    1.867    1.067 
#    0.000    1.333    0.000    0.000    0.000    0.000 
#    0.000    0.000    0.000    0.000    0.000    0.000 
#
# Total GULP energy -167128.144186 kJ/mol
# GULP energy per Si atom -5570.938140 kJ/mol
# Density = 2.174611 g / cm^3
# Si number density = 21.795713 Si / 1000 Ang^3
#
#
#
# Elastic Constant Matrix: (Units=GPa)
#
#
# Indices 1 2 3 4 5 6 
#
# 1 100.3735 9.8428 -1.3672 0.0000 0.0000 0.0000
# 2 9.8428 53.3185 -3.0889 0.0000 0.0000 0.0000
# 3 -1.3672 -3.0889 47.8653 0.0000 0.0000 0.0000
# 4 0.0000 0.0000 0.0000 24.3479 0.0000 0.0000
# 5 0.0000 0.0000 0.0000 0.0000 24.3243 0.0000
# 6 0.0000 0.0000 0.0000 0.0000 0.0000 34.0719
#
#
#
# Elastic Compliance Matrix: (Units=1/GPa)
#
#
# Indices 1 2 3 4 5 6 
#
# 1 0.010148 -0.001864 0.000170 0.000000 0.000000 0.000000
# 2 -0.001864 0.019168 0.001184 0.000000 0.000000 0.000000
# 3 0.000170 0.001184 0.020973 0.000000 0.000000 0.000000
# 4 0.000000 0.000000 0.000000 0.041071 0.000000 0.000000
# 5 0.000000 0.000000 0.000000 0.000000 0.041111 0.000000
# 6 0.000000 0.000000 0.000000 0.000000 0.000000 0.029350
#
#
# Mechanical properties :
#
#
# Convention : Reuss Voigt Hill
#
# Bulk Modulus (GPa) = 20.29698 23.59233 21.94465
# Shear Modulus (GPa) = 27.89178 29.62684 28.75931
#
# Velocity S-wave (km/s) = 3.58116 3.69086 3.63642
# Velocity P-wave (km/s) = 5.14122 5.38620 5.26513
#
# Compressibility (1/GPa) = 0.04926843
#
# Stress axis : x y z
#
# Youngs Moduli (GPa) = 98.54316 52.17078 47.67993
#
# Poissons Ratio (x) = 0.09722 -0.00809
# Poissons Ratio (y) = 0.18364 -0.05644
# Poissons Ratio (z) = -0.01671 -0.06176
#
# Static dielectric constant tensor:
#      x y z
#    x 1.785670 0.000000 0.000000 
#    y 0.000000 1.901320 0.000000 
#    z 0.000000 0.000000 1.901390 
# 
# From -- ./inp_files/1189.got.cif
#   From: 2010.05.17/outbox.cif.g08.bks.cpg/sg36_1_cif.got.tgz:1189.got - 2010.06.03 17:41:39.
