data_PCOD9352851
_publ_section_title
;
Structure prediction by ZEFSAII (Michael W. Deem and Ramdas Pophale) SiO2 
 PCOD9352851
Probable space group: C M C 21
;
_chemical_formula_sum "Si O2"
_cell_formula_units_Z 60
_cell_length_a 18.448991
_cell_length_b 14.929177
_cell_length_c 9.189381
_cell_angle_alpha 90.000000
_cell_angle_beta 90.000000
_cell_angle_gamma 90.000000
_cell_volume 2531.015147
_symmetry_space_group_name_H-M "C M C 21"
_symmetry_group_IT_number 36
_symmetry_cell_setting 'orthorhombic'
loop_
_space_group_symop_operation_xyz
x,y,z
-x,-y,1/2+z
x,-y,1/2+z
-x,y,z
1/2+x,1/2+y,z
1/2-x,1/2-y,1/2+z
1/2+x,1/2-y,1/2+z
1/2-x,1/2+y,z
loop_
_atom_site_type_symbol
_atom_site_label
_atom_site_fract_x
_atom_site_fract_y
_atom_site_fract_z
Si Si1 0.845793 0.017303 0.326400
Si Si2 0.309143 0.747024 0.759975
Si Si3 0.256230 0.423946 0.085439
Si Si4 0.583094 0.303045 0.777580
Si Si5 0.313244 0.818270 0.467879
Si Si6 0.500000 0.948877 0.744535
Si Si7 0.614246 0.002774 0.993438
Si Si8 0.913601 0.833367 0.450901
O O1 0.787184 0.065627 0.425525
O O2 0.908217 0.090955 0.307655
O O3 0.802755 0.994261 0.180339
O O4 0.876699 0.927142 0.401482
O O5 0.283535 0.667345 0.654246
O O6 0.305540 0.825088 0.642765
O O7 0.257858 0.725573 0.896239
O O8 0.389163 0.734891 0.824612
O O9 0.170717 0.436178 0.072324
O O10 0.500000 0.274789 0.780501
O O11 0.624783 0.244885 0.897638
O O12 0.609821 0.297165 0.609880
O O13 0.334657 0.919091 0.423651
O O14 0.437301 0.953627 0.614936
O O15 0.563837 0.957984 0.872057
O O16 0.000000 0.844858 0.455642
#
# Coordination Sequence:
#
# PCOD9352851 Si02
#       8
#     8   8   8   8   8   4   8   8
#     4  11  20  38  64  99 132 174 223 272 324 407
#     4  11  25  43  67 101 136 179 224 290 340 418
#     4  11  22  40  69  98 129 172 231 279 332 411
#     4  11  24  41  63  95 138 186 220 274 344 409
#     4  12  26  43  69  98 142 176 234 288 355 409
#     4  10  24  46  70  94 130 172 236 290 348 396
#     4  11  24  45  71  99 129 178 232 296 347 411
#     4  10  22  43  65  95 138 180 225 267 332 412
#
# _framework density 23.705904
#
# number of rings (size 3 to 8) (size 9 to 14) (size 15 to 20)
#    0.000    1.067    2.667    4.400    3.733    1.600 
#    0.000    2.667    0.000    0.000    0.000    0.000 
#    0.000    0.000    0.000    0.000    0.000    0.000 
#
# Total GULP energy -167097.986731 kJ/mol
# GULP energy per Si atom -5569.932891 kJ/mol
# Density = 2.365195 g / cm^3
# Si number density = 23.705904 Si / 1000 Ang^3
#
#
#
# Elastic Constant Matrix: (Units=GPa)
#
#
# Indices 1 2 3 4 5 6 
#
# 1 99.0539 -0.8421 21.0112 0.0000 0.0000 0.0000
# 2 -0.8421 40.5027 4.0014 0.0000 0.0000 0.0000
# 3 21.0112 4.0014 113.4060 0.0000 0.0000 0.0000
# 4 0.0000 0.0000 0.0000 28.6957 0.0000 0.0000
# 5 0.0000 0.0000 0.0000 0.0000 36.3782 0.0000
# 6 0.0000 0.0000 0.0000 0.0000 0.0000 18.7224
#
#
#
# Elastic Compliance Matrix: (Units=1/GPa)
#
#
# Indices 1 2 3 4 5 6 
#
# 1 0.010515 0.000413 -0.001963 0.000000 0.000000 0.000000
# 2 0.000413 0.024792 -0.000951 0.000000 0.000000 0.000000
# 3 -0.001963 -0.000951 0.009215 0.000000 0.000000 0.000000
# 4 0.000000 0.000000 0.000000 0.034848 0.000000 0.000000
# 5 0.000000 0.000000 0.000000 0.000000 0.027489 0.000000
# 6 0.000000 0.000000 0.000000 0.000000 0.000000 0.053412
#
#
# Mechanical properties :
#
#
# Convention : Reuss Voigt Hill
#
# Bulk Modulus (GPa) = 25.30375 33.47818 29.39096
# Shear Modulus (GPa) = 28.01931 32.01205 30.01568
#
# Velocity S-wave (km/s) = 3.44169 3.67874 3.56219
# Velocity P-wave (km/s) = 5.14692 5.67425 5.41701
#
# Compressibility (1/GPa) = 0.03951983
#
# Stress axis : x y z
#
# Youngs Moduli (GPa) = 95.09895 40.33515 108.51765
#
# Poissons Ratio (x) = -0.01664 0.21300
# Poissons Ratio (y) = -0.03923 0.10322
# Poissons Ratio (z) = 0.18666 0.03837
#
# Static dielectric constant tensor:
#      x y z
#    x 1.877950 0.000000 0.000000 
#    y 0.000000 1.967840 0.000000 
#    z 0.000000 0.000000 1.963970 
# 
# From -- ./inp_files/4824.got.cif
#   From: 2010.05.17/outbox.cif.g08.bks.cpg/sg36_3_cif.got.tgz:4824.got - 2010.06.03 17:41:39.
