data_PCOD9352626
_publ_section_title
;
Structure prediction by ZEFSAII (Michael W. Deem and Ramdas Pophale) SiO2 
 PCOD9352626
Probable space group: C M C 21
;
_chemical_formula_sum "Si O2"
_cell_formula_units_Z 52
_cell_length_a 13.945026
_cell_length_b 8.643797
_cell_length_c 18.587455
_cell_angle_alpha 90.000000
_cell_angle_beta 90.000000
_cell_angle_gamma 90.000000
_cell_volume 2240.494166
_symmetry_space_group_name_H-M "C M C 21"
_symmetry_group_IT_number 36
_symmetry_cell_setting 'orthorhombic'
loop_
_space_group_symop_operation_xyz
x,y,z
-x,-y,1/2+z
x,-y,1/2+z
-x,y,z
1/2+x,1/2+y,z
1/2-x,1/2-y,1/2+z
1/2+x,1/2-y,1/2+z
1/2-x,1/2+y,z
loop_
_atom_site_type_symbol
_atom_site_label
_atom_site_fract_x
_atom_site_fract_y
_atom_site_fract_z
Si Si1 0.500000 0.541078 0.594280
Si Si2 0.861432 0.323350 0.623208
Si Si3 0.099229 0.517695 0.754190
Si Si4 0.885460 0.518506 0.488730
Si Si5 0.756634 0.768260 0.415507
Si Si6 0.854957 0.171743 0.169587
Si Si7 0.806569 0.988780 0.815034
O O1 0.416436 0.677232 0.591326
O O2 0.581758 0.408066 0.609722
O O3 0.899732 0.371188 0.701476
O O4 0.879041 0.469958 0.572001
O O5 0.749842 0.297297 0.638208
O O6 0.107937 0.671901 0.706167
O O7 0.193376 0.507183 0.800591
O O8 0.000000 0.523438 0.796007
O O9 0.826521 0.672659 0.467965
O O10 0.817138 0.385369 0.453340
O O11 0.000000 0.521956 0.470336
O O12 0.827604 0.857215 0.359507
O O13 0.688692 0.654021 0.369328
O O14 0.851577 0.050019 0.237848
#
# Coordination Sequence:
#
# PCOD9352626 Si02
#       7
#     4   8   8   8   8   8   8
#     4  12  24  42  66 108 126 174 224 264 346 408
#     4  11  24  42  69  97 137 172 223 281 341 403
#     4  11  21  39  66 100 134 178 214 275 348 409
#     4  11  25  48  70  95 134 179 232 280 335 396
#     4  10  24  43  68  95 130 182 227 279 326 391
#     4  11  24  40  68  99 139 171 214 282 342 403
#     4  10  21  43  63  96 136 169 226 277 333 398
#
# _framework density 23.209167000000001
#
# number of rings (size 3 to 8) (size 9 to 14) (size 15 to 20)
#    0.000    1.231    3.846    1.846    6.462    2.462 
#    2.769    2.308    0.000    0.000    0.000    0.000 
#    0.000    0.000    0.000    0.000    0.000    0.000 
#
# Total GULP energy -144750.475980 kJ/mol
# GULP energy per Si atom -5567.325999 kJ/mol
# Density = 2.315634 g / cm^3
# Si number density = 23.209167 Si / 1000 Ang^3
#
#
#
# Elastic Constant Matrix: (Units=GPa)
#
#
# Indices 1 2 3 4 5 6 
#
# 1 143.8045 13.8665 5.1888 0.0000 0.0000 0.0000
# 2 13.8665 58.7639 2.7762 0.0000 0.0000 0.0000
# 3 5.1888 2.7762 56.3767 0.0000 0.0000 0.0000
# 4 0.0000 0.0000 0.0000 36.5246 0.0000 0.0000
# 5 0.0000 0.0000 0.0000 0.0000 -1.8227 0.0000
# 6 0.0000 0.0000 0.0000 0.0000 0.0000 -9.1568
#
#
#
# Elastic Compliance Matrix: (Units=1/GPa)
#
#
# Indices 1 2 3 4 5 6 
#
# 1 0.007134 -0.001656 -0.000575 0.000000 0.000000 0.000000
# 2 -0.001656 0.017441 -0.000706 0.000000 0.000000 0.000000
# 3 -0.000575 -0.000706 0.017826 0.000000 0.000000 0.000000
# 4 0.000000 0.000000 0.000000 0.027379 0.000000 0.000000
# 5 0.000000 0.000000 0.000000 0.000000 -0.548642 0.000000
# 6 0.000000 0.000000 0.000000 0.000000 0.000000 -0.109209
#
#
# Mechanical properties :
#
#
# Convention : Reuss Voigt Hill
#
# Bulk Modulus (GPa) = 27.37799 33.62314 30.50057
# Shear Modulus (GPa) = -8.77162 20.91660 6.07249
#
# Velocity S-wave (km/s) = -1.94617 3.00529 1.61929
# Velocity P-wave (km/s) = 2.60225 5.15372 4.08243
#
# Compressibility (1/GPa) = 0.03652569
#
# Stress axis : x y z
#
# Youngs Moduli (GPa) = 140.16700 57.33460 56.09931
#
# Poissons Ratio (x) = 0.09496 0.03226
# Poissons Ratio (y) = 0.23216 0.03963
# Poissons Ratio (z) = 0.08061 0.04050
#
# Static dielectric constant tensor:
#      x y z
#    x 1.944630 0.000000 0.000000 
#    y 0.000000 1.920170 0.000000 
#    z 0.000000 0.000000 1.944370 
# 
# From -- ./inp_files/16108.got.cif
#   From: 2010.05.17/outbox.cif.g08.bks.cpg/sg36_9_cif.got.tgz:16108.got - 2010.06.03 17:41:39.
