data_PCOD9352592
_publ_section_title
;
Structure prediction by ZEFSAII (Michael W. Deem and Ramdas Pophale) SiO2 
 PCOD9352592
Probable space group: C M C 21
;
_chemical_formula_sum "Si O2"
_cell_formula_units_Z 64
_cell_length_a 9.256206
_cell_length_b 30.834172
_cell_length_c 12.028944
_cell_angle_alpha 90.000000
_cell_angle_beta 90.000000
_cell_angle_gamma 90.000000
_cell_volume 3433.150208
_symmetry_space_group_name_H-M "C M C 21"
_symmetry_group_IT_number 36
_symmetry_cell_setting 'orthorhombic'
loop_
_space_group_symop_operation_xyz
x,y,z
-x,-y,1/2+z
x,-y,1/2+z
-x,y,z
1/2+x,1/2+y,z
1/2-x,1/2-y,1/2+z
1/2+x,1/2-y,1/2+z
1/2-x,1/2+y,z
loop_
_atom_site_type_symbol
_atom_site_label
_atom_site_fract_x
_atom_site_fract_y
_atom_site_fract_z
Si Si1 0.330211 0.453429 0.948210
Si Si2 0.168422 0.286330 0.483757
Si Si3 0.664320 0.835382 0.704663
Si Si4 0.173495 0.374332 0.346545
Si Si5 0.831369 0.302482 0.956605
Si Si6 0.673905 0.626655 0.608062
Si Si7 0.672136 0.958402 0.495969
Si Si8 0.332235 0.421326 0.697819
O O1 0.500000 0.464002 0.962890
O O2 0.312395 0.432285 0.827072
O O3 0.291013 0.417726 0.041082
O O4 0.238169 0.496924 0.952779
O O5 0.181144 0.297853 0.614106
O O6 0.203391 0.330166 0.415339
O O7 0.268182 0.245815 0.457396
O O8 0.000000 0.275702 0.460719
O O9 0.500000 0.852911 0.688823
O O10 0.778527 0.872565 0.680474
O O11 0.678983 0.819831 0.830533
O O12 0.257833 0.374372 0.230497
O O13 0.211633 0.416714 0.419899
O O14 0.000000 0.375644 0.327105
O O15 0.741226 0.333666 0.037972
O O16 0.000000 0.302996 0.989086
O O17 0.500000 0.630666 0.612527
O O18 0.500000 0.960639 0.499669
O O19 0.736822 0.950783 0.617961
O O20 0.500000 0.426576 0.669623
#
# Coordination Sequence:
#
# PCOD9352592 Si02
#       8
#     8   8   8   8   8   8   8   8
#     4  10  24  43  62  91 125 162 207 253 305 363
#     4  10  22  42  64  88 125 164 201 253 310 364
#     4  10  21  41  65  89 121 160 205 257 307 362
#     4  10  23  43  63  90 125 162 206 255 305 363
#     4  11  24  40  63  95 125 158 208 256 305 367
#     4  11  24  43  64  88 125 167 206 250 308 369
#     4  11  24  42  65  93 125 162 206 253 310 367
#     4  11  22  40  66  92 123 159 205 257 306 365
#
# _framework density 18.641770999999999
#
# number of rings (size 3 to 8) (size 9 to 14) (size 15 to 20)
#    0.000    1.500    2.500    1.500    3.500    4.500 
#    0.000    0.000    0.000    0.000    0.000    0.000 
#    0.000    0.000    0.000    0.000    0.000    0.000 
#
# Total GULP energy -178791.444153 kJ/mol
# GULP energy per Si atom -5587.232630 kJ/mol
# Density = 1.859934 g / cm^3
# Si number density = 18.641771 Si / 1000 Ang^3
#
#
#
# Elastic Constant Matrix: (Units=GPa)
#
#
# Indices 1 2 3 4 5 6 
#
# 1 60.9408 51.7835 45.1580 0.0000 0.0000 0.0000
# 2 51.7835 98.5384 22.2122 0.0000 0.0000 0.0000
# 3 45.1580 22.2122 85.9837 0.0000 0.0000 0.0000
# 4 0.0000 0.0000 0.0000 12.5242 0.0000 0.0000
# 5 0.0000 0.0000 0.0000 0.0000 30.8374 0.0000
# 6 0.0000 0.0000 0.0000 0.0000 0.0000 30.8692
#
#
#
# Elastic Compliance Matrix: (Units=1/GPa)
#
#
# Indices 1 2 3 4 5 6 
#
# 1 0.050299 -0.021744 -0.020799 0.000000 0.000000 0.000000
# 2 -0.021744 0.020176 0.006208 0.000000 0.000000 0.000000
# 3 -0.020799 0.006208 0.020950 0.000000 0.000000 0.000000
# 4 0.000000 0.000000 0.000000 0.079846 0.000000 0.000000
# 5 0.000000 0.000000 0.000000 0.000000 0.032428 0.000000
# 6 0.000000 0.000000 0.000000 0.000000 0.000000 0.032395
#
#
# Mechanical properties :
#
#
# Convention : Reuss Voigt Hill
#
# Bulk Modulus (GPa) = 53.32390 53.75226 53.53808
# Shear Modulus (GPa) = 15.87217 23.26677 19.56947
#
# Velocity S-wave (km/s) = 2.92109 3.53668 3.24352
# Velocity P-wave (km/s) = 6.32801 6.75088 6.54286
#
# Compressibility (1/GPa) = 0.01875332
#
# Stress axis : x y z
#
# Youngs Moduli (GPa) = 19.88107 49.56383 47.73240
#
# Poissons Ratio (x) = 1.07774 0.99281
# Poissons Ratio (y) = 0.43230 -0.29632
# Poissons Ratio (z) = 0.41352 -0.30769
#
# Static dielectric constant tensor:
#      x y z
#    x 1.629340 0.000000 0.000000 
#    y 0.000000 1.625090 0.000000 
#    z 0.000000 0.000000 1.623780 
# 
# From -- ./inp_files/7111.got.cif
#   From: 2010.05.17/outbox.cif.g08.bks.cpg/sg36_4_cif.got.tgz:7111.got - 2010.06.03 17:41:39.
