data_PCOD9352206
_publ_section_title
;
Structure prediction by ZEFSAII (Michael W. Deem and Ramdas Pophale) SiO2 
 PCOD9352206
Probable space group: C M C 21
;
_chemical_formula_sum "Si O2"
_cell_formula_units_Z 60
_cell_length_a 24.810213
_cell_length_b 19.348475
_cell_length_c 5.239087
_cell_angle_alpha 90.000000
_cell_angle_beta 90.000000
_cell_angle_gamma 90.000000
_cell_volume 2514.970202
_symmetry_space_group_name_H-M "C M C 21"
_symmetry_group_IT_number 36
_symmetry_cell_setting 'orthorhombic'
loop_
_space_group_symop_operation_xyz
x,y,z
-x,-y,1/2+z
x,-y,1/2+z
-x,y,z
1/2+x,1/2+y,z
1/2-x,1/2-y,1/2+z
1/2+x,1/2-y,1/2+z
1/2-x,1/2+y,z
loop_
_atom_site_type_symbol
_atom_site_label
_atom_site_fract_x
_atom_site_fract_y
_atom_site_fract_z
Si Si1 0.216092 0.959807 0.057020
Si Si2 0.589964 0.832543 0.033422
Si Si3 0.167555 0.482300 0.579957
Si Si4 0.337607 0.168195 0.032576
Si Si5 0.500000 0.049291 0.578605
Si Si6 0.100313 0.813558 0.653862
Si Si7 0.829502 0.189177 0.654389
Si Si8 0.436051 0.534108 0.226986
O O1 0.202177 0.880466 0.098795
O O2 0.197131 0.008443 0.289447
O O3 0.280901 0.968228 0.064058
O O4 0.615449 0.832696 0.749548
O O5 0.637081 0.834328 0.249713
O O6 0.549857 0.895890 0.070539
O O7 0.566797 0.755258 0.085629
O O8 0.134950 0.499779 0.329032
O O9 0.190063 0.405157 0.572598
O O10 0.302992 0.236238 0.094004
O O11 0.500000 0.998452 0.332347
O O12 0.147960 0.812878 0.441877
O O13 0.072943 0.887902 0.637136
O O14 0.122484 0.808998 0.943062
O O15 0.414361 0.517333 0.508958
O O16 0.500000 0.522812 0.248420
#
# Coordination Sequence:
#
# PCOD9352206 Si02
#       8
#     8   8   8   8   4   8   8   8
#     4  10  21  37  55  84 118 149 191 244 298 356
#     4  10  23  40  61  88 118 156 201 239 296 357
#     4  10  21  37  58  85 112 148 194 233 294 358
#     4  10  21  40  61  86 117 155 200 245 287 352
#     4  12  26  42  62  94 126 156 194 248 304 346
#     4  10  21  37  59  83 112 158 199 233 296 343
#     4  10  21  37  57  84 114 149 197 246 286 349
#     4  10  21  35  52  81 115 148 192 240 283 338
#
# _framework density 23.857140000000001
#
# number of rings (size 3 to 8) (size 9 to 14) (size 15 to 20)
#    0.000    1.867    0.000    3.200    0.933    6.400 
#    0.000    5.333    0.000    0.000    0.000    0.000 
#    0.000    0.000    0.000    0.000    0.000    0.000 
#
# Total GULP energy -167637.380119 kJ/mol
# GULP energy per Si atom -5587.912671 kJ/mol
# Density = 2.380284 g / cm^3
# Si number density = 23.857140 Si / 1000 Ang^3
#
#
#
# Elastic Constant Matrix: (Units=GPa)
#
#
# Indices 1 2 3 4 5 6 
#
# 1 39.1400 19.6826 6.4501 0.0000 0.0000 0.0000
# 2 19.6826 204.6829 44.3428 0.0000 0.0000 0.0000
# 3 6.4501 44.3428 160.7785 0.0000 0.0000 0.0000
# 4 0.0000 0.0000 0.0000 40.9716 0.0000 0.0000
# 5 0.0000 0.0000 0.0000 0.0000 14.9619 0.0000
# 6 0.0000 0.0000 0.0000 0.0000 0.0000 30.5272
#
#
#
# Elastic Compliance Matrix: (Units=1/GPa)
#
#
# Indices 1 2 3 4 5 6 
#
# 1 0.026870 -0.002500 -0.000389 0.000000 0.000000 0.000000
# 2 -0.002500 0.005429 -0.001397 0.000000 0.000000 0.000000
# 3 -0.000389 -0.001397 0.006621 0.000000 0.000000 0.000000
# 4 0.000000 0.000000 0.000000 0.024407 0.000000 0.000000
# 5 0.000000 0.000000 0.000000 0.000000 0.066836 0.000000
# 6 0.000000 0.000000 0.000000 0.000000 0.000000 0.032758
#
#
# Mechanical properties :
#
#
# Convention : Reuss Voigt Hill
#
# Bulk Modulus (GPa) = 32.94981 60.61692 46.78336
# Shear Modulus (GPa) = 27.53189 39.56720 33.54955
#
# Velocity S-wave (km/s) = 3.40079 4.07689 3.75409
# Velocity P-wave (km/s) = 5.40942 6.90108 6.20027
#
# Compressibility (1/GPa) = 0.03034919
#
# Stress axis : x y z
#
# Youngs Moduli (GPa) = 37.21570 184.20899 151.04368
#
# Poissons Ratio (x) = 0.46047 0.05869
# Poissons Ratio (y) = 0.09303 0.21100
# Poissons Ratio (z) = 0.01446 0.25733
#
# Static dielectric constant tensor:
#      x y z
#    x 1.905570 0.000000 0.000000 
#    y 0.000000 1.949130 0.000000 
#    z 0.000000 0.000000 2.041050 
# 
# From -- ./inp_files/1776.got.cif
#   From: 2010.05.17/outbox.cif.g08.bks.cpg/sg36_1_cif.got.tgz:1776.got - 2010.06.03 17:41:39.
