data_PCOD9352253
_publ_section_title
;
Structure prediction by ZEFSAII (Michael W. Deem and Ramdas Pophale) SiO2 
 PCOD9352253
Probable space group: C M C 21
;
_chemical_formula_sum "Si O2"
_cell_formula_units_Z 64
_cell_length_a 8.356422
_cell_length_b 10.556876
_cell_length_c 36.601323
_cell_angle_alpha 90.000000
_cell_angle_beta 90.000000
_cell_angle_gamma 90.000000
_cell_volume 3228.884929
_symmetry_space_group_name_H-M "C M C 21"
_symmetry_group_IT_number 36
_symmetry_cell_setting 'orthorhombic'
loop_
_space_group_symop_operation_xyz
x,y,z
-x,-y,1/2+z
x,-y,1/2+z
-x,y,z
1/2+x,1/2+y,z
1/2-x,1/2-y,1/2+z
1/2+x,1/2-y,1/2+z
1/2-x,1/2+y,z
loop_
_atom_site_type_symbol
_atom_site_label
_atom_site_fract_x
_atom_site_fract_y
_atom_site_fract_z
Si Si1 0.306331 0.767701 0.453950
Si Si2 0.191553 0.497963 0.080001
Si Si3 0.308437 0.518751 0.162771
Si Si4 0.806267 0.271190 0.204508
Si Si5 0.806799 0.015849 0.412233
Si Si6 0.806698 0.749710 0.037950
Si Si7 0.806868 0.225550 0.287577
Si Si8 0.806310 0.973370 0.328959
O O1 0.500000 0.768572 0.453785
O O2 0.247661 0.898282 0.436683
O O3 0.251530 0.648173 0.429764
O O4 0.252536 0.752175 0.495855
O O5 0.246821 0.500176 0.121807
O O6 0.249262 0.624078 0.059105
O O7 0.251365 0.374112 0.059060
O O8 0.000000 0.497811 0.079376
O O9 0.500000 0.520449 0.162043
O O10 0.253573 0.402465 0.187915
O O11 0.252978 0.652347 0.179797
O O12 0.751649 0.249564 0.246144
O O13 0.000000 0.273015 0.204376
O O14 0.752113 0.996637 0.370547
O O15 0.000000 0.018514 0.411833
O O16 0.000000 0.748587 0.037796
O O17 0.753477 0.340995 0.313055
O O18 0.000000 0.222812 0.287120
O O19 0.752322 0.090999 0.303802
O O20 0.000000 0.971735 0.328765
#
# Coordination Sequence:
#
# PCOD9352253 Si02
#       8
#     8   8   8   8   8   8   8   8
#     4  10  21  38  59  83 113 148 187 232 280 331
#     4  11  23  38  58  85 115 147 185 229 276 330
#     4  11  23  39  60  84 112 148 186 227 277 331
#     4  10  22  39  59  85 114 146 187 232 279 332
#     4  10  21  36  56  83 114 149 188 230 277 330
#     4  10  22  39  59  85 114 146 187 232 279 332
#     4  10  21  38  59  83 113 148 187 232 280 331
#     4  10  21  37  56  82 115 148 187 232 276 329
#
# _framework density 19.821085
#
# number of rings (size 3 to 8) (size 9 to 14) (size 15 to 20)
#    0.000    1.750    0.000    3.750    0.000    8.500 
#    0.000    0.000    0.000    0.000    0.000    0.000 
#    0.000    0.000    0.000    0.000    0.000    0.000 
#
# Total GULP energy -178907.483380 kJ/mol
# GULP energy per Si atom -5590.858856 kJ/mol
# Density = 1.977597 g / cm^3
# Si number density = 19.821085 Si / 1000 Ang^3
#
#
#
# Elastic Constant Matrix: (Units=GPa)
#
#
# Indices 1 2 3 4 5 6 
#
# 1 10.0502 -0.4281 2.7431 0.0000 0.0000 0.0000
# 2 -0.4281 67.7750 -32.1502 0.0000 0.0000 0.0000
# 3 2.7431 -32.1502 55.3253 0.0000 0.0000 0.0000
# 4 0.0000 0.0000 0.0000 46.4208 0.0000 0.0000
# 5 0.0000 0.0000 0.0000 0.0000 15.0334 0.0000
# 6 0.0000 0.0000 0.0000 0.0000 0.0000 26.2654
#
#
#
# Elastic Compliance Matrix: (Units=1/GPa)
#
#
# Indices 1 2 3 4 5 6 
#
# 1 0.101148 -0.002402 -0.006411 0.000000 0.000000 0.000000
# 2 -0.002402 0.020427 0.011989 0.000000 0.000000 0.000000
# 3 -0.006411 0.011989 0.025360 0.000000 0.000000 0.000000
# 4 0.000000 0.000000 0.000000 0.021542 0.000000 0.000000
# 5 0.000000 0.000000 0.000000 0.000000 0.066518 0.000000
# 6 0.000000 0.000000 0.000000 0.000000 0.000000 0.038073
#
#
# Mechanical properties :
#
#
# Convention : Reuss Voigt Hill
#
# Bulk Modulus (GPa) = 6.52369 8.16444 7.34406
# Shear Modulus (GPa) = 15.73262 28.40966 22.07114
#
# Velocity S-wave (km/s) = 2.82038 3.79001 3.34056
# Velocity P-wave (km/s) = 3.72887 4.82496 4.31189
#
# Compressibility (1/GPa) = 0.15328743
#
# Stress axis : x y z
#
# Youngs Moduli (GPa) = 9.88653 48.95503 39.43220
#
# Poissons Ratio (x) = 0.11760 0.25280
# Poissons Ratio (y) = 0.02375 -0.47277
# Poissons Ratio (z) = 0.06338 -0.58694
#
# Static dielectric constant tensor:
#      x y z
#    x 1.691150 0.000000 0.000000 
#    y 0.000000 1.649550 0.000000 
#    z 0.000000 0.000000 1.677450 
# 
# From -- ./inp_files/17312.got.cif
#   From: 2010.05.17/outbox.cif.g08.bks.cpg/sg36_9_cif.got.tgz:17312.got - 2010.06.03 17:41:39.
