data_PCOD9352509
_publ_section_title
;
Structure prediction by ZEFSAII (Michael W. Deem and Ramdas Pophale) SiO2 
 PCOD9352509
Probable space group: C M C 21
;
_chemical_formula_sum "Si O2"
_cell_formula_units_Z 48
_cell_length_a 17.970393
_cell_length_b 13.818088
_cell_length_c 8.823037
_cell_angle_alpha 90.000000
_cell_angle_beta 90.000000
_cell_angle_gamma 90.000000
_cell_volume 2190.905419
_symmetry_space_group_name_H-M "C M C 21"
_symmetry_group_IT_number 36
_symmetry_cell_setting 'orthorhombic'
loop_
_space_group_symop_operation_xyz
x,y,z
-x,-y,1/2+z
x,-y,1/2+z
-x,y,z
1/2+x,1/2+y,z
1/2-x,1/2-y,1/2+z
1/2+x,1/2-y,1/2+z
1/2-x,1/2+y,z
loop_
_atom_site_type_symbol
_atom_site_label
_atom_site_fract_x
_atom_site_fract_y
_atom_site_fract_z
Si Si1 0.000000 0.516594 0.486210
Si Si2 0.087357 0.784807 0.127594
Si Si3 0.139183 0.365887 0.865079
Si Si4 0.121032 0.784789 0.630876
Si Si5 0.000000 0.351443 0.277673
Si Si6 0.805961 0.113452 0.385902
Si Si7 0.080121 0.059198 0.898615
O O1 0.073391 0.563114 0.412219
O O2 0.000000 0.404717 0.438751
O O3 0.000000 0.559021 0.656607
O O4 0.115438 0.685833 0.208111
O O5 0.150709 0.822134 0.011888
O O6 0.084416 0.865226 0.261106
O O7 0.000000 0.780121 0.074164
O O8 0.142524 0.280664 0.989631
O O9 0.219509 0.413288 0.887711
O O10 0.083893 0.878730 0.553424
O O11 0.068873 0.717918 0.735810
O O12 0.186649 0.824499 0.732658
O O13 0.854284 0.016450 0.384316
O O14 0.000000 0.007959 0.893530
#
# Coordination Sequence:
#
# PCOD9352509 Si02
#       7
#     4   8   8   8   4   8   8
#     4  10  22  46  66  86 116 168 222 266 318 386
#     4  10  21  39  66  91 126 173 216 262 325 393
#     4  10  22  45  62  87 129 174 210 268 337 377
#     4  10  22  42  64  89 130 168 206 267 328 383
#     4  10  22  42  68  88 120 166 218 264 320 378
#     4  12  23  35  62 102 127 161 219 272 315 390
#     4  10  21  40  63  89 130 170 202 254 333 400
#
# _framework density 21.908749
#
# number of rings (size 3 to 8) (size 9 to 14) (size 15 to 20)
#    0.000    1.667    1.667    2.500    2.333    2.667 
#   18.000    0.000    0.000    0.000    0.000    0.000 
#    0.000    0.000    0.000    0.000    0.000    0.000 
#
# Total GULP energy -133972.146927 kJ/mol
# GULP energy per Si atom -5582.172789 kJ/mol
# Density = 2.185888 g / cm^3
# Si number density = 21.908749 Si / 1000 Ang^3
#
#
#
# Elastic Constant Matrix: (Units=GPa)
#
#
# Indices 1 2 3 4 5 6 
#
# 1 174.9318 35.7146 27.0395 0.0000 0.0000 0.0000
# 2 35.7146 85.8527 20.4723 0.0000 0.0000 0.0000
# 3 27.0395 20.4723 57.3041 0.0000 0.0000 0.0000
# 4 0.0000 0.0000 0.0000 29.4552 0.0000 0.0000
# 5 0.0000 0.0000 0.0000 0.0000 41.8400 0.0000
# 6 0.0000 0.0000 0.0000 0.0000 0.0000 9.6644
#
#
#
# Elastic Compliance Matrix: (Units=1/GPa)
#
#
# Indices 1 2 3 4 5 6 
#
# 1 0.006513 -0.002161 -0.002301 0.000000 0.000000 0.000000
# 2 -0.002161 0.013449 -0.003785 0.000000 0.000000 0.000000
# 3 -0.002301 -0.003785 0.019889 0.000000 0.000000 0.000000
# 4 0.000000 0.000000 0.000000 0.033950 0.000000 0.000000
# 5 0.000000 0.000000 0.000000 0.000000 0.023901 0.000000
# 6 0.000000 0.000000 0.000000 0.000000 0.000000 0.103472
#
#
# Mechanical properties :
#
#
# Convention : Reuss Voigt Hill
#
# Bulk Modulus (GPa) = 42.81414 53.83794 48.32604
# Shear Modulus (GPa) = 22.17737 31.84941 27.01339
#
# Velocity S-wave (km/s) = 3.18506 3.81692 3.51521
# Velocity P-wave (km/s) = 5.75418 6.63718 6.21139
#
# Compressibility (1/GPa) = 0.02335677
#
# Stress axis : x y z
#
# Youngs Moduli (GPa) = 153.52947 74.35296 50.27886
#
# Poissons Ratio (x) = 0.16066 0.11572
# Poissons Ratio (y) = 0.33174 0.19032
# Poissons Ratio (z) = 0.35334 0.28145
#
# Static dielectric constant tensor:
#      x y z
#    x 0.521160 0.000000 0.000000 
#    y 0.000000 1.784460 0.000000 
#    z 0.000000 0.000000 1.848310 
# 
# From -- ./inp_files/4682.got.cif
#   From: 2010.05.17/outbox.cif.g08.bks.cpg/sg36_3_cif.got.tgz:4682.got - 2010.06.03 17:41:39.
