data_PCOD9352762
_publ_section_title
;
Structure prediction by ZEFSAII (Michael W. Deem and Ramdas Pophale) SiO2 
 PCOD9352762
Probable space group: C M C 21
;
_chemical_formula_sum "Si O2"
_cell_formula_units_Z 36
_cell_length_a 7.638020
_cell_length_b 15.734417
_cell_length_c 17.279138
_cell_angle_alpha 90.000000
_cell_angle_beta 90.000000
_cell_angle_gamma 90.000000
_cell_volume 2076.603206
_symmetry_space_group_name_H-M "C M C 21"
_symmetry_group_IT_number 36
_symmetry_cell_setting 'orthorhombic'
loop_
_space_group_symop_operation_xyz
x,y,z
-x,-y,1/2+z
x,-y,1/2+z
-x,y,z
1/2+x,1/2+y,z
1/2-x,1/2-y,1/2+z
1/2+x,1/2-y,1/2+z
1/2-x,1/2+y,z
loop_
_atom_site_type_symbol
_atom_site_label
_atom_site_fract_x
_atom_site_fract_y
_atom_site_fract_z
Si Si1 0.295085 0.406215 0.763830
Si Si2 0.000000 0.346988 0.872650
Si Si3 0.795306 0.250000 0.651196
Si Si4 0.000000 0.846988 0.372650
Si Si5 0.000000 0.250000 0.023115
Si Si6 0.704915 0.093785 0.763830
O O1 0.500000 0.400691 0.782593
O O2 0.248572 0.333041 0.702526
O O3 0.250000 0.500000 0.732982
O O4 0.170996 0.391413 0.838108
O O5 0.000000 0.250000 0.840098
O O6 0.000000 0.330284 0.964168
O O7 0.669463 0.250000 0.577113
O O8 0.751427 0.166959 0.702526
O O9 0.000000 0.250000 0.631402
O O10 0.000000 0.830284 0.464168
O O11 0.829004 0.891413 0.338108
O O12 0.500000 0.099309 0.782593
#
# Coordination Sequence:
#
# PCOD9352762 Si02
#       6
#     8   4   8   4   4   8
#     4  12  21  37  68  91 115 156 207 249 289 349
#     4  10  22  41  57  91 120 152 204 244 287 363
#     4  12  21  39  63  93 120 157 196 250 299 352
#     4  10  22  41  57  91 120 152 204 244 287 363
#     4  10  24  38  62  84 130 158 194 238 310 354
#     4  12  21  37  68  91 115 156 207 249 289 349
#
# _framework density 17.336003999999999
#
# number of rings (size 3 to 8) (size 9 to 14) (size 15 to 20)
#    0.667    0.000    8.889    0.000    0.000    1.778 
#    0.000    2.222    0.000    0.000    0.000    0.000 
#    0.000    0.000    0.000    0.000    0.000    0.000 
#
# Total GULP energy -100403.651989 kJ/mol
# GULP energy per Si atom -5577.980666 kJ/mol
# Density = 1.729655 g / cm^3
# Si number density = 17.336004 Si / 1000 Ang^3
#
#
#
# Elastic Constant Matrix: (Units=GPa)
#
#
# Indices 1 2 3 4 5 6 
#
# 1 217.9446 42.5841 78.1794 0.0000 0.0000 0.0000
# 2 42.5841 132.2402 48.5000 0.0000 0.0000 0.0000
# 3 78.1794 48.5000 128.8170 0.0000 0.0000 0.0000
# 4 0.0000 0.0000 0.0000 8.5315 0.0000 0.0000
# 5 0.0000 0.0000 0.0000 0.0000 30.6601 0.0000
# 6 0.0000 0.0000 0.0000 0.0000 0.0000 29.9701
#
#
#
# Elastic Compliance Matrix: (Units=1/GPa)
#
#
# Indices 1 2 3 4 5 6 
#
# 1 0.005918 -0.000683 -0.003335 0.000000 0.000000 0.000000
# 2 -0.000683 0.008852 -0.002919 0.000000 0.000000 0.000000
# 3 -0.003335 -0.002919 0.010886 0.000000 0.000000 0.000000
# 4 0.000000 0.000000 0.000000 0.117212 0.000000 0.000000
# 5 0.000000 0.000000 0.000000 0.000000 0.032616 0.000000
# 6 0.000000 0.000000 0.000000 0.000000 0.000000 0.033367
#
#
# Mechanical properties :
#
#
# Convention : Reuss Voigt Hill
#
# Bulk Modulus (GPa) = 84.86051 90.83654 87.84852
# Shear Modulus (GPa) = 22.06048 34.48156 28.27102
#
# Velocity S-wave (km/s) = 3.57112 4.46468 4.04266
# Velocity P-wave (km/s) = 8.12776 8.89321 8.51909
#
# Compressibility (1/GPa) = 0.01178404
#
# Stress axis : x y z
#
# Youngs Moduli (GPa) = 168.98035 112.96566 91.86513
#
# Poissons Ratio (x) = 0.07712 0.30633
# Poissons Ratio (y) = 0.11536 0.26811
# Poissons Ratio (z) = 0.56347 0.32970
#
# Static dielectric constant tensor:
#      x y z
#    x 1.583250 0.000000 0.000000 
#    y 0.000000 1.607860 0.000000 
#    z 0.000000 0.000000 1.562040 
# 
# From -- ./inp_files/13367.got.cif
#   From: 2010.05.17/outbox.cif.g08.bks.cpg/sg36_7_cif.got.tgz:13367.got - 2010.06.03 17:41:39.
