data_PCOD9352498
_publ_section_title
;
Structure prediction by ZEFSAII (Michael W. Deem and Ramdas Pophale) SiO2 
 PCOD9352498
Probable space group: C M C 21
;
_chemical_formula_sum "Si O2"
_cell_formula_units_Z 48
_cell_length_a 11.748740
_cell_length_b 17.630493
_cell_length_c 11.483833
_cell_angle_alpha 90.000000
_cell_angle_beta 90.000000
_cell_angle_gamma 90.000000
_cell_volume 2378.716132
_symmetry_space_group_name_H-M "C M C 21"
_symmetry_group_IT_number 36
_symmetry_cell_setting 'orthorhombic'
loop_
_space_group_symop_operation_xyz
x,y,z
-x,-y,1/2+z
x,-y,1/2+z
-x,y,z
1/2+x,1/2+y,z
1/2-x,1/2-y,1/2+z
1/2+x,1/2-y,1/2+z
1/2-x,1/2+y,z
loop_
_atom_site_type_symbol
_atom_site_label
_atom_site_fract_x
_atom_site_fract_y
_atom_site_fract_z
Si Si1 0.870335 0.737632 0.500000
Si Si2 0.378145 0.559788 0.415042
Si Si3 0.129556 0.460647 0.572450
Si Si4 0.201576 0.896678 0.404811
Si Si5 0.769711 0.886588 0.132833
Si Si6 0.132064 0.387992 0.812617
O O1 0.831375 0.822506 0.476196
O O2 0.797190 0.687404 0.588783
O O3 0.865627 0.692875 0.376227
O O4 0.000000 0.737177 0.540634
O O5 0.500000 0.581155 0.357821
O O6 0.376615 0.469268 0.429888
O O7 0.370149 0.600377 0.540214
O O8 0.254254 0.576873 0.355752
O O9 0.177552 0.425452 0.454168
O O10 0.195397 0.536571 0.612454
O O11 0.139361 0.398395 0.674643
O O12 0.000000 0.482404 0.559910
O O13 0.200063 0.881654 0.267521
O O14 0.000000 0.417094 0.840556
#
# Coordination Sequence:
#
# PCOD9352498 Si02
#       6
#     8   8   8   8   8   8
#     4  10  22  39  61  86 123 171 210 253 320 385
#     4  10  21  39  64  94 123 163 211 262 317 378
#     4  10  21  39  65  93 122 163 218 271 316 372
#     4  11  23  38  61  93 128 164 208 258 322 387
#     4  10  22  41  61  89 125 165 213 265 314 377
#     4   9  19  40  66  91 123 166 212 263 315 375
#
# _framework density 20.178951999999999
#
# number of rings (size 3 to 8) (size 9 to 14) (size 15 to 20)
#    0.000    2.000    1.667    1.000    2.333    6.667 
#    0.000    4.167    0.000    0.000    0.000    0.000 
#    0.000    0.000    0.000    0.000    0.000    0.000 
#
# Total GULP energy -133609.113603 kJ/mol
# GULP energy per Si atom -5567.046400 kJ/mol
# Density = 2.013302 g / cm^3
# Si number density = 20.178952 Si / 1000 Ang^3
#
#
#
# Elastic Constant Matrix: (Units=GPa)
#
#
# Indices 1 2 3 4 5 6 
#
# 1 133.7605 31.4857 14.4356 0.0000 0.0000 0.0000
# 2 31.4857 74.7611 0.5267 0.0000 0.0000 0.0000
# 3 14.4356 0.5267 77.8706 0.0000 0.0000 0.0000
# 4 0.0000 0.0000 0.0000 20.4455 0.0000 0.0000
# 5 0.0000 0.0000 0.0000 0.0000 12.1832 0.0000
# 6 0.0000 0.0000 0.0000 0.0000 0.0000 1.7053
#
#
#
# Elastic Compliance Matrix: (Units=1/GPa)
#
#
# Indices 1 2 3 4 5 6 
#
# 1 0.008481 -0.003561 -0.001548 0.000000 0.000000 0.000000
# 2 -0.003561 0.014872 0.000560 0.000000 0.000000 0.000000
# 3 -0.001548 0.000560 0.013125 0.000000 0.000000 0.000000
# 4 0.000000 0.000000 0.000000 0.048911 0.000000 0.000000
# 5 0.000000 0.000000 0.000000 0.000000 0.082080 0.000000
# 6 0.000000 0.000000 0.000000 0.000000 0.000000 0.586393
#
#
# Mechanical properties :
#
#
# Convention : Reuss Voigt Hill
#
# Bulk Modulus (GPa) = 36.52459 42.14313 39.33386
# Shear Modulus (GPa) = 6.47595 22.86310 14.66952
#
# Velocity S-wave (km/s) = 1.79338 3.36968 2.69917
# Velocity P-wave (km/s) = 4.73581 6.00581 5.40822
#
# Compressibility (1/GPa) = 0.02737881
#
# Stress axis : x y z
#
# Youngs Moduli (GPa) = 117.90572 67.24172 76.19028
#
# Poissons Ratio (x) = 0.23945 0.11796
# Poissons Ratio (y) = 0.41986 -0.04263
# Poissons Ratio (z) = 0.18254 -0.03763
#
# Static dielectric constant tensor:
#      x y z
#    x 1.769320 0.000000 0.000000 
#    y 0.000000 1.707380 0.000000 
#    z 0.000000 0.000000 1.719710 
# 
# From -- ./inp_files/7691.got.cif
#   From: 2010.05.17/outbox.cif.g08.bks.cpg/sg36_4_cif.got.tgz:7691.got - 2010.06.03 17:41:39.
