data_PCOD9352669
_publ_section_title
;
Structure prediction by ZEFSAII (Michael W. Deem and Ramdas Pophale) SiO2 
 PCOD9352669
Probable space group: C M C 21
;
_chemical_formula_sum "Si O2"
_cell_formula_units_Z 32
_cell_length_a 10.056914
_cell_length_b 23.433523
_cell_length_c 5.714984
_cell_angle_alpha 90.000000
_cell_angle_beta 90.000000
_cell_angle_gamma 90.000000
_cell_volume 1346.844139
_symmetry_space_group_name_H-M "C M C 21"
_symmetry_group_IT_number 36
_symmetry_cell_setting 'orthorhombic'
loop_
_space_group_symop_operation_xyz
x,y,z
-x,-y,1/2+z
x,-y,1/2+z
-x,y,z
1/2+x,1/2+y,z
1/2-x,1/2-y,1/2+z
1/2+x,1/2-y,1/2+z
1/2-x,1/2+y,z
loop_
_atom_site_type_symbol
_atom_site_label
_atom_site_fract_x
_atom_site_fract_y
_atom_site_fract_z
Si Si1 0.640661 0.290018 0.974470
Si Si2 0.350182 0.033119 0.591910
Si Si3 0.648949 0.387611 0.315876
Si Si4 0.850481 0.663616 0.139213
O O1 0.500000 0.306534 0.849810
O O2 0.774479 0.312760 0.862842
O O3 0.634516 0.323235 0.218977
O O4 0.641118 0.222114 0.989444
O O5 0.500000 0.059310 0.605083
O O6 0.225664 0.075457 0.621479
O O7 0.342189 0.003974 0.334760
O O8 0.500000 0.408865 0.368186
O O9 0.753700 0.382623 0.525361
O O10 0.000000 0.642556 0.173175
#
# Coordination Sequence:
#
# PCOD9352669 Si02
#       4
#     8   8   8   8
#     4  10  22  38  57  88 128 169 212 263 318 386
#     4  10  24  47  71  98 131 170 223 281 339 404
#     4  11  24  42  64  93 128 167 216 268 328 392
#     4  11  22  37  60  89 127 172 215 260 319 388
#
# _framework density 23.759246000000001
#
# number of rings (size 3 to 8) (size 9 to 14) (size 15 to 20)
#    0.000    1.500    2.500    1.500    3.500    4.000 
#    0.000    0.000    0.000    0.000    0.000    0.000 
#    0.000    0.000    0.000    0.000    0.000    0.000 
#
# Total GULP energy -89217.244186 kJ/mol
# GULP energy per Si atom -5576.077762 kJ/mol
# Density = 2.370517 g / cm^3
# Si number density = 23.759246 Si / 1000 Ang^3
#
#
#
# Elastic Constant Matrix: (Units=GPa)
#
#
# Indices 1 2 3 4 5 6 
#
# 1 239.1675 42.7633 49.3770 0.0000 0.0000 0.0000
# 2 42.7633 51.9869 22.6590 0.0000 0.0000 0.0000
# 3 49.3770 22.6590 78.5444 0.0000 0.0000 0.0000
# 4 0.0000 0.0000 0.0000 44.1211 0.0000 0.0000
# 5 0.0000 0.0000 0.0000 0.0000 25.4190 0.0000
# 6 0.0000 0.0000 0.0000 0.0000 0.0000 27.9935
#
#
#
# Elastic Compliance Matrix: (Units=1/GPa)
#
#
# Indices 1 2 3 4 5 6 
#
# 1 0.005257 -0.003298 -0.002353 0.000000 0.000000 0.000000
# 2 -0.003298 0.024072 -0.004871 0.000000 0.000000 0.000000
# 3 -0.002353 -0.004871 0.015616 0.000000 0.000000 0.000000
# 4 0.000000 0.000000 0.000000 0.022665 0.000000 0.000000
# 5 0.000000 0.000000 0.000000 0.000000 0.039341 0.000000
# 6 0.000000 0.000000 0.000000 0.000000 0.000000 0.035723
#
#
# Mechanical properties :
#
#
# Convention : Reuss Voigt Hill
#
# Bulk Modulus (GPa) = 41.84111 66.58860 54.21486
# Shear Modulus (GPa) = 29.12323 36.50002 32.81162
#
# Velocity S-wave (km/s) = 3.50489 3.92375 3.72022
# Velocity P-wave (km/s) = 5.83333 6.97244 6.42817
#
# Compressibility (1/GPa) = 0.02389994
#
# Stress axis : x y z
#
# Youngs Moduli (GPa) = 190.23189 41.54224 64.03645
#
# Poissons Ratio (x) = 0.13703 0.15068
# Poissons Ratio (y) = 0.62747 0.31191
# Poissons Ratio (z) = 0.44763 0.20235
#
# Static dielectric constant tensor:
#      x y z
#    x 1.941890 0.000000 0.000000 
#    y 0.000000 1.951710 0.000000 
#    z 0.000000 0.000000 1.944810 
# 
# From -- ./inp_files/228.got.cif
#   From: 2010.05.17/outbox.cif.g08.bks.cpg/sg36_1_cif.got.tgz:228.got - 2010.06.03 17:41:39.
