data_PCOD9352546
_publ_section_title
;
Structure prediction by ZEFSAII (Michael W. Deem and Ramdas Pophale) SiO2 
 PCOD9352546
Probable space group: C M C 21
;
_chemical_formula_sum "Si O2"
_cell_formula_units_Z 64
_cell_length_a 8.158479
_cell_length_b 24.484458
_cell_length_c 15.635339
_cell_angle_alpha 90.000000
_cell_angle_beta 90.000000
_cell_angle_gamma 90.000000
_cell_volume 3123.251783
_symmetry_space_group_name_H-M "C M C 21"
_symmetry_group_IT_number 36
_symmetry_cell_setting 'orthorhombic'
loop_
_space_group_symop_operation_xyz
x,y,z
-x,-y,1/2+z
x,-y,1/2+z
-x,y,z
1/2+x,1/2+y,z
1/2-x,1/2-y,1/2+z
1/2+x,1/2-y,1/2+z
1/2-x,1/2+y,z
loop_
_atom_site_type_symbol
_atom_site_label
_atom_site_fract_x
_atom_site_fract_y
_atom_site_fract_z
Si Si1 0.198580 0.079077 0.699710
Si Si2 0.807822 0.003355 0.546297
Si Si3 0.806867 0.727035 0.352709
Si Si4 0.305415 0.774542 0.529683
Si Si5 0.692304 0.504822 0.855261
Si Si6 0.307331 0.111770 0.103176
Si Si7 0.692592 0.795596 0.190716
Si Si8 0.192242 0.388688 0.802422
O O1 0.244602 0.142396 0.698495
O O2 0.000000 0.074611 0.699830
O O3 0.259837 0.047095 0.614651
O O4 0.259846 0.047525 0.785184
O O5 0.788844 0.943538 0.586390
O O6 0.000000 0.017163 0.535970
O O7 0.734641 0.998430 0.450887
O O8 0.779246 0.752282 0.445207
O O9 0.726124 0.762881 0.278339
O O10 0.746411 0.664361 0.352572
O O11 0.000000 0.724617 0.332346
O O12 0.500000 0.776579 0.514676
O O13 0.248566 0.836043 0.550478
O O14 0.273988 0.736480 0.611764
O O15 0.500000 0.518701 0.864696
O O16 0.711703 0.444129 0.818367
O O17 0.500000 0.101861 0.084027
O O18 0.296971 0.126350 0.202820
O O19 0.500000 0.796914 0.174204
O O20 0.000000 0.398959 0.822684
#
# Coordination Sequence:
#
# PCOD9352546 Si02
#       8
#     8   8   8   8   8   8   8   8
#     4  10  22  41  60  85 127 166 200 256 313 362
#     4  10  22  39  61  91 121 158 204 249 306 369
#     4  11  24  44  66  94 129 167 211 261 317 376
#     4  11  24  44  66  94 129 167 211 261 317 376
#     4  10  22  39  61  91 121 158 204 249 306 369
#     4  10  21  40  64  89 120 158 200 254 313 363
#     4  12  26  43  64  93 127 170 216 258 315 378
#     4  10  21  40  64  89 120 158 200 254 313 363
#
# _framework density 20.491464000000001
#
# number of rings (size 3 to 8) (size 9 to 14) (size 15 to 20)
#    0.000    1.500    2.500    1.875    3.500    3.500 
#    0.000    0.000    0.000    0.000    0.000    0.000 
#    0.000    0.000    0.000    0.000    0.000    0.000 
#
# Total GULP energy -178751.489802 kJ/mol
# GULP energy per Si atom -5585.984056 kJ/mol
# Density = 2.044482 g / cm^3
# Si number density = 20.491464 Si / 1000 Ang^3
#
#
#
# Elastic Constant Matrix: (Units=GPa)
#
#
# Indices 1 2 3 4 5 6 
#
# 1 11.3882 -15.6489 -7.9389 0.0000 0.0000 0.0000
# 2 -15.6489 80.6198 -1.8859 0.0000 0.0000 0.0000
# 3 -7.9389 -1.8859 64.1209 0.0000 0.0000 0.0000
# 4 0.0000 0.0000 0.0000 34.4468 0.0000 0.0000
# 5 0.0000 0.0000 0.0000 0.0000 19.4620 0.0000
# 6 0.0000 0.0000 0.0000 0.0000 0.0000 70.7996
#
#
#
# Elastic Compliance Matrix: (Units=1/GPa)
#
#
# Indices 1 2 3 4 5 6 
#
# 1 0.137471 0.027101 0.017818 0.000000 0.000000 0.000000
# 2 0.027101 0.017755 0.003878 0.000000 0.000000 0.000000
# 3 0.017818 0.003878 0.017916 0.000000 0.000000 0.000000
# 4 0.000000 0.000000 0.000000 0.029030 0.000000 0.000000
# 5 0.000000 0.000000 0.000000 0.000000 0.051382 0.000000
# 6 0.000000 0.000000 0.000000 0.000000 0.000000 0.014124
#
#
# Mechanical properties :
#
#
# Convention : Reuss Voigt Hill
#
# Bulk Modulus (GPa) = 3.69366 11.68685 7.69025
# Shear Modulus (GPa) = 19.20627 37.04851 28.12739
#
# Velocity S-wave (km/s) = 3.06483 4.25667 3.70893
# Velocity P-wave (km/s) = 3.78559 5.46577 4.70134
#
# Compressibility (1/GPa) = 0.27073452
#
# Stress axis : x y z
#
# Youngs Moduli (GPa) = 7.27424 56.32184 55.81726
#
# Poissons Ratio (x) = -1.52638 -0.99453
# Poissons Ratio (y) = -0.19714 -0.21644
# Poissons Ratio (z) = -0.12961 -0.21839
#
# Static dielectric constant tensor:
#      x y z
#    x 1.722800 0.000000 0.000000 
#    y 0.000000 1.704370 0.000000 
#    z 0.000000 0.000000 1.740380 
# 
# From -- ./inp_files/11120.got.cif
#   From: 2010.05.17/outbox.cif.g08.bks.cpg/sg36_6_cif.got.tgz:11120.got - 2010.06.03 17:41:39.
