data_PCOD9352912
_publ_section_title
;
Structure prediction by ZEFSAII (Michael W. Deem and Ramdas Pophale) SiO2 
 PCOD9352912
Probable space group: C M C 21
;
_chemical_formula_sum "Si O2"
_cell_formula_units_Z 48
_cell_length_a 29.320190
_cell_length_b 5.300883
_cell_length_c 14.006075
_cell_angle_alpha 90.000000
_cell_angle_beta 90.000000
_cell_angle_gamma 90.000000
_cell_volume 2176.864748
_symmetry_space_group_name_H-M "C M C 21"
_symmetry_group_IT_number 36
_symmetry_cell_setting 'orthorhombic'
loop_
_space_group_symop_operation_xyz
x,y,z
-x,-y,1/2+z
x,-y,1/2+z
-x,y,z
1/2+x,1/2+y,z
1/2-x,1/2-y,1/2+z
1/2+x,1/2-y,1/2+z
1/2-x,1/2+y,z
loop_
_atom_site_type_symbol
_atom_site_label
_atom_site_fract_x
_atom_site_fract_y
_atom_site_fract_z
Si Si1 0.551893 0.105847 0.403730
Si Si2 0.138565 0.992950 0.652837
Si Si3 0.051605 0.106053 0.530199
Si Si4 0.272892 0.377576 0.543766
Si Si5 0.360752 0.016129 0.275419
Si Si6 0.735279 0.096989 0.830800
O O1 0.500000 0.089189 0.364752
O O2 0.556590 0.877721 0.479832
O O3 0.556651 0.378021 0.454015
O O4 0.591980 0.066536 0.328588
O O5 0.090100 0.065070 0.608099
O O6 0.176308 0.955115 0.570801
O O7 0.134958 0.728838 0.708517
O O8 0.151951 0.228901 0.719209
O O9 0.000000 0.089203 0.568834
O O10 0.239483 0.599288 0.578987
O O11 0.263121 0.372128 0.429672
O O12 0.318177 0.951988 0.344496
O O13 0.742204 0.361094 0.778722
#
# Coordination Sequence:
#
# PCOD9352912 Si02
#       6
#     8   8   8   8   8   8
#     4  10  23  43  70  97 128 174 219 257 311 394
#     4  12  26  41  66 101 132 166 211 274 330 376
#     4  10  23  43  70  97 128 174 219 257 311 394
#     4  10  23  40  63  90 122 177 213 258 311 385
#     4  12  26  41  66 101 132 166 211 274 330 376
#     4  10  23  40  63  90 122 177 213 258 311 385
#
# _framework density 22.050063000000002
#
# number of rings (size 3 to 8) (size 9 to 14) (size 15 to 20)
#    0.000    1.333    0.000    4.000    9.333    5.333 
#    0.000    0.000    0.000    0.000    0.000    0.000 
#    0.000    0.000    0.000    0.000    0.000    0.000 
#
# Total GULP energy -134238.490112 kJ/mol
# GULP energy per Si atom -5593.270421 kJ/mol
# Density = 2.199988 g / cm^3
# Si number density = 22.050063 Si / 1000 Ang^3
#
#
#
# Elastic Constant Matrix: (Units=GPa)
#
#
# Indices 1 2 3 4 5 6 
#
# 1 104.0066 -12.8623 29.6816 0.0000 0.0000 0.0000
# 2 -12.8623 122.8247 2.8198 0.0000 0.0000 0.0000
# 3 29.6816 2.8198 54.1109 0.0000 0.0000 0.0000
# 4 0.0000 0.0000 0.0000 24.8764 0.0000 0.0000
# 5 0.0000 0.0000 0.0000 0.0000 16.6987 0.0000
# 6 0.0000 0.0000 0.0000 0.0000 0.0000 33.6354
#
#
#
# Elastic Compliance Matrix: (Units=1/GPa)
#
#
# Indices 1 2 3 4 5 6 
#
# 1 0.011623 0.001365 -0.006447 0.000000 0.000000 0.000000
# 2 0.001365 0.008312 -0.001182 0.000000 0.000000 0.000000
# 3 -0.006447 -0.001182 0.022079 0.000000 0.000000 0.000000
# 4 0.000000 0.000000 0.000000 0.040199 0.000000 0.000000
# 5 0.000000 0.000000 0.000000 0.000000 0.059885 0.000000
# 6 0.000000 0.000000 0.000000 0.000000 0.000000 0.029731
#
#
# Mechanical properties :
#
#
# Convention : Reuss Voigt Hill
#
# Bulk Modulus (GPa) = 33.91412 35.58004 34.74708
# Shear Modulus (GPa) = 25.74871 32.46229 29.10550
#
# Velocity S-wave (km/s) = 3.42093 3.84110 3.63709
# Velocity P-wave (km/s) = 5.56934 5.98691 5.78190
#
# Compressibility (1/GPa) = 0.02948624
#
# Stress axis : x y z
#
# Youngs Moduli (GPa) = 86.03283 120.31099 45.29286
#
# Poissons Ratio (x) = -0.16425 0.29200
# Poissons Ratio (y) = -0.11745 0.05354
# Poissons Ratio (z) = 0.55465 0.14221
#
# Static dielectric constant tensor:
#      x y z
#    x 1.775310 0.000000 0.000000 
#    y 0.000000 1.872900 0.000000 
#    z 0.000000 0.000000 1.822320 
# 
# From -- ./inp_files/13052.got.cif
#   From: 2010.05.17/outbox.cif.g08.bks.cpg/sg36_7_cif.got.tgz:13052.got - 2010.06.03 17:41:39.
