data_PCOD9352506
_publ_section_title
;
Structure prediction by ZEFSAII (Michael W. Deem and Ramdas Pophale) SiO2 
 PCOD9352506
Probable space group: C M C 21
;
_chemical_formula_sum "Si O2"
_cell_formula_units_Z 48
_cell_length_a 14.675934
_cell_length_b 17.673494
_cell_length_c 8.939465
_cell_angle_alpha 90.000000
_cell_angle_beta 90.000000
_cell_angle_gamma 90.000000
_cell_volume 2318.674016
_symmetry_space_group_name_H-M "C M C 21"
_symmetry_group_IT_number 36
_symmetry_cell_setting 'orthorhombic'
loop_
_space_group_symop_operation_xyz
x,y,z
-x,-y,1/2+z
x,-y,1/2+z
-x,y,z
1/2+x,1/2+y,z
1/2-x,1/2-y,1/2+z
1/2+x,1/2-y,1/2+z
1/2-x,1/2+y,z
loop_
_atom_site_type_symbol
_atom_site_label
_atom_site_fract_x
_atom_site_fract_y
_atom_site_fract_z
Si Si1 0.168859 0.411318 0.546520
Si Si2 0.500000 0.603652 0.290981
Si Si3 0.500000 0.947943 0.746790
Si Si4 0.808137 0.833806 0.749845
Si Si5 0.500000 0.532845 0.583357
Si Si6 0.674592 0.158905 0.737523
Si Si7 0.500000 0.106207 0.586692
Si Si8 0.289091 0.558723 0.534947
O O1 0.088747 0.414606 0.666183
O O2 0.247076 0.358048 0.611716
O O3 0.138850 0.379506 0.388302
O O4 0.213776 0.493502 0.525427
O O5 0.587291 0.644219 0.224816
O O6 0.500000 0.608158 0.472668
O O7 0.500000 0.514355 0.242139
O O8 0.500000 0.035748 0.701235
O O9 0.500000 0.929412 0.921337
O O10 0.799676 0.744757 0.772701
O O11 0.783132 0.886755 0.891362
O O12 0.389673 0.521061 0.549702
O O13 0.592130 0.153002 0.618350
O O14 0.760256 0.110575 0.675883
#
# Coordination Sequence:
#
# PCOD9352506 Si02
#       8
#     8   4   4   8   4   8   4   8
#     4  12  24  42  70 100 134 182 228 283 333 407
#     4  10  21  39  65  91 130 166 220 270 325 387
#     4  12  26  43  70 104 133 173 240 284 332 412
#     4  11  24  43  65 100 138 180 223 279 343 402
#     4  10  22  38  66  96 124 162 220 274 318 384
#     4  12  25  42  68  99 140 178 223 280 346 400
#     4  12  25  44  69  99 137 179 224 288 345 405
#     4  11  23  42  67  97 132 179 227 280 330 406
#
# _framework density 20.701488000000001
#
# number of rings (size 3 to 8) (size 9 to 14) (size 15 to 20)
#    0.000    0.667    3.333    5.000    2.333    0.000 
#    0.000    2.500    0.000    0.000    0.000    0.000 
#    0.000    0.000    0.000    0.000    0.000    0.000 
#
# Total GULP energy -133760.360809 kJ/mol
# GULP energy per Si atom -5573.348367 kJ/mol
# Density = 2.065437 g / cm^3
# Si number density = 20.701488 Si / 1000 Ang^3
#
#
#
# Elastic Constant Matrix: (Units=GPa)
#
#
# Indices 1 2 3 4 5 6 
#
# 1 93.4311 25.7024 27.5901 0.0000 0.0000 0.0000
# 2 25.7024 111.9473 44.2762 0.0000 0.0000 0.0000
# 3 27.5901 44.2762 110.1292 0.0000 0.0000 0.0000
# 4 0.0000 0.0000 0.0000 24.5119 0.0000 0.0000
# 5 0.0000 0.0000 0.0000 0.0000 29.2043 0.0000
# 6 0.0000 0.0000 0.0000 0.0000 0.0000 20.3957
#
#
#
# Elastic Compliance Matrix: (Units=1/GPa)
#
#
# Indices 1 2 3 4 5 6 
#
# 1 0.011869 -0.001842 -0.002233 0.000000 0.000000 0.000000
# 2 -0.001842 0.010908 -0.003924 0.000000 0.000000 0.000000
# 3 -0.002233 -0.003924 0.011217 0.000000 0.000000 0.000000
# 4 0.000000 0.000000 0.000000 0.040796 0.000000 0.000000
# 5 0.000000 0.000000 0.000000 0.000000 0.034241 0.000000
# 6 0.000000 0.000000 0.000000 0.000000 0.000000 0.049030
#
#
# Mechanical properties :
#
#
# Convention : Reuss Voigt Hill
#
# Bulk Modulus (GPa) = 55.56646 56.73833 56.15239
# Shear Modulus (GPa) = 27.76882 29.35166 28.56024
#
# Velocity S-wave (km/s) = 3.66648 3.76952 3.71836
# Velocity P-wave (km/s) = 6.69508 6.81272 6.75415
#
# Compressibility (1/GPa) = 0.01799647
#
# Stress axis : x y z
#
# Youngs Moduli (GPa) = 84.25185 91.67947 89.14890
#
# Poissons Ratio (x) = 0.16887 0.19907
# Poissons Ratio (y) = 0.15518 0.34980
# Poissons Ratio (z) = 0.18814 0.35973
#
# Static dielectric constant tensor:
#      x y z
#    x 1.781250 0.000000 0.000000 
#    y 0.000000 1.721940 0.000000 
#    z 0.000000 0.000000 1.760070 
# 
# From -- ./inp_files/4047.got.cif
#   From: 2010.05.17/outbox.cif.g08.bks.cpg/sg36_3_cif.got.tgz:4047.got - 2010.06.03 17:41:39.
