data_PCOD9352152
_publ_section_title
;
Structure prediction by ZEFSAII (Michael W. Deem and Ramdas Pophale) SiO2 
 PCOD9352152
Probable space group: C M C 21
;
_chemical_formula_sum "Si O2"
_cell_formula_units_Z 40
_cell_length_a 13.868500
_cell_length_b 7.513439
_cell_length_c 15.073876
_cell_angle_alpha 90.000000
_cell_angle_beta 90.000000
_cell_angle_gamma 90.000000
_cell_volume 1570.699820
_symmetry_space_group_name_H-M "C M C 21"
_symmetry_group_IT_number 36
_symmetry_cell_setting 'orthorhombic'
loop_
_space_group_symop_operation_xyz
x,y,z
-x,-y,1/2+z
x,-y,1/2+z
-x,y,z
1/2+x,1/2+y,z
1/2-x,1/2-y,1/2+z
1/2+x,1/2-y,1/2+z
1/2-x,1/2+y,z
loop_
_atom_site_type_symbol
_atom_site_label
_atom_site_fract_x
_atom_site_fract_y
_atom_site_fract_z
Si Si1 0.385683 0.106589 0.598270
Si Si2 0.614755 0.821682 0.754573
Si Si3 0.194946 0.544001 0.916000
Si Si4 0.391542 0.576381 0.449860
Si Si5 0.111706 0.011663 0.154273
O O1 0.500000 0.131961 0.578045
O O2 0.334141 0.050961 0.508195
O O3 0.347153 0.291893 0.639124
O O4 0.376679 0.951037 0.669491
O O5 0.500000 0.807732 0.773573
O O6 0.664829 0.921728 0.834696
O O7 0.652645 0.628001 0.724178
O O8 0.310236 0.560718 0.920187
O O9 0.139969 0.731520 0.913754
O O10 0.500000 0.531235 0.422716
O O11 0.389113 0.578678 0.557055
O O12 0.000000 0.039329 0.180562
#
# Coordination Sequence:
#
# PCOD9352152 Si02
#       5
#     8   8   8   8   8
#     4  10  20  41  73 109 152 202 251 311 385 450
#     4  10  21  42  71 109 153 198 256 314 374 454
#     4  12  24  45  75 109 146 204 252 312 381 450
#     4  11  24  47  74 107 150 194 253 315 378 454
#     4   9  19  41  72 104 147 196 243 310 375 440
#
# _framework density 25.466358
#
# number of rings (size 3 to 8) (size 9 to 14) (size 15 to 20)
#    0.000    1.600    2.000    3.000    0.000    0.000 
#   10.800    2.000    0.000    1.200    0.000    0.000 
#    0.000    0.000    0.000    0.000    0.000    0.000 
#
# Total GULP energy -112209.523755 kJ/mol
# GULP energy per Si atom -5610.476188 kJ/mol
# Density = 2.540840 g / cm^3
# Si number density = 25.466358 Si / 1000 Ang^3
#
#
#
# Elastic Constant Matrix: (Units=GPa)
#
#
# Indices 1 2 3 4 5 6 
#
# 1 161.1200 23.4180 39.8465 0.0000 0.0000 0.0000
# 2 23.4180 106.4521 18.6299 0.0000 0.0000 0.0000
# 3 39.8465 18.6299 100.9136 0.0000 0.0000 0.0000
# 4 0.0000 0.0000 0.0000 38.6592 0.0000 0.0000
# 5 0.0000 0.0000 0.0000 0.0000 17.5580 0.0000
# 6 0.0000 0.0000 0.0000 0.0000 0.0000 28.9288
#
#
#
# Elastic Compliance Matrix: (Units=1/GPa)
#
#
# Indices 1 2 3 4 5 6 
#
# 1 0.006999 -0.001091 -0.002562 0.000000 0.000000 0.000000
# 2 -0.001091 0.009878 -0.001393 0.000000 0.000000 0.000000
# 3 -0.002562 -0.001393 0.011178 0.000000 0.000000 0.000000
# 4 0.000000 0.000000 0.000000 0.025867 0.000000 0.000000
# 5 0.000000 0.000000 0.000000 0.000000 0.056954 0.000000
# 6 0.000000 0.000000 0.000000 0.000000 0.000000 0.034568
#
#
# Mechanical properties :
#
#
# Convention : Reuss Voigt Hill
#
# Bulk Modulus (GPa) = 55.67079 59.14161 57.40620
# Shear Modulus (GPa) = 30.95534 36.13529 33.54531
#
# Velocity S-wave (km/s) = 3.49024 3.77097 3.63332
# Velocity P-wave (km/s) = 6.17660 6.49878 6.33974
#
# Compressibility (1/GPa) = 0.01796274
#
# Stress axis : x y z
#
# Youngs Moduli (GPa) = 142.88193 101.23827 89.45971
#
# Poissons Ratio (x) = 0.11048 0.22920
# Poissons Ratio (y) = 0.15592 0.12459
# Poissons Ratio (z) = 0.36607 0.14099
#
# Static dielectric constant tensor:
#      x y z
#    x 2.033400 0.000000 0.000000 
#    y 0.000000 1.992480 0.000000 
#    z 0.000000 0.000000 1.942710 
# 
# From -- ./inp_files/11945.got.cif
#   From: 2010.05.17/outbox.cif.g08.bks.cpg/sg36_6_cif.got.tgz:11945.got - 2010.06.03 17:41:39.
