data_PCOD9352916
_publ_section_title
;
Structure prediction by ZEFSAII (Michael W. Deem and Ramdas Pophale) SiO2 
 PCOD9352916
Probable space group: C M C 21
;
_chemical_formula_sum "Si O2"
_cell_formula_units_Z 64
_cell_length_a 17.495067
_cell_length_b 13.952015
_cell_length_c 10.489293
_cell_angle_alpha 90.000000
_cell_angle_beta 90.000000
_cell_angle_gamma 90.000000
_cell_volume 2560.346604
_symmetry_space_group_name_H-M "C M C 21"
_symmetry_group_IT_number 36
_symmetry_cell_setting 'orthorhombic'
loop_
_space_group_symop_operation_xyz
x,y,z
-x,-y,1/2+z
x,-y,1/2+z
-x,y,z
1/2+x,1/2+y,z
1/2-x,1/2-y,1/2+z
1/2+x,1/2-y,1/2+z
1/2-x,1/2+y,z
loop_
_atom_site_type_symbol
_atom_site_label
_atom_site_fract_x
_atom_site_fract_y
_atom_site_fract_z
Si Si1 0.416986 0.759163 0.759980
Si Si2 0.417627 0.460267 0.583669
Si Si3 0.584646 0.030383 0.370549
Si Si4 0.211851 0.807225 0.638607
Si Si5 0.753666 0.421938 0.886466
Si Si6 0.151238 0.768988 0.993571
Si Si7 0.411497 0.175363 0.740973
Si Si8 0.135146 0.069805 0.818538
O O1 0.500000 0.723992 0.803298
O O2 0.415861 0.871027 0.790965
O O3 0.405115 0.744319 0.610956
O O4 0.360710 0.684307 0.828150
O O5 0.500000 0.416649 0.613251
O O6 0.348912 0.388222 0.607714
O O7 0.413429 0.476784 0.432942
O O8 0.404217 0.543820 0.685073
O O9 0.500000 0.023222 0.434746
O O10 0.664618 0.047350 0.443627
O O11 0.593298 0.935476 0.284697
O O12 0.252562 0.844215 0.769543
O O13 0.277046 0.797398 0.533545
O O14 0.158468 0.712563 0.653098
O O15 0.716130 0.517669 0.829117
O O16 0.693801 0.371366 0.981214
O O17 0.106888 0.738731 0.867112
O O18 0.500000 0.190579 0.697066
#
# Coordination Sequence:
#
# PCOD9352916 Si02
#       8
#     8   8   8   8   8   8   8   8
#     4  11  23  43  69 100 136 179 234 293 354 423
#     4  11  23  42  66 104 145 186 234 288 362 433
#     4  10  23  43  67  95 136 185 236 290 351 424
#     4  10  23  40  66 102 133 178 231 294 351 417
#     4  10  23  42  64  99 135 177 230 289 355 421
#     4  11  23  42  70 101 132 180 238 290 355 434
#     4  10  23  46  70  97 140 188 231 292 365 436
#     4  11  25  42  70 104 141 185 232 294 357 426
#
# _framework density 24.996614000000001
#
# number of rings (size 3 to 8) (size 9 to 14) (size 15 to 20)
#    0.000    1.500    1.250    2.625    5.250    0.000 
#    2.250    5.625    0.000    0.000    0.000    0.000 
#    0.000    0.000    0.000    0.000    0.000    0.000 
#
# Total GULP energy -178713.557056 kJ/mol
# GULP energy per Si atom -5584.798658 kJ/mol
# Density = 2.493972 g / cm^3
# Si number density = 24.996614 Si / 1000 Ang^3
#
#
#
# Elastic Constant Matrix: (Units=GPa)
#
#
# Indices 1 2 3 4 5 6 
#
# 1 133.9878 42.5171 -3.3792 0.0000 0.0000 0.0000
# 2 42.5171 120.2939 -6.4804 0.0000 0.0000 0.0000
# 3 -3.3792 -6.4804 54.4005 0.0000 0.0000 0.0000
# 4 0.0000 0.0000 0.0000 25.5778 0.0000 0.0000
# 5 0.0000 0.0000 0.0000 0.0000 12.1259 0.0000
# 6 0.0000 0.0000 0.0000 0.0000 0.0000 30.8777
#
#
#
# Elastic Compliance Matrix: (Units=1/GPa)
#
#
# Indices 1 2 3 4 5 6 
#
# 1 0.008408 -0.002963 0.000169 0.000000 0.000000 0.000000
# 2 -0.002963 0.009411 0.000937 0.000000 0.000000 0.000000
# 3 0.000169 0.000937 0.018504 0.000000 0.000000 0.000000
# 4 0.000000 0.000000 0.000000 0.039096 0.000000 0.000000
# 5 0.000000 0.000000 0.000000 0.000000 0.082468 0.000000
# 6 0.000000 0.000000 0.000000 0.000000 0.000000 0.032386
#
#
# Mechanical properties :
#
#
# Convention : Reuss Voigt Hill
#
# Bulk Modulus (GPa) = 30.66525 41.55525 36.11025
# Shear Modulus (GPa) = 24.40745 32.11794 28.26269
#
# Velocity S-wave (km/s) = 3.12818 3.58843 3.36618
# Velocity P-wave (km/s) = 5.03406 5.81632 5.43927
#
# Compressibility (1/GPa) = 0.03261020
#
# Stress axis : x y z
#
# Youngs Moduli (GPa) = 118.93847 106.26390 54.04145
#
# Poissons Ratio (x) = 0.31481 -0.00915
# Poissons Ratio (y) = 0.35236 -0.05064
# Poissons Ratio (z) = -0.02014 -0.09957
#
# Static dielectric constant tensor:
#      x y z
#    x 1.999510 0.000000 0.000000 
#    y 0.000000 1.980760 0.000000 
#    z 0.000000 0.000000 2.003900 
# 
# From -- ./inp_files/9014.got.cif
#   From: 2010.05.17/outbox.cif.g08.bks.cpg/sg36_5_cif.got.tgz:9014.got - 2010.06.03 17:41:39.
