data_PCOD9352237
_publ_section_title
;
Structure prediction by ZEFSAII (Michael W. Deem and Ramdas Pophale) SiO2 
 PCOD9352237
Probable space group: C M C 21
;
_chemical_formula_sum "Si O2"
_cell_formula_units_Z 48
_cell_length_a 7.496852
_cell_length_b 29.317808
_cell_length_c 8.329535
_cell_angle_alpha 90.000000
_cell_angle_beta 90.000000
_cell_angle_gamma 90.000000
_cell_volume 1830.759056
_symmetry_space_group_name_H-M "C M C 21"
_symmetry_group_IT_number 36
_symmetry_cell_setting 'orthorhombic'
loop_
_space_group_symop_operation_xyz
x,y,z
-x,-y,1/2+z
x,-y,1/2+z
-x,y,z
1/2+x,1/2+y,z
1/2-x,1/2-y,1/2+z
1/2+x,1/2-y,1/2+z
1/2-x,1/2+y,z
loop_
_atom_site_type_symbol
_atom_site_label
_atom_site_fract_x
_atom_site_fract_y
_atom_site_fract_z
Si Si1 0.292273 0.820344 0.835220
Si Si2 0.217008 0.931055 0.483221
Si Si3 0.703105 0.595817 0.507520
Si Si4 0.294944 0.240163 0.627133
Si Si5 0.783686 0.845886 0.310660
Si Si6 0.218567 0.016396 0.299350
O O1 0.500000 0.828949 0.865525
O O2 0.201941 0.869252 0.855781
O O3 0.277446 0.789041 0.678818
O O4 0.215114 0.788294 0.979060
O O5 0.274806 0.879056 0.454584
O O6 0.278757 0.957826 0.640122
O O7 0.000000 0.929993 0.487754
O O8 0.268063 0.964470 0.335514
O O9 0.500000 0.585804 0.556327
O O10 0.777702 0.625291 0.653403
O O11 0.779665 0.548585 0.446210
O O12 0.500000 0.247980 0.585607
O O13 0.280941 0.205062 0.777433
O O14 0.000000 0.842839 0.312965
O O15 0.000000 0.017374 0.297088
#
# Coordination Sequence:
#
# PCOD9352237 Si02
#       6
#     8   8   8   8   8   8
#     4  10  21  36  54  76 102 133 169 209 254 304
#     4   9  16  26  43  69  99 129 162 201 244 290
#     4   9  17  30  48  70  98 131 165 203 248 295
#     4  10  21  36  54  76 102 133 169 209 254 304
#     4   9  17  30  48  70  98 131 165 203 248 295
#     4   9  16  26  43  69  99 129 162 201 244 290
#
# _framework density 26.218634999999999
#
# number of rings (size 3 to 8) (size 9 to 14) (size 15 to 20)
#    0.000    2.667    0.000    2.000    0.000    7.333 
#    0.000    3.333    0.000    1.000    0.000    0.000 
#    0.000    0.000    0.000    0.000    0.000    0.000 
#
# Total GULP energy -134135.373162 kJ/mol
# GULP energy per Si atom -5588.973882 kJ/mol
# Density = 2.615896 g / cm^3
# Si number density = 26.218635 Si / 1000 Ang^3
#
#
#
# Elastic Constant Matrix: (Units=GPa)
#
#
# Indices 1 2 3 4 5 6 
#
# 1 79.4907 -7.6294 -7.8761 0.0000 0.0000 0.0000
# 2 -7.6294 153.9517 15.3637 0.0000 0.0000 0.0000
# 3 -7.8761 15.3637 55.0955 0.0000 0.0000 0.0000
# 4 0.0000 0.0000 0.0000 50.4043 0.0000 0.0000
# 5 0.0000 0.0000 0.0000 0.0000 -2.0001 0.0000
# 6 0.0000 0.0000 0.0000 0.0000 0.0000 -16.4811
#
#
#
# Elastic Compliance Matrix: (Units=1/GPa)
#
#
# Indices 1 2 3 4 5 6 
#
# 1 0.012793 0.000464 0.001699 0.000000 0.000000 0.000000
# 2 0.000464 0.006698 -0.001801 0.000000 0.000000 0.000000
# 3 0.001699 -0.001801 0.018896 0.000000 0.000000 0.000000
# 4 0.000000 0.000000 0.000000 0.019840 0.000000 0.000000
# 5 0.000000 0.000000 0.000000 0.000000 -0.499987 0.000000
# 6 0.000000 0.000000 0.000000 0.000000 0.000000 -0.060676
#
#
# Mechanical properties :
#
#
# Convention : Reuss Voigt Hill
#
# Bulk Modulus (GPa) = 25.56800 32.02828 28.79814
# Shear Modulus (GPa) = -10.20152 25.62994 7.71421
#
# Velocity S-wave (km/s) = -1.97469 3.12997 1.71716
# Velocity P-wave (km/s) = 2.13865 5.03037 3.86513
#
# Compressibility (1/GPa) = 0.03911138
#
# Stress axis : x y z
#
# Youngs Moduli (GPa) = 78.16761 149.29074 52.92240
#
# Poissons Ratio (x) = -0.06933 -0.08993
# Poissons Ratio (y) = -0.03630 0.09534
# Poissons Ratio (z) = -0.13283 0.26895
#
# Static dielectric constant tensor:
#      x y z
#    x 2.004480 0.000000 0.000000 
#    y 0.000000 1.998660 0.000000 
#    z 0.000000 0.000000 2.175110 
# 
# From -- ./inp_files/2698.got.cif
#   From: 2010.05.17/outbox.cif.g08.bks.cpg/sg36_2_cif.got.tgz:2698.got - 2010.06.03 17:41:39.
