data_PCOD9352825
_publ_section_title
;
Structure prediction by ZEFSAII (Michael W. Deem and Ramdas Pophale) SiO2 
 PCOD9352825
Probable space group: C M C 21
;
_chemical_formula_sum "Si O2"
_cell_formula_units_Z 64
_cell_length_a 13.871138
_cell_length_b 9.510553
_cell_length_c 22.895650
_cell_angle_alpha 90.000000
_cell_angle_beta 90.000000
_cell_angle_gamma 90.000000
_cell_volume 3020.444361
_symmetry_space_group_name_H-M "C M C 21"
_symmetry_group_IT_number 36
_symmetry_cell_setting 'orthorhombic'
loop_
_space_group_symop_operation_xyz
x,y,z
-x,-y,1/2+z
x,-y,1/2+z
-x,y,z
1/2+x,1/2+y,z
1/2-x,1/2-y,1/2+z
1/2+x,1/2-y,1/2+z
1/2-x,1/2+y,z
loop_
_atom_site_type_symbol
_atom_site_label
_atom_site_fract_x
_atom_site_fract_y
_atom_site_fract_z
Si Si1 0.615745 0.550381 0.134720
Si Si2 0.615450 0.541240 0.361704
Si Si3 0.886052 0.724798 0.376870
Si Si4 0.252446 0.620648 0.470511
Si Si5 0.884429 0.729238 0.160885
Si Si6 0.280756 0.869440 0.551690
Si Si7 0.882569 0.544100 0.268915
Si Si8 0.617166 0.272337 0.750412
O O1 0.500000 0.551801 0.125396
O O2 0.646546 0.390411 0.150296
O O3 0.674640 0.606745 0.079258
O O4 0.638955 0.649590 0.189946
O O5 0.500000 0.558517 0.369491
O O6 0.633434 0.376860 0.348767
O O7 0.669716 0.578862 0.421553
O O8 0.645734 0.637633 0.307199
O O9 0.828049 0.708191 0.436072
O O10 0.858326 0.599459 0.333143
O O11 0.000000 0.716725 0.387403
O O12 0.294171 0.720860 0.520268
O O13 0.206132 0.487861 0.502934
O O14 0.849812 0.631680 0.107673
O O15 0.851463 0.658625 0.221188
O O16 0.000000 0.732779 0.162302
O O17 0.847347 0.387776 0.254838
O O18 0.000000 0.541034 0.266716
O O19 0.500000 0.267044 0.752431
#
# Coordination Sequence:
#
# PCOD9352825 Si02
#       8
#     8   8   8   8   8   8   8   8
#     4  10  22  42  67  90 122 165 204 248 307 370
#     4  10  22  42  67  90 122 165 204 248 307 370
#     4  10  22  42  66  91 123 163 202 251 310 365
#     4  12  26  43  61  90 126 162 211 258 296 359
#     4  10  22  42  66  91 123 163 202 251 310 365
#     4  12  26  43  61  90 126 162 211 258 296 359
#     4   9  19  36  63  98 126 150 198 258 311 363
#     4   9  19  36  63  98 124 152 200 254 309 367
#
# _framework density 21.188936000000002
#
# number of rings (size 3 to 8) (size 9 to 14) (size 15 to 20)
#    0.000    1.750    2.500    0.750    3.500    6.000 
#    0.000    0.000    0.000    0.000    0.000    0.000 
#    0.000    0.000    0.000    0.000    0.000    0.000 
#
# Total GULP energy -178903.238759 kJ/mol
# GULP energy per Si atom -5590.726211 kJ/mol
# Density = 2.114071 g / cm^3
# Si number density = 21.188936 Si / 1000 Ang^3
#
#
#
# Elastic Constant Matrix: (Units=GPa)
#
#
# Indices 1 2 3 4 5 6 
#
# 1 42.1180 0.0907 -2.9658 0.0000 0.0000 0.0000
# 2 0.0907 75.5457 10.6457 0.0000 0.0000 0.0000
# 3 -2.9658 10.6457 81.3183 0.0000 0.0000 0.0000
# 4 0.0000 0.0000 0.0000 43.3917 0.0000 0.0000
# 5 0.0000 0.0000 0.0000 0.0000 34.9774 0.0000
# 6 0.0000 0.0000 0.0000 0.0000 0.0000 18.6370
#
#
#
# Elastic Compliance Matrix: (Units=1/GPa)
#
#
# Indices 1 2 3 4 5 6 
#
# 1 0.023806 -0.000154 0.000888 0.000000 0.000000 0.000000
# 2 -0.000154 0.013487 -0.001771 0.000000 0.000000 0.000000
# 3 0.000888 -0.001771 0.012562 0.000000 0.000000 0.000000
# 4 0.000000 0.000000 0.000000 0.023046 0.000000 0.000000
# 5 0.000000 0.000000 0.000000 0.000000 0.028590 0.000000
# 6 0.000000 0.000000 0.000000 0.000000 0.000000 0.053657
#
#
# Mechanical properties :
#
#
# Convention : Reuss Voigt Hill
#
# Bulk Modulus (GPa) = 20.92887 23.83591 22.38239
# Shear Modulus (GPa) = 28.87722 32.14865 30.51293
#
# Velocity S-wave (km/s) = 3.69568 3.89940 3.79890
# Velocity P-wave (km/s) = 5.30183 5.61671 5.46154
#
# Compressibility (1/GPa) = 0.04778089
#
# Stress axis : x y z
#
# Youngs Moduli (GPa) = 42.00672 74.14660 79.60746
#
# Poissons Ratio (x) = 0.01140 -0.07072
# Poissons Ratio (y) = 0.00646 0.14100
# Poissons Ratio (z) = -0.03732 0.13133
#
# Static dielectric constant tensor:
#      x y z
#    x 1.778280 0.000000 0.000000 
#    y 0.000000 1.751150 0.000000 
#    z 0.000000 0.000000 1.698760 
# 
# From -- ./inp_files/16966.got.cif
#   From: 2010.05.17/outbox.cif.g08.bks.cpg/sg36_9_cif.got.tgz:16966.got - 2010.06.03 17:41:39.
