data_PCOD9352476
_publ_section_title
;
Structure prediction by ZEFSAII (Michael W. Deem and Ramdas Pophale) SiO2 
 PCOD9352476
Probable space group: C M C 21
;
_chemical_formula_sum "Si O2"
_cell_formula_units_Z 48
_cell_length_a 8.814266
_cell_length_b 19.267859
_cell_length_c 15.370581
_cell_angle_alpha 90.000000
_cell_angle_beta 90.000000
_cell_angle_gamma 90.000000
_cell_volume 2610.417042
_symmetry_space_group_name_H-M "C M C 21"
_symmetry_group_IT_number 36
_symmetry_cell_setting 'orthorhombic'
loop_
_space_group_symop_operation_xyz
x,y,z
-x,-y,1/2+z
x,-y,1/2+z
-x,y,z
1/2+x,1/2+y,z
1/2-x,1/2-y,1/2+z
1/2+x,1/2-y,1/2+z
1/2-x,1/2+y,z
loop_
_atom_site_type_symbol
_atom_site_label
_atom_site_fract_x
_atom_site_fract_y
_atom_site_fract_z
Si Si1 0.180769 0.172409 0.642790
Si Si2 0.818488 0.926078 0.801838
Si Si3 0.681156 0.678454 0.146557
Si Si4 0.680601 0.669311 0.944916
Si Si5 0.819767 0.578958 0.794106
Si Si6 0.181595 0.331042 0.951826
O O1 0.231230 0.250652 0.667152
O O2 0.244717 0.119682 0.713798
O O3 0.252332 0.158029 0.548179
O O4 0.000000 0.168056 0.638606
O O5 0.784238 0.881436 0.715197
O O6 0.756316 0.882431 0.883173
O O7 0.000000 0.933444 0.808374
O O8 0.742562 0.001039 0.798079
O O9 0.500000 0.693410 0.150188
O O10 0.715000 0.657673 0.046928
O O11 0.500000 0.658480 0.931822
O O12 0.771543 0.619958 0.881094
O O13 0.713545 0.750588 0.927307
O O14 0.000000 0.579112 0.784692
O O15 0.000000 0.339469 0.953445
#
# Coordination Sequence:
#
# PCOD9352476 Si02
#       6
#     8   8   8   8   8   8
#     4  11  22  38  62  88 115 150 192 238 287 342
#     4  11  23  39  59  85 118 155 195 237 288 346
#     4   9  20  39  63  88 114 147 189 239 288 339
#     4   9  19  38  62  87 115 147 189 239 288 341
#     4  12  25  39  56  82 119 158 196 239 288 342
#     4  10  21  39  62  88 117 149 189 238 289 342
#
# _framework density 18.387865999999999
#
# number of rings (size 3 to 8) (size 9 to 14) (size 15 to 20)
#    0.000    1.667    0.000    6.000    0.000    8.667 
#    0.000    5.000    0.000    0.000    0.000    0.000 
#    0.000    0.000    0.000    0.000    0.000    0.000 
#
# Total GULP energy -134180.030386 kJ/mol
# GULP energy per Si atom -5590.834599 kJ/mol
# Density = 1.834601 g / cm^3
# Si number density = 18.387866 Si / 1000 Ang^3
#
#
#
# Elastic Constant Matrix: (Units=GPa)
#
#
# Indices 1 2 3 4 5 6 
#
# 1 81.8127 61.4748 48.6665 0.0000 0.0000 0.0000
# 2 61.4748 116.9459 82.9460 0.0000 0.0000 0.0000
# 3 48.6665 82.9460 93.0428 0.0000 0.0000 0.0000
# 4 0.0000 0.0000 0.0000 -28.6568 0.0000 0.0000
# 5 0.0000 0.0000 0.0000 0.0000 33.3171 0.0000
# 6 0.0000 0.0000 0.0000 0.0000 0.0000 8.6081
#
#
#
# Elastic Compliance Matrix: (Units=1/GPa)
#
#
# Indices 1 2 3 4 5 6 
#
# 1 0.020514 -0.008630 -0.003037 0.000000 0.000000 0.000000
# 2 -0.008630 0.026886 -0.019454 0.000000 0.000000 0.000000
# 3 -0.003037 -0.019454 0.029679 0.000000 0.000000 0.000000
# 4 0.000000 0.000000 0.000000 -0.034896 0.000000 0.000000
# 5 0.000000 0.000000 0.000000 0.000000 0.030015 0.000000
# 6 0.000000 0.000000 0.000000 0.000000 0.000000 0.116169
#
#
# Mechanical properties :
#
#
# Convention : Reuss Voigt Hill
#
# Bulk Modulus (GPa) = 67.39690 75.33066 71.36378
# Shear Modulus (GPa) = 19.56537 9.23463 14.40000
#
# Velocity S-wave (km/s) = 3.26550 2.24344 2.80147
# Velocity P-wave (km/s) = 7.13796 6.91139 7.02559
#
# Compressibility (1/GPa) = 0.01483748
#
# Stress axis : x y z
#
# Youngs Moduli (GPa) = 48.74764 37.19470 33.69368
#
# Poissons Ratio (x) = 0.32098 0.10232
# Poissons Ratio (y) = 0.42068 0.65548
# Poissons Ratio (z) = 0.14803 0.72359
#
# Static dielectric constant tensor:
#      x y z
#    x 1.609700 0.000000 0.000000 
#    y 0.000000 1.598290 0.000000 
#    z 0.000000 0.000000 1.617470 
# 
# From -- ./inp_files/10372.got.cif
#   From: 2010.05.17/outbox.cif.g08.bks.cpg/sg36_6_cif.got.tgz:10372.got - 2010.06.03 17:41:39.
