data_PCOD9352071
_publ_section_title
;
Structure prediction by ZEFSAII (Michael W. Deem and Ramdas Pophale) SiO2 
 PCOD9352071
Probable space group: C M C 21
;
_chemical_formula_sum "Si O2"
_cell_formula_units_Z 48
_cell_length_a 16.863163
_cell_length_b 9.750747
_cell_length_c 14.927849
_cell_angle_alpha 90.000000
_cell_angle_beta 90.000000
_cell_angle_gamma 90.000000
_cell_volume 2454.562864
_symmetry_space_group_name_H-M "C M C 21"
_symmetry_group_IT_number 36
_symmetry_cell_setting 'orthorhombic'
loop_
_space_group_symop_operation_xyz
x,y,z
-x,-y,1/2+z
x,-y,1/2+z
-x,y,z
1/2+x,1/2+y,z
1/2-x,1/2-y,1/2+z
1/2+x,1/2-y,1/2+z
1/2-x,1/2+y,z
loop_
_atom_site_type_symbol
_atom_site_label
_atom_site_fract_x
_atom_site_fract_y
_atom_site_fract_z
Si Si1 0.803426 0.746343 0.704430
Si Si2 0.168468 0.451723 0.655614
Si Si3 0.591199 0.387627 0.846004
Si Si4 0.632920 0.141710 0.969049
Si Si5 0.089880 0.610032 0.347729
Si Si6 0.703437 0.646986 0.875628
O O1 0.821722 0.615467 0.642517
O O2 0.751744 0.869296 0.663081
O O3 0.878911 0.808042 0.756805
O O4 0.749616 0.680276 0.783463
O O5 0.121416 0.385465 0.573287
O O6 0.124557 0.428670 0.750252
O O7 0.500000 0.430090 0.837785
O O8 0.601915 0.283848 0.929136
O O9 0.651326 0.512149 0.862402
O O10 0.727409 0.133173 0.948319
O O11 0.594116 0.023129 0.909600
O O12 0.145747 0.725315 0.390634
O O13 0.000000 0.658864 0.338986
#
# Coordination Sequence:
#
# PCOD9352071 Si02
#       6
#     8   8   8   8   8   8
#     4  10  20  39  61  90 112 156 203 245 293 355
#     4  11  23  38  66  88 122 158 210 247 294 355
#     4  11  21  38  61  89 121 155 196 251 306 354
#     4  11  23  38  65  89 119 158 208 252 292 352
#     4  11  23  41  62  90 125 160 196 247 310 358
#     4  10  20  40  61  86 117 157 201 244 293 358
#
# _framework density 19.555416000000001
#
# number of rings (size 3 to 8) (size 9 to 14) (size 15 to 20)
#    0.000    1.333    5.000    3.000    4.667    1.333 
#    0.000    0.000    0.000    0.000    0.000    0.000 
#    0.000    0.000    0.000    0.000    0.000    0.000 
#
# Total GULP energy -134065.310484 kJ/mol
# GULP energy per Si atom -5586.054603 kJ/mol
# Density = 1.951091 g / cm^3
# Si number density = 19.555416 Si / 1000 Ang^3
#
#
#
# Elastic Constant Matrix: (Units=GPa)
#
#
# Indices 1 2 3 4 5 6 
#
# 1 89.5682 8.9942 -4.2263 0.0000 0.0000 0.0000
# 2 8.9942 69.7025 -3.1906 0.0000 0.0000 0.0000
# 3 -4.2263 -3.1906 66.4678 0.0000 0.0000 0.0000
# 4 0.0000 0.0000 0.0000 8.6297 0.0000 0.0000
# 5 0.0000 0.0000 0.0000 0.0000 2.9742 0.0000
# 6 0.0000 0.0000 0.0000 0.0000 0.0000 9.1328
#
#
#
# Elastic Compliance Matrix: (Units=1/GPa)
#
#
# Indices 1 2 3 4 5 6 
#
# 1 0.011339 -0.001433 0.000652 0.000000 0.000000 0.000000
# 2 -0.001433 0.014559 0.000608 0.000000 0.000000 0.000000
# 3 0.000652 0.000608 0.015116 0.000000 0.000000 0.000000
# 4 0.000000 0.000000 0.000000 0.115879 0.000000 0.000000
# 5 0.000000 0.000000 0.000000 0.000000 0.336228 0.000000
# 6 0.000000 0.000000 0.000000 0.000000 0.000000 0.109495
#
#
# Mechanical properties :
#
#
# Convention : Reuss Voigt Hill
#
# Bulk Modulus (GPa) = 24.58962 25.43257 25.01109
# Shear Modulus (GPa) = 8.11004 19.09141 13.60073
#
# Velocity S-wave (km/s) = 2.03868 3.12793 2.64009
# Velocity P-wave (km/s) = 4.25949 5.10674 4.70224
#
# Compressibility (1/GPa) = 0.04066757
#
# Stress axis : x y z
#
# Youngs Moduli (GPa) = 88.18821 68.68385 66.15715
#
# Poissons Ratio (x) = 0.09845 -0.04315
# Poissons Ratio (y) = 0.12640 -0.04021
# Poissons Ratio (z) = -0.05752 -0.04174
#
# Static dielectric constant tensor:
#      x y z
#    x 1.687150 0.000000 0.000000 
#    y 0.000000 1.703280 0.000000 
#    z 0.000000 0.000000 1.683790 
# 
# From -- ./inp_files/12479.got.cif
#   From: 2010.05.17/outbox.cif.g08.bks.cpg/sg36_7_cif.got.tgz:12479.got - 2010.06.03 17:41:39.
