data_PCOD9352086
_publ_section_title
;
Structure prediction by ZEFSAII (Michael W. Deem and Ramdas Pophale) SiO2 
 PCOD9352086
Probable space group: C M C 21
;
_chemical_formula_sum "Si O2"
_cell_formula_units_Z 64
_cell_length_a 14.020577
_cell_length_b 12.516441
_cell_length_c 17.639174
_cell_angle_alpha 90.000000
_cell_angle_beta 90.000000
_cell_angle_gamma 90.000000
_cell_volume 3095.458513
_symmetry_space_group_name_H-M "C M C 21"
_symmetry_group_IT_number 36
_symmetry_cell_setting 'orthorhombic'
loop_
_space_group_symop_operation_xyz
x,y,z
-x,-y,1/2+z
x,-y,1/2+z
-x,y,z
1/2+x,1/2+y,z
1/2-x,1/2-y,1/2+z
1/2+x,1/2-y,1/2+z
1/2-x,1/2+y,z
loop_
_atom_site_type_symbol
_atom_site_label
_atom_site_fract_x
_atom_site_fract_y
_atom_site_fract_z
Si Si1 0.110818 0.573394 0.923630
Si Si2 0.610856 0.998799 0.247978
Si Si3 0.887554 0.656076 0.454385
Si Si4 0.889328 0.816935 0.593787
Si Si5 0.887578 0.936179 0.054851
Si Si6 0.742528 0.164625 0.673147
Si Si7 0.613278 0.308313 0.903978
Si Si8 0.783452 0.702986 0.302630
O O1 0.115930 0.552847 0.832796
O O2 0.150800 0.465905 0.962160
O O3 0.147295 0.692713 0.936944
O O4 0.000000 0.578691 0.946476
O O5 0.500000 0.013791 0.230018
O O6 0.662215 0.924184 0.187286
O O7 0.666077 0.109480 0.255801
O O8 0.877870 0.731298 0.526134
O O9 0.839326 0.708011 0.381717
O O10 0.000000 0.645481 0.437448
O O11 0.812491 0.774173 0.653070
O O12 0.000000 0.810775 0.620354
O O13 0.872160 0.937323 0.566045
O O14 0.818719 0.872295 0.111560
O O15 0.000000 0.914668 0.071420
O O16 0.871735 0.895727 0.969061
O O17 0.788750 0.189363 0.754595
O O18 0.500000 0.301771 0.887079
O O19 0.676315 0.325948 0.829434
#
# Coordination Sequence:
#
# PCOD9352086 Si02
#       8
#     8   8   8   8   8   8   8   8
#     4   8  15  33  61  90 117 147 200 257 305 360
#     4  10  21  39  61  89 125 160 200 261 316 368
#     4   9  19  38  63  90 119 158 206 269 318 355
#     4  10  22  43  65  88 121 163 212 260 311 377
#     4  10  24  44  62  87 130 173 212 262 319 385
#     4  12  23  40  61  91 124 170 212 252 313 382
#     4  10  20  39  64  92 128 171 213 260 318 385
#     4  11  22  36  60  97 126 156 204 263 317 376
#
# _framework density 20.675450000000001
#
# number of rings (size 3 to 8) (size 9 to 14) (size 15 to 20)
#    0.000    2.000    1.250    3.000    0.000    2.500 
#   11.250    0.625    0.000    0.000    0.000    0.000 
#    0.000    0.000    0.000    0.000    0.000    0.000 
#
# Total GULP energy -178633.802826 kJ/mol
# GULP energy per Si atom -5582.306338 kJ/mol
# Density = 2.062839 g / cm^3
# Si number density = 20.675450 Si / 1000 Ang^3
#
#
#
# Elastic Constant Matrix: (Units=GPa)
#
#
# Indices 1 2 3 4 5 6 
#
# 1 92.1245 52.6181 28.5808 0.0000 0.0000 0.0000
# 2 52.6181 73.3839 17.3660 0.0000 0.0000 0.0000
# 3 28.5808 17.3660 35.9699 0.0000 0.0000 0.0000
# 4 0.0000 0.0000 0.0000 34.1946 0.0000 0.0000
# 5 0.0000 0.0000 0.0000 0.0000 29.7277 0.0000
# 6 0.0000 0.0000 0.0000 0.0000 0.0000 29.9192
#
#
#
# Elastic Compliance Matrix: (Units=1/GPa)
#
#
# Indices 1 2 3 4 5 6 
#
# 1 0.021631 -0.012918 -0.010950 0.000000 0.000000 0.000000
# 2 -0.012918 0.023100 -0.000888 0.000000 0.000000 0.000000
# 3 -0.010950 -0.000888 0.036930 0.000000 0.000000 0.000000
# 4 0.000000 0.000000 0.000000 0.029244 0.000000 0.000000
# 5 0.000000 0.000000 0.000000 0.000000 0.033639 0.000000
# 6 0.000000 0.000000 0.000000 0.000000 0.000000 0.033423
#
#
# Mechanical properties :
#
#
# Convention : Reuss Voigt Hill
#
# Bulk Modulus (GPa) = 31.10607 44.28978 37.69793
# Shear Modulus (GPa) = 20.99112 25.62920 23.31016
#
# Velocity S-wave (km/s) = 3.18978 3.52461 3.36137
# Velocity P-wave (km/s) = 5.35200 6.16699 5.77389
#
# Compressibility (1/GPa) = 0.03214806
#
# Stress axis : x y z
#
# Youngs Moduli (GPa) = 46.23095 43.29039 27.07792
#
# Poissons Ratio (x) = 0.55924 0.29651
# Poissons Ratio (y) = 0.59723 0.02404
# Poissons Ratio (z) = 0.50624 0.03843
#
# Static dielectric constant tensor:
#      x y z
#    x 1.776440 0.000000 0.000000 
#    y 0.000000 1.748710 0.000000 
#    z 0.000000 0.000000 1.723330 
# 
# From -- ./inp_files/14728.got.cif
#   From: 2010.05.17/outbox.cif.g08.bks.cpg/sg36_8_cif.got.tgz:14728.got - 2010.06.03 17:41:39.
