data_PCOD9352213
_publ_section_title
;
Structure prediction by ZEFSAII (Michael W. Deem and Ramdas Pophale) SiO2 
 PCOD9352213
Probable space group: C M C 21
;
_chemical_formula_sum "Si O2"
_cell_formula_units_Z 64
_cell_length_a 7.493622
_cell_length_b 25.997006
_cell_length_c 14.001734
_cell_angle_alpha 90.000000
_cell_angle_beta 90.000000
_cell_angle_gamma 90.000000
_cell_volume 2727.702109
_symmetry_space_group_name_H-M "C M C 21"
_symmetry_group_IT_number 36
_symmetry_cell_setting 'orthorhombic'
loop_
_space_group_symop_operation_xyz
x,y,z
-x,-y,1/2+z
x,-y,1/2+z
-x,y,z
1/2+x,1/2+y,z
1/2-x,1/2-y,1/2+z
1/2+x,1/2-y,1/2+z
1/2-x,1/2+y,z
loop_
_atom_site_type_symbol
_atom_site_label
_atom_site_fract_x
_atom_site_fract_y
_atom_site_fract_z
Si Si1 0.211348 0.630413 0.794990
Si Si2 0.783814 0.311808 0.758955
Si Si3 0.295935 0.714593 0.648874
Si Si4 0.295242 0.079755 0.192193
Si Si5 0.712869 0.569910 0.972871
Si Si6 0.704908 0.541522 0.458310
Si Si7 0.282303 0.969529 0.180759
Si Si8 0.212120 0.156000 0.462356
O O1 0.296585 0.678186 0.741831
O O2 0.247505 0.617700 0.904631
O O3 0.274783 0.578951 0.741578
O O4 0.000000 0.635645 0.781328
O O5 0.715384 0.267662 0.687945
O O6 0.712883 0.367693 0.728231
O O7 0.740090 0.307668 0.870962
O O8 0.000000 0.311087 0.751366
O O9 0.500000 0.725868 0.619784
O O10 0.216999 0.682479 0.559598
O O11 0.500000 0.079783 0.224904
O O12 0.218624 0.024455 0.220622
O O13 0.290970 0.078839 0.077362
O O14 0.500000 0.564580 0.982897
O O15 0.783026 0.514814 0.931480
O O16 0.500000 0.542516 0.425244
O O17 0.712320 0.537798 0.573782
O O18 0.785141 0.598299 0.439103
O O19 0.500000 0.970606 0.176278
O O20 0.000000 0.148212 0.476958
#
# Coordination Sequence:
#
# PCOD9352213 Si02
#       8
#     8   8   8   8   8   8   8   8
#     4  11  22  35  56  87 117 154 197 238 292 350
#     4  10  23  40  62  89 116 153 197 241 294 348
#     4  10  22  42  62  83 116 156 198 244 291 342
#     4   9  19  38  57  81 119 155 191 240 293 348
#     4  10  21  35  55  86 122 159 197 241 291 349
#     4   9  18  34  55  82 115 154 195 234 287 344
#     4   9  18  32  53  81 113 149 189 236 289 342
#     4  10  21  38  60  85 116 154 194 242 293 345
#
# _framework density 23.462973999999999
#
# number of rings (size 3 to 8) (size 9 to 14) (size 15 to 20)
#    0.000    2.250    1.250    0.750    1.750    4.000 
#    0.000    1.250    0.000    0.000    0.000    0.000 
#    0.000    0.000    0.000    0.000    0.000    0.000 
#
# Total GULP energy -178688.628910 kJ/mol
# GULP energy per Si atom -5584.019653 kJ/mol
# Density = 2.340957 g / cm^3
# Si number density = 23.462974 Si / 1000 Ang^3
#
#
#
# Elastic Constant Matrix: (Units=GPa)
#
#
# Indices 1 2 3 4 5 6 
#
# 1 81.1462 6.3501 -5.2760 0.0000 0.0000 0.0000
# 2 6.3501 110.0005 25.9448 0.0000 0.0000 0.0000
# 3 -5.2760 25.9448 79.0118 0.0000 0.0000 0.0000
# 4 0.0000 0.0000 0.0000 29.6653 0.0000 0.0000
# 5 0.0000 0.0000 0.0000 0.0000 -481.7058 0.0000
# 6 0.0000 0.0000 0.0000 0.0000 0.0000 0.2067
#
#
#
# Elastic Compliance Matrix: (Units=1/GPa)
#
#
# Indices 1 2 3 4 5 6 
#
# 1 0.012477 -0.000994 0.001159 0.000000 0.000000 0.000000
# 2 -0.000994 0.009933 -0.003328 0.000000 0.000000 0.000000
# 3 0.001159 -0.003328 0.013827 0.000000 0.000000 0.000000
# 4 0.000000 0.000000 0.000000 0.033709 0.000000 0.000000
# 5 0.000000 0.000000 0.000000 0.000000 -0.002076 0.000000
# 6 0.000000 0.000000 0.000000 0.000000 0.000000 4.838983
#
#
# Mechanical properties :
#
#
# Convention : Reuss Voigt Hill
#
# Bulk Modulus (GPa) = 33.43182 36.02182 34.72682
# Shear Modulus (GPa) = 1.01561 -74.15745 -36.57092
#
# Velocity S-wave (km/s) = 0.65863 -5.62803 -3.95228
# Velocity P-wave (km/s) = 3.85462 5.18142 2.44837
#
# Compressibility (1/GPa) = 0.02991163
#
# Stress axis : x y z
#
# Youngs Moduli (GPa) = 80.15017 100.67249 72.32445
#
# Poissons Ratio (x) = 0.10004 -0.08386
# Poissons Ratio (y) = 0.07965 0.24070
# Poissons Ratio (z) = -0.09293 0.33505
#
# Static dielectric constant tensor:
#      x y z
#    x 3.946610 0.000000 0.000000 
#    y 0.000000 1.913290 0.000000 
#    z 0.000000 0.000000 1.875460 
# 
# From -- ./inp_files/10974.got.cif
#   From: 2010.05.17/outbox.cif.g08.bks.cpg/sg36_6_cif.got.tgz:10974.got - 2010.06.03 17:41:39.
