data_PCOD9352394
_publ_section_title
;
Structure prediction by ZEFSAII (Michael W. Deem and Ramdas Pophale) SiO2 
 PCOD9352394
Probable space group: C M C 21
;
_chemical_formula_sum "Si O2"
_cell_formula_units_Z 60
_cell_length_a 12.430652
_cell_length_b 10.820772
_cell_length_c 18.704784
_cell_angle_alpha 90.000000
_cell_angle_beta 90.000000
_cell_angle_gamma 90.000000
_cell_volume 2515.966488
_symmetry_space_group_name_H-M "C M C 21"
_symmetry_group_IT_number 36
_symmetry_cell_setting 'orthorhombic'
loop_
_space_group_symop_operation_xyz
x,y,z
-x,-y,1/2+z
x,-y,1/2+z
-x,y,z
1/2+x,1/2+y,z
1/2-x,1/2-y,1/2+z
1/2+x,1/2-y,1/2+z
1/2-x,1/2+y,z
loop_
_atom_site_type_symbol
_atom_site_label
_atom_site_fract_x
_atom_site_fract_y
_atom_site_fract_z
Si Si1 0.844262 0.239004 0.602780
Si Si2 0.842714 0.960095 0.219845
Si Si3 0.122001 0.209722 0.849342
Si Si4 0.617119 0.543945 0.486269
Si Si5 0.879116 0.529483 0.272210
Si Si6 0.808337 0.421014 0.418623
Si Si7 0.886583 0.163661 0.110915
Si Si8 0.000000 0.400779 0.536878
O O1 0.875699 0.149820 0.666989
O O2 0.880193 0.169791 0.530623
O O3 0.717571 0.254186 0.605548
O O4 0.906392 0.366426 0.597690
O O5 0.875423 0.911377 0.297851
O O6 0.714953 0.982457 0.221462
O O7 0.885398 0.085722 0.184593
O O8 0.140764 0.329703 0.799555
O O9 0.220386 0.189408 0.904700
O O10 0.000000 0.223679 0.879678
O O11 0.500000 0.536517 0.449560
O O12 0.722741 0.527654 0.439730
O O13 0.620641 0.436714 0.546833
O O14 0.864434 0.447966 0.343657
O O15 0.000000 0.518300 0.245956
O O16 0.902428 0.417634 0.476899
O O17 0.000000 0.231624 0.103696
#
# Coordination Sequence:
#
# PCOD9352394 Si02
#       8
#     8   8   8   8   8   8   8   4
#     4  11  23  40  63  94 125 175 213 262 327 391
#     4  10  22  41  63  92 125 162 221 263 324 393
#     4  10  22  40  68  96 123 173 219 271 329 391
#     4  10  21  38  60  89 126 163 211 260 308 383
#     4  10  22  41  63  90 130 167 207 279 328 392
#     4  11  23  41  62  94 133 167 221 267 328 389
#     4  10  21  39  59  86 123 157 201 265 313 372
#     4  12  24  42  64  92 134 178 212 268 328 410
#
# _framework density 23.847695999999999
#
# number of rings (size 3 to 8) (size 9 to 14) (size 15 to 20)
#    0.000    1.600    2.667    1.600    3.733    0.533 
#    2.400    0.000    1.467    0.000    0.000    0.000 
#    0.000    0.000    0.000    0.000    0.000    0.000 
#
# Total GULP energy -167071.725649 kJ/mol
# GULP energy per Si atom -5569.057522 kJ/mol
# Density = 2.379342 g / cm^3
# Si number density = 23.847696 Si / 1000 Ang^3
#
#
#
# Elastic Constant Matrix: (Units=GPa)
#
#
# Indices 1 2 3 4 5 6 
#
# 1 219.4019 21.8383 30.7863 0.0000 0.0000 0.0000
# 2 21.8383 33.9170 3.8188 0.0000 0.0000 0.0000
# 3 30.7863 3.8188 45.7610 0.0000 0.0000 0.0000
# 4 0.0000 0.0000 0.0000 27.7870 0.0000 0.0000
# 5 0.0000 0.0000 0.0000 0.0000 39.9510 0.0000
# 6 0.0000 0.0000 0.0000 0.0000 0.0000 23.0135
#
#
#
# Elastic Compliance Matrix: (Units=1/GPa)
#
#
# Indices 1 2 3 4 5 6 
#
# 1 0.005329 -0.003056 -0.003330 0.000000 0.000000 0.000000
# 2 -0.003056 0.031516 -0.000574 0.000000 0.000000 0.000000
# 3 -0.003330 -0.000574 0.024141 0.000000 0.000000 0.000000
# 4 0.000000 0.000000 0.000000 0.035988 0.000000 0.000000
# 5 0.000000 0.000000 0.000000 0.000000 0.025031 0.000000
# 6 0.000000 0.000000 0.000000 0.000000 0.000000 0.043453
#
#
# Mechanical properties :
#
#
# Convention : Reuss Voigt Hill
#
# Bulk Modulus (GPa) = 21.24692 45.77407 33.51050
# Shear Modulus (GPa) = 25.63208 34.32606 29.97907
#
# Velocity S-wave (km/s) = 3.28201 3.79804 3.54941
# Velocity P-wave (km/s) = 4.82606 6.20238 5.55699
#
# Compressibility (1/GPa) = 0.04706564
#
# Stress axis : x y z
#
# Youngs Moduli (GPa) = 187.63880 31.72953 41.42321
#
# Poissons Ratio (x) = 0.09698 0.13795
# Poissons Ratio (y) = 0.57352 0.02377
# Poissons Ratio (z) = 0.62490 0.01820
#
# Static dielectric constant tensor:
#      x y z
#    x 1.934440 0.000000 0.000000 
#    y 0.000000 1.976260 0.000000 
#    z 0.000000 0.000000 1.920290 
# 
# From -- ./inp_files/15998.got.cif
#   From: 2010.05.17/outbox.cif.g08.bks.cpg/sg36_8_cif.got.tgz:15998.got - 2010.06.03 17:41:39.
