data_PCOD9352665
_publ_section_title
;
Structure prediction by ZEFSAII (Michael W. Deem and Ramdas Pophale) SiO2 
 PCOD9352665
Probable space group: C M C 21
;
_chemical_formula_sum "Si O2"
_cell_formula_units_Z 64
_cell_length_a 7.816330
_cell_length_b 14.595177
_cell_length_c 25.593287
_cell_angle_alpha 90.000000
_cell_angle_beta 90.000000
_cell_angle_gamma 90.000000
_cell_volume 2919.700604
_symmetry_space_group_name_H-M "C M C 21"
_symmetry_group_IT_number 36
_symmetry_cell_setting 'orthorhombic'
loop_
_space_group_symop_operation_xyz
x,y,z
-x,-y,1/2+z
x,-y,1/2+z
-x,y,z
1/2+x,1/2+y,z
1/2-x,1/2-y,1/2+z
1/2+x,1/2-y,1/2+z
1/2-x,1/2+y,z
loop_
_atom_site_type_symbol
_atom_site_label
_atom_site_fract_x
_atom_site_fract_y
_atom_site_fract_z
Si Si1 0.295884 0.882917 0.880370
Si Si2 0.706522 0.106961 0.674500
Si Si3 0.201972 0.482056 0.468760
Si Si4 0.203083 0.844387 0.283696
Si Si5 0.293821 0.674603 0.897502
Si Si6 0.293276 0.315787 0.656703
Si Si7 0.805123 0.863790 0.765469
Si Si8 0.205264 0.529075 0.085004
O O1 0.500000 0.881288 0.885822
O O2 0.235081 0.779551 0.892451
O O3 0.264669 0.903721 0.819367
O O4 0.224165 0.952089 0.923616
O O5 0.500000 0.105382 0.673971
O O6 0.760930 0.090952 0.734554
O O7 0.763759 0.210544 0.660203
O O8 0.772044 0.038042 0.630461
O O9 0.222103 0.380322 0.446072
O O10 0.273739 0.490397 0.527089
O O11 0.000000 0.502179 0.472587
O O12 0.253590 0.873206 0.342125
O O13 0.295426 0.747229 0.273139
O O14 0.000000 0.824921 0.284997
O O15 0.500000 0.673833 0.901584
O O16 0.500000 0.315140 0.660422
O O17 0.224589 0.371313 0.707731
O O18 0.242781 0.368745 0.604805
O O19 0.000000 0.894782 0.762446
O O20 0.000000 0.517951 0.083432
#
# Coordination Sequence:
#
# PCOD9352665 Si02
#       8
#     8   8   8   8   8   8   8   8
#     4   9  19  36  56  78 106 140 174 211 261 315
#     4   9  19  36  56  78 106 140 174 211 261 315
#     4  10  22  38  54  75 104 139 181 223 260 305
#     4   9  17  31  53  81 110 137 169 210 259 315
#     4   9  19  35  55  79 106 137 171 211 261 313
#     4   9  19  35  55  79 106 137 171 211 261 313
#     4   9  17  31  53  81 110 137 169 210 259 315
#     4  10  22  38  54  75 104 139 181 223 260 305
#
# _framework density 21.920055000000001
#
# number of rings (size 3 to 8) (size 9 to 14) (size 15 to 20)
#    0.000    2.750    0.000    2.250    0.000    8.500 
#    0.000    7.500    0.000    0.000    0.000    0.000 
#    0.000    0.000    0.000    0.000    0.000    0.000 
#
# Total GULP energy -178545.958016 kJ/mol
# GULP energy per Si atom -5579.561188 kJ/mol
# Density = 2.187016 g / cm^3
# Si number density = 21.920055 Si / 1000 Ang^3
#
#
#
# Elastic Constant Matrix: (Units=GPa)
#
#
# Indices 1 2 3 4 5 6 
#
# 1 29.8199 -1.3866 5.2544 0.0000 0.0000 0.0000
# 2 -1.3866 49.5973 29.8071 0.0000 0.0000 0.0000
# 3 5.2544 29.8071 143.9838 0.0000 0.0000 0.0000
# 4 0.0000 0.0000 0.0000 28.4107 0.0000 0.0000
# 5 0.0000 0.0000 0.0000 0.0000 24.6477 0.0000
# 6 0.0000 0.0000 0.0000 0.0000 0.0000 17.3924
#
#
#
# Elastic Compliance Matrix: (Units=1/GPa)
#
#
# Indices 1 2 3 4 5 6 
#
# 1 0.033913 0.001932 -0.001638 0.000000 0.000000 0.000000
# 2 0.001932 0.023137 -0.004860 0.000000 0.000000 0.000000
# 3 -0.001638 -0.004860 0.008011 0.000000 0.000000 0.000000
# 4 0.000000 0.000000 0.000000 0.035198 0.000000 0.000000
# 5 0.000000 0.000000 0.000000 0.000000 0.040572 0.000000
# 6 0.000000 0.000000 0.000000 0.000000 0.000000 0.057496
#
#
# Mechanical properties :
#
#
# Convention : Reuss Voigt Hill
#
# Bulk Modulus (GPa) = 17.87940 32.30564 25.09252
# Shear Modulus (GPa) = 22.11386 26.73857 24.42621
#
# Velocity S-wave (km/s) = 3.17967 3.49638 3.34178
# Velocity P-wave (km/s) = 4.65347 5.57401 5.13441
#
# Compressibility (1/GPa) = 0.05593027
#
# Stress axis : x y z
#
# Youngs Moduli (GPa) = 29.48716 43.22011 124.82584
#
# Poissons Ratio (x) = -0.08351 0.20441
# Poissons Ratio (y) = -0.05698 0.60670
# Poissons Ratio (z) = 0.04829 0.21006
#
# Static dielectric constant tensor:
#      x y z
#    x 1.787770 0.000000 0.000000 
#    y 0.000000 1.818570 0.000000 
#    z 0.000000 0.000000 1.820140 
# 
# From -- ./inp_files/16686.got.cif
#   From: 2010.05.17/outbox.cif.g08.bks.cpg/sg36_9_cif.got.tgz:16686.got - 2010.06.03 17:41:39.
