data_PCOD9352442
_publ_section_title
;
Structure prediction by ZEFSAII (Michael W. Deem and Ramdas Pophale) SiO2 
 PCOD9352442
Probable space group: C M C 21
;
_chemical_formula_sum "Si O2"
_cell_formula_units_Z 40
_cell_length_a 11.239075
_cell_length_b 23.730893
_cell_length_c 7.611087
_cell_angle_alpha 90.000000
_cell_angle_beta 90.000000
_cell_angle_gamma 90.000000
_cell_volume 2029.978026
_symmetry_space_group_name_H-M "C M C 21"
_symmetry_group_IT_number 36
_symmetry_cell_setting 'orthorhombic'
loop_
_space_group_symop_operation_xyz
x,y,z
-x,-y,1/2+z
x,-y,1/2+z
-x,y,z
1/2+x,1/2+y,z
1/2-x,1/2-y,1/2+z
1/2+x,1/2-y,1/2+z
1/2-x,1/2+y,z
loop_
_atom_site_type_symbol
_atom_site_label
_atom_site_fract_x
_atom_site_fract_y
_atom_site_fract_z
Si Si1 0.634159 0.274225 0.053990
Si Si2 0.361736 0.065685 0.786536
Si Si3 0.366760 0.639375 0.877390
Si Si4 0.364532 0.934278 0.867489
Si Si5 0.756547 0.827542 0.713958
O O1 0.500000 0.279281 0.991310
O O2 0.648252 0.314883 0.222463
O O3 0.660236 0.210884 0.114597
O O4 0.713652 0.295039 0.893251
O O5 0.500000 0.079234 0.842022
O O6 0.250178 0.099751 0.865139
O O7 0.356427 0.074040 0.576642
O O8 0.342046 0.999627 0.826131
O O9 0.500000 0.613744 0.854300
O O10 0.359954 0.667296 0.069625
O O11 0.500000 0.922669 0.812458
O O12 0.282859 0.889805 0.769298
#
# Coordination Sequence:
#
# PCOD9352442 Si02
#       5
#     8   8   8   8   8
#     4  11  24  41  62  91 130 170 214 267 319 380
#     4  10  21  41  66  98 132 168 214 266 321 384
#     4  11  24  43  65  95 131 170 214 265 321 385
#     4  10  21  38  66  98 130 167 217 270 319 379
#     4  12  22  43  65  94 126 173 218 264 321 382
#
# _framework density 19.704647000000001
#
# number of rings (size 3 to 8) (size 9 to 14) (size 15 to 20)
#    0.000    1.200    4.000    2.400    0.000    3.200 
#    0.000    5.000    0.000    0.000    0.000    0.000 
#    0.000    0.000    0.000    0.000    0.000    0.000 
#
# Total GULP energy -111586.667531 kJ/mol
# GULP energy per Si atom -5579.333377 kJ/mol
# Density = 1.965980 g / cm^3
# Si number density = 19.704647 Si / 1000 Ang^3
#
#
#
# Elastic Constant Matrix: (Units=GPa)
#
#
# Indices 1 2 3 4 5 6 
#
# 1 82.0883 40.2261 21.9975 0.0000 0.0000 0.0000
# 2 40.2261 56.6117 12.5188 0.0000 0.0000 0.0000
# 3 21.9975 12.5188 93.6474 0.0000 0.0000 0.0000
# 4 0.0000 0.0000 0.0000 30.1371 0.0000 0.0000
# 5 0.0000 0.0000 0.0000 0.0000 23.0599 0.0000
# 6 0.0000 0.0000 0.0000 0.0000 0.0000 14.8546
#
#
#
# Elastic Compliance Matrix: (Units=1/GPa)
#
#
# Indices 1 2 3 4 5 6 
#
# 1 0.019374 -0.013149 -0.002793 0.000000 0.000000 0.000000
# 2 -0.013149 0.027126 -0.000538 0.000000 0.000000 0.000000
# 3 -0.002793 -0.000538 0.011406 0.000000 0.000000 0.000000
# 4 0.000000 0.000000 0.000000 0.033182 0.000000 0.000000
# 5 0.000000 0.000000 0.000000 0.000000 0.043365 0.000000
# 6 0.000000 0.000000 0.000000 0.000000 0.000000 0.067319
#
#
# Mechanical properties :
#
#
# Convention : Reuss Voigt Hill
#
# Bulk Modulus (GPa) = 40.08449 42.42581 41.25515
# Shear Modulus (GPa) = 20.57217 24.11732 22.34474
#
# Velocity S-wave (km/s) = 3.23464 3.50228 3.37112
# Velocity P-wave (km/s) = 5.85981 6.15892 6.01122
#
# Compressibility (1/GPa) = 0.02494731
#
# Stress axis : x y z
#
# Youngs Moduli (GPa) = 51.61624 36.86509 87.67071
#
# Poissons Ratio (x) = 0.48472 0.24488
# Poissons Ratio (y) = 0.67868 0.04714
# Poissons Ratio (z) = 0.14417 0.01982
#
# Static dielectric constant tensor:
#      x y z
#    x 1.694530 0.000000 0.000000 
#    y 0.000000 1.681420 0.000000 
#    z 0.000000 0.000000 1.694960 
# 
# From -- ./inp_files/2416.got.cif
#   From: 2010.05.17/outbox.cif.g08.bks.cpg/sg36_2_cif.got.tgz:2416.got - 2010.06.03 17:41:39.
