data_PCOD9352826
_publ_section_title
;
Structure prediction by ZEFSAII (Michael W. Deem and Ramdas Pophale) SiO2 
 PCOD9352826
Probable space group: C M C 21
;
_chemical_formula_sum "Si O2"
_cell_formula_units_Z 48
_cell_length_a 8.814430
_cell_length_b 24.163693
_cell_length_c 12.129210
_cell_angle_alpha 90.000000
_cell_angle_beta 90.000000
_cell_angle_gamma 90.000000
_cell_volume 2583.390498
_symmetry_space_group_name_H-M "C M C 21"
_symmetry_group_IT_number 36
_symmetry_cell_setting 'orthorhombic'
loop_
_space_group_symop_operation_xyz
x,y,z
-x,-y,1/2+z
x,-y,1/2+z
-x,y,z
1/2+x,1/2+y,z
1/2-x,1/2-y,1/2+z
1/2+x,1/2-y,1/2+z
1/2-x,1/2+y,z
loop_
_atom_site_type_symbol
_atom_site_label
_atom_site_fract_x
_atom_site_fract_y
_atom_site_fract_z
Si Si1 0.180137 0.581354 0.627700
Si Si2 0.680984 0.612480 0.394186
Si Si3 0.181704 0.671282 0.815513
Si Si4 0.818770 0.710240 0.254648
Si Si5 0.818411 0.855839 0.552316
Si Si6 0.680400 0.534937 0.190110
O O1 0.265510 0.597105 0.515524
O O2 0.216939 0.625458 0.723064
O O3 0.229491 0.520540 0.666374
O O4 0.000000 0.583020 0.608013
O O5 0.500000 0.621591 0.390005
O O6 0.763392 0.666843 0.347487
O O7 0.715427 0.562900 0.308100
O O8 0.252409 0.729727 0.780648
O O9 0.249527 0.653093 0.932526
O O10 0.000000 0.676459 0.824037
O O11 0.000000 0.711733 0.250839
O O12 0.752987 0.686782 0.139831
O O13 0.787412 0.917173 0.600338
O O14 0.000000 0.848432 0.550617
O O15 0.500000 0.523219 0.186645
#
# Coordination Sequence:
#
# PCOD9352826 Si02
#       6
#     8   8   8   8   8   8
#     4  11  25  40  61  93 127 162 205 257 306 361
#     4  10  22  42  66  91 123 164 207 253 307 369
#     4  11  25  42  61  91 127 164 207 256 307 366
#     4  11  23  41  66  93 123 163 205 254 311 369
#     4  10  22  42  66  92 123 163 207 255 309 369
#     4   9  21  41  64  90 121 162 205 251 308 368
#
# _framework density 18.580233
#
# number of rings (size 3 to 8) (size 9 to 14) (size 15 to 20)
#    0.000    1.667    0.000    4.500    4.667    6.667 
#    0.000    0.000    0.000    0.000    0.000    0.000 
#    0.000    0.000    0.000    0.000    0.000    0.000 
#
# Total GULP energy -134190.976636 kJ/mol
# GULP energy per Si atom -5591.290693 kJ/mol
# Density = 1.853794 g / cm^3
# Si number density = 18.580233 Si / 1000 Ang^3
#
#
#
# Elastic Constant Matrix: (Units=GPa)
#
#
# Indices 1 2 3 4 5 6 
#
# 1 105.5752 84.1895 85.8060 0.0000 0.0000 0.0000
# 2 84.1895 137.8871 95.8455 0.0000 0.0000 0.0000
# 3 85.8060 95.8455 157.4719 0.0000 0.0000 0.0000
# 4 0.0000 0.0000 0.0000 9.1450 0.0000 0.0000
# 5 0.0000 0.0000 0.0000 0.0000 37.0687 0.0000
# 6 0.0000 0.0000 0.0000 0.0000 0.0000 33.1790
#
#
#
# Elastic Compliance Matrix: (Units=1/GPa)
#
#
# Indices 1 2 3 4 5 6 
#
# 1 0.021750 -0.008739 -0.006532 0.000000 0.000000 0.000000
# 2 -0.008739 0.016082 -0.005026 0.000000 0.000000 0.000000
# 3 -0.006532 -0.005026 0.012969 0.000000 0.000000 0.000000
# 4 0.000000 0.000000 0.000000 0.109349 0.000000 0.000000
# 5 0.000000 0.000000 0.000000 0.000000 0.026977 0.000000
# 6 0.000000 0.000000 0.000000 0.000000 0.000000 0.030140
#
#
# Mechanical properties :
#
#
# Convention : Reuss Voigt Hill
#
# Bulk Modulus (GPa) = 97.98889 103.62403 100.80646
# Shear Modulus (GPa) = 19.13767 24.88476 22.01121
#
# Velocity S-wave (km/s) = 3.21285 3.66363 3.44562
# Velocity P-wave (km/s) = 8.16186 8.59002 8.37867
#
# Compressibility (1/GPa) = 0.01020524
#
# Stress axis : x y z
#
# Youngs Moduli (GPa) = 45.97676 62.18111 77.10602
#
# Poissons Ratio (x) = 0.54342 0.50369
# Poissons Ratio (y) = 0.40180 0.38756
# Poissons Ratio (z) = 0.30034 0.31255
#
# Static dielectric constant tensor:
#      x y z
#    x 1.619750 0.000000 0.000000 
#    y 0.000000 1.608550 0.000000 
#    z 0.000000 0.000000 1.614380 
# 
# From -- ./inp_files/6740.got.cif
#   From: 2010.05.17/outbox.cif.g08.bks.cpg/sg36_4_cif.got.tgz:6740.got - 2010.06.03 17:41:39.
