data_PCOD9352044
_publ_section_title
;
Structure prediction by ZEFSAII (Michael W. Deem and Ramdas Pophale) SiO2 
 PCOD9352044
Probable space group: C M C 21
;
_chemical_formula_sum "Si O2"
_cell_formula_units_Z 64
_cell_length_a 7.778642
_cell_length_b 19.680459
_cell_length_c 16.969125
_cell_angle_alpha 90.000000
_cell_angle_beta 90.000000
_cell_angle_gamma 90.000000
_cell_volume 2597.756596
_symmetry_space_group_name_H-M "C M C 21"
_symmetry_group_IT_number 36
_symmetry_cell_setting 'orthorhombic'
loop_
_space_group_symop_operation_xyz
x,y,z
-x,-y,1/2+z
x,-y,1/2+z
-x,y,z
1/2+x,1/2+y,z
1/2-x,1/2-y,1/2+z
1/2+x,1/2-y,1/2+z
1/2-x,1/2+y,z
loop_
_atom_site_type_symbol
_atom_site_label
_atom_site_fract_x
_atom_site_fract_y
_atom_site_fract_z
Si Si1 0.707711 0.950282 0.529430
Si Si2 0.796315 0.906371 0.271759
Si Si3 0.704857 0.336784 0.799551
Si Si4 0.211808 0.161601 0.609974
Si Si5 0.204234 0.916622 0.953353
Si Si6 0.300300 0.707240 0.878261
Si Si7 0.303398 0.797744 0.543714
Si Si8 0.796461 0.459034 0.702569
O O1 0.500000 0.949034 0.526967
O O2 0.772327 0.872626 0.530128
O O3 0.764521 0.003161 0.463567
O O4 0.767405 0.977259 0.615235
O O5 0.729448 0.873511 0.190382
O O6 0.727482 0.863872 0.345524
O O7 0.770958 0.986481 0.265025
O O8 0.000000 0.893646 0.274021
O O9 0.500000 0.329856 0.803425
O O10 0.771561 0.381093 0.874447
O O11 0.784035 0.262616 0.809094
O O12 0.748789 0.382304 0.724386
O O13 0.270120 0.119905 0.532822
O O14 0.271384 0.239571 0.599337
O O15 0.000000 0.161744 0.609646
O O16 0.000000 0.907055 0.951581
O O17 0.500000 0.702043 0.900576
O O18 0.200279 0.732503 0.955021
O O19 0.500000 0.808296 0.569514
O O20 0.000000 0.464457 0.702227
#
# Coordination Sequence:
#
# PCOD9352044 Si02
#       8
#     8   8   8   8   8   8   8   8
#     4  10  23  39  61  91 124 157 197 252 305 355
#     4  10  22  40  63  87 118 161 203 245 301 361
#     4  11  24  42  63  88 122 163 204 247 305 370
#     4   9  17  36  64  85 107 152 203 243 288 353
#     4  10  20  38  64  86 112 154 202 245 293 359
#     4  11  24  40  61  91 123 156 201 253 301 359
#     4  10  21  40  63  86 119 161 201 243 300 361
#     4  11  24  41  61  90 125 160 203 252 301 356
#
# _framework density 24.636642999999999
#
# number of rings (size 3 to 8) (size 9 to 14) (size 15 to 20)
#    0.000    1.750    2.500    1.125    3.500    3.000 
#    0.000    0.625    0.000    0.000    0.000    0.000 
#    0.000    0.000    0.000    0.000    0.000    0.000 
#
# Total GULP energy -178961.900347 kJ/mol
# GULP energy per Si atom -5592.559386 kJ/mol
# Density = 2.458057 g / cm^3
# Si number density = 24.636643 Si / 1000 Ang^3
#
#
#
# Elastic Constant Matrix: (Units=GPa)
#
#
# Indices 1 2 3 4 5 6 
#
# 1 43.7113 -13.1914 1.3721 0.0000 0.0000 0.0000
# 2 -13.1914 108.7285 -7.1808 0.0000 0.0000 0.0000
# 3 1.3721 -7.1808 43.2600 0.0000 0.0000 0.0000
# 4 0.0000 0.0000 0.0000 45.8038 0.0000 0.0000
# 5 0.0000 0.0000 0.0000 0.0000 12.8885 0.0000
# 6 0.0000 0.0000 0.0000 0.0000 0.0000 25.2583
#
#
#
# Elastic Compliance Matrix: (Units=1/GPa)
#
#
# Indices 1 2 3 4 5 6 
#
# 1 0.023750 0.002863 -0.000278 0.000000 0.000000 0.000000
# 2 0.002863 0.009644 0.001510 0.000000 0.000000 0.000000
# 3 -0.000278 0.001510 0.023376 0.000000 0.000000 0.000000
# 4 0.000000 0.000000 0.000000 0.021832 0.000000 0.000000
# 5 0.000000 0.000000 0.000000 0.000000 0.077588 0.000000
# 6 0.000000 0.000000 0.000000 0.000000 0.000000 0.039591
#
#
# Mechanical properties :
#
#
# Convention : Reuss Voigt Hill
#
# Bulk Modulus (GPa) = 15.39404 17.52219 16.45812
# Shear Modulus (GPa) = 23.89547 31.10345 27.49946
#
# Velocity S-wave (km/s) = 3.11773 3.55700 3.34458
# Velocity P-wave (km/s) = 4.38432 4.89871 4.64864
#
# Compressibility (1/GPa) = 0.06496019
#
# Stress axis : x y z
#
# Youngs Moduli (GPa) = 42.10500 103.68810 42.77983
#
# Poissons Ratio (x) = -0.29687 0.01189
# Poissons Ratio (y) = -0.12055 -0.06460
# Poissons Ratio (z) = 0.01171 -0.15658
#
# Static dielectric constant tensor:
#      x y z
#    x 1.892340 0.000000 0.000000 
#    y 0.000000 1.983590 0.000000 
#    z 0.000000 0.000000 1.988380 
# 
# From -- ./inp_files/13875.got.cif
#   From: 2010.05.17/outbox.cif.g08.bks.cpg/sg36_7_cif.got.tgz:13875.got - 2010.06.03 17:41:39.
