data_PCOD9352767
_publ_section_title
;
Structure prediction by ZEFSAII (Michael W. Deem and Ramdas Pophale) SiO2 
 PCOD9352767
Probable space group: C M C 21
;
_chemical_formula_sum "Si O2"
_cell_formula_units_Z 40
_cell_length_a 9.617756
_cell_length_b 14.409239
_cell_length_c 14.761395
_cell_angle_alpha 90.000000
_cell_angle_beta 90.000000
_cell_angle_gamma 90.000000
_cell_volume 2045.701207
_symmetry_space_group_name_H-M "C M C 21"
_symmetry_group_IT_number 36
_symmetry_cell_setting 'orthorhombic'
loop_
_space_group_symop_operation_xyz
x,y,z
-x,-y,1/2+z
x,-y,1/2+z
-x,y,z
1/2+x,1/2+y,z
1/2-x,1/2-y,1/2+z
1/2+x,1/2-y,1/2+z
1/2-x,1/2+y,z
loop_
_atom_site_type_symbol
_atom_site_label
_atom_site_fract_x
_atom_site_fract_y
_atom_site_fract_z
Si Si1 0.701794 0.096308 0.439940
Si Si2 0.245606 0.835519 0.747366
Si Si3 0.000000 0.090860 0.518344
Si Si4 0.000000 0.702051 0.567214
Si Si5 0.500000 0.588960 0.141336
Si Si6 0.000000 0.714807 0.116842
Si Si7 0.000000 0.310893 0.269375
Si Si8 0.000000 0.571706 0.950449
O O1 0.680393 0.125917 0.336518
O O2 0.630920 0.169368 0.508313
O O3 0.864102 0.094193 0.457356
O O4 0.630990 0.997431 0.458789
O O5 0.362179 0.804794 0.676040
O O6 0.139455 0.908905 0.701908
O O7 0.139173 0.752506 0.774507
O O8 0.000000 0.179573 0.583672
O O9 0.000000 0.997037 0.575477
O O10 0.000000 0.811384 0.589247
O O11 0.000000 0.652459 0.665706
O O12 0.000000 0.648490 0.028679
O O13 0.000000 0.381776 0.351618
#
# Coordination Sequence:
#
# PCOD9352767 Si02
#       8
#     8   8   4   4   4   4   4   4
#     4  11  23  39  62  92 122 159 203 249 298 362
#     4  10  22  41  62  87 122 160 201 250 302 359
#     4  12  23  38  62  93 120 156 206 256 301 349
#     4   9  21  43  62  82 119 164 198 241 303 367
#     4  10  22  41  61  86 122 162 199 252 307 357
#     4  12  23  40  63  90 122 161 201 248 303 360
#     4  10  22  41  63  86 119 163 201 248 304 357
#     4  11  25  41  63  89 124 166 201 241 302 372
#
# _framework density 19.553196
#
# number of rings (size 3 to 8) (size 9 to 14) (size 15 to 20)
#    0.000    1.600    0.000    7.200    0.000    8.000 
#    0.000    3.000    0.000    0.000    0.000    0.000 
#    0.000    0.000    0.000    0.000    0.000    0.000 
#
# Total GULP energy -111773.551100 kJ/mol
# GULP energy per Si atom -5588.677555 kJ/mol
# Density = 1.950869 g / cm^3
# Si number density = 19.553196 Si / 1000 Ang^3
#
#
#
# Elastic Constant Matrix: (Units=GPa)
#
#
# Indices 1 2 3 4 5 6 
#
# 1 124.1422 25.8390 32.5072 0.0000 0.0000 0.0000
# 2 25.8390 84.9264 68.4305 0.0000 0.0000 0.0000
# 3 32.5072 68.4305 129.9661 0.0000 0.0000 0.0000
# 4 0.0000 0.0000 0.0000 36.7519 0.0000 0.0000
# 5 0.0000 0.0000 0.0000 0.0000 -25.6075 0.0000
# 6 0.0000 0.0000 0.0000 0.0000 0.0000 -34.0330
#
#
#
# Elastic Compliance Matrix: (Units=1/GPa)
#
#
# Indices 1 2 3 4 5 6 
#
# 1 0.008737 -0.001559 -0.001365 0.000000 0.000000 0.000000
# 2 -0.001559 0.020730 -0.010525 0.000000 0.000000 0.000000
# 3 -0.001365 -0.010525 0.013577 0.000000 0.000000 0.000000
# 4 0.000000 0.000000 0.000000 0.027209 0.000000 0.000000
# 5 0.000000 0.000000 0.000000 0.000000 -0.039051 0.000000
# 6 0.000000 0.000000 0.000000 0.000000 0.000000 -0.029383
#
#
# Mechanical properties :
#
#
# Convention : Reuss Voigt Hill
#
# Bulk Modulus (GPa) = 61.92863 65.84313 63.88588
# Shear Modulus (GPa) = 146.63662 9.57283 78.10472
#
# Velocity S-wave (km/s) = 8.66928 2.21504 6.32704
# Velocity P-wave (km/s) = 11.48692 6.34735 9.28004
#
# Compressibility (1/GPa) = 0.01614762
#
# Stress axis : x y z
#
# Youngs Moduli (GPa) = 114.45531 48.24005 73.65268
#
# Poissons Ratio (x) = 0.07519 0.10051
# Poissons Ratio (y) = 0.17840 0.77518
# Poissons Ratio (z) = 0.15619 0.50772
#
# Static dielectric constant tensor:
#      x y z
#    x 1.694510 0.000000 0.000000 
#    y 0.000000 1.662990 0.000000 
#    z 0.000000 0.000000 1.667940 
# 
# From -- ./inp_files/10166.got.cif
#   From: 2010.05.17/outbox.cif.g08.bks.cpg/sg36_6_cif.got.tgz:10166.got - 2010.06.03 17:41:39.
