data_PCOD9352320
_publ_section_title
;
Structure prediction by ZEFSAII (Michael W. Deem and Ramdas Pophale) SiO2 
 PCOD9352320
Probable space group: C M C 21
;
_chemical_formula_sum "Si O2"
_cell_formula_units_Z 64
_cell_length_a 8.752515
_cell_length_b 15.656934
_cell_length_c 24.610983
_cell_angle_alpha 90.000000
_cell_angle_beta 90.000000
_cell_angle_gamma 90.000000
_cell_volume 3372.628806
_symmetry_space_group_name_H-M "C M C 21"
_symmetry_group_IT_number 36
_symmetry_cell_setting 'orthorhombic'
loop_
_space_group_symop_operation_xyz
x,y,z
-x,-y,1/2+z
x,-y,1/2+z
-x,y,z
1/2+x,1/2+y,z
1/2-x,1/2-y,1/2+z
1/2+x,1/2-y,1/2+z
1/2-x,1/2+y,z
loop_
_atom_site_type_symbol
_atom_site_label
_atom_site_fract_x
_atom_site_fract_y
_atom_site_fract_z
Si Si1 0.816540 0.889174 0.106880
Si Si2 0.321084 0.031876 0.919545
Si Si3 0.679245 0.236701 0.914012
Si Si4 0.315582 0.296778 0.795231
Si Si5 0.315207 0.867289 0.226596
Si Si6 0.816667 0.953336 0.534729
Si Si7 0.817358 0.756510 0.529710
Si Si8 0.315610 0.974964 0.802842
O O1 0.753527 0.879026 0.167336
O O2 0.757876 0.811518 0.069653
O O3 0.000000 0.888497 0.107524
O O4 0.764702 0.978878 0.079718
O O5 0.500000 0.011002 0.926776
O O6 0.310803 0.133824 0.909139
O O7 0.262089 0.986676 0.865191
O O8 0.235212 0.014480 0.975455
O O9 0.500000 0.257951 0.921885
O O10 0.733031 0.275473 0.857074
O O11 0.771231 0.262909 0.967442
O O12 0.500000 0.299257 0.795347
O O13 0.268192 0.221117 0.755061
O O14 0.248634 0.387611 0.779422
O O15 0.500000 0.867354 0.222859
O O16 0.269997 0.944490 0.266459
O O17 0.764537 0.854700 0.541114
O O18 0.000000 0.950980 0.535698
O O19 0.000000 0.753205 0.535485
O O20 0.500000 0.973351 0.804325
#
# Coordination Sequence:
#
# PCOD9352320 Si02
#       8
#     8   8   8   8   8   8   8   8
#     4  11  24  41  61  85 115 153 197 243 288 342
#     4   9  17  33  58  85 117 152 188 232 283 340
#     4   9  17  34  58  84 118 156 189 231 287 345
#     4  10  21  37  59  85 115 154 193 233 289 346
#     4  10  22  43  62  80 115 158 197 237 286 344
#     4   9  21  39  57  82 117 152 188 235 288 342
#     4  10  21  38  59  86 117 153 192 236 288 343
#     4  10  21  37  58  87 118 150 192 241 287 340
#
# _framework density 18.976293999999999
#
# number of rings (size 3 to 8) (size 9 to 14) (size 15 to 20)
#    0.000    2.250    1.250    0.750    1.750    4.500 
#    0.000    3.750    0.000    0.000    0.000    0.000 
#    0.000    0.000    0.000    0.000    0.000    0.000 
#
# Total GULP energy -178667.496155 kJ/mol
# GULP energy per Si atom -5583.359255 kJ/mol
# Density = 1.893310 g / cm^3
# Si number density = 18.976294 Si / 1000 Ang^3
#
#
#
# Elastic Constant Matrix: (Units=GPa)
#
#
# Indices 1 2 3 4 5 6 
#
# 1 5.3295 -5.9551 -8.1927 0.0000 0.0000 0.0000
# 2 -5.9551 -7.3775 -55.7249 0.0000 0.0000 0.0000
# 3 -8.1927 -55.7249 -5.5944 0.0000 0.0000 0.0000
# 4 0.0000 0.0000 0.0000 13.9321 0.0000 0.0000
# 5 0.0000 0.0000 0.0000 0.0000 32.7463 0.0000
# 6 0.0000 0.0000 0.0000 0.0000 0.0000 26.5821
#
#
#
# Elastic Compliance Matrix: (Units=1/GPa)
#
#
# Indices 1 2 3 4 5 6 
#
# 1 0.145395 -0.020083 -0.012879 0.000000 0.000000 0.000000
# 2 -0.020083 0.004600 -0.016408 0.000000 0.000000 0.000000
# 3 -0.012879 -0.016408 0.003549 0.000000 0.000000 0.000000
# 4 0.000000 0.000000 0.000000 0.071777 0.000000 0.000000
# 5 0.000000 0.000000 0.000000 0.000000 0.030538 0.000000
# 6 0.000000 0.000000 0.000000 0.000000 0.000000 0.037619
#
#
# Mechanical properties :
#
#
# Convention : Reuss Voigt Hill
#
# Bulk Modulus (GPa) = 18.24707 -16.37643 0.93532
# Shear Modulus (GPa) = 12.18069 18.80078 15.49074
#
# Velocity S-wave (km/s) = 2.53630 3.15103 2.86023
# Velocity P-wave (km/s) = 4.26775 2.14243 3.37666
#
# Compressibility (1/GPa) = 0.05480333
#
# Stress axis : x y z
#
# Youngs Moduli (GPa) = 6.87781 217.39715 281.79983
#
# Poissons Ratio (x) = 4.36600 3.62931
# Poissons Ratio (y) = 0.13813 4.62379
# Poissons Ratio (z) = 0.08858 3.56707
#
# Static dielectric constant tensor:
#      x y z
#    x 1.644940 0.000000 0.000000 
#    y 0.000000 1.669710 0.000000 
#    z 0.000000 0.000000 1.631630 
# 
# From -- ./inp_files/16570.got.cif
#   From: 2010.05.17/outbox.cif.g08.bks.cpg/sg36_9_cif.got.tgz:16570.got - 2010.06.03 17:41:39.
