data_PCOD9352101
_publ_section_title
;
Structure prediction by ZEFSAII (Michael W. Deem and Ramdas Pophale) SiO2 
 PCOD9352101
Probable space group: C M C 21
;
_chemical_formula_sum "Si O2"
_cell_formula_units_Z 64
_cell_length_a 15.087309
_cell_length_b 11.590062
_cell_length_c 14.886360
_cell_angle_alpha 90.000000
_cell_angle_beta 90.000000
_cell_angle_gamma 90.000000
_cell_volume 2603.071287
_symmetry_space_group_name_H-M "C M C 21"
_symmetry_group_IT_number 36
_symmetry_cell_setting 'orthorhombic'
loop_
_space_group_symop_operation_xyz
x,y,z
-x,-y,1/2+z
x,-y,1/2+z
-x,y,z
1/2+x,1/2+y,z
1/2-x,1/2-y,1/2+z
1/2+x,1/2-y,1/2+z
1/2-x,1/2+y,z
loop_
_atom_site_type_symbol
_atom_site_label
_atom_site_fract_x
_atom_site_fract_y
_atom_site_fract_z
Si Si1 0.213648 0.331256 0.200940
Si Si2 0.398708 0.139354 0.424476
Si Si3 0.654315 0.032486 0.074729
Si Si4 0.595839 0.250713 0.148398
Si Si5 0.748835 0.992597 0.829531
Si Si6 0.902555 0.094542 0.473812
Si Si7 0.827236 0.879651 0.500896
Si Si8 0.896115 0.865651 0.768062
O O1 0.196767 0.421902 0.122431
O O2 0.314234 0.286525 0.198441
O O3 0.195665 0.399606 0.292656
O O4 0.139773 0.232511 0.201771
O O5 0.500000 0.151332 0.392230
O O6 0.320375 0.106955 0.354926
O O7 0.369592 0.259037 0.473640
O O8 0.393304 0.028045 0.490809
O O9 0.596644 0.111749 0.138763
O O10 0.732699 0.121248 0.047514
O O11 0.500000 0.287436 0.187526
O O12 0.599941 0.303681 0.047393
O O13 0.822191 0.964109 0.754761
O O14 0.805488 0.038906 0.913532
O O15 0.873480 0.154293 0.376151
O O16 0.000000 0.059203 0.442552
O O17 0.884234 0.982807 0.541460
O O18 0.000000 0.885368 0.755135
#
# Coordination Sequence:
#
# PCOD9352101 Si02
#       8
#     8   8   8   8   8   8   8   8
#     4  12  24  44  65 101 136 182 228 284 355 414
#     4  11  24  42  67 102 140 184 228 282 349 424
#     4  11  24  40  65  98 141 181 229 286 344 414
#     4  11  24  43  68  98 137 184 230 283 346 419
#     4  10  24  41  65  97 135 177 226 281 346 413
#     4   9  19  39  68 101 128 173 235 287 338 408
#     4  10  20  39  67  97 134 177 230 283 343 408
#     4  10  23  42  68  96 131 176 227 282 340 408
#
# _framework density 24.586341000000001
#
# number of rings (size 3 to 8) (size 9 to 14) (size 15 to 20)
#    0.000    1.500    1.250    3.000    7.000    2.500 
#    0.000    4.375    0.000    0.000    0.000    0.000 
#    0.000    0.000    0.000    0.000    0.000    0.000 
#
# Total GULP energy -178143.063323 kJ/mol
# GULP energy per Si atom -5566.970729 kJ/mol
# Density = 2.453038 g / cm^3
# Si number density = 24.586341 Si / 1000 Ang^3
#
#
#
# Elastic Constant Matrix: (Units=GPa)
#
#
# Indices 1 2 3 4 5 6 
#
# 1 178.0121 54.8961 16.3529 0.0000 0.0000 0.0000
# 2 54.8961 113.6225 6.7067 0.0000 0.0000 0.0000
# 3 16.3529 6.7067 54.3983 0.0000 0.0000 0.0000
# 4 0.0000 0.0000 0.0000 47.4380 0.0000 0.0000
# 5 0.0000 0.0000 0.0000 0.0000 28.2486 0.0000
# 6 0.0000 0.0000 0.0000 0.0000 0.0000 24.4491
#
#
#
# Elastic Compliance Matrix: (Units=1/GPa)
#
#
# Indices 1 2 3 4 5 6 
#
# 1 0.006743 -0.003161 -0.001637 0.000000 0.000000 0.000000
# 2 -0.003161 0.010348 -0.000325 0.000000 0.000000 0.000000
# 3 -0.001637 -0.000325 0.018915 0.000000 0.000000 0.000000
# 4 0.000000 0.000000 0.000000 0.021080 0.000000 0.000000
# 5 0.000000 0.000000 0.000000 0.000000 0.035400 0.000000
# 6 0.000000 0.000000 0.000000 0.000000 0.000000 0.040901
#
#
# Mechanical properties :
#
#
# Convention : Reuss Voigt Hill
#
# Bulk Modulus (GPa) = 38.82297 55.77157 47.29727
# Shear Modulus (GPa) = 32.84703 37.89895 35.37299
#
# Velocity S-wave (km/s) = 3.65908 3.93041 3.79717
# Velocity P-wave (km/s) = 5.80315 6.58260 6.20513
#
# Compressibility (1/GPa) = 0.02575795
#
# Stress axis : x y z
#
# Youngs Moduli (GPa) = 148.30545 96.64109 52.86744
#
# Poissons Ratio (x) = 0.30549 0.08656
# Poissons Ratio (y) = 0.46881 0.01721
# Poissons Ratio (z) = 0.24281 0.03145
#
# Static dielectric constant tensor:
#      x y z
#    x 1.892080 0.000000 0.000000 
#    y 0.000000 1.846700 0.000000 
#    z 0.000000 0.000000 1.968210 
# 
# From -- ./inp_files/14737.got.cif
#   From: 2010.05.17/outbox.cif.g08.bks.cpg/sg36_8_cif.got.tgz:14737.got - 2010.06.03 17:41:39.
