data_PCOD9352759
_publ_section_title
;
Structure prediction by ZEFSAII (Michael W. Deem and Ramdas Pophale) SiO2 
 PCOD9352759
Probable space group: C M C 21
;
_chemical_formula_sum "Si O2"
_cell_formula_units_Z 64
_cell_length_a 15.289975
_cell_length_b 18.626693
_cell_length_c 11.299467
_cell_angle_alpha 90.000000
_cell_angle_beta 90.000000
_cell_angle_gamma 90.000000
_cell_volume 3218.107075
_symmetry_space_group_name_H-M "C M C 21"
_symmetry_group_IT_number 36
_symmetry_cell_setting 'orthorhombic'
loop_
_space_group_symop_operation_xyz
x,y,z
-x,-y,1/2+z
x,-y,1/2+z
-x,y,z
1/2+x,1/2+y,z
1/2-x,1/2-y,1/2+z
1/2+x,1/2-y,1/2+z
1/2-x,1/2+y,z
loop_
_atom_site_type_symbol
_atom_site_label
_atom_site_fract_x
_atom_site_fract_y
_atom_site_fract_z
Si Si1 0.840640 0.798802 0.775140
Si Si2 0.809068 0.584836 0.306950
Si Si3 0.242839 0.657017 0.671187
Si Si4 0.751703 0.434349 0.396144
Si Si5 0.601280 0.659184 0.016302
Si Si6 0.099832 0.321755 0.983698
Si Si7 0.102182 0.390024 0.569011
Si Si8 0.096563 0.778576 0.036784
O O1 0.769990 0.859693 0.798726
O O2 0.787716 0.727281 0.742545
O O3 0.891232 0.824489 0.657032
O O4 0.893866 0.783108 0.894506
O O5 0.770185 0.518408 0.379949
O O6 0.886738 0.627599 0.372056
O O7 0.847529 0.570533 0.176335
O O8 0.260224 0.595343 0.764196
O O9 0.163029 0.645212 0.581962
O O10 0.327701 0.675363 0.595306
O O11 0.671124 0.400513 0.472595
O O12 0.841464 0.405335 0.452616
O O13 0.500000 0.641797 0.987019
O O14 0.624804 0.737952 0.960992
O O15 0.000000 0.320059 0.023880
O O16 0.106806 0.303458 0.581427
O O17 0.000000 0.410027 0.561375
O O18 0.000000 0.803513 0.071059
#
# Coordination Sequence:
#
# PCOD9352759 Si02
#       8
#     8   8   8   8   8   8   8   8
#     4  11  20  41  69  92 125 169 219 278 326 389
#     4  12  24  40  66  90 130 176 221 258 333 390
#     4  11  22  39  64  94 131 169 212 271 331 392
#     4  12  26  42  64  94 135 181 212 265 330 401
#     4  10  22  43  71  97 127 168 220 277 332 388
#     4  10  22  40  68  99 126 165 221 275 325 390
#     4  11  24  42  63  95 133 173 218 273 332 391
#     4  11  22  39  69 101 127 165 221 283 335 387
#
# _framework density 19.887467999999998
#
# number of rings (size 3 to 8) (size 9 to 14) (size 15 to 20)
#    0.000    1.000    5.000    2.250    1.750    2.500 
#    0.000    1.250    0.000    0.000    0.000    0.000 
#    0.000    0.000    0.000    0.000    0.000    0.000 
#
# Total GULP energy -178667.322813 kJ/mol
# GULP energy per Si atom -5583.353838 kJ/mol
# Density = 1.984220 g / cm^3
# Si number density = 19.887468 Si / 1000 Ang^3
#
#
#
# Elastic Constant Matrix: (Units=GPa)
#
#
# Indices 1 2 3 4 5 6 
#
# 1 85.7189 17.9994 22.2810 0.0000 0.0000 0.0000
# 2 17.9994 45.3817 14.2057 0.0000 0.0000 0.0000
# 3 22.2810 14.2057 57.4510 0.0000 0.0000 0.0000
# 4 0.0000 0.0000 0.0000 6.5192 0.0000 0.0000
# 5 0.0000 0.0000 0.0000 0.0000 -7.8410 0.0000
# 6 0.0000 0.0000 0.0000 0.0000 0.0000 16.1659
#
#
#
# Elastic Compliance Matrix: (Units=1/GPa)
#
#
# Indices 1 2 3 4 5 6 
#
# 1 0.013633 -0.004067 -0.004282 0.000000 0.000000 0.000000
# 2 -0.004067 0.025097 -0.004628 0.000000 0.000000 0.000000
# 3 -0.004282 -0.004628 0.020211 0.000000 0.000000 0.000000
# 4 0.000000 0.000000 0.000000 0.153392 0.000000 0.000000
# 5 0.000000 0.000000 0.000000 0.000000 -0.127535 0.000000
# 6 0.000000 0.000000 0.000000 0.000000 0.000000 0.061859
#
#
# Mechanical properties :
#
#
# Convention : Reuss Voigt Hill
#
# Bulk Modulus (GPa) = 30.31462 33.05818 31.68640
# Shear Modulus (GPa) = 27.23213 11.90653 19.56933
#
# Velocity S-wave (km/s) = 3.70443 2.44948 3.14029
# Velocity P-wave (km/s) = 5.79425 4.96575 5.39592
#
# Compressibility (1/GPa) = 0.03298738
#
# Stress axis : x y z
#
# Youngs Moduli (GPa) = 73.35179 39.84512 49.47770
#
# Poissons Ratio (x) = 0.16204 0.21184
# Poissons Ratio (y) = 0.29831 0.22901
# Poissons Ratio (z) = 0.31406 0.18442
#
# Static dielectric constant tensor:
#      x y z
#    x 1.683260 0.000000 0.000000 
#    y 0.000000 1.776760 0.000000 
#    z 0.000000 0.000000 1.747580 
# 
# From -- ./inp_files/8625.got.cif
#   From: 2010.05.17/outbox.cif.g08.bks.cpg/sg36_5_cif.got.tgz:8625.got - 2010.06.03 17:41:39.
