data_PCOD9352321
_publ_section_title
;
Structure prediction by ZEFSAII (Michael W. Deem and Ramdas Pophale) SiO2 
 PCOD9352321
Probable space group: C M C 21
;
_chemical_formula_sum "Si O2"
_cell_formula_units_Z 48
_cell_length_a 9.148760
_cell_length_b 20.567097
_cell_length_c 14.282694
_cell_angle_alpha 90.000000
_cell_angle_beta 90.000000
_cell_angle_gamma 90.000000
_cell_volume 2687.480755
_symmetry_space_group_name_H-M "C M C 21"
_symmetry_group_IT_number 36
_symmetry_cell_setting 'orthorhombic'
loop_
_space_group_symop_operation_xyz
x,y,z
-x,-y,1/2+z
x,-y,1/2+z
-x,y,z
1/2+x,1/2+y,z
1/2-x,1/2-y,1/2+z
1/2+x,1/2-y,1/2+z
1/2-x,1/2+y,z
loop_
_atom_site_type_symbol
_atom_site_label
_atom_site_fract_x
_atom_site_fract_y
_atom_site_fract_z
Si Si1 0.675839 0.319491 0.137210
Si Si2 0.324358 0.183884 0.237647
Si Si3 0.330251 0.066153 0.751356
Si Si4 0.175708 0.857304 0.927399
Si Si5 0.169935 0.441262 0.616573
Si Si6 0.174684 0.989241 0.432194
O O1 0.500000 0.328593 0.142296
O O2 0.711463 0.250189 0.183294
O O3 0.754172 0.375548 0.195978
O O4 0.716603 0.326344 0.027705
O O5 0.500000 0.181158 0.250092
O O6 0.249771 0.176534 0.338534
O O7 0.282259 0.122510 0.173171
O O8 0.500000 0.081109 0.770057
O O9 0.247060 0.048254 0.846089
O O10 0.323865 0.002287 0.686364
O O11 0.000000 0.853213 0.918040
O O12 0.215900 0.934060 0.928967
O O13 0.267200 0.458079 0.527653
O O14 0.000000 0.432414 0.587741
O O15 0.000000 0.985548 0.427030
#
# Coordination Sequence:
#
# PCOD9352321 Si02
#       6
#     8   8   8   8   8   8
#     4  10  22  41  61  86 121 158 197 243 295 354
#     4  10  22  40  62  87 121 158 195 244 297 354
#     4  11  22  37  60  88 119 153 195 247 292 346
#     4  10  21  37  59  86 119 157 197 243 297 354
#     4  10  21  37  58  87 118 153 197 244 294 347
#     4  11  22  36  60  90 120 157 199 247 295 349
#
# _framework density 17.860593000000001
#
# number of rings (size 3 to 8) (size 9 to 14) (size 15 to 20)
#    0.000    1.667    3.333    1.000    0.000    4.667 
#    0.000    1.667    0.000    0.000    0.000    0.000 
#    0.000    0.000    0.000    0.000    0.000    0.000 
#
# Total GULP energy -134055.824303 kJ/mol
# GULP energy per Si atom -5585.659346 kJ/mol
# Density = 1.781994 g / cm^3
# Si number density = 17.860593 Si / 1000 Ang^3
#
#
#
# Elastic Constant Matrix: (Units=GPa)
#
#
# Indices 1 2 3 4 5 6 
#
# 1 48.7848 45.1575 58.8214 0.0000 0.0000 0.0000
# 2 45.1575 131.9959 70.7312 0.0000 0.0000 0.0000
# 3 58.8214 70.7312 156.8283 0.0000 0.0000 0.0000
# 4 0.0000 0.0000 0.0000 28.6749 0.0000 0.0000
# 5 0.0000 0.0000 0.0000 0.0000 38.5463 0.0000
# 6 0.0000 0.0000 0.0000 0.0000 0.0000 22.7614
#
#
#
# Elastic Compliance Matrix: (Units=1/GPa)
#
#
# Indices 1 2 3 4 5 6 
#
# 1 0.043000 -0.008003 -0.012519 0.000000 0.000000 0.000000
# 2 -0.008003 0.011480 -0.002176 0.000000 0.000000 0.000000
# 3 -0.012519 -0.002176 0.012053 0.000000 0.000000 0.000000
# 4 0.000000 0.000000 0.000000 0.034874 0.000000 0.000000
# 5 0.000000 0.000000 0.000000 0.000000 0.025943 0.000000
# 6 0.000000 0.000000 0.000000 0.000000 0.000000 0.043934
#
#
# Mechanical properties :
#
#
# Convention : Reuss Voigt Hill
#
# Bulk Modulus (GPa) = 47.30734 76.33658 61.82196
# Shear Modulus (GPa) = 22.34897 28.85645 25.60271
#
# Velocity S-wave (km/s) = 3.54121 4.02387 3.79023
# Velocity P-wave (km/s) = 6.57759 8.02632 7.33780
#
# Compressibility (1/GPa) = 0.02113837
#
# Stress axis : x y z
#
# Youngs Moduli (GPa) = 23.25589 87.10955 82.96581
#
# Poissons Ratio (x) = 0.69710 1.03862
# Poissons Ratio (y) = 0.18611 0.18053
# Poissons Ratio (z) = 0.29113 0.18955
#
# Static dielectric constant tensor:
#      x y z
#    x 1.602230 0.000000 0.000000 
#    y 0.000000 1.590530 0.000000 
#    z 0.000000 0.000000 1.581870 
# 
# From -- ./inp_files/6710.got.cif
#   From: 2010.05.17/outbox.cif.g08.bks.cpg/sg36_4_cif.got.tgz:6710.got - 2010.06.03 17:41:39.
