data_PCOD9352511
_publ_section_title
;
Structure prediction by ZEFSAII (Michael W. Deem and Ramdas Pophale) SiO2 
 PCOD9352511
Probable space group: C M C 21
;
_chemical_formula_sum "Si O2"
_cell_formula_units_Z 48
_cell_length_a 24.862430
_cell_length_b 5.701681
_cell_length_c 13.377137
_cell_angle_alpha 90.000000
_cell_angle_beta 90.000000
_cell_angle_gamma 90.000000
_cell_volume 1896.311435
_symmetry_space_group_name_H-M "C M C 21"
_symmetry_group_IT_number 36
_symmetry_cell_setting 'orthorhombic'
loop_
_space_group_symop_operation_xyz
x,y,z
-x,-y,1/2+z
x,-y,1/2+z
-x,y,z
1/2+x,1/2+y,z
1/2-x,1/2-y,1/2+z
1/2+x,1/2-y,1/2+z
1/2-x,1/2+y,z
loop_
_atom_site_type_symbol
_atom_site_label
_atom_site_fract_x
_atom_site_fract_y
_atom_site_fract_z
Si Si1 0.669046 0.943623 0.240360
Si Si2 0.439358 0.711145 0.913820
Si Si3 0.441216 0.278241 0.654417
Si Si4 0.739348 0.511355 0.573730
Si Si5 0.117088 0.296070 0.417681
Si Si6 0.630001 0.340157 0.140193
O O1 0.611798 0.848683 0.195619
O O2 0.721489 0.942934 0.169651
O O3 0.669810 0.824966 0.347941
O O4 0.656073 0.219255 0.235833
O O5 0.500000 0.687555 0.875454
O O6 0.409027 0.460496 0.897253
O O7 0.415964 0.968820 0.887707
O O8 0.441842 0.732384 0.034802
O O9 0.500000 0.209512 0.692922
O O10 0.426327 0.551170 0.670717
O O11 0.755143 0.266912 0.522714
O O12 0.677240 0.485510 0.604677
O O13 0.123809 0.306760 0.537692
#
# Coordination Sequence:
#
# PCOD9352511 Si02
#       6
#     8   8   8   8   8   8
#     4  11  23  41  65  99 133 172 230 277 337 396
#     4  10  22  42  63  92 134 178 223 274 332 395
#     4  10  21  39  66  94 130 178 222 271 336 405
#     4  10  21  39  68  89 126 173 211 274 331 384
#     4  11  24  39  67  96 131 176 223 278 331 405
#     4  10  22  44  65  94 136 177 223 276 345 391
#
# _framework density 25.312296
#
# number of rings (size 3 to 8) (size 9 to 14) (size 15 to 20)
#    0.000    1.667    3.333    0.500    2.333    2.667 
#    0.000    6.667    0.000    0.000    0.000    0.000 
#    0.000    0.000    0.000    0.000    0.000    0.000 
#
# Total GULP energy -133615.678920 kJ/mol
# GULP energy per Si atom -5567.319955 kJ/mol
# Density = 2.525468 g / cm^3
# Si number density = 25.312296 Si / 1000 Ang^3
#
#
#
# Elastic Constant Matrix: (Units=GPa)
#
#
# Indices 1 2 3 4 5 6 
#
# 1 103.3423 32.5548 23.9020 0.0000 0.0000 0.0000
# 2 32.5548 142.3212 17.9777 0.0000 0.0000 0.0000
# 3 23.9020 17.9777 94.6628 0.0000 0.0000 0.0000
# 4 0.0000 0.0000 0.0000 24.0175 0.0000 0.0000
# 5 0.0000 0.0000 0.0000 0.0000 32.7222 0.0000
# 6 0.0000 0.0000 0.0000 0.0000 0.0000 30.7698
#
#
#
# Elastic Compliance Matrix: (Units=1/GPa)
#
#
# Indices 1 2 3 4 5 6 
#
# 1 0.010910 -0.002200 -0.002337 0.000000 0.000000 0.000000
# 2 -0.002200 0.007643 -0.000896 0.000000 0.000000 0.000000
# 3 -0.002337 -0.000896 0.011324 0.000000 0.000000 0.000000
# 4 0.000000 0.000000 0.000000 0.041636 0.000000 0.000000
# 5 0.000000 0.000000 0.000000 0.000000 0.030560 0.000000
# 6 0.000000 0.000000 0.000000 0.000000 0.000000 0.032499
#
#
# Mechanical properties :
#
#
# Convention : Reuss Voigt Hill
#
# Bulk Modulus (GPa) = 52.60199 54.35503 53.47851
# Shear Modulus (GPa) = 32.94318 35.22802 34.08560
#
# Velocity S-wave (km/s) = 3.61150 3.73464 3.67359
# Velocity P-wave (km/s) = 6.18198 6.33381 6.25836
#
# Compressibility (1/GPa) = 0.01901069
#
# Stress axis : x y z
#
# Youngs Moduli (GPa) = 91.65683 130.84108 88.30790
#
# Poissons Ratio (x) = 0.28791 0.20637
# Poissons Ratio (y) = 0.20169 0.07911
# Poissons Ratio (z) = 0.21419 0.11722
#
# Static dielectric constant tensor:
#      x y z
#    x 2.023490 0.000000 0.000000 
#    y 0.000000 2.227970 0.000000 
#    z 0.000000 0.000000 2.060390 
# 
# From -- ./inp_files/13055.got.cif
#   From: 2010.05.17/outbox.cif.g08.bks.cpg/sg36_7_cif.got.tgz:13055.got - 2010.06.03 17:41:39.
