data_PCOD9352128
_publ_section_title
;
Structure prediction by ZEFSAII (Michael W. Deem and Ramdas Pophale) SiO2 
 PCOD9352128
Probable space group: C M C 21
;
_chemical_formula_sum "Si O2"
_cell_formula_units_Z 48
_cell_length_a 8.988702
_cell_length_b 27.482168
_cell_length_c 10.200629
_cell_angle_alpha 90.000000
_cell_angle_beta 90.000000
_cell_angle_gamma 90.000000
_cell_volume 2519.851370
_symmetry_space_group_name_H-M "C M C 21"
_symmetry_group_IT_number 36
_symmetry_cell_setting 'orthorhombic'
loop_
_space_group_symop_operation_xyz
x,y,z
-x,-y,1/2+z
x,-y,1/2+z
-x,y,z
1/2+x,1/2+y,z
1/2-x,1/2-y,1/2+z
1/2+x,1/2-y,1/2+z
1/2-x,1/2+y,z
loop_
_atom_site_type_symbol
_atom_site_label
_atom_site_fract_x
_atom_site_fract_y
_atom_site_fract_z
Si Si1 0.821830 0.925742 0.407010
Si Si2 0.322344 0.385991 0.695668
Si Si3 0.176898 0.792003 0.052649
Si Si4 0.177115 0.607353 0.641669
Si Si5 0.177584 0.960329 0.930094
Si Si6 0.323392 0.214793 0.281661
O O1 0.786852 0.903029 0.548638
O O2 0.736499 0.900512 0.288427
O O3 0.000000 0.920907 0.385506
O O4 0.786517 0.983182 0.409973
O O5 0.500000 0.376466 0.702424
O O6 0.290632 0.428731 0.800125
O O7 0.235720 0.337628 0.735561
O O8 0.253968 0.843273 0.083411
O O9 0.206475 0.754376 0.169555
O O10 0.000000 0.799435 0.041477
O O11 0.241188 0.772435 0.916331
O O12 0.236393 0.563496 0.550986
O O13 0.000000 0.609556 0.638435
O O14 0.000000 0.956995 0.956322
O O15 0.500000 0.212665 0.304086
#
# Coordination Sequence:
#
# PCOD9352128 Si02
#       6
#     8   8   8   8   8   8
#     4  10  22  40  64  94 126 168 216 255 302 372
#     4  10  21  38  64  93 124 165 208 257 308 365
#     4  11  25  45  67  92 124 165 208 252 309 379
#     4  12  25  40  62  94 130 167 207 260 316 363
#     4  10  20  40  67  92 122 166 215 258 307 371
#     4  11  25  43  66  95 124 159 204 260 316 370
#
# _framework density 19.048743000000002
#
# number of rings (size 3 to 8) (size 9 to 14) (size 15 to 20)
#    0.000    1.333    1.667    3.500    2.333    6.667 
#    0.000    1.667    0.000    0.000    0.000    0.000 
#    0.000    0.000    0.000    0.000    0.000    0.000 
#
# Total GULP energy -134252.040600 kJ/mol
# GULP energy per Si atom -5593.835025 kJ/mol
# Density = 1.900539 g / cm^3
# Si number density = 19.048743 Si / 1000 Ang^3
#
#
#
# Elastic Constant Matrix: (Units=GPa)
#
#
# Indices 1 2 3 4 5 6 
#
# 1 60.5791 37.0910 66.1460 0.0000 0.0000 0.0000
# 2 37.0910 48.9914 26.4995 0.0000 0.0000 0.0000
# 3 66.1460 26.4995 139.3376 0.0000 0.0000 0.0000
# 4 0.0000 0.0000 0.0000 27.3082 0.0000 0.0000
# 5 0.0000 0.0000 0.0000 0.0000 28.1890 0.0000
# 6 0.0000 0.0000 0.0000 0.0000 0.0000 24.3621
#
#
#
# Elastic Compliance Matrix: (Units=1/GPa)
#
#
# Indices 1 2 3 4 5 6 
#
# 1 0.064479 -0.035959 -0.023771 0.000000 0.000000 0.000000
# 2 -0.035959 0.042806 0.008930 0.000000 0.000000 0.000000
# 3 -0.023771 0.008930 0.016763 0.000000 0.000000 0.000000
# 4 0.000000 0.000000 0.000000 0.036619 0.000000 0.000000
# 5 0.000000 0.000000 0.000000 0.000000 0.035475 0.000000
# 6 0.000000 0.000000 0.000000 0.000000 0.000000 0.041047
#
#
# Mechanical properties :
#
#
# Convention : Reuss Voigt Hill
#
# Bulk Modulus (GPa) = 44.54799 56.48679 50.51739
# Shear Modulus (GPa) = 14.43949 23.91664 19.17807
#
# Velocity S-wave (km/s) = 2.75622 3.54722 3.17644
# Velocity P-wave (km/s) = 5.79362 6.81874 6.32698
#
# Compressibility (1/GPa) = 0.02244770
#
# Stress axis : x y z
#
# Youngs Moduli (GPa) = 15.50887 23.36114 59.65535
#
# Poissons Ratio (x) = 0.84005 1.41805
# Poissons Ratio (y) = 0.55769 -0.53269
# Poissons Ratio (z) = 0.36866 -0.20860
#
# Static dielectric constant tensor:
#      x y z
#    x 1.635790 0.000000 0.000000 
#    y 0.000000 1.628710 0.000000 
#    z 0.000000 0.000000 1.645420 
# 
# From -- ./inp_files/2657.got.cif
#   From: 2010.05.17/outbox.cif.g08.bks.cpg/sg36_2_cif.got.tgz:2657.got - 2010.06.03 17:41:39.
