data_PCOD9352748
_publ_section_title
;
Structure prediction by ZEFSAII (Michael W. Deem and Ramdas Pophale) SiO2 
 PCOD9352748
Probable space group: C M C 21
;
_chemical_formula_sum "Si O2"
_cell_formula_units_Z 32
_cell_length_a 19.924956
_cell_length_b 13.563399
_cell_length_c 4.927787
_cell_angle_alpha 90.000000
_cell_angle_beta 90.000000
_cell_angle_gamma 90.000000
_cell_volume 1331.735069
_symmetry_space_group_name_H-M "C M C 21"
_symmetry_group_IT_number 36
_symmetry_cell_setting 'orthorhombic'
loop_
_space_group_symop_operation_xyz
x,y,z
-x,-y,1/2+z
x,-y,1/2+z
-x,y,z
1/2+x,1/2+y,z
1/2-x,1/2-y,1/2+z
1/2+x,1/2-y,1/2+z
1/2-x,1/2+y,z
loop_
_atom_site_type_symbol
_atom_site_label
_atom_site_fract_x
_atom_site_fract_y
_atom_site_fract_z
Si Si1 0.287601 0.780104 0.496040
Si Si2 0.418996 0.558401 0.971135
Si Si3 0.074711 0.758548 0.849269
Si Si4 0.363624 0.935110 0.185959
O O1 0.249047 0.789359 0.776298
O O2 0.362854 0.742048 0.553896
O O3 0.299214 0.878651 0.315493
O O4 0.394285 0.473103 0.176868
O O5 0.500000 0.551976 0.953614
O O6 0.407595 0.662487 0.116288
O O7 0.079397 0.647444 0.734217
O O8 0.000000 0.780132 0.954509
O O9 0.367957 0.030830 0.377227
#
# Coordination Sequence:
#
# PCOD9352748 Si02
#       4
#     8   8   8   8
#     4  10  22  42  64  86 129 170 210 264 311 374
#     4   9  18  34  55  84 120 158 207 258 307 364
#     4   9  22  40  67  96 132 173 213 268 325 381
#     4  10  22  40  65  96 129 169 214 260 318 391
#
# _framework density 24.028801000000001
#
# number of rings (size 3 to 8) (size 9 to 14) (size 15 to 20)
#    1.500    1.000    0.000    1.500    0.000    5.000 
#    0.000   16.250    0.000    0.000    0.000    0.000 
#    0.000    0.000    0.000    0.000    0.000    0.000 
#
# Total GULP energy -89169.126669 kJ/mol
# GULP energy per Si atom -5573.070417 kJ/mol
# Density = 2.397411 g / cm^3
# Si number density = 24.028801 Si / 1000 Ang^3
#
#
#
# Elastic Constant Matrix: (Units=GPa)
#
#
# Indices 1 2 3 4 5 6 
#
# 1 86.3308 13.6898 25.2843 0.0000 0.0000 0.0000
# 2 13.6898 93.3028 5.0951 0.0000 0.0000 0.0000
# 3 25.2843 5.0951 95.2441 0.0000 0.0000 0.0000
# 4 0.0000 0.0000 0.0000 36.5625 0.0000 0.0000
# 5 0.0000 0.0000 0.0000 0.0000 -0.0699 0.0000
# 6 0.0000 0.0000 0.0000 0.0000 0.0000 26.1287
#
#
#
# Elastic Compliance Matrix: (Units=1/GPa)
#
#
# Indices 1 2 3 4 5 6 
#
# 1 0.012823 -0.001701 -0.003313 0.000000 0.000000 0.000000
# 2 -0.001701 0.010975 -0.000136 0.000000 0.000000 0.000000
# 3 -0.003313 -0.000136 0.011386 0.000000 0.000000 0.000000
# 4 0.000000 0.000000 0.000000 0.027350 0.000000 0.000000
# 5 0.000000 0.000000 0.000000 0.000000-14.314300 0.000000
# 6 0.000000 0.000000 0.000000 0.000000 0.000000 0.038272
#
#
# Mechanical properties :
#
#
# Convention : Reuss Voigt Hill
#
# Bulk Modulus (GPa) = 40.18429 40.33513 40.25971
# Shear Modulus (GPa) = -0.35224 27.91149 13.77963
#
# Velocity S-wave (km/s) = -0.38329 3.41190 2.39731
# Velocity P-wave (km/s) = 4.06987 5.68718 4.94509
#
# Compressibility (1/GPa) = 0.02488535
#
# Stress axis : x y z
#
# Youngs Moduli (GPa) = 77.98251 91.11850 87.82603
#
# Poissons Ratio (x) = 0.15495 0.29099
# Poissons Ratio (y) = 0.13261 0.01191
# Poissons Ratio (z) = 0.25837 0.01236
#
# Static dielectric constant tensor:
#      x y z
#    x 1.959240 0.000000 0.000000 
#    y 0.000000 1.984260 0.000000 
#    z 0.000000 0.000000 1.862860 
# 
# From -- ./inp_files/1276.got.cif
#   From: 2010.05.17/outbox.cif.g08.bks.cpg/sg36_1_cif.got.tgz:1276.got - 2010.06.03 17:41:39.
