data_PCOD9352804
_publ_section_title
;
Structure prediction by ZEFSAII (Michael W. Deem and Ramdas Pophale) SiO2 
 PCOD9352804
Probable space group: C M C 21
;
_chemical_formula_sum "Si O2"
_cell_formula_units_Z 64
_cell_length_a 17.107061
_cell_length_b 14.465398
_cell_length_c 12.137320
_cell_angle_alpha 90.000000
_cell_angle_beta 90.000000
_cell_angle_gamma 90.000000
_cell_volume 3003.506620
_symmetry_space_group_name_H-M "C M C 21"
_symmetry_group_IT_number 36
_symmetry_cell_setting 'orthorhombic'
loop_
_space_group_symop_operation_xyz
x,y,z
-x,-y,1/2+z
x,-y,1/2+z
-x,y,z
1/2+x,1/2+y,z
1/2-x,1/2-y,1/2+z
1/2+x,1/2-y,1/2+z
1/2-x,1/2+y,z
loop_
_atom_site_type_symbol
_atom_site_label
_atom_site_fract_x
_atom_site_fract_y
_atom_site_fract_z
Si Si1 0.676143 0.357307 0.460150
Si Si2 0.152876 0.343419 0.434091
Si Si3 0.910981 0.232812 0.249718
Si Si4 0.906676 0.672595 0.533953
Si Si5 0.409377 0.185168 0.174309
Si Si6 0.692137 0.556728 0.189787
Si Si7 0.592891 0.607799 0.751764
Si Si8 0.342924 0.047750 0.348771
O O1 0.756510 0.320115 0.407637
O O2 0.618978 0.274467 0.494458
O O3 0.708012 0.415455 0.563259
O O4 0.625469 0.413609 0.373474
O O5 0.099408 0.270323 0.371615
O O6 0.137037 0.337158 0.563680
O O7 0.136021 0.444096 0.383499
O O8 0.891413 0.316932 0.164662
O O9 0.857259 0.144531 0.231789
O O10 0.000000 0.206874 0.224862
O O11 0.852369 0.603450 0.464448
O O12 0.000000 0.655103 0.515562
O O13 0.500000 0.189785 0.145093
O O14 0.386956 0.285742 0.222882
O O15 0.397498 0.106527 0.266194
O O16 0.639922 0.465205 0.180290
O O17 0.762770 0.544756 0.276933
O O18 0.500000 0.597059 0.744557
#
# Coordination Sequence:
#
# PCOD9352804 Si02
#       8
#     8   8   8   8   8   8   8   8
#     4  11  22  43  66  99 131 179 227 283 342 414
#     4  12  26  43  67 100 143 182 229 290 348 410
#     4  10  24  43  65  99 139 181 229 286 351 410
#     4  10  22  41  68  95 130 182 235 283 341 412
#     4  11  26  47  71 101 136 183 238 288 350 414
#     4  11  24  43  70 102 138 176 232 285 351 422
#     4  11  24  45  72 101 137 179 233 293 352 419
#     4  12  24  43  67 101 136 182 233 288 343 413
#
# _framework density 21.308426000000001
#
# number of rings (size 3 to 8) (size 9 to 14) (size 15 to 20)
#    0.000    1.000    3.750    2.250    1.750    4.500 
#    2.250    1.250    0.000    0.000    0.000    0.000 
#    0.000    0.000    0.000    0.000    0.000    0.000 
#
# Total GULP energy -178615.071130 kJ/mol
# GULP energy per Si atom -5581.720973 kJ/mol
# Density = 2.125993 g / cm^3
# Si number density = 21.308426 Si / 1000 Ang^3
#
#
#
# Elastic Constant Matrix: (Units=GPa)
#
#
# Indices 1 2 3 4 5 6 
#
# 1 78.4145 33.9405 16.8389 0.0000 0.0000 0.0000
# 2 33.9405 62.4296 20.9482 0.0000 0.0000 0.0000
# 3 16.8389 20.9482 59.0534 0.0000 0.0000 0.0000
# 4 0.0000 0.0000 0.0000 22.0319 0.0000 0.0000
# 5 0.0000 0.0000 0.0000 0.0000 29.8571 0.0000
# 6 0.0000 0.0000 0.0000 0.0000 0.0000 20.1272
#
#
#
# Elastic Compliance Matrix: (Units=1/GPa)
#
#
# Indices 1 2 3 4 5 6 
#
# 1 0.016837 -0.008562 -0.001764 0.000000 0.000000 0.000000
# 2 -0.008562 0.022536 -0.005553 0.000000 0.000000 0.000000
# 3 -0.001764 -0.005553 0.019407 0.000000 0.000000 0.000000
# 4 0.000000 0.000000 0.000000 0.045389 0.000000 0.000000
# 5 0.000000 0.000000 0.000000 0.000000 0.033493 0.000000
# 6 0.000000 0.000000 0.000000 0.000000 0.000000 0.049684
#
#
# Mechanical properties :
#
#
# Convention : Reuss Voigt Hill
#
# Bulk Modulus (GPa) = 37.00608 38.15030 37.57819
# Shear Modulus (GPa) = 21.91917 22.94791 22.43354
#
# Velocity S-wave (km/s) = 3.21076 3.28524 3.24821
# Velocity P-wave (km/s) = 5.58120 5.68622 5.63396
#
# Compressibility (1/GPa) = 0.02702258
#
# Stress axis : x y z
#
# Youngs Moduli (GPa) = 59.39138 44.37318 51.52881
#
# Poissons Ratio (x) = 0.37992 0.09089
# Poissons Ratio (y) = 0.50851 0.28613
# Poissons Ratio (z) = 0.10476 0.24640
#
# Static dielectric constant tensor:
#      x y z
#    x 1.789180 0.000000 0.000000 
#    y 0.000000 1.753940 0.000000 
#    z 0.000000 0.000000 1.807550 
# 
# From -- ./inp_files/8995.got.cif
#   From: 2010.05.17/outbox.cif.g08.bks.cpg/sg36_5_cif.got.tgz:8995.got - 2010.06.03 17:41:39.
