data_PCOD9352204
_publ_section_title
;
Structure prediction by ZEFSAII (Michael W. Deem and Ramdas Pophale) SiO2 
 PCOD9352204
Probable space group: C M C 21
;
_chemical_formula_sum "Si O2"
_cell_formula_units_Z 64
_cell_length_a 7.696522
_cell_length_b 16.704607
_cell_length_c 19.796902
_cell_angle_alpha 90.000000
_cell_angle_beta 90.000000
_cell_angle_gamma 90.000000
_cell_volume 2545.235729
_symmetry_space_group_name_H-M "C M C 21"
_symmetry_group_IT_number 36
_symmetry_cell_setting 'orthorhombic'
loop_
_space_group_symop_operation_xyz
x,y,z
-x,-y,1/2+z
x,-y,1/2+z
-x,y,z
1/2+x,1/2+y,z
1/2-x,1/2-y,1/2+z
1/2+x,1/2-y,1/2+z
1/2-x,1/2+y,z
loop_
_atom_site_type_symbol
_atom_site_label
_atom_site_fract_x
_atom_site_fract_y
_atom_site_fract_z
Si Si1 0.200216 0.014373 0.597030
Si Si2 0.791459 0.496207 0.843384
Si Si3 0.294901 0.757864 0.396490
Si Si4 0.711079 0.082841 0.974744
Si Si5 0.700182 0.831373 0.015581
Si Si6 0.208178 0.087277 0.215396
Si Si7 0.286624 0.748662 0.143232
Si Si8 0.788207 0.342944 0.267973
O O1 0.287430 0.084874 0.554513
O O2 0.000000 0.037127 0.605431
O O3 0.211709 0.937769 0.547104
O O4 0.276234 0.985955 0.668671
O O5 0.734629 0.514747 0.919766
O O6 0.743068 0.423371 0.794634
O O7 0.730292 0.574003 0.800529
O O8 0.000000 0.497365 0.846416
O O9 0.500000 0.768619 0.390917
O O10 0.232655 0.832931 0.442275
O O11 0.269339 0.678319 0.440035
O O12 0.230170 0.773854 0.320932
O O13 0.500000 0.082138 0.980102
O O14 0.500000 0.812340 0.007250
O O15 0.779782 0.767647 0.068532
O O16 0.271347 0.168242 0.180208
O O17 0.000000 0.086976 0.207860
O O18 0.500000 0.747707 0.140680
O O19 0.232778 0.820730 0.193081
O O20 0.000000 0.344892 0.266200
#
# Coordination Sequence:
#
# PCOD9352204 Si02
#       8
#     8   8   8   8   8   8   8   8
#     4  11  23  37  53  76 109 145 184 229 272 319
#     4   9  18  34  56  81 108 139 176 217 262 317
#     4   9  18  34  56  81 109 140 174 215 263 317
#     4   9  19  36  57  81 110 144 183 223 264 319
#     4  11  22  36  56  79 105 139 180 226 273 322
#     4  10  21  35  52  78 109 140 178 223 269 320
#     4   9  18  33  53  76 102 135 175 215 259 315
#     4   8  15  31  55  78 102 136 174 208 250 311
#
# _framework density 25.145018
#
# number of rings (size 3 to 8) (size 9 to 14) (size 15 to 20)
#    0.000    2.500    0.000    3.750    0.000    5.000 
#    0.000    4.375    0.000    2.250    0.000    0.000 
#    0.000    0.000    0.000    0.000    0.000    0.000 
#
# Total GULP energy -178776.732142 kJ/mol
# GULP energy per Si atom -5586.772879 kJ/mol
# Density = 2.508779 g / cm^3
# Si number density = 25.145018 Si / 1000 Ang^3
#
#
#
# Elastic Constant Matrix: (Units=GPa)
#
#
# Indices 1 2 3 4 5 6 
#
# 1 44.0960 -4.7622 -1.3642 0.0000 0.0000 0.0000
# 2 -4.7622 48.4074 -10.3081 0.0000 0.0000 0.0000
# 3 -1.3642 -10.3081 113.9537 0.0000 0.0000 0.0000
# 4 0.0000 0.0000 0.0000 41.5289 0.0000 0.0000
# 5 0.0000 0.0000 0.0000 0.0000 15.8828 0.0000
# 6 0.0000 0.0000 0.0000 0.0000 0.0000 13.5386
#
#
#
# Elastic Compliance Matrix: (Units=1/GPa)
#
#
# Indices 1 2 3 4 5 6 
#
# 1 0.022948 0.002362 0.000488 0.000000 0.000000 0.000000
# 2 0.002362 0.021307 0.001956 0.000000 0.000000 0.000000
# 3 0.000488 0.001956 0.008958 0.000000 0.000000 0.000000
# 4 0.000000 0.000000 0.000000 0.024080 0.000000 0.000000
# 5 0.000000 0.000000 0.000000 0.000000 0.062961 0.000000
# 6 0.000000 0.000000 0.000000 0.000000 0.000000 0.073863
#
#
# Mechanical properties :
#
#
# Convention : Reuss Voigt Hill
#
# Bulk Modulus (GPa) = 15.91749 19.28758 17.60253
# Shear Modulus (GPa) = 22.17819 29.04951 25.61385
#
# Velocity S-wave (km/s) = 2.97309 3.40263 3.19508
# Velocity P-wave (km/s) = 4.25790 4.80878 4.54170
#
# Compressibility (1/GPa) = 0.06282398
#
# Stress axis : x y z
#
# Youngs Moduli (GPa) = 43.57691 46.93347 111.62899
#
# Poissons Ratio (x) = -0.11083 -0.05451
# Poissons Ratio (y) = -0.10291 -0.21831
# Poissons Ratio (z) = -0.02128 -0.09179
#
# Static dielectric constant tensor:
#      x y z
#    x 1.918470 0.000000 0.000000 
#    y 0.000000 2.073600 0.000000 
#    z 0.000000 0.000000 1.966720 
# 
# From -- ./inp_files/15600.got.cif
#   From: 2010.05.17/outbox.cif.g08.bks.cpg/sg36_8_cif.got.tgz:15600.got - 2010.06.03 17:41:39.
