data_PCOD9352848
_publ_section_title
;
Structure prediction by ZEFSAII (Michael W. Deem and Ramdas Pophale) SiO2 
 PCOD9352848
Probable space group: C M C 21
;
_chemical_formula_sum "Si O2"
_cell_formula_units_Z 32
_cell_length_a 19.620418
_cell_length_b 4.866918
_cell_length_c 13.856353
_cell_angle_alpha 90.000000
_cell_angle_beta 90.000000
_cell_angle_gamma 90.000000
_cell_volume 1323.156527
_symmetry_space_group_name_H-M "C M C 21"
_symmetry_group_IT_number 36
_symmetry_cell_setting 'orthorhombic'
loop_
_space_group_symop_operation_xyz
x,y,z
-x,-y,1/2+z
x,-y,1/2+z
-x,y,z
1/2+x,1/2+y,z
1/2-x,1/2-y,1/2+z
1/2+x,1/2-y,1/2+z
1/2-x,1/2+y,z
loop_
_atom_site_type_symbol
_atom_site_label
_atom_site_fract_x
_atom_site_fract_y
_atom_site_fract_z
Si Si1 0.924420 0.619516 0.973570
Si Si2 0.206499 0.679179 0.515690
Si Si3 0.576494 0.482741 0.793336
Si Si4 0.621982 0.955251 0.679194
O O1 0.917672 0.875058 0.902443
O O2 0.000000 0.500627 0.956717
O O3 0.859894 0.421619 0.958392
O O4 0.917503 0.678582 0.087565
O O5 0.228096 0.988216 0.496595
O O6 0.186167 0.597563 0.625858
O O7 0.500000 0.596275 0.779633
O O8 0.629143 0.707800 0.754010
O O9 0.583904 0.205475 0.730355
#
# Coordination Sequence:
#
# PCOD9352848 Si02
#       4
#     8   8   8   8
#     4   9  22  40  67  94 124 161 207 256 309 362
#     4  10  22  43  62  87 126 165 203 252 306 368
#     4  11  21  38  62  99 124 156 207 257 307 370
#     4  10  23  39  64  86 130 162 201 251 311 354
#
# _framework density 24.18459
#
# number of rings (size 3 to 8) (size 9 to 14) (size 15 to 20)
#    1.500    0.500    0.000    3.750    0.000    4.000 
#    0.000   13.750    0.000    0.000    0.000    0.000 
#    0.000    0.000    0.000    0.000    0.000    0.000 
#
# Total GULP energy -89297.717347 kJ/mol
# GULP energy per Si atom -5581.107334 kJ/mol
# Density = 2.412955 g / cm^3
# Si number density = 24.184590 Si / 1000 Ang^3
#
#
#
# Elastic Constant Matrix: (Units=GPa)
#
#
# Indices 1 2 3 4 5 6 
#
# 1 93.3072 -0.0212 11.5751 0.0000 0.0000 0.0000
# 2 -0.0212 79.2029 53.1163 0.0000 0.0000 0.0000
# 3 11.5751 53.1163 112.5248 0.0000 0.0000 0.0000
# 4 0.0000 0.0000 0.0000 23.3179 0.0000 0.0000
# 5 0.0000 0.0000 0.0000 0.0000 22.2781 0.0000
# 6 0.0000 0.0000 0.0000 0.0000 0.0000 7.9758
#
#
#
# Elastic Compliance Matrix: (Units=1/GPa)
#
#
# Indices 1 2 3 4 5 6 
#
# 1 0.010922 0.001107 -0.001646 0.000000 0.000000 0.000000
# 2 0.001107 0.018586 -0.008887 0.000000 0.000000 0.000000
# 3 -0.001646 -0.008887 0.013251 0.000000 0.000000 0.000000
# 4 0.000000 0.000000 0.000000 0.042886 0.000000 0.000000
# 5 0.000000 0.000000 0.000000 0.000000 0.044887 0.000000
# 6 0.000000 0.000000 0.000000 0.000000 0.000000 0.125379
#
#
# Mechanical properties :
#
#
# Convention : Reuss Voigt Hill
#
# Bulk Modulus (GPa) = 41.82983 46.04172 43.93577
# Shear Modulus (GPa) = 17.68452 25.40534 21.54493
#
# Velocity S-wave (km/s) = 2.70706 3.24462 2.98796
# Velocity P-wave (km/s) = 5.20620 5.75463 5.48727
#
# Compressibility (1/GPa) = 0.02390639
#
# Stress axis : x y z
#
# Youngs Moduli (GPa) = 91.56071 53.80316 75.46363
#
# Poissons Ratio (x) = -0.05955 0.12421
# Poissons Ratio (y) = -0.10133 0.67067
# Poissons Ratio (z) = 0.15070 0.47817
#
# Static dielectric constant tensor:
#      x y z
#    x 1.935790 0.000000 0.000000 
#    y 0.000000 1.883140 0.000000 
#    z 0.000000 0.000000 1.955570 
# 
# From -- ./inp_files/12375.got.cif
#   From: 2010.05.17/outbox.cif.g08.bks.cpg/sg36_7_cif.got.tgz:12375.got - 2010.06.03 17:41:39.
