data_PCOD9352487
_publ_section_title
;
Structure prediction by ZEFSAII (Michael W. Deem and Ramdas Pophale) SiO2 
 PCOD9352487
Probable space group: C M C 21
;
_chemical_formula_sum "Si O2"
_cell_formula_units_Z 56
_cell_length_a 12.227273
_cell_length_b 19.578663
_cell_length_c 11.624229
_cell_angle_alpha 90.000000
_cell_angle_beta 90.000000
_cell_angle_gamma 90.000000
_cell_volume 2782.766696
_symmetry_space_group_name_H-M "C M C 21"
_symmetry_group_IT_number 36
_symmetry_cell_setting 'orthorhombic'
loop_
_space_group_symop_operation_xyz
x,y,z
-x,-y,1/2+z
x,-y,1/2+z
-x,y,z
1/2+x,1/2+y,z
1/2-x,1/2-y,1/2+z
1/2+x,1/2-y,1/2+z
1/2-x,1/2+y,z
loop_
_atom_site_type_symbol
_atom_site_label
_atom_site_fract_x
_atom_site_fract_y
_atom_site_fract_z
Si Si1 0.119136 0.609878 0.375000
Si Si2 0.878771 0.324616 0.482406
Si Si3 0.377166 0.769367 0.244709
Si Si4 0.774299 0.611869 0.617406
Si Si5 0.129809 0.005761 0.026480
Si Si6 0.818634 0.540085 0.850264
Si Si7 0.210154 0.865406 0.672502
O O1 0.151732 0.625017 0.505845
O O2 0.115454 0.528199 0.368824
O O3 0.214189 0.626767 0.284810
O O4 0.000000 0.639201 0.345779
O O5 0.857009 0.270386 0.381763
O O6 0.872340 0.396832 0.415979
O O7 0.787795 0.331397 0.577213
O O8 0.000000 0.314031 0.530130
O O9 0.500000 0.799274 0.227043
O O10 0.283643 0.816226 0.185573
O O11 0.376711 0.692657 0.200238
O O12 0.669749 0.569735 0.568146
O O13 0.814798 0.559638 0.716408
O O14 0.163393 0.063739 0.121270
O O15 0.000000 0.007349 0.007379
O O16 0.200831 0.025813 0.912519
#
# Coordination Sequence:
#
# PCOD9352487 Si02
#       7
#     8   8   8   8   8   8   8
#     4  11  22  35  59  92 125 158 195 254 311 352
#     4   9  19  37  60  85 117 158 200 246 304 356
#     4  10  22  40  64  85 116 165 205 249 303 357
#     4  10  21  41  59  89 119 156 207 254 293 361
#     4  10  21  39  63  90 123 163 200 247 306 358
#     4   9  19  38  59  88 118 154 204 252 293 363
#     4  11  22  38  60  91 126 156 201 250 296 375
#
# _framework density 20.123856
#
# number of rings (size 3 to 8) (size 9 to 14) (size 15 to 20)
#    0.000    2.000    1.429    1.714    2.000    2.286 
#    0.000    2.143    0.000    0.857    0.000    0.000 
#    0.000    0.000    0.000    0.000    0.000    0.000 
#
# Total GULP energy -155983.772655 kJ/mol
# GULP energy per Si atom -5570.849023 kJ/mol
# Density = 2.007805 g / cm^3
# Si number density = 20.123856 Si / 1000 Ang^3
#
#
#
# Elastic Constant Matrix: (Units=GPa)
#
#
# Indices 1 2 3 4 5 6 
#
# 1 123.7323 21.1265 33.2074 0.0000 0.0000 0.0000
# 2 21.1265 53.6249 3.0748 0.0000 0.0000 0.0000
# 3 33.2074 3.0748 91.0895 0.0000 0.0000 0.0000
# 4 0.0000 0.0000 0.0000 15.8414 0.0000 0.0000
# 5 0.0000 0.0000 0.0000 0.0000 20.5912 0.0000
# 6 0.0000 0.0000 0.0000 0.0000 0.0000 -6.6080
#
#
#
# Elastic Compliance Matrix: (Units=1/GPa)
#
#
# Indices 1 2 3 4 5 6 
#
# 1 0.009602 -0.003589 -0.003379 0.000000 0.000000 0.000000
# 2 -0.003589 0.020026 0.000632 0.000000 0.000000 0.000000
# 3 -0.003379 0.000632 0.012189 0.000000 0.000000 0.000000
# 4 0.000000 0.000000 0.000000 0.063126 0.000000 0.000000
# 5 0.000000 0.000000 0.000000 0.000000 0.048564 0.000000
# 6 0.000000 0.000000 0.000000 0.000000 0.000000 -0.151331
#
#
# Mechanical properties :
#
#
# Convention : Reuss Voigt Hill
#
# Bulk Modulus (GPa) = 34.31167 42.58490 38.44829
# Shear Modulus (GPa) = 203.57185 20.03414 111.80299
#
# Velocity S-wave (km/s) = 10.06872 3.15864 7.46177
# Velocity P-wave (km/s) = 12.33934 5.87453 9.66358
#
# Compressibility (1/GPa) = 0.02914460
#
# Stress axis : x y z
#
# Youngs Moduli (GPa) = 104.14848 49.93578 82.04263
#
# Poissons Ratio (x) = 0.17922 0.27724
# Poissons Ratio (y) = 0.37379 -0.05189
# Poissons Ratio (z) = 0.35194 -0.03158
#
# Static dielectric constant tensor:
#      x y z
#    x 1.669320 0.000000 0.000000 
#    y 0.000000 1.717760 0.000000 
#    z 0.000000 0.000000 1.731040 
# 
# From -- ./inp_files/7822.got.cif
#   From: 2010.05.17/outbox.cif.g08.bks.cpg/sg36_4_cif.got.tgz:7822.got - 2010.06.03 17:41:39.
