data_PCOD9352330
_publ_section_title
;
Structure prediction by ZEFSAII (Michael W. Deem and Ramdas Pophale) SiO2 
 PCOD9352330
Probable space group: C M C 21
;
_chemical_formula_sum "Si O2"
_cell_formula_units_Z 64
_cell_length_a 18.149335
_cell_length_b 9.518556
_cell_length_c 19.836740
_cell_angle_alpha 90.000000
_cell_angle_beta 90.000000
_cell_angle_gamma 90.000000
_cell_volume 3426.905175
_symmetry_space_group_name_H-M "C M C 21"
_symmetry_group_IT_number 36
_symmetry_cell_setting 'orthorhombic'
loop_
_space_group_symop_operation_xyz
x,y,z
-x,-y,1/2+z
x,-y,1/2+z
-x,y,z
1/2+x,1/2+y,z
1/2-x,1/2-y,1/2+z
1/2+x,1/2-y,1/2+z
1/2-x,1/2+y,z
loop_
_atom_site_type_symbol
_atom_site_label
_atom_site_fract_x
_atom_site_fract_y
_atom_site_fract_z
Si Si1 0.170771 0.223838 0.144710
Si Si2 0.413452 0.212220 0.256577
Si Si3 0.585537 0.887043 0.904385
Si Si4 0.669173 0.616725 0.521439
Si Si5 0.678708 0.055471 0.007866
Si Si6 0.415330 0.362989 0.510125
Si Si7 0.584272 0.020031 0.640800
Si Si8 0.818186 0.095293 0.670333
O O1 0.141357 0.187851 0.068872
O O2 0.106503 0.327351 0.169533
O O3 0.242745 0.320174 0.155813
O O4 0.188200 0.072678 0.176750
O O5 0.500000 0.252432 0.260660
O O6 0.391500 0.149268 0.328590
O O7 0.362520 0.338757 0.231717
O O8 0.406088 0.094269 0.198909
O O9 0.500000 0.933044 0.903208
O O10 0.589570 0.746608 0.949543
O O11 0.635385 0.997758 0.943437
O O12 0.684426 0.776479 0.501686
O O13 0.744499 0.527383 0.515008
O O14 0.608716 0.518156 0.486286
O O15 0.640888 0.619963 0.599034
O O16 0.634007 0.018536 0.076296
O O17 0.500000 0.362569 0.535169
O O18 0.500000 0.021520 0.617976
#
# Coordination Sequence:
#
# PCOD9352330 Si02
#       8
#     8   8   8   8   8   8   8   8
#     4  11  21  35  60  90 117 153 202 253 307 355
#     4  10  23  40  60  89 124 164 203 249 311 379
#     4  10  21  41  63  85 124 166 202 248 311 377
#     4  11  22  35  62  90 124 151 199 261 304 358
#     4  12  21  38  61  91 121 160 204 255 309 356
#     4  10  21  37  59  89 122 157 199 252 308 367
#     4  11  21  36  59  88 120 157 205 253 303 364
#     4  11  20  36  58  84 120 158 192 249 305 360
#
# _framework density 18.675743000000001
#
# number of rings (size 3 to 8) (size 9 to 14) (size 15 to 20)
#    0.000    1.250    3.750    3.750    0.000    3.500 
#    0.000    6.250    0.000    4.500    0.000    0.000 
#    0.000    0.000    0.000    0.000    0.000    0.000 
#
# Total GULP energy -178484.178318 kJ/mol
# GULP energy per Si atom -5577.630572 kJ/mol
# Density = 1.863324 g / cm^3
# Si number density = 18.675743 Si / 1000 Ang^3
#
#
#
# Elastic Constant Matrix: (Units=GPa)
#
#
# Indices 1 2 3 4 5 6 
#
# 1 77.1521 44.4664 24.9940 0.0000 0.0000 0.0000
# 2 44.4664 140.8336 -3.5209 0.0000 0.0000 0.0000
# 3 24.9940 -3.5209 25.3481 0.0000 0.0000 0.0000
# 4 0.0000 0.0000 0.0000 13.1598 0.0000 0.0000
# 5 0.0000 0.0000 0.0000 0.0000 20.8550 0.0000
# 6 0.0000 0.0000 0.0000 0.0000 0.0000 26.6422
#
#
#
# Elastic Compliance Matrix: (Units=1/GPa)
#
#
# Indices 1 2 3 4 5 6 
#
# 1 0.027676 -0.009453 -0.028602 0.000000 0.000000 0.000000
# 2 -0.009453 0.010354 0.010759 0.000000 0.000000 0.000000
# 3 -0.028602 0.010759 0.069148 0.000000 0.000000 0.000000
# 4 0.000000 0.000000 0.000000 0.075989 0.000000 0.000000
# 5 0.000000 0.000000 0.000000 0.000000 0.047950 0.000000
# 6 0.000000 0.000000 0.000000 0.000000 0.000000 0.037534
#
#
# Mechanical properties :
#
#
# Convention : Reuss Voigt Hill
#
# Bulk Modulus (GPa) = 19.01655 41.69030 30.35343
# Shear Modulus (GPa) = 14.67258 23.95767 19.31513
#
# Velocity S-wave (km/s) = 2.80598 3.58554 3.21944
# Velocity P-wave (km/s) = 4.55002 6.28595 5.48707
#
# Compressibility (1/GPa) = 0.05258578
#
# Stress axis : x y z
#
# Youngs Moduli (GPa) = 36.13292 96.57796 14.46184
#
# Poissons Ratio (x) = 0.91298 0.41364
# Poissons Ratio (y) = 0.34157 -0.15560
# Poissons Ratio (z) = 1.03347 -1.03913
#
# Static dielectric constant tensor:
#      x y z
#    x 1.687590 0.000000 0.000000 
#    y 0.000000 1.691490 0.000000 
#    z 0.000000 0.000000 1.627920 
# 
# From -- ./inp_files/16238.got.cif
#   From: 2010.05.17/outbox.cif.g08.bks.cpg/sg36_9_cif.got.tgz:16238.got - 2010.06.03 17:41:39.
