data_PCOD9352121
_publ_section_title
;
Structure prediction by ZEFSAII (Michael W. Deem and Ramdas Pophale) SiO2 
 PCOD9352121
Probable space group: C M C 21
;
_chemical_formula_sum "Si O2"
_cell_formula_units_Z 64
_cell_length_a 8.778985
_cell_length_b 31.230586
_cell_length_c 12.302032
_cell_angle_alpha 90.000000
_cell_angle_beta 90.000000
_cell_angle_gamma 90.000000
_cell_volume 3372.883125
_symmetry_space_group_name_H-M "C M C 21"
_symmetry_group_IT_number 36
_symmetry_cell_setting 'orthorhombic'
loop_
_space_group_symop_operation_xyz
x,y,z
-x,-y,1/2+z
x,-y,1/2+z
-x,y,z
1/2+x,1/2+y,z
1/2-x,1/2-y,1/2+z
1/2+x,1/2-y,1/2+z
1/2-x,1/2+y,z
loop_
_atom_site_type_symbol
_atom_site_label
_atom_site_fract_x
_atom_site_fract_y
_atom_site_fract_z
Si Si1 0.324305 0.824907 0.945670
Si Si2 0.180303 0.956456 0.179192
Si Si3 0.316631 0.950794 0.720267
Si Si4 0.180762 0.803380 0.719071
Si Si5 0.683333 0.874299 0.561008
Si Si6 0.683412 0.626904 0.818338
Si Si7 0.815982 0.705282 0.679128
Si Si8 0.675784 0.074398 0.462580
O O1 0.500000 0.812815 0.920292
O O2 0.224592 0.818447 0.839477
O O3 0.324190 0.874716 0.976655
O O4 0.271649 0.800387 0.052968
O O5 0.231903 0.916415 0.254156
O O6 0.000000 0.960471 0.192675
O O7 0.257061 0.001465 0.206031
O O8 0.222183 0.945850 0.055257
O O9 0.500000 0.950898 0.716821
O O10 0.266580 0.916720 0.628614
O O11 0.271934 0.935067 0.840377
O O12 0.264097 0.833384 0.631495
O O13 0.224412 0.753435 0.712342
O O14 0.000000 0.806697 0.700600
O O15 0.500000 0.874505 0.553972
O O16 0.752710 0.873496 0.440634
O O17 0.500000 0.627931 0.820734
O O18 0.742856 0.668420 0.753010
O O19 0.000000 0.700358 0.684950
O O20 0.500000 0.059259 0.474606
#
# Coordination Sequence:
#
# PCOD9352121 Si02
#       8
#     8   8   8   8   8   8   8   8
#     4  10  20  40  66  89 120 162 209 257 304 360
#     4  11  25  41  61  93 127 159 199 251 316 369
#     4  10  23  42  64  91 120 161 212 252 298 365
#     4  11  24  40  62  96 129 161 205 255 314 367
#     4  11  24  44  66  90 123 166 212 254 305 368
#     4  11  25  43  62  91 128 165 206 255 313 368
#     4  10  23  42  64  92 125 166 210 252 303 366
#     4  10  20  40  67  90 116 156 209 256 299 359
#
# _framework density 18.974865999999999
#
# number of rings (size 3 to 8) (size 9 to 14) (size 15 to 20)
#    0.000    1.500    2.500    1.500    3.500    5.000 
#    0.000    0.000    0.000    0.000    0.000    0.000 
#    0.000    0.000    0.000    0.000    0.000    0.000 
#
# Total GULP energy -178773.594879 kJ/mol
# GULP energy per Si atom -5586.674840 kJ/mol
# Density = 1.893168 g / cm^3
# Si number density = 18.974866 Si / 1000 Ang^3
#
#
#
# Elastic Constant Matrix: (Units=GPa)
#
#
# Indices 1 2 3 4 5 6 
#
# 1 25.7389 24.8054 23.0227 0.0000 0.0000 0.0000
# 2 24.8054 100.4521 25.2572 0.0000 0.0000 0.0000
# 3 23.0227 25.2572 84.3470 0.0000 0.0000 0.0000
# 4 0.0000 0.0000 0.0000 26.0387 0.0000 0.0000
# 5 0.0000 0.0000 0.0000 0.0000 33.3915 0.0000
# 6 0.0000 0.0000 0.0000 0.0000 0.0000 14.7625
#
#
#
# Elastic Compliance Matrix: (Units=1/GPa)
#
#
# Indices 1 2 3 4 5 6 
#
# 1 0.062496 -0.012051 -0.013450 0.000000 0.000000 0.000000
# 2 -0.012051 0.013089 -0.000630 0.000000 0.000000 0.000000
# 3 -0.013450 -0.000630 0.015716 0.000000 0.000000 0.000000
# 4 0.000000 0.000000 0.000000 0.038404 0.000000 0.000000
# 5 0.000000 0.000000 0.000000 0.000000 0.029948 0.000000
# 6 0.000000 0.000000 0.000000 0.000000 0.000000 0.067739
#
#
# Mechanical properties :
#
#
# Convention : Reuss Voigt Hill
#
# Bulk Modulus (GPa) = 25.61535 39.63429 32.62482
# Shear Modulus (GPa) = 17.08425 24.00205 20.54315
#
# Velocity S-wave (km/s) = 3.00386 3.56046 3.29394
# Velocity P-wave (km/s) = 5.05567 6.15106 5.63007
#
# Compressibility (1/GPa) = 0.03903909
#
# Stress axis : x y z
#
# Youngs Moduli (GPa) = 16.00103 76.39854 63.63081
#
# Poissons Ratio (x) = 0.92067 0.85583
# Poissons Ratio (y) = 0.19283 0.04010
# Poissons Ratio (z) = 0.21521 0.04815
#
# Static dielectric constant tensor:
#      x y z
#    x 1.652960 0.000000 0.000000 
#    y 0.000000 1.662230 0.000000 
#    z 0.000000 0.000000 1.633450 
# 
# From -- ./inp_files/7161.got.cif
#   From: 2010.05.17/outbox.cif.g08.bks.cpg/sg36_4_cif.got.tgz:7161.got - 2010.06.03 17:41:39.
