data_PCOD9352673
_publ_section_title
;
Structure prediction by ZEFSAII (Michael W. Deem and Ramdas Pophale) SiO2 
 PCOD9352673
Probable space group: C M C 21
;
_chemical_formula_sum "Si O2"
_cell_formula_units_Z 48
_cell_length_a 7.783860
_cell_length_b 29.086607
_cell_length_c 8.201466
_cell_angle_alpha 90.000000
_cell_angle_beta 90.000000
_cell_angle_gamma 90.000000
_cell_volume 1856.861741
_symmetry_space_group_name_H-M "C M C 21"
_symmetry_group_IT_number 36
_symmetry_cell_setting 'orthorhombic'
loop_
_space_group_symop_operation_xyz
x,y,z
-x,-y,1/2+z
x,-y,1/2+z
-x,y,z
1/2+x,1/2+y,z
1/2-x,1/2-y,1/2+z
1/2+x,1/2-y,1/2+z
1/2-x,1/2+y,z
loop_
_atom_site_type_symbol
_atom_site_label
_atom_site_fract_x
_atom_site_fract_y
_atom_site_fract_z
Si Si1 0.792382 0.848020 0.147380
Si Si2 0.198516 0.821311 0.653633
Si Si3 0.306755 0.093736 0.960528
Si Si4 0.289581 0.431034 0.944504
Si Si5 0.301136 0.487078 0.255375
Si Si6 0.291227 0.738013 0.456848
O O1 0.714215 0.872450 0.303756
O O2 0.744513 0.879106 0.989037
O O3 0.000000 0.850518 0.165448
O O4 0.744340 0.796205 0.106271
O O5 0.263608 0.871933 0.608420
O O6 0.216076 0.787697 0.496892
O O7 0.273301 0.790018 0.798909
O O8 0.000000 0.827953 0.694584
O O9 0.500000 0.078074 0.974110
O O10 0.203669 0.048115 0.909446
O O11 0.500000 0.431529 0.937411
O O12 0.227575 0.459327 0.104080
O O13 0.226550 0.463168 0.798334
O O14 0.500000 0.494031 0.215555
O O15 0.500000 0.742130 0.449175
#
# Coordination Sequence:
#
# PCOD9352673 Si02
#       6
#     8   8   8   8   8   8
#     4   9  18  36  59  82 109 141 178 221 268 317
#     4  11  23  38  57  81 109 141 177 219 267 319
#     4  11  22  36  54  78 109 145 184 223 267 318
#     4   8  15  28  51  78 102 134 175 216 258 308
#     4   9  17  32  53  77 105 139 179 222 267 312
#     4  10  22  38  58  84 110 138 175 219 267 320
#
# _framework density 25.850066000000002
#
# number of rings (size 3 to 8) (size 9 to 14) (size 15 to 20)
#    0.000    2.333    0.000    4.000    0.000    6.000 
#    0.000    8.333    0.000    0.000    0.000    0.000 
#    0.000    0.000    0.000    0.000    0.000    0.000 
#
# Total GULP energy -134146.229126 kJ/mol
# GULP energy per Si atom -5589.426214 kJ/mol
# Density = 2.579123 g / cm^3
# Si number density = 25.850066 Si / 1000 Ang^3
#
#
#
# Elastic Constant Matrix: (Units=GPa)
#
#
# Indices 1 2 3 4 5 6 
#
# 1 50.3087 -2.0343 -3.8112 0.0000 0.0000 0.0000
# 2 -2.0343 155.8613 8.2692 0.0000 0.0000 0.0000
# 3 -3.8112 8.2692 66.6019 0.0000 0.0000 0.0000
# 4 0.0000 0.0000 0.0000 49.6740 0.0000 0.0000
# 5 0.0000 0.0000 0.0000 0.0000 11.9179 0.0000
# 6 0.0000 0.0000 0.0000 0.0000 0.0000 32.3209
#
#
#
# Elastic Compliance Matrix: (Units=1/GPa)
#
#
# Indices 1 2 3 4 5 6 
#
# 1 0.019970 0.000201 0.001118 0.000000 0.000000 0.000000
# 2 0.000201 0.006461 -0.000791 0.000000 0.000000 0.000000
# 3 0.001118 -0.000791 0.015177 0.000000 0.000000 0.000000
# 4 0.000000 0.000000 0.000000 0.020131 0.000000 0.000000
# 5 0.000000 0.000000 0.000000 0.000000 0.083908 0.000000
# 6 0.000000 0.000000 0.000000 0.000000 0.000000 0.030940
#
#
# Mechanical properties :
#
#
# Convention : Reuss Voigt Hill
#
# Bulk Modulus (GPa) = 23.43878 30.84661 27.14270
# Shear Modulus (GPa) = 26.35041 36.80577 31.57809
#
# Velocity S-wave (km/s) = 3.19620 3.77744 3.49891
# Velocity P-wave (km/s) = 4.76527 5.56635 5.18131
#
# Compressibility (1/GPa) = 0.04266433
#
# Stress axis : x y z
#
# Youngs Moduli (GPa) = 50.07491 154.78597 65.89040
#
# Poissons Ratio (x) = -0.03116 -0.07365
# Poissons Ratio (y) = -0.01008 0.05209
# Poissons Ratio (z) = -0.05597 0.12238
#
# Static dielectric constant tensor:
#      x y z
#    x 1.941690 0.000000 0.000000 
#    y 0.000000 1.996360 0.000000 
#    z 0.000000 0.000000 2.191400 
# 
# From -- ./inp_files/2684.got.cif
#   From: 2010.05.17/outbox.cif.g08.bks.cpg/sg36_2_cif.got.tgz:2684.got - 2010.06.03 17:41:39.
