data_PCOD9352339
_publ_section_title
;
Structure prediction by ZEFSAII (Michael W. Deem and Ramdas Pophale) SiO2 
 PCOD9352339
Probable space group: C M C 21
;
_chemical_formula_sum "Si O2"
_cell_formula_units_Z 48
_cell_length_a 12.761367
_cell_length_b 8.380849
_cell_length_c 20.820699
_cell_angle_alpha 90.000000
_cell_angle_beta 90.000000
_cell_angle_gamma 90.000000
_cell_volume 2226.796450
_symmetry_space_group_name_H-M "C M C 21"
_symmetry_group_IT_number 36
_symmetry_cell_setting 'orthorhombic'
loop_
_space_group_symop_operation_xyz
x,y,z
-x,-y,1/2+z
x,-y,1/2+z
-x,y,z
1/2+x,1/2+y,z
1/2-x,1/2-y,1/2+z
1/2+x,1/2-y,1/2+z
1/2-x,1/2+y,z
loop_
_atom_site_type_symbol
_atom_site_label
_atom_site_fract_x
_atom_site_fract_y
_atom_site_fract_z
Si Si1 0.625818 0.369285 0.715630
Si Si2 0.123634 0.890365 0.447377
Si Si3 0.190474 0.589452 0.119412
Si Si4 0.373407 0.678373 0.801039
Si Si5 0.118096 0.520148 0.754039
Si Si6 0.781039 0.837026 0.024984
O O1 0.500000 0.367094 0.703818
O O2 0.697178 0.367069 0.652102
O O3 0.653874 0.536501 0.750944
O O4 0.651891 0.205822 0.754609
O O5 0.153240 0.877493 0.372570
O O6 0.200844 0.774404 0.486357
O O7 0.000000 0.851617 0.454153
O O8 0.147353 0.063920 0.476554
O O9 0.122490 0.531109 0.179011
O O10 0.153133 0.739382 0.078126
O O11 0.210600 0.454371 0.067570
O O12 0.500000 0.683591 0.796805
O O13 0.338312 0.861006 0.788460
O O14 0.000000 0.530494 0.778452
#
# Coordination Sequence:
#
# PCOD9352339 Si02
#       6
#     8   8   8   8   8   8
#     4  10  21  38  63  93 126 164 202 260 334 387
#     4  10  23  46  65  87 131 173 210 275 325 363
#     4  11  20  38  58  91 127 153 207 265 307 384
#     4   9  20  40  63  91 125 161 211 261 319 394
#     4  10  21  37  60  92 124 158 200 257 326 386
#     4  10  23  39  62  92 123 167 225 254 304 398
#
# _framework density 21.555629
#
# number of rings (size 3 to 8) (size 9 to 14) (size 15 to 20)
#    0.000    2.000    1.667    1.000    0.000    5.333 
#    6.000    2.500    0.000    0.000    0.000    0.000 
#    0.000    0.000    0.000    0.000    0.000    0.000 
#
# Total GULP energy -133856.771724 kJ/mol
# GULP energy per Si atom -5577.365488 kJ/mol
# Density = 2.150657 g / cm^3
# Si number density = 21.555629 Si / 1000 Ang^3
#
#
#
# Elastic Constant Matrix: (Units=GPa)
#
#
# Indices 1 2 3 4 5 6 
#
# 1 70.9821 31.9214 6.4829 0.0000 0.0000 0.0000
# 2 31.9214 110.3667 22.1602 0.0000 0.0000 0.0000
# 3 6.4829 22.1602 76.0181 0.0000 0.0000 0.0000
# 4 0.0000 0.0000 0.0000 37.1749 0.0000 0.0000
# 5 0.0000 0.0000 0.0000 0.0000-2115.3587 0.0000
# 6 0.0000 0.0000 0.0000 0.0000 0.0000 32.8336
#
#
#
# Elastic Compliance Matrix: (Units=1/GPa)
#
#
# Indices 1 2 3 4 5 6 
#
# 1 0.016195 -0.004681 -0.000017 0.000000 0.000000 0.000000
# 2 -0.004681 0.010977 -0.002801 0.000000 0.000000 0.000000
# 3 -0.000017 -0.002801 0.013973 0.000000 0.000000 0.000000
# 4 0.000000 0.000000 0.000000 0.026900 0.000000 0.000000
# 5 0.000000 0.000000 0.000000 0.000000 -0.000473 0.000000
# 6 0.000000 0.000000 0.000000 0.000000 0.000000 0.030457
#
#
# Mechanical properties :
#
#
# Convention : Reuss Voigt Hill
#
# Bulk Modulus (GPa) = 38.24376 42.05510 40.14943
# Shear Modulus (GPa) = 41.07125 -395.94990 -177.43932
#
# Velocity S-wave (km/s) = 4.36978 -13.56784 -9.08271
# Velocity P-wave (km/s) = 6.57574 15.02983 9.55656
#
# Compressibility (1/GPa) = 0.02614806
#
# Stress axis : x y z
#
# Youngs Moduli (GPa) = 61.74934 91.10103 71.56850
#
# Poissons Ratio (x) = 0.42641 0.00119
# Poissons Ratio (y) = 0.28902 0.20044
# Poissons Ratio (z) = 0.00103 0.25515
#
# Static dielectric constant tensor:
#      x y z
#    x 36.154050 0.000000 0.000000 
#    y 0.000000 1.841360 0.000000 
#    z 0.000000 0.000000 1.738820 
# 
# From -- ./inp_files/14586.got.cif
#   From: 2010.05.17/outbox.cif.g08.bks.cpg/sg36_8_cif.got.tgz:14586.got - 2010.06.03 17:41:39.
