data_PCOD9352898
_publ_section_title
;
Structure prediction by ZEFSAII (Michael W. Deem and Ramdas Pophale) SiO2 
 PCOD9352898
Probable space group: C M C 21
;
_chemical_formula_sum "Si O2"
_cell_formula_units_Z 48
_cell_length_a 27.494536
_cell_length_b 7.696246
_cell_length_c 8.596325
_cell_angle_alpha 90.000000
_cell_angle_beta 90.000000
_cell_angle_gamma 90.000000
_cell_volume 1819.022882
_symmetry_space_group_name_H-M "C M C 21"
_symmetry_group_IT_number 36
_symmetry_cell_setting 'orthorhombic'
loop_
_space_group_symop_operation_xyz
x,y,z
-x,-y,1/2+z
x,-y,1/2+z
-x,y,z
1/2+x,1/2+y,z
1/2-x,1/2-y,1/2+z
1/2+x,1/2-y,1/2+z
1/2-x,1/2+y,z
loop_
_atom_site_type_symbol
_atom_site_label
_atom_site_fract_x
_atom_site_fract_y
_atom_site_fract_z
Si Si1 0.352762 0.599506 0.380630
Si Si2 0.606123 0.098077 0.092272
Si Si3 0.000000 0.753930 0.690722
Si Si4 0.763081 0.120018 0.982293
Si Si5 0.500000 0.116886 0.049554
Si Si6 0.602337 0.312222 0.569869
Si Si7 0.700605 0.918291 0.788096
O O1 0.374328 0.768582 0.464254
O O2 0.300462 0.537698 0.445963
O O3 0.356963 0.632924 0.197636
O O4 0.387700 0.436844 0.425452
O O5 0.646797 0.096161 0.224279
O O6 0.603533 0.895211 0.043329
O O7 0.551472 0.162761 0.128696
O O8 0.000000 0.681623 0.869433
O O9 0.949838 0.849600 0.651201
O O10 0.000000 0.591252 0.570959
O O11 0.792618 0.288449 0.932110
O O12 0.719330 0.097414 0.858047
O O13 0.737349 0.122612 0.147213
#
# Coordination Sequence:
#
# PCOD9352898 Si02
#       7
#     8   8   4   8   4   8   8
#     4  12  26  50  73 113 158 197 263 323 385 480
#     4  11  26  46  79 109 150 209 251 327 386 468
#     4  10  22  49  71 115 146 203 262 325 390 483
#     4  12  28  48  74 115 153 208 259 329 387 483
#     4  10  22  47  77 107 156 191 268 317 388 477
#     4  11  27  46  77 109 154 201 258 321 397 462
#     4  12  27  46  75 110 155 202 265 318 398 466
#
# _framework density 26.387796000000002
#
# number of rings (size 3 to 8) (size 9 to 14) (size 15 to 20)
#    0.000    0.667    1.667    5.000    9.333    2.667 
#    6.000    0.000    0.000    0.000    0.000    0.000 
#    0.000    0.000    0.000    0.000    0.000    0.000 
#
# Total GULP energy -134530.939587 kJ/mol
# GULP energy per Si atom -5605.455816 kJ/mol
# Density = 2.632774 g / cm^3
# Si number density = 26.387796 Si / 1000 Ang^3
#
#
#
# Elastic Constant Matrix: (Units=GPa)
#
#
# Indices 1 2 3 4 5 6 
#
# 1 210.4502 42.7429 51.3254 0.0000 0.0000 0.0000
# 2 42.7429 111.2563 24.6475 0.0000 0.0000 0.0000
# 3 51.3254 24.6475 87.8761 0.0000 0.0000 0.0000
# 4 0.0000 0.0000 0.0000 55.0303 0.0000 0.0000
# 5 0.0000 0.0000 0.0000 0.0000 42.5751 0.0000
# 6 0.0000 0.0000 0.0000 0.0000 0.0000 36.0800
#
#
#
# Elastic Compliance Matrix: (Units=1/GPa)
#
#
# Indices 1 2 3 4 5 6 
#
# 1 0.005788 -0.001572 -0.002940 0.000000 0.000000 0.000000
# 2 -0.001572 0.010011 -0.001889 0.000000 0.000000 0.000000
# 3 -0.002940 -0.001889 0.013626 0.000000 0.000000 0.000000
# 4 0.000000 0.000000 0.000000 0.018172 0.000000 0.000000
# 5 0.000000 0.000000 0.000000 0.000000 0.023488 0.000000
# 6 0.000000 0.000000 0.000000 0.000000 0.000000 0.027716
#
#
# Mechanical properties :
#
#
# Convention : Reuss Voigt Hill
#
# Bulk Modulus (GPa) = 60.15917 71.89046 66.02481
# Shear Modulus (GPa) = 42.68214 46.12821 44.40517
#
# Velocity S-wave (km/s) = 4.02617 4.18555 4.10664
# Velocity P-wave (km/s) = 6.66791 7.11768 6.89646
#
# Compressibility (1/GPa) = 0.01662257
#
# Stress axis : x y z
#
# Youngs Moduli (GPa) = 172.77167 99.89070 73.38648
#
# Poissons Ratio (x) = 0.15707 0.21572
# Poissons Ratio (y) = 0.27167 0.13866
# Poissons Ratio (z) = 0.50787 0.18874
#
# Static dielectric constant tensor:
#      x y z
#    x 2.183680 0.000000 0.000000 
#    y 0.000000 2.139650 0.000000 
#    z 0.000000 0.000000 2.002070 
# 
# From -- ./inp_files/6011.got.cif
#   From: 2010.05.17/outbox.cif.g08.bks.cpg/sg36_4_cif.got.tgz:6011.got - 2010.06.03 17:41:39.
