data_PCOD9352305
_publ_section_title
;
Structure prediction by ZEFSAII (Michael W. Deem and Ramdas Pophale) SiO2 
 PCOD9352305
Probable space group: C M C 21
;
_chemical_formula_sum "Si O2"
_cell_formula_units_Z 64
_cell_length_a 15.200378
_cell_length_b 9.366696
_cell_length_c 22.080203
_cell_angle_alpha 90.000000
_cell_angle_beta 90.000000
_cell_angle_gamma 90.000000
_cell_volume 3143.720124
_symmetry_space_group_name_H-M "C M C 21"
_symmetry_group_IT_number 36
_symmetry_cell_setting 'orthorhombic'
loop_
_space_group_symop_operation_xyz
x,y,z
-x,-y,1/2+z
x,-y,1/2+z
-x,y,z
1/2+x,1/2+y,z
1/2-x,1/2-y,1/2+z
1/2+x,1/2-y,1/2+z
1/2-x,1/2+y,z
loop_
_atom_site_type_symbol
_atom_site_label
_atom_site_fract_x
_atom_site_fract_y
_atom_site_fract_z
Si Si1 0.705994 0.896948 0.412880
Si Si2 0.236042 0.148573 0.333912
Si Si3 0.402321 0.349100 0.456563
Si Si4 0.278201 0.008457 0.137917
Si Si5 0.187140 0.895932 0.251141
Si Si6 0.091604 0.253349 0.660064
Si Si7 0.396396 0.039390 0.520927
Si Si8 0.404232 0.497356 0.580259
O O1 0.679728 0.749480 0.379357
O O2 0.811394 0.874914 0.422051
O O3 0.701353 0.039132 0.371166
O O4 0.653434 0.931930 0.474373
O O5 0.287931 0.265004 0.294258
O O6 0.185041 0.041556 0.289075
O O7 0.500000 0.355034 0.426627
O O8 0.395650 0.195360 0.489612
O O9 0.400886 0.466136 0.509821
O O10 0.329413 0.141084 0.164230
O O11 0.184308 0.058317 0.111021
O O12 0.257291 0.911104 0.195881
O O13 0.339097 0.953357 0.082700
O O14 0.099701 0.859333 0.214183
O O15 0.000000 0.332499 0.662954
O O16 0.097475 0.163703 0.598307
O O17 0.500000 0.002339 0.530505
O O18 0.500000 0.441013 0.601664
#
# Coordination Sequence:
#
# PCOD9352305 Si02
#       8
#     8   8   8   8   8   8   8   8
#     4  11  21  41  68  90 126 169 208 269 322 377
#     4  10  22  40  65  91 122 167 222 265 319 376
#     4  10  21  38  59  90 124 164 206 249 313 387
#     4  11  21  35  66  89 132 169 206 257 334 377
#     4  10  21  40  64  93 119 168 217 268 312 383
#     4  10  21  37  57  91 125 166 209 253 313 381
#     4  11  24  39  60  96 134 167 212 258 321 400
#     4   9  20  34  56  88 124 156 201 253 305 379
#
# _framework density 20.358046999999999
#
# number of rings (size 3 to 8) (size 9 to 14) (size 15 to 20)
#    0.000    1.750    3.750    0.375    3.500    1.000 
#    0.000    5.625    0.000    2.250    0.000    0.000 
#    0.000    0.000    0.000    0.000    0.000    0.000 
#
# Total GULP energy -178237.530332 kJ/mol
# GULP energy per Si atom -5569.922823 kJ/mol
# Density = 2.031171 g / cm^3
# Si number density = 20.358047 Si / 1000 Ang^3
#
#
#
# Elastic Constant Matrix: (Units=GPa)
#
#
# Indices 1 2 3 4 5 6 
#
# 1 143.0089 29.8097 40.9321 0.0000 0.0000 0.0000
# 2 29.8097 87.6900 33.9635 0.0000 0.0000 0.0000
# 3 40.9321 33.9635 90.9963 0.0000 0.0000 0.0000
# 4 0.0000 0.0000 0.0000 38.4546 0.0000 0.0000
# 5 0.0000 0.0000 0.0000 0.0000 -2.2275 0.0000
# 6 0.0000 0.0000 0.0000 0.0000 0.0000 14.1545
#
#
#
# Elastic Compliance Matrix: (Units=1/GPa)
#
#
# Indices 1 2 3 4 5 6 
#
# 1 0.008211 -0.001591 -0.003100 0.000000 0.000000 0.000000
# 2 -0.001591 0.013639 -0.004375 0.000000 0.000000 0.000000
# 3 -0.003100 -0.004375 0.014017 0.000000 0.000000 0.000000
# 4 0.000000 0.000000 0.000000 0.026005 0.000000 0.000000
# 5 0.000000 0.000000 0.000000 0.000000 -0.448934 0.000000
# 6 0.000000 0.000000 0.000000 0.000000 0.000000 0.070649
#
#
# Mechanical properties :
#
#
# Convention : Reuss Voigt Hill
#
# Bulk Modulus (GPa) = 56.38329 59.01176 57.69752
# Shear Modulus (GPa) = -17.10166 24.54231 3.72032
#
# Velocity S-wave (km/s) = -2.90150 3.47585 1.35330
# Velocity P-wave (km/s) = 4.06584 6.72001 5.55381
#
# Compressibility (1/GPa) = 0.01773575
#
# Stress axis : x y z
#
# Youngs Moduli (GPa) = 121.78146 73.31847 71.34276
#
# Poissons Ratio (x) = 0.11663 0.22116
# Poissons Ratio (y) = 0.19373 0.31213
# Poissons Ratio (z) = 0.37751 0.32078
#
# Static dielectric constant tensor:
#      x y z
#    x 1.741500 0.000000 0.000000 
#    y 0.000000 1.755520 0.000000 
#    z 0.000000 0.000000 1.772240 
# 
# From -- ./inp_files/16971.got.cif
#   From: 2010.05.17/outbox.cif.g08.bks.cpg/sg36_9_cif.got.tgz:16971.got - 2010.06.03 17:41:39.
