data_PCOD9352231
_publ_section_title
;
Structure prediction by ZEFSAII (Michael W. Deem and Ramdas Pophale) SiO2 
 PCOD9352231
Probable space group: C M C 21
;
_chemical_formula_sum "Si O2"
_cell_formula_units_Z 64
_cell_length_a 7.438280
_cell_length_b 25.978978
_cell_length_c 14.845452
_cell_angle_alpha 90.000000
_cell_angle_beta 90.000000
_cell_angle_gamma 90.000000
_cell_volume 2868.719000
_symmetry_space_group_name_H-M "C M C 21"
_symmetry_group_IT_number 36
_symmetry_cell_setting 'orthorhombic'
loop_
_space_group_symop_operation_xyz
x,y,z
-x,-y,1/2+z
x,-y,1/2+z
-x,y,z
1/2+x,1/2+y,z
1/2-x,1/2-y,1/2+z
1/2+x,1/2-y,1/2+z
1/2-x,1/2+y,z
loop_
_atom_site_type_symbol
_atom_site_label
_atom_site_fract_x
_atom_site_fract_y
_atom_site_fract_z
Si Si1 0.718022 0.390870 0.285020
Si Si2 0.210611 0.306724 0.943031
Si Si3 0.714573 0.997284 0.599059
Si Si4 0.214202 0.884971 0.586257
Si Si5 0.203662 0.997643 0.808739
Si Si6 0.279566 0.309459 0.431412
Si Si7 0.710863 0.107448 0.573623
Si Si8 0.281612 0.612846 0.291780
O O1 0.500000 0.393644 0.286806
O O2 0.785105 0.445932 0.324047
O O3 0.775838 0.342740 0.344765
O O4 0.771610 0.385760 0.180936
O O5 0.284283 0.249237 0.934039
O O6 0.226848 0.339107 0.851574
O O7 0.000000 0.299440 0.964646
O O8 0.289945 0.344872 0.018757
O O9 0.500000 0.001671 0.611860
O O10 0.751312 0.943071 0.552416
O O11 0.799356 0.994738 0.698847
O O12 0.781359 0.049859 0.553739
O O13 0.280389 0.841647 0.518650
O O14 0.282336 0.881632 0.688761
O O15 0.000000 0.878940 0.591097
O O16 0.284655 0.941986 0.832293
O O17 0.000000 0.998758 0.843791
O O18 0.500000 0.309402 0.430112
O O19 0.500000 0.106225 0.550500
O O20 0.500000 0.610023 0.290954
#
# Coordination Sequence:
#
# PCOD9352231 Si02
#       8
#     8   8   8   8   8   8   8   8
#     4   9  17  32  55  78  98 124 162 207 248 287
#     4  10  21  36  51  69  98 136 172 202 239 291
#     4   9  16  28  48  75 102 125 158 201 242 292
#     4   9  18  34  54  74  99 131 163 199 247 297
#     4   8  15  29  49  74 101 126 156 196 247 301
#     4   9  19  35  53  73  97 129 171 209 241 287
#     4   9  19  34  51  73 102 134 163 195 244 300
#     4   9  18  32  51  76 101 125 159 203 246 289
#
# _framework density 22.309608000000001
#
# number of rings (size 3 to 8) (size 9 to 14) (size 15 to 20)
#    0.000    3.000    0.000    1.125    0.000    5.000 
#    0.000    4.375    0.000    0.000    0.000    0.000 
#    0.000    0.000    0.000    0.000    0.000    0.000 
#
# Total GULP energy -178548.323186 kJ/mol
# GULP energy per Si atom -5579.635100 kJ/mol
# Density = 2.225883 g / cm^3
# Si number density = 22.309608 Si / 1000 Ang^3
#
#
#
# Elastic Constant Matrix: (Units=GPa)
#
#
# Indices 1 2 3 4 5 6 
#
# 1 72.3094 -4.7474 -11.5894 0.0000 0.0000 0.0000
# 2 -4.7474 261.3831 85.3979 0.0000 0.0000 0.0000
# 3 -11.5894 85.3979 93.6152 0.0000 0.0000 0.0000
# 4 0.0000 0.0000 0.0000 36.1435 0.0000 0.0000
# 5 0.0000 0.0000 0.0000 0.0000 3.6567 0.0000
# 6 0.0000 0.0000 0.0000 0.0000 0.0000 8.5821
#
#
#
# Elastic Compliance Matrix: (Units=1/GPa)
#
#
# Indices 1 2 3 4 5 6 
#
# 1 0.014146 -0.000449 0.002161 0.000000 0.000000 0.000000
# 2 -0.000449 0.005464 -0.005040 0.000000 0.000000 0.000000
# 3 0.002161 -0.005040 0.015547 0.000000 0.000000 0.000000
# 4 0.000000 0.000000 0.000000 0.027667 0.000000 0.000000
# 5 0.000000 0.000000 0.000000 0.000000 0.273474 0.000000
# 6 0.000000 0.000000 0.000000 0.000000 0.000000 0.116521
#
#
# Mechanical properties :
#
#
# Convention : Reuss Voigt Hill
#
# Bulk Modulus (GPa) = 35.08622 62.82555 48.95589
# Shear Modulus (GPa) = 10.66148 33.55956 22.11052
#
# Velocity S-wave (km/s) = 2.18844 3.88269 3.15155
# Velocity P-wave (km/s) = 4.70603 6.95142 5.93587
#
# Compressibility (1/GPa) = 0.02850122
#
# Stress axis : x y z
#
# Youngs Moduli (GPa) = 70.68977 183.00239 64.31912
#
# Poissons Ratio (x) = 0.08218 -0.13899
# Poissons Ratio (y) = 0.03175 0.32419
# Poissons Ratio (z) = -0.15276 0.92240
#
# Static dielectric constant tensor:
#      x y z
#    x 1.839270 0.000000 0.000000 
#    y 0.000000 1.840960 0.000000 
#    z 0.000000 0.000000 1.802580 
# 
# From -- ./inp_files/10975.got.cif
#   From: 2010.05.17/outbox.cif.g08.bks.cpg/sg36_6_cif.got.tgz:10975.got - 2010.06.03 17:41:39.
