data_PCOD9352058
_publ_section_title
;
Structure prediction by ZEFSAII (Michael W. Deem and Ramdas Pophale) SiO2 
 PCOD9352058
Probable space group: C M C 21
;
_chemical_formula_sum "Si O2"
_cell_formula_units_Z 56
_cell_length_a 13.153074
_cell_length_b 12.501761
_cell_length_c 13.535945
_cell_angle_alpha 90.000000
_cell_angle_beta 90.000000
_cell_angle_gamma 90.000000
_cell_volume 2225.804605
_symmetry_space_group_name_H-M "C M C 21"
_symmetry_group_IT_number 36
_symmetry_cell_setting 'orthorhombic'
loop_
_space_group_symop_operation_xyz
x,y,z
-x,-y,1/2+z
x,-y,1/2+z
-x,y,z
1/2+x,1/2+y,z
1/2-x,1/2-y,1/2+z
1/2+x,1/2-y,1/2+z
1/2-x,1/2+y,z
loop_
_atom_site_type_symbol
_atom_site_label
_atom_site_fract_x
_atom_site_fract_y
_atom_site_fract_z
Si Si1 0.888502 0.779713 0.070440
Si Si2 0.618052 0.132044 0.455378
Si Si3 0.179627 0.821427 0.850219
Si Si4 0.277619 0.138978 0.721530
Si Si5 0.107779 0.944585 0.356082
Si Si6 0.388477 0.355993 0.573441
Si Si7 0.327942 0.951078 0.608893
O O1 0.802246 0.840580 0.132557
O O2 0.889443 0.657880 0.107929
O O3 0.000000 0.829117 0.080223
O O4 0.858279 0.775778 0.955289
O O5 0.500000 0.127096 0.424152
O O6 0.700592 0.153658 0.370031
O O7 0.623819 0.233309 0.532620
O O8 0.649978 0.022463 0.511180
O O9 0.162933 0.742044 0.759157
O O10 0.121553 0.931428 0.835434
O O11 0.204476 0.113220 0.812412
O O12 0.345212 0.037569 0.694383
O O13 0.106722 0.923958 0.471939
O O14 0.000000 0.903413 0.315789
O O15 0.500000 0.365842 0.621003
O O16 0.287768 0.407566 0.619940
#
# Coordination Sequence:
#
# PCOD9352058 Si02
#       7
#     8   8   8   8   8   8   8
#     4  12  26  47  73 103 143 188 237 290 354 424
#     4  11  22  40  68  97 132 179 227 280 347 416
#     4  12  24  45  71 103 140 186 230 294 350 421
#     4  12  25  43  71  98 144 184 234 297 348 413
#     4  11  22  39  64  98 132 170 225 279 342 411
#     4  10  20  38  66  96 129 172 224 280 342 414
#     4  12  22  44  64 101 134 183 230 290 348 417
#
# _framework density 25.15944
#
# number of rings (size 3 to 8) (size 9 to 14) (size 15 to 20)
#    0.000    0.571    5.714    2.143    0.000    2.857 
#    0.000    4.286    0.000    0.000    0.000    0.000 
#    0.000    0.000    0.000    0.000    0.000    0.000 
#
# Total GULP energy -156808.051608 kJ/mol
# GULP energy per Si atom -5600.287557 kJ/mol
# Density = 2.510218 g / cm^3
# Si number density = 25.159440 Si / 1000 Ang^3
#
#
#
# Elastic Constant Matrix: (Units=GPa)
#
#
# Indices 1 2 3 4 5 6 
#
# 1 107.1869 -0.1845 1.1517 0.0000 0.0000 0.0000
# 2 -0.1845 94.8653 -12.7813 0.0000 0.0000 0.0000
# 3 1.1517 -12.7813 47.1314 0.0000 0.0000 0.0000
# 4 0.0000 0.0000 0.0000 39.7624 0.0000 0.0000
# 5 0.0000 0.0000 0.0000 0.0000 15.1825 0.0000
# 6 0.0000 0.0000 0.0000 0.0000 0.0000 17.1270
#
#
#
# Elastic Compliance Matrix: (Units=1/GPa)
#
#
# Indices 1 2 3 4 5 6 
#
# 1 0.009332 -0.000013 -0.000232 0.000000 0.000000 0.000000
# 2 -0.000013 0.010941 0.002967 0.000000 0.000000 0.000000
# 3 -0.000232 0.002967 0.022028 0.000000 0.000000 0.000000
# 4 0.000000 0.000000 0.000000 0.025149 0.000000 0.000000
# 5 0.000000 0.000000 0.000000 0.000000 0.065865 0.000000
# 6 0.000000 0.000000 0.000000 0.000000 0.000000 0.058387
#
#
# Mechanical properties :
#
#
# Convention : Reuss Voigt Hill
#
# Bulk Modulus (GPa) = 20.94413 25.06171 23.00292
# Shear Modulus (GPa) = 24.73137 31.81425 28.27281
#
# Velocity S-wave (km/s) = 3.13866 3.55985 3.35587
# Velocity P-wave (km/s) = 4.63439 5.18454 4.91716
#
# Compressibility (1/GPa) = 0.04774607
#
# Stress axis : x y z
#
# Youngs Moduli (GPa) = 107.15862 91.39906 45.39757
#
# Poissons Ratio (x) = 0.00119 0.01051
# Poissons Ratio (y) = 0.00140 -0.13471
# Poissons Ratio (z) = 0.02481 -0.27121
#
# Static dielectric constant tensor:
#      x y z
#    x 1.968560 0.000000 0.000000 
#    y 0.000000 1.982070 0.000000 
#    z 0.000000 0.000000 2.025660 
# 
# From -- ./inp_files/12150.got.cif
#   From: 2010.05.17/outbox.cif.g08.bks.cpg/sg36_7_cif.got.tgz:12150.got - 2010.06.03 17:41:39.
