data_PCOD9352268
_publ_section_title
;
Structure prediction by ZEFSAII (Michael W. Deem and Ramdas Pophale) SiO2 
 PCOD9352268
Probable space group: C M C 21
;
_chemical_formula_sum "Si O2"
_cell_formula_units_Z 64
_cell_length_a 8.914078
_cell_length_b 14.890408
_cell_length_c 23.368662
_cell_angle_alpha 90.000000
_cell_angle_beta 90.000000
_cell_angle_gamma 90.000000
_cell_volume 3101.822020
_symmetry_space_group_name_H-M "C M C 21"
_symmetry_group_IT_number 36
_symmetry_cell_setting 'orthorhombic'
loop_
_space_group_symop_operation_xyz
x,y,z
-x,-y,1/2+z
x,-y,1/2+z
-x,y,z
1/2+x,1/2+y,z
1/2-x,1/2-y,1/2+z
1/2+x,1/2-y,1/2+z
1/2-x,1/2+y,z
loop_
_atom_site_type_symbol
_atom_site_label
_atom_site_fract_x
_atom_site_fract_y
_atom_site_fract_z
Si Si1 0.673558 0.017680 0.650290
Si Si2 0.178529 0.154058 0.294559
Si Si3 0.679723 0.405354 0.477716
Si Si4 0.819903 0.423516 0.022274
Si Si5 0.180214 0.048146 0.767332
Si Si6 0.179990 0.194329 0.859664
Si Si7 0.674094 0.805209 0.677765
Si Si8 0.819490 0.742997 0.054223
O O1 0.500000 0.044419 0.656300
O O2 0.721814 0.043371 0.586597
O O3 0.765379 0.059455 0.702501
O O4 0.680856 0.909925 0.658619
O O5 0.230172 0.050391 0.289532
O O6 0.247935 0.209854 0.346452
O O7 0.230747 0.200676 0.235228
O O8 0.000000 0.154834 0.298417
O O9 0.500000 0.408917 0.484194
O O10 0.747353 0.504995 0.479454
O O11 0.716173 0.351836 0.419772
O O12 0.754938 0.348545 0.528437
O O13 0.752105 0.324417 0.019007
O O14 0.000000 0.422524 0.016940
O O15 0.000000 0.047705 0.767464
O O16 0.230960 0.125559 0.810074
O O17 0.000000 0.203297 0.856526
O O18 0.500000 0.783409 0.690835
O O19 0.722928 0.751015 0.621492
O O20 0.000000 0.742952 0.051225
#
# Coordination Sequence:
#
# PCOD9352268 Si02
#       8
#     8   8   8   8   8   8   8   8
#     4   9  18  35  58  86 121 155 192 243 298 355
#     4  10  21  36  58  90 120 154 198 246 298 354
#     4  11  24  43  64  88 121 164 212 259 307 362
#     4  11  23  40  61  91 126 160 203 255 307 368
#     4   9  20  38  58  84 118 155 194 240 294 356
#     4  10  23  42  62  85 118 160 203 247 298 361
#     4   9  18  36  59  84 120 161 195 241 304 362
#     4  11  23  40  62  90 122 163 207 253 310 366
#
# _framework density 20.633035
#
# number of rings (size 3 to 8) (size 9 to 14) (size 15 to 20)
#    0.000    2.000    1.250    1.500    1.750    5.000 
#    0.000    1.250    0.000    0.000    0.000    0.000 
#    0.000    0.000    0.000    0.000    0.000    0.000 
#
# Total GULP energy -178828.496421 kJ/mol
# GULP energy per Si atom -5588.390513 kJ/mol
# Density = 2.058607 g / cm^3
# Si number density = 20.633035 Si / 1000 Ang^3
#
#
#
# Elastic Constant Matrix: (Units=GPa)
#
#
# Indices 1 2 3 4 5 6 
#
# 1 23.5511 6.7970 10.3048 0.0000 0.0000 0.0000
# 2 6.7970 59.0921 -5.1940 0.0000 0.0000 0.0000
# 3 10.3048 -5.1940 29.1701 0.0000 0.0000 0.0000
# 4 0.0000 0.0000 0.0000 30.5592 0.0000 0.0000
# 5 0.0000 0.0000 0.0000 0.0000 29.7530 0.0000
# 6 0.0000 0.0000 0.0000 0.0000 0.0000 22.1821
#
#
#
# Elastic Compliance Matrix: (Units=1/GPa)
#
#
# Indices 1 2 3 4 5 6 
#
# 1 0.053677 -0.007966 -0.020381 0.000000 0.000000 0.000000
# 2 -0.007966 0.018374 0.006086 0.000000 0.000000 0.000000
# 3 -0.020381 0.006086 0.042565 0.000000 0.000000 0.000000
# 4 0.000000 0.000000 0.000000 0.032723 0.000000 0.000000
# 5 0.000000 0.000000 0.000000 0.000000 0.033610 0.000000
# 6 0.000000 0.000000 0.000000 0.000000 0.000000 0.045081
#
#
# Mechanical properties :
#
#
# Convention : Reuss Voigt Hill
#
# Bulk Modulus (GPa) = 14.26636 15.06987 14.66812
# Shear Modulus (GPa) = 17.01160 23.15922 20.08541
#
# Velocity S-wave (km/s) = 2.87450 3.35391 3.12341
# Velocity P-wave (km/s) = 4.23631 4.72418 4.48688
#
# Compressibility (1/GPa) = 0.07009496
#
# Stress axis : x y z
#
# Youngs Moduli (GPa) = 18.62987 54.42509 23.49347
#
# Poissons Ratio (x) = 0.43353 0.47881
# Poissons Ratio (y) = 0.14840 -0.14297
# Poissons Ratio (z) = 0.37969 -0.33121
#
# Static dielectric constant tensor:
#      x y z
#    x 1.688020 0.000000 0.000000 
#    y 0.000000 1.775510 0.000000 
#    z 0.000000 0.000000 1.738170 
# 
# From -- ./inp_files/15713.got.cif
#   From: 2010.05.17/outbox.cif.g08.bks.cpg/sg36_8_cif.got.tgz:15713.got - 2010.06.03 17:41:39.
