data_PCOD9352248
_publ_section_title
;
Structure prediction by ZEFSAII (Michael W. Deem and Ramdas Pophale) SiO2 
 PCOD9352248
Probable space group: C M C 21
;
_chemical_formula_sum "Si O2"
_cell_formula_units_Z 64
_cell_length_a 7.389786
_cell_length_b 14.768425
_cell_length_c 22.328289
_cell_angle_alpha 90.000000
_cell_angle_beta 90.000000
_cell_angle_gamma 90.000000
_cell_volume 2436.808991
_symmetry_space_group_name_H-M "C M C 21"
_symmetry_group_IT_number 36
_symmetry_cell_setting 'orthorhombic'
loop_
_space_group_symop_operation_xyz
x,y,z
-x,-y,1/2+z
x,-y,1/2+z
-x,y,z
1/2+x,1/2+y,z
1/2-x,1/2-y,1/2+z
1/2+x,1/2-y,1/2+z
1/2-x,1/2+y,z
loop_
_atom_site_type_symbol
_atom_site_label
_atom_site_fract_x
_atom_site_fract_y
_atom_site_fract_z
Si Si1 0.280692 0.837350 0.940960
Si Si2 0.778770 0.131951 0.972313
Si Si3 0.795912 0.183896 0.624660
Si Si4 0.210403 0.451962 0.214348
Si Si5 0.716561 0.410501 0.341471
Si Si6 0.778397 0.642196 0.180190
Si Si7 0.280506 0.205757 0.310519
Si Si8 0.293783 0.471242 0.043104
O O1 0.500000 0.841085 0.942968
O O2 0.228783 0.737851 0.967335
O O3 0.223563 0.843772 0.871616
O O4 0.203593 0.917198 0.980412
O O5 0.718810 0.084706 0.909706
O O6 0.000000 0.130331 0.973600
O O7 0.714068 0.069498 0.027247
O O8 0.805430 0.138017 0.690516
O O9 0.713278 0.282578 0.633433
O O10 0.706444 0.105272 0.585405
O O11 0.000000 0.196058 0.601386
O O12 0.228115 0.471339 0.285159
O O13 0.274867 0.537976 0.175898
O O14 0.000000 0.438333 0.203453
O O15 0.500000 0.414085 0.343750
O O16 0.772261 0.309793 0.320673
O O17 0.717966 0.671204 0.246655
O O18 0.000000 0.644737 0.178979
O O19 0.500000 0.202438 0.309789
O O20 0.500000 0.485003 0.063463
#
# Coordination Sequence:
#
# PCOD9352248 Si02
#       8
#     8   8   8   8   8   8   8   8
#     4   9  18  33  55  79 104 142 178 210 261 324
#     4   8  17  34  54  79 110 142 175 215 264 319
#     4  10  21  40  59  72 102 152 190 210 257 335
#     4  11  22  33  52  82 109 131 173 236 276 298
#     4   9  16  32  57  77 105 147 179 204 258 338
#     4   9  18  33  53  76 103 139 178 215 260 323
#     4   8  14  29  54  76 100 139 181 205 242 326
#     4  10  21  36  56  81 107 140 182 227 264 307
#
# _framework density 26.263853000000001
#
# number of rings (size 3 to 8) (size 9 to 14) (size 15 to 20)
#    0.000    2.750    1.250    1.875    1.750    1.500 
#    0.000    4.375    0.000    0.000    0.000    0.000 
#    0.000    0.000    0.000    0.000    0.000    0.000 
#
# Total GULP energy -178865.514424 kJ/mol
# GULP energy per Si atom -5589.547326 kJ/mol
# Density = 2.620408 g / cm^3
# Si number density = 26.263853 Si / 1000 Ang^3
#
#
#
# Elastic Constant Matrix: (Units=GPa)
#
#
# Indices 1 2 3 4 5 6 
#
# 1 107.0658 5.1412 5.6749 0.0000 0.0000 0.0000
# 2 5.1412 107.6725 30.2196 0.0000 0.0000 0.0000
# 3 5.6749 30.2196 64.0580 0.0000 0.0000 0.0000
# 4 0.0000 0.0000 0.0000 58.9984 0.0000 0.0000
# 5 0.0000 0.0000 0.0000 0.0000 12.5175 0.0000
# 6 0.0000 0.0000 0.0000 0.0000 0.0000 -0.9327
#
#
#
# Elastic Compliance Matrix: (Units=1/GPa)
#
#
# Indices 1 2 3 4 5 6 
#
# 1 0.009390 -0.000248 -0.000715 0.000000 0.000000 0.000000
# 2 -0.000248 0.010711 -0.005031 0.000000 0.000000 0.000000
# 3 -0.000715 -0.005031 0.018048 0.000000 0.000000 0.000000
# 4 0.000000 0.000000 0.000000 0.016950 0.000000 0.000000
# 5 0.000000 0.000000 0.000000 0.000000 0.079888 0.000000
# 6 0.000000 0.000000 0.000000 0.000000 0.000000 -1.072099
#
#
# Mechanical properties :
#
#
# Convention : Reuss Voigt Hill
#
# Bulk Modulus (GPa) = 38.22465 40.09642 39.16054
# Shear Modulus (GPa) = -5.45611 29.96735 12.25562
#
# Velocity S-wave (km/s) = -1.44289 3.38155 2.16252
# Velocity P-wave (km/s) = 3.43654 5.52688 4.60197
#
# Compressibility (1/GPa) = 0.02616113
#
# Stress axis : x y z
#
# Youngs Moduli (GPa) = 106.49812 93.35929 55.40883
#
# Poissons Ratio (x) = 0.02312 0.03962
# Poissons Ratio (y) = 0.02638 0.27877
# Poissons Ratio (z) = 0.07615 0.46971
#
# Static dielectric constant tensor:
#      x y z
#    x 1.972840 0.000000 0.000000 
#    y 0.000000 2.040060 0.000000 
#    z 0.000000 0.000000 2.121990 
# 
# From -- ./inp_files/16689.got.cif
#   From: 2010.05.17/outbox.cif.g08.bks.cpg/sg36_9_cif.got.tgz:16689.got - 2010.06.03 17:41:39.
