data_PCOD9352021
_publ_section_title
;
Structure prediction by ZEFSAII (Michael W. Deem and Ramdas Pophale) SiO2 
 PCOD9352021
Probable space group: C M C 21
;
_chemical_formula_sum "Si O2"
_cell_formula_units_Z 48
_cell_length_a 16.326784
_cell_length_b 8.602800
_cell_length_c 15.969520
_cell_angle_alpha 90.000000
_cell_angle_beta 90.000000
_cell_angle_gamma 90.000000
_cell_volume 2243.015818
_symmetry_space_group_name_H-M "C M C 21"
_symmetry_group_IT_number 36
_symmetry_cell_setting 'orthorhombic'
loop_
_space_group_symop_operation_xyz
x,y,z
-x,-y,1/2+z
x,-y,1/2+z
-x,y,z
1/2+x,1/2+y,z
1/2-x,1/2-y,1/2+z
1/2+x,1/2-y,1/2+z
1/2-x,1/2+y,z
loop_
_atom_site_type_symbol
_atom_site_label
_atom_site_fract_x
_atom_site_fract_y
_atom_site_fract_z
Si Si1 0.174937 0.563487 0.412390
Si Si2 0.000000 0.063130 0.915876
Si Si3 0.333273 0.405905 0.664564
Si Si4 0.332433 0.598257 0.974327
Si Si5 0.500000 0.574586 0.715552
Si Si6 0.500000 0.070175 0.421743
Si Si7 0.000000 0.438033 0.717972
Si Si8 0.173457 0.427653 0.225737
O O1 0.252659 0.504340 0.462023
O O2 0.172897 0.751038 0.414285
O O3 0.087617 0.507152 0.449871
O O4 0.180759 0.499012 0.318513
O O5 0.000000 0.246014 0.941575
O O6 0.000000 0.054317 0.816100
O O7 0.085486 0.003029 0.951751
O O8 0.336681 0.345704 0.569538
O O9 0.417013 0.497317 0.682133
O O10 0.252909 0.511224 0.676649
O O11 0.326631 0.258237 0.725339
O O12 0.500000 0.757120 0.695638
O O13 0.500000 0.055069 0.320268
O O14 0.915011 0.517352 0.690647
#
# Coordination Sequence:
#
# PCOD9352021 Si02
#       8
#     8   4   8   8   4   4   4   8
#     4  10  20  38  62  85 117 161 206 249 304 372
#     4   9  19  37  60  82 113 156 196 238 297 362
#     4  12  24  38  60  92 128 162 204 259 316 367
#     4  11  22  39  59  87 122 160 200 256 314 361
#     4  11  22  40  64  92 121 160 206 253 304 374
#     4   7  16  34  58  84 109 144 192 245 292 344
#     4   9  19  37  62  88 117 150 202 258 301 352
#     4  11  22  40  63  92 123 164 210 256 307 374
#
# _framework density 21.399761000000002
#
# number of rings (size 3 to 8) (size 9 to 14) (size 15 to 20)
#    0.000    1.667    0.000    6.000    0.000    0.000 
#    0.000    3.333    0.000    2.000    0.000    0.000 
#    0.000    0.000    0.000    0.000    0.000    0.000 
#
# Total GULP energy -134082.673162 kJ/mol
# GULP energy per Si atom -5586.778048 kJ/mol
# Density = 2.135105 g / cm^3
# Si number density = 21.399761 Si / 1000 Ang^3
#
#
#
# Elastic Constant Matrix: (Units=GPa)
#
#
# Indices 1 2 3 4 5 6 
#
# 1 224.3476 47.9244 16.2322 0.0000 0.0000 0.0000
# 2 47.9244 60.6490 -17.1199 0.0000 0.0000 0.0000
# 3 16.2322 -17.1199 42.5906 0.0000 0.0000 0.0000
# 4 0.0000 0.0000 0.0000 20.7884 0.0000 0.0000
# 5 0.0000 0.0000 0.0000 0.0000 1.0223 0.0000
# 6 0.0000 0.0000 0.0000 0.0000 0.0000 31.8580
#
#
#
# Elastic Compliance Matrix: (Units=1/GPa)
#
#
# Indices 1 2 3 4 5 6 
#
# 1 0.006134 -0.006212 -0.004835 0.000000 0.000000 0.000000
# 2 -0.006212 0.024889 0.012372 0.000000 0.000000 0.000000
# 3 -0.004835 0.012372 0.030295 0.000000 0.000000 0.000000
# 4 0.000000 0.000000 0.000000 0.048104 0.000000 0.000000
# 5 0.000000 0.000000 0.000000 0.000000 0.978174 0.000000
# 6 0.000000 0.000000 0.000000 0.000000 0.000000 0.031389
#
#
# Mechanical properties :
#
#
# Convention : Reuss Voigt Hill
#
# Bulk Modulus (GPa) = 15.63250 46.85120 31.24185
# Shear Modulus (GPa) = 4.39499 29.43711 16.91605
#
# Velocity S-wave (km/s) = 1.43465 3.71291 2.81459
# Velocity P-wave (km/s) = 3.17256 6.34994 5.01931
#
# Compressibility (1/GPa) = 0.06396931
#
# Stress axis : x y z
#
# Youngs Moduli (GPa) = 163.02164 40.17792 33.00855
#
# Poissons Ratio (x) = 0.24958 0.15959
# Poissons Ratio (y) = 1.01268 -0.40839
# Poissons Ratio (z) = 0.78818 -0.49709
#
# Static dielectric constant tensor:
#      x y z
#    x 1.818490 0.000000 0.000000 
#    y 0.000000 1.750280 0.000000 
#    z 0.000000 0.000000 1.786370 
# 
# From -- ./inp_files/12549.got.cif
#   From: 2010.05.17/outbox.cif.g08.bks.cpg/sg36_7_cif.got.tgz:12549.got - 2010.06.03 17:41:39.
