data_PCOD9352318
_publ_section_title
;
Structure prediction by ZEFSAII (Michael W. Deem and Ramdas Pophale) SiO2 
 PCOD9352318
Probable space group: C M C 21
;
_chemical_formula_sum "Si O2"
_cell_formula_units_Z 64
_cell_length_a 8.947269
_cell_length_b 32.729071
_cell_length_c 11.153267
_cell_angle_alpha 90.000000
_cell_angle_beta 90.000000
_cell_angle_gamma 90.000000
_cell_volume 3266.075891
_symmetry_space_group_name_H-M "C M C 21"
_symmetry_group_IT_number 36
_symmetry_cell_setting 'orthorhombic'
loop_
_space_group_symop_operation_xyz
x,y,z
-x,-y,1/2+z
x,-y,1/2+z
-x,y,z
1/2+x,1/2+y,z
1/2-x,1/2-y,1/2+z
1/2+x,1/2-y,1/2+z
1/2-x,1/2+y,z
loop_
_atom_site_type_symbol
_atom_site_label
_atom_site_fract_x
_atom_site_fract_y
_atom_site_fract_z
Si Si1 0.326440 0.366334 0.035760
Si Si2 0.174921 0.426669 0.591928
Si Si3 0.820392 0.718595 0.590048
Si Si4 0.318168 0.766647 0.364139
Si Si5 0.672444 0.924303 0.874678
Si Si6 0.823429 0.008181 0.920991
Si Si7 0.673623 0.421131 0.257300
Si Si8 0.822427 0.642903 0.929777
O O1 0.500000 0.354769 0.026964
O O2 0.235380 0.328344 0.088360
O O3 0.314421 0.405771 0.122691
O O4 0.260719 0.383852 0.913473
O O5 0.184827 0.430092 0.732860
O O6 0.272845 0.459984 0.522864
O O7 0.220439 0.380881 0.550932
O O8 0.000000 0.432454 0.556370
O O9 0.749741 0.738303 0.469289
O O10 0.778724 0.738053 0.721452
O O11 0.000000 0.720072 0.582151
O O12 0.500000 0.763837 0.370391
O O13 0.264058 0.812274 0.401115
O O14 0.500000 0.919103 0.909533
O O15 0.736577 0.966099 0.928495
O O16 0.000000 0.000246 0.927489
O O17 0.789335 0.032902 0.796844
O O18 0.500000 0.415301 0.293919
O O19 0.773499 0.389663 0.330832
O O20 0.000000 0.647400 0.928870
#
# Coordination Sequence:
#
# PCOD9352318 Si02
#       8
#     8   8   8   8   8   8   8   8
#     4  11  23  40  62  89 122 161 203 251 309 368
#     4   9  20  38  58  84 116 154 198 250 305 362
#     4  11  24  42  65  95 129 168 216 265 322 387
#     4  10  22  40  63  95 129 166 210 264 323 382
#     4  11  24  39  56  85 122 159 205 252 305 369
#     4  10  21  37  58  85 116 155 200 248 304 361
#     4   9  19  35  58  86 114 147 192 241 293 352
#     4   9  17  35  62  85 112 148 192 243 299 357
#
# _framework density 19.595381
#
# number of rings (size 3 to 8) (size 9 to 14) (size 15 to 20)
#    0.000    2.000    1.250    1.500    1.750    4.500 
#    0.000    1.250    0.000    0.000    0.000    0.000 
#    0.000    0.000    0.000    0.000    0.000    0.000 
#
# Total GULP energy -178390.927802 kJ/mol
# GULP energy per Si atom -5574.716494 kJ/mol
# Density = 1.955078 g / cm^3
# Si number density = 19.595381 Si / 1000 Ang^3
#
#
#
# Elastic Constant Matrix: (Units=GPa)
#
#
# Indices 1 2 3 4 5 6 
#
# 1 30.7434 16.5441 38.7932 0.0000 0.0000 0.0000
# 2 16.5441 58.2428 37.6155 0.0000 0.0000 0.0000
# 3 38.7932 37.6155 79.2000 0.0000 0.0000 0.0000
# 4 0.0000 0.0000 0.0000 25.1059 0.0000 0.0000
# 5 0.0000 0.0000 0.0000 0.0000 21.5641 0.0000
# 6 0.0000 0.0000 0.0000 0.0000 0.0000 27.7932
#
#
#
# Elastic Compliance Matrix: (Units=1/GPa)
#
#
# Indices 1 2 3 4 5 6 
#
# 1 0.085804 0.003996 -0.043926 0.000000 0.000000 0.000000
# 2 0.003996 0.024952 -0.013808 0.000000 0.000000 0.000000
# 3 -0.043926 -0.013808 0.040700 0.000000 0.000000 0.000000
# 4 0.000000 0.000000 0.000000 0.039831 0.000000 0.000000
# 5 0.000000 0.000000 0.000000 0.000000 0.046373 0.000000
# 6 0.000000 0.000000 0.000000 0.000000 0.000000 0.035980
#
#
# Mechanical properties :
#
#
# Convention : Reuss Voigt Hill
#
# Bulk Modulus (GPa) = 22.73748 39.34353 31.04050
# Shear Modulus (GPa) = 12.63336 19.90820 16.27078
#
# Velocity S-wave (km/s) = 2.54187 3.19088 2.88468
# Velocity P-wave (km/s) = 4.49928 5.80492 5.19330
#
# Compressibility (1/GPa) = 0.04398025
#
# Stress axis : x y z
#
# Youngs Moduli (GPa) = 11.65443 40.07638 24.57007
#
# Poissons Ratio (x) = -0.16015 1.07926
# Poissons Ratio (y) = -0.04657 0.33927
# Poissons Ratio (z) = 0.51193 0.55339
#
# Static dielectric constant tensor:
#      x y z
#    x 1.673130 0.000000 0.000000 
#    y 0.000000 1.680410 0.000000 
#    z 0.000000 0.000000 1.736100 
# 
# From -- ./inp_files/7146.got.cif
#   From: 2010.05.17/outbox.cif.g08.bks.cpg/sg36_4_cif.got.tgz:7146.got - 2010.06.03 17:41:39.
