data_PCOD9352693
_publ_section_title
;
Structure prediction by ZEFSAII (Michael W. Deem and Ramdas Pophale) SiO2 
 PCOD9352693
Probable space group: C M C 21
;
_chemical_formula_sum "Si O2"
_cell_formula_units_Z 64
_cell_length_a 11.153258
_cell_length_b 9.415715
_cell_length_c 26.806410
_cell_angle_alpha 90.000000
_cell_angle_beta 90.000000
_cell_angle_gamma 90.000000
_cell_volume 2815.099236
_symmetry_space_group_name_H-M "C M C 21"
_symmetry_group_IT_number 36
_symmetry_cell_setting 'orthorhombic'
loop_
_space_group_symop_operation_xyz
x,y,z
-x,-y,1/2+z
x,-y,1/2+z
-x,y,z
1/2+x,1/2+y,z
1/2-x,1/2-y,1/2+z
1/2+x,1/2-y,1/2+z
1/2-x,1/2+y,z
loop_
_atom_site_type_symbol
_atom_site_label
_atom_site_fract_x
_atom_site_fract_y
_atom_site_fract_z
Si Si1 0.634831 0.619437 0.239260
Si Si2 0.864525 0.202620 0.582520
Si Si3 0.873679 0.872254 0.353506
Si Si4 0.364525 0.702620 0.702115
Si Si5 0.873174 0.700505 0.833839
Si Si6 0.365169 0.380563 0.545376
Si Si7 0.873679 0.127746 0.431130
Si Si8 0.126826 0.299495 0.950796
O O1 0.500000 0.664405 0.220611
O O2 0.645888 0.455262 0.224947
O O3 0.751125 0.702378 0.218679
O O4 0.630749 0.661743 0.298007
O O5 0.859289 0.189534 0.642318
O O6 0.751125 0.297622 0.565957
O O7 0.000000 0.258157 0.570238
O O8 0.854112 0.044738 0.559689
O O9 0.750647 0.876966 0.324216
O O10 0.872892 0.738595 0.392027
O O11 0.000000 0.868043 0.325420
O O12 0.875639 0.000000 0.392318
O O13 0.500000 0.758157 0.714397
O O14 0.872892 0.738595 0.892608
O O15 0.000000 0.626736 0.822854
O O16 0.500000 0.335595 0.564025
O O17 0.369251 0.338257 0.486629
O O18 0.750647 0.123034 0.460419
O O19 0.000000 0.131957 0.459216
O O20 0.000000 0.373264 0.961782
#
# Coordination Sequence:
#
# PCOD9352693 Si02
#       8
#     8   8   8   8   8   8   8   8
#     4  10  22  39  61  88 119 153 192 239 289 345
#     4  10  22  40  62  88 117 151 191 238 293 350
#     4   9  18  32  53  76 104 144 185 227 275 328
#     4  10  22  40  62  88 117 151 191 238 293 350
#     4   9  19  34  50  77 110 142 183 229 278 332
#     4  10  22  39  61  88 119 153 192 239 289 345
#     4   9  18  32  53  76 104 144 185 227 275 328
#     4   9  19  34  50  77 110 142 183 229 278 332
#
# _framework density 22.734545000000001
#
# number of rings (size 3 to 8) (size 9 to 14) (size 15 to 20)
#    0.000    2.500    0.000    0.750    3.500    4.000 
#    0.000    0.000    0.000    0.000    0.000    0.000 
#    0.000    0.000    0.000    0.000    0.000    0.000 
#
# Total GULP energy -178384.753057 kJ/mol
# GULP energy per Si atom -5574.523533 kJ/mol
# Density = 2.268280 g / cm^3
# Si number density = 22.734545 Si / 1000 Ang^3
#
#
#
# Elastic Constant Matrix: (Units=GPa)
#
#
# Indices 1 2 3 4 5 6 
#
# 1 319.5399 78.8638 48.5778 0.0000 0.0000 0.0000
# 2 78.8638 41.1231 2.9491 0.0000 0.0000 0.0000
# 3 48.5778 2.9491 88.9369 0.0000 0.0000 0.0000
# 4 0.0000 0.0000 0.0000 26.5876 0.0000 0.0000
# 5 0.0000 0.0000 0.0000 0.0000 20.7860 0.0000
# 6 0.0000 0.0000 0.0000 0.0000 0.0000 32.1174
#
#
#
# Elastic Compliance Matrix: (Units=1/GPa)
#
#
# Indices 1 2 3 4 5 6 
#
# 1 0.006778 -0.012763 -0.003279 0.000000 0.000000 0.000000
# 2 -0.012763 0.048410 0.005366 0.000000 0.000000 0.000000
# 3 -0.003279 0.005366 0.012857 0.000000 0.000000 0.000000
# 4 0.000000 0.000000 0.000000 0.037611 0.000000 0.000000
# 5 0.000000 0.000000 0.000000 0.000000 0.048109 0.000000
# 6 0.000000 0.000000 0.000000 0.000000 0.000000 0.031136
#
#
# Mechanical properties :
#
#
# Convention : Reuss Voigt Hill
#
# Bulk Modulus (GPa) = 21.41685 78.93126 50.17405
# Shear Modulus (GPa) = 22.54104 37.17882 29.85993
#
# Velocity S-wave (km/s) = 3.15221 4.04833 3.62804
# Velocity P-wave (km/s) = 4.76334 7.52635 6.29823
#
# Compressibility (1/GPa) = 0.04669222
#
# Stress axis : x y z
#
# Youngs Moduli (GPa) = 147.53464 20.65706 77.77871
#
# Poissons Ratio (x) = 0.26366 0.25504
# Poissons Ratio (y) = 1.88306 -0.41738
# Poissons Ratio (z) = 0.48376 -0.11085
#
# Static dielectric constant tensor:
#      x y z
#    x 1.919390 0.000000 0.000000 
#    y 0.000000 1.843150 0.000000 
#    z 0.000000 0.000000 1.855950 
# 
# From -- ./inp_files/17314.got.cif
#   From: 2010.05.17/outbox.cif.g08.bks.cpg/sg36_9_cif.got.tgz:17314.got - 2010.06.03 17:41:39.
