data_PCOD9352345
_publ_section_title
;
Structure prediction by ZEFSAII (Michael W. Deem and Ramdas Pophale) SiO2 
 PCOD9352345
Probable space group: C M C 21
;
_chemical_formula_sum "Si O2"
_cell_formula_units_Z 48
_cell_length_a 19.332954
_cell_length_b 14.893738
_cell_length_c 7.062947
_cell_angle_alpha 90.000000
_cell_angle_beta 90.000000
_cell_angle_gamma 90.000000
_cell_volume 2033.704618
_symmetry_space_group_name_H-M "C M C 21"
_symmetry_group_IT_number 36
_symmetry_cell_setting 'orthorhombic'
loop_
_space_group_symop_operation_xyz
x,y,z
-x,-y,1/2+z
x,-y,1/2+z
-x,y,z
1/2+x,1/2+y,z
1/2-x,1/2-y,1/2+z
1/2+x,1/2-y,1/2+z
1/2-x,1/2+y,z
loop_
_atom_site_type_symbol
_atom_site_label
_atom_site_fract_x
_atom_site_fract_y
_atom_site_fract_z
Si Si1 0.117894 0.922845 0.407340
Si Si2 0.839719 0.732799 0.748987
Si Si3 0.578415 0.770496 0.857731
Si Si4 0.420293 0.382022 0.823354
Si Si5 0.762134 0.568490 0.687434
Si Si6 0.715550 0.865579 0.758522
O O1 0.078964 0.837222 0.319422
O O2 0.121096 0.899522 0.628254
O O3 0.189361 0.927654 0.295536
O O4 0.083868 0.021024 0.417549
O O5 0.893670 0.721485 0.575188
O O6 0.880543 0.794999 0.898934
O O7 0.814344 0.633714 0.800794
O O8 0.769350 0.787939 0.695817
O O9 0.500000 0.802863 0.834661
O O10 0.638747 0.824821 0.753135
O O11 0.500000 0.361145 0.787247
O O12 0.762758 0.611130 0.477319
O O13 0.781181 0.464265 0.668168
#
# Coordination Sequence:
#
# PCOD9352345 Si02
#       6
#     8   8   8   8   8   8
#     4  11  20  36  59  86 122 153 197 251 306 371
#     4  10  21  37  62  88 120 163 204 257 303 377
#     4  10  22  42  64  90 126 169 208 258 321 376
#     4  11  22  36  57  86 121 159 195 241 308 368
#     4  11  23  38  60  94 119 159 212 259 304 375
#     4  11  23  39  62  94 125 163 210 260 313 377
#
# _framework density 23.602246000000001
#
# number of rings (size 3 to 8) (size 9 to 14) (size 15 to 20)
#    0.000    1.333    3.333    4.000    2.333    0.000 
#    0.000    4.167    0.000    0.000    0.000    0.000 
#    0.000    0.000    0.000    0.000    0.000    0.000 
#
# Total GULP energy -134080.956054 kJ/mol
# GULP energy per Si atom -5586.706502 kJ/mol
# Density = 2.354853 g / cm^3
# Si number density = 23.602246 Si / 1000 Ang^3
#
#
#
# Elastic Constant Matrix: (Units=GPa)
#
#
# Indices 1 2 3 4 5 6 
#
# 1 186.5278 63.1662 17.6087 0.0000 0.0000 0.0000
# 2 63.1662 140.9926 26.0423 0.0000 0.0000 0.0000
# 3 17.6087 26.0423 54.5868 0.0000 0.0000 0.0000
# 4 0.0000 0.0000 0.0000 37.8207 0.0000 0.0000
# 5 0.0000 0.0000 0.0000 0.0000 16.3493 0.0000
# 6 0.0000 0.0000 0.0000 0.0000 0.0000 39.2223
#
#
#
# Elastic Compliance Matrix: (Units=1/GPa)
#
#
# Indices 1 2 3 4 5 6 
#
# 1 0.006348 -0.002704 -0.000758 0.000000 0.000000 0.000000
# 2 -0.002704 0.008930 -0.003388 0.000000 0.000000 0.000000
# 3 -0.000758 -0.003388 0.020180 0.000000 0.000000 0.000000
# 4 0.000000 0.000000 0.000000 0.026441 0.000000 0.000000
# 5 0.000000 0.000000 0.000000 0.000000 0.061165 0.000000
# 6 0.000000 0.000000 0.000000 0.000000 0.000000 0.025496
#
#
# Mechanical properties :
#
#
# Convention : Reuss Voigt Hill
#
# Bulk Modulus (GPa) = 45.95865 66.19349 56.07607
# Shear Modulus (GPa) = 29.49640 37.03113 33.26377
#
# Velocity S-wave (km/s) = 3.53899 3.96532 3.75820
# Velocity P-wave (km/s) = 6.01778 7.00509 6.53012
#
# Compressibility (1/GPa) = 0.02175869
#
# Stress axis : x y z
#
# Youngs Moduli (GPa) = 157.51949 111.98391 49.55353
#
# Poissons Ratio (x) = 0.30283 0.03755
# Poissons Ratio (y) = 0.42596 0.16788
# Poissons Ratio (z) = 0.11936 0.37939
#
# Static dielectric constant tensor:
#      x y z
#    x 1.867220 0.000000 0.000000 
#    y 0.000000 1.978000 0.000000 
#    z 0.000000 0.000000 2.045610 
# 
# From -- ./inp_files/4659.got.cif
#   From: 2010.05.17/outbox.cif.g08.bks.cpg/sg36_3_cif.got.tgz:4659.got - 2010.06.03 17:41:39.
