data_PCOD9352158
_publ_section_title
;
Structure prediction by ZEFSAII (Michael W. Deem and Ramdas Pophale) SiO2 
 PCOD9352158
Probable space group: C M C 21
;
_chemical_formula_sum "Si O2"
_cell_formula_units_Z 56
_cell_length_a 16.881416
_cell_length_b 26.461898
_cell_length_c 5.469650
_cell_angle_alpha 90.000000
_cell_angle_beta 90.000000
_cell_angle_gamma 90.000000
_cell_volume 2443.370916
_symmetry_space_group_name_H-M "C M C 21"
_symmetry_group_IT_number 36
_symmetry_cell_setting 'orthorhombic'
loop_
_space_group_symop_operation_xyz
x,y,z
-x,-y,1/2+z
x,-y,1/2+z
-x,y,z
1/2+x,1/2+y,z
1/2-x,1/2-y,1/2+z
1/2+x,1/2-y,1/2+z
1/2-x,1/2+y,z
loop_
_atom_site_type_symbol
_atom_site_label
_atom_site_fract_x
_atom_site_fract_y
_atom_site_fract_z
Si Si1 0.091873 0.951365 0.935850
Si Si2 0.213818 0.629462 0.155329
Si Si3 0.087148 0.614787 0.524061
Si Si4 0.154062 0.063758 0.934937
Si Si5 0.089512 0.699825 0.869716
Si Si6 0.286002 0.273686 0.867132
Si Si7 0.406778 0.021551 0.837443
O O1 0.103351 0.924188 0.677551
O O2 0.000000 0.966535 0.967371
O O3 0.145922 0.002368 0.923133
O O4 0.119301 0.920698 0.173157
O O5 0.263021 0.591256 0.986913
O O6 0.153185 0.667003 0.018566
O O7 0.158909 0.601617 0.351169
O O8 0.270649 0.668291 0.301143
O O9 0.090675 0.672904 0.604583
O O10 0.092824 0.580264 0.765970
O O11 0.000000 0.604907 0.414969
O O12 0.123011 0.756011 0.868986
O O13 0.000000 0.695436 0.962271
O O14 0.249615 0.241688 0.634029
O O15 0.500000 0.007211 0.856359
O O16 0.372187 0.005232 0.096066
#
# Coordination Sequence:
#
# PCOD9352158 Si02
#       7
#     8   8   8   8   8   8   8
#     4  10  20  42  65  92 127 171 214 258 303 371
#     4  11  23  38  62  92 132 159 208 259 324 367
#     4  10  21  38  62  86 117 168 218 257 305 373
#     4  10  21  35  64  94 128 165 212 252 316 370
#     4  10  22  41  65  91 120 167 216 257 310 384
#     4  10  21  41  65  89 123 159 193 257 321 371
#     4   9  19  35  52  76 112 151 195 248 297 338
#
# _framework density 22.919156999999998
#
# number of rings (size 3 to 8) (size 9 to 14) (size 15 to 20)
#    0.000    2.000    1.429    2.571    4.000    0.000 
#    5.143    2.143    0.000    0.000    0.000    0.000 
#    0.000    0.000    0.000    0.000    0.000    0.000 
#
# Total GULP energy -156228.558646 kJ/mol
# GULP energy per Si atom -5579.591380 kJ/mol
# Density = 2.286699 g / cm^3
# Si number density = 22.919157 Si / 1000 Ang^3
#
#
#
# Elastic Constant Matrix: (Units=GPa)
#
#
# Indices 1 2 3 4 5 6 
#
# 1 114.2836 41.1939 15.7301 0.0000 0.0000 0.0000
# 2 41.1939 56.8757 9.6127 0.0000 0.0000 0.0000
# 3 15.7301 9.6127 124.3379 0.0000 0.0000 0.0000
# 4 0.0000 0.0000 0.0000 24.1659 0.0000 0.0000
# 5 0.0000 0.0000 0.0000 0.0000 26.4758 0.0000
# 6 0.0000 0.0000 0.0000 0.0000 0.0000 0.1422
#
#
#
# Elastic Compliance Matrix: (Units=1/GPa)
#
#
# Indices 1 2 3 4 5 6 
#
# 1 0.011930 -0.008497 -0.000852 0.000000 0.000000 0.000000
# 2 -0.008497 0.023866 -0.000770 0.000000 0.000000 0.000000
# 3 -0.000852 -0.000770 0.008210 0.000000 0.000000 0.000000
# 4 0.000000 0.000000 0.000000 0.041381 0.000000 0.000000
# 5 0.000000 0.000000 0.000000 0.000000 0.037770 0.000000
# 6 0.000000 0.000000 0.000000 0.000000 0.000000 7.032350
#
#
# Mechanical properties :
#
#
# Convention : Reuss Voigt Hill
#
# Bulk Modulus (GPa) = 42.07361 47.61897 44.84629
# Shear Modulus (GPa) = 0.69602 25.42081 13.05842
#
# Velocity S-wave (km/s) = 0.55168 3.33401 2.38955
# Velocity P-wave (km/s) = 4.33625 5.97016 5.21756
#
# Compressibility (1/GPa) = 0.02376787
#
# Stress axis : x y z
#
# Youngs Moduli (GPa) = 83.82115 41.89990 121.80292
#
# Poissons Ratio (x) = 0.35601 0.10383
# Poissons Ratio (y) = 0.71220 0.09381
# Poissons Ratio (z) = 0.07145 0.03227
#
# Static dielectric constant tensor:
#      x y z
#    x 1.885430 0.000000 0.000000 
#    y 0.000000 1.879820 0.000000 
#    z 0.000000 0.000000 1.955340 
# 
# From -- ./inp_files/930.got.cif
#   From: 2010.05.17/outbox.cif.g08.bks.cpg/sg36_1_cif.got.tgz:930.got - 2010.06.03 17:41:39.
