data_PCOD9352709
_publ_section_title
;
Structure prediction by ZEFSAII (Michael W. Deem and Ramdas Pophale) SiO2 
 PCOD9352709
Probable space group: C M C 21
;
_chemical_formula_sum "Si O2"
_cell_formula_units_Z 64
_cell_length_a 27.368381
_cell_length_b 9.297814
_cell_length_c 12.887803
_cell_angle_alpha 90.000000
_cell_angle_beta 90.000000
_cell_angle_gamma 90.000000
_cell_volume 3279.509173
_symmetry_space_group_name_H-M "C M C 21"
_symmetry_group_IT_number 36
_symmetry_cell_setting 'orthorhombic'
loop_
_space_group_symop_operation_xyz
x,y,z
-x,-y,1/2+z
x,-y,1/2+z
-x,y,z
1/2+x,1/2+y,z
1/2-x,1/2-y,1/2+z
1/2+x,1/2-y,1/2+z
1/2-x,1/2+y,z
loop_
_atom_site_type_symbol
_atom_site_label
_atom_site_fract_x
_atom_site_fract_y
_atom_site_fract_z
Si Si1 0.631410 0.634242 0.759760
Si Si2 0.619858 0.883607 0.908757
Si Si3 0.706039 0.349843 0.081938
Si Si4 0.942672 0.772307 0.581938
Si Si5 0.691105 0.006972 0.081938
Si Si6 0.131410 0.134242 0.404116
Si Si7 0.942400 0.881609 0.081938
Si Si8 0.880142 0.383607 0.255120
O O1 0.644384 0.765046 0.834964
O O2 0.675848 0.598837 0.682725
O O3 0.618357 0.500000 0.831938
O O4 0.586220 0.673262 0.683706
O O5 0.596319 0.000000 0.831938
O O6 0.582466 0.799388 0.982269
O O7 0.658589 0.963456 0.982495
O O8 0.759808 0.413505 0.081938
O O9 0.703421 0.176085 0.081938
O O10 0.675848 0.401163 0.981152
O O11 0.917533 0.700612 0.681607
O O12 0.000000 0.744589 0.581939
O O13 0.935547 0.944694 0.581938
O O14 0.658590 0.963457 0.181382
O O15 0.086220 0.173262 0.480170
O O16 0.144384 0.265045 0.328913
O O17 0.000000 0.849599 0.081938
#
# Coordination Sequence:
#
# PCOD9352709 Si02
#       8
#     8   8   8   8   8   8   8   8
#     4  11  23  41  64  92 123 168 204 247 309 369
#     4  11  23  43  63  87 130 165 200 252 311 365
#     4  11  26  42  62  94 125 158 208 258 305 366
#     4  10  22  39  63  95 126 160 208 258 304 361
#     4  11  26  42  64  92 125 160 204 260 305 366
#     4  11  23  41  64  92 123 168 204 247 309 369
#     4  10  22  39  63  97 126 156 210 262 298 357
#     4  11  23  43  63  87 130 165 200 252 311 365
#
# _framework density 19.515115000000002
#
# number of rings (size 3 to 8) (size 9 to 14) (size 15 to 20)
#    0.000    1.250    5.000    0.000    3.500    4.000 
#    0.000    1.250    0.000    0.000    0.000    0.000 
#    0.000    0.000    0.000    0.000    0.000    0.000 
#
# Total GULP energy -178788.768271 kJ/mol
# GULP energy per Si atom -5587.149008 kJ/mol
# Density = 1.947070 g / cm^3
# Si number density = 19.515115 Si / 1000 Ang^3
#
#
#
# Elastic Constant Matrix: (Units=GPa)
#
#
# Indices 1 2 3 4 5 6 
#
# 1 98.8546 4.0042 30.8864 0.0000 0.0000 0.0000
# 2 4.0042 28.3713 20.3879 0.0000 0.0000 0.0000
# 3 30.8864 20.3879 124.4846 0.0000 0.0000 0.0000
# 4 0.0000 0.0000 0.0000 24.5985 0.0000 0.0000
# 5 0.0000 0.0000 0.0000 0.0000 0.0341 0.0000
# 6 0.0000 0.0000 0.0000 0.0000 0.0000 23.6436
#
#
#
# Elastic Compliance Matrix: (Units=1/GPa)
#
#
# Indices 1 2 3 4 5 6 
#
# 1 0.010971 0.000462 -0.002798 0.000000 0.000000 0.000000
# 2 0.000462 0.039968 -0.006661 0.000000 0.000000 0.000000
# 3 -0.002798 -0.006661 0.009818 0.000000 0.000000 0.000000
# 4 0.000000 0.000000 0.000000 0.040653 0.000000 0.000000
# 5 0.000000 0.000000 0.000000 0.000000 29.351090 0.000000
# 6 0.000000 0.000000 0.000000 0.000000 0.000000 0.042295
#
#
# Mechanical properties :
#
#
# Convention : Reuss Voigt Hill
#
# Bulk Modulus (GPa) = 23.38366 40.25193 31.81779
# Shear Modulus (GPa) = 0.16934 22.75069 11.46002
#
# Velocity S-wave (km/s) = 0.29489 3.41808 2.42593
# Velocity P-wave (km/s) = 3.48200 6.02068 4.91797
#
# Compressibility (1/GPa) = 0.04276491
#
# Stress axis : x y z
#
# Youngs Moduli (GPa) = 91.14683 25.02003 101.85217
#
# Poissons Ratio (x) = -0.01156 0.28496
# Poissons Ratio (y) = -0.04212 0.67839
# Poissons Ratio (z) = 0.25501 0.16665
#
# Static dielectric constant tensor:
#      x y z
#    x 1.634320 0.000000 0.000000 
#    y 0.000000 1.693790 0.000000 
#    z 0.000000 0.000000 1.682290 
# 
# From -- ./inp_files/9746.got.cif
#   From: 2010.05.17/outbox.cif.g08.bks.cpg/sg36_5_cif.got.tgz:9746.got - 2010.06.03 17:41:39.
