data_PCOD9352343
_publ_section_title
;
Structure prediction by ZEFSAII (Michael W. Deem and Ramdas Pophale) SiO2 
 PCOD9352343
Probable space group: C M C 21
;
_chemical_formula_sum "Si O2"
_cell_formula_units_Z 64
_cell_length_a 13.569541
_cell_length_b 13.113155
_cell_length_c 17.825638
_cell_angle_alpha 90.000000
_cell_angle_beta 90.000000
_cell_angle_gamma 90.000000
_cell_volume 3171.885013
_symmetry_space_group_name_H-M "C M C 21"
_symmetry_group_IT_number 36
_symmetry_cell_setting 'orthorhombic'
loop_
_space_group_symop_operation_xyz
x,y,z
-x,-y,1/2+z
x,-y,1/2+z
-x,y,z
1/2+x,1/2+y,z
1/2-x,1/2-y,1/2+z
1/2+x,1/2-y,1/2+z
1/2-x,1/2+y,z
loop_
_atom_site_type_symbol
_atom_site_label
_atom_site_fract_x
_atom_site_fract_y
_atom_site_fract_z
Si Si1 0.116461 0.325485 0.093760
Si Si2 0.257086 0.561098 0.199483
Si Si3 0.881818 0.146200 0.691624
Si Si4 0.881057 0.571169 0.448011
Si Si5 0.793982 0.300136 0.570193
Si Si6 0.117499 0.669517 0.302625
Si Si7 0.382544 0.756396 0.251601
Si Si8 0.619443 0.847493 0.410775
O O1 0.179266 0.229517 0.066411
O O2 0.136281 0.335274 0.182614
O O3 0.000000 0.310235 0.086294
O O4 0.148385 0.409746 0.033588
O O5 0.319876 0.458009 0.196384
O O6 0.207865 0.598218 0.121142
O O7 0.169325 0.576159 0.259204
O O8 0.330648 0.652186 0.226552
O O9 0.847885 0.212715 0.619616
O O10 0.860413 0.224011 0.760852
O O11 0.000000 0.127510 0.689463
O O12 0.853432 0.660037 0.389724
O O13 0.845971 0.464566 0.415002
O O14 0.000000 0.566597 0.448819
O O15 0.841529 0.302932 0.488873
O O16 0.000000 0.656373 0.297107
O O17 0.500000 0.741114 0.254421
O O18 0.350337 0.794598 0.333181
O O19 0.500000 0.845256 0.412180
#
# Coordination Sequence:
#
# PCOD9352343 Si02
#       8
#     8   8   8   8   8   8   8   8
#     4   9  19  37  60  85 120 158 197 248 304 366
#     4  10  21  37  61  92 119 162 209 250 309 375
#     4  10  21  40  64  89 127 167 208 258 309 374
#     4   9  19  36  58  85 120 157 198 249 308 364
#     4  10  22  37  60  89 125 159 206 251 312 365
#     4   9  20  38  59  90 127 164 203 256 313 370
#     4   9  19  37  60  88 120 157 202 256 307 366
#     4  10  21  38  61  90 122 158 204 258 311 366
#
# _framework density 20.177277
#
# number of rings (size 3 to 8) (size 9 to 14) (size 15 to 20)
#    0.000    2.500    0.000    0.750    3.500    4.000 
#    2.250    1.875    2.750    0.750    0.000    0.000 
#    0.000    0.000    0.000    0.000    0.000    0.000 
#
# Total GULP energy -178373.382550 kJ/mol
# GULP energy per Si atom -5574.168205 kJ/mol
# Density = 2.013135 g / cm^3
# Si number density = 20.177277 Si / 1000 Ang^3
#
#
#
# Elastic Constant Matrix: (Units=GPa)
#
#
# Indices 1 2 3 4 5 6 
#
# 1 77.5340 36.1931 42.5887 0.0000 0.0000 0.0000
# 2 36.1931 116.7736 83.4171 0.0000 0.0000 0.0000
# 3 42.5887 83.4171 182.2674 0.0000 0.0000 0.0000
# 4 0.0000 0.0000 0.0000 25.8510 0.0000 0.0000
# 5 0.0000 0.0000 0.0000 0.0000 28.3372 0.0000
# 6 0.0000 0.0000 0.0000 0.0000 0.0000 28.6543
#
#
#
# Elastic Compliance Matrix: (Units=1/GPa)
#
#
# Indices 1 2 3 4 5 6 
#
# 1 0.015617 -0.003319 -0.002130 0.000000 0.000000 0.000000
# 2 -0.003319 0.013428 -0.005370 0.000000 0.000000 0.000000
# 3 -0.002130 -0.005370 0.008442 0.000000 0.000000 0.000000
# 4 0.000000 0.000000 0.000000 0.038683 0.000000 0.000000
# 5 0.000000 0.000000 0.000000 0.000000 0.035289 0.000000
# 6 0.000000 0.000000 0.000000 0.000000 0.000000 0.034899
#
#
# Mechanical properties :
#
#
# Convention : Reuss Voigt Hill
#
# Bulk Modulus (GPa) = 63.09542 77.88588 70.49065
# Shear Modulus (GPa) = 28.85509 30.86023 29.85766
#
# Velocity S-wave (km/s) = 3.78574 3.91507 3.85095
# Velocity P-wave (km/s) = 7.10264 7.68906 7.40166
#
# Compressibility (1/GPa) = 0.01584901
#
# Stress axis : x y z
#
# Youngs Moduli (GPa) = 64.03350 74.46907 118.45583
#
# Poissons Ratio (x) = 0.24713 0.25234
# Poissons Ratio (y) = 0.21250 0.63614
# Poissons Ratio (z) = 0.13641 0.39992
#
# Static dielectric constant tensor:
#      x y z
#    x 1.734390 0.000000 0.000000 
#    y 0.000000 1.734640 0.000000 
#    z 0.000000 0.000000 1.753000 
# 
# From -- ./inp_files/14713.got.cif
#   From: 2010.05.17/outbox.cif.g08.bks.cpg/sg36_8_cif.got.tgz:14713.got - 2010.06.03 17:41:39.
