data_PCOD9352137
_publ_section_title
;
Structure prediction by ZEFSAII (Michael W. Deem and Ramdas Pophale) SiO2 
 PCOD9352137
Probable space group: C M C 21
;
_chemical_formula_sum "Si O2"
_cell_formula_units_Z 40
_cell_length_a 11.460404
_cell_length_b 15.270418
_cell_length_c 9.549550
_cell_angle_alpha 90.000000
_cell_angle_beta 90.000000
_cell_angle_gamma 90.000000
_cell_volume 1671.220521
_symmetry_space_group_name_H-M "C M C 21"
_symmetry_group_IT_number 36
_symmetry_cell_setting 'orthorhombic'
loop_
_space_group_symop_operation_xyz
x,y,z
-x,-y,1/2+z
x,-y,1/2+z
-x,y,z
1/2+x,1/2+y,z
1/2-x,1/2-y,1/2+z
1/2+x,1/2-y,1/2+z
1/2-x,1/2+y,z
loop_
_atom_site_type_symbol
_atom_site_label
_atom_site_fract_x
_atom_site_fract_y
_atom_site_fract_z
Si Si1 0.500000 0.393416 0.381620
Si Si2 0.000000 0.536463 0.252954
Si Si3 0.500000 0.484854 0.643340
Si Si4 0.754323 0.189630 0.516684
Si Si5 0.244062 0.952746 0.785686
Si Si6 0.000000 0.618435 0.547986
Si Si7 0.237021 0.158696 0.834040
O O1 0.500000 0.479749 0.477082
O O2 0.500000 0.422455 0.220702
O O3 0.385347 0.342409 0.413864
O O4 0.869601 0.575323 0.216961
O O5 0.000000 0.548177 0.420788
O O6 0.000000 0.439667 0.187778
O O7 0.625562 0.446043 0.694332
O O8 0.780503 0.102536 0.425713
O O9 0.614773 0.175721 0.534904
O O10 0.789379 0.192705 0.678119
O O11 0.804550 0.269954 0.425137
O O12 0.266098 0.055747 0.821490
#
# Coordination Sequence:
#
# PCOD9352137 Si02
#       7
#     4   4   4   8   8   4   8
#     4  10  25  42  68 101 142 190 241 306 357 433
#     4  10  20  40  73 100 140 183 238 286 354 418
#     4  10  24  40  71 104 144 187 242 292 369 425
#     4  11  25  44  69 103 145 190 242 296 361 432
#     4  10  24  44  73 104 142 195 238 293 357 433
#     4  10  21  44  64 101 140 184 235 298 352 422
#     4  11  25  43  69 101 144 188 241 294 359 429
#
# _framework density 23.934604
#
# number of rings (size 3 to 8) (size 9 to 14) (size 15 to 20)
#    0.000    1.600    2.000    0.600   14.000    0.000 
#    3.600    3.000    0.000    0.000    0.000    0.000 
#    0.000    0.000    0.000    0.000    0.000    0.000 
#
# Total GULP energy -111365.083840 kJ/mol
# GULP energy per Si atom -5568.254192 kJ/mol
# Density = 2.388013 g / cm^3
# Si number density = 23.934604 Si / 1000 Ang^3
#
#
#
# Elastic Constant Matrix: (Units=GPa)
#
#
# Indices 1 2 3 4 5 6 
#
# 1 137.1737 4.1809 0.0582 0.0000 0.0000 0.0000
# 2 4.1809 88.9346 80.2549 0.0000 0.0000 0.0000
# 3 0.0582 80.2549 92.3088 0.0000 0.0000 0.0000
# 4 0.0000 0.0000 0.0000 3.6320 0.0000 0.0000
# 5 0.0000 0.0000 0.0000 0.0000 24.7628 0.0000
# 6 0.0000 0.0000 0.0000 0.0000 0.0000 -3.4532
#
#
#
# Elastic Compliance Matrix: (Units=1/GPa)
#
#
# Indices 1 2 3 4 5 6 
#
# 1 0.007338 -0.001582 0.001371 0.000000 0.000000 0.000000
# 2 -0.001582 0.052534 -0.045673 0.000000 0.000000 0.000000
# 3 0.001371 -0.045673 0.050541 0.000000 0.000000 0.000000
# 4 0.000000 0.000000 0.000000 0.275332 0.000000 0.000000
# 5 0.000000 0.000000 0.000000 0.000000 0.040383 0.000000
# 6 0.000000 0.000000 0.000000 0.000000 0.000000 -0.289589
#
#
# Mechanical properties :
#
#
# Convention : Reuss Voigt Hill
#
# Bulk Modulus (GPa) = 53.63494 54.15611 53.89552
# Shear Modulus (GPa) = 21.31989 20.58321 20.95155
#
# Velocity S-wave (km/s) = 2.98779 2.93572 2.96187
# Velocity P-wave (km/s) = 5.86175 5.84526 5.85351
#
# Compressibility (1/GPa) = 0.01864456
#
# Stress axis : x y z
#
# Youngs Moduli (GPa) = 136.28332 19.03521 19.78575
#
# Poissons Ratio (x) = 0.03011 -0.02712
# Poissons Ratio (y) = 0.21557 0.90368
# Poissons Ratio (z) = -0.18679 0.86940
#
# Static dielectric constant tensor:
#      x y z
#    x 2.034860 0.000000 0.000000 
#    y 0.000000 1.924430 0.000000 
#    z 0.000000 0.000000 1.915190 
# 
# From -- ./inp_files/3107.got.cif
#   From: 2010.05.17/outbox.cif.g08.bks.cpg/sg36_2_cif.got.tgz:3107.got - 2010.06.03 17:41:39.
