data_PCOD9352270
_publ_section_title
;
Structure prediction by ZEFSAII (Michael W. Deem and Ramdas Pophale) SiO2 
 PCOD9352270
Probable space group: C M C 21
;
_chemical_formula_sum "Si O2"
_cell_formula_units_Z 64
_cell_length_a 8.448401
_cell_length_b 15.629488
_cell_length_c 24.653434
_cell_angle_alpha 90.000000
_cell_angle_beta 90.000000
_cell_angle_gamma 90.000000
_cell_volume 3255.342527
_symmetry_space_group_name_H-M "C M C 21"
_symmetry_group_IT_number 36
_symmetry_cell_setting 'orthorhombic'
loop_
_space_group_symop_operation_xyz
x,y,z
-x,-y,1/2+z
x,-y,1/2+z
-x,y,z
1/2+x,1/2+y,z
1/2-x,1/2-y,1/2+z
1/2+x,1/2-y,1/2+z
1/2-x,1/2+y,z
loop_
_atom_site_type_symbol
_atom_site_label
_atom_site_fract_x
_atom_site_fract_y
_atom_site_fract_z
Si Si1 0.310363 0.730386 0.413680
Si Si2 0.311684 0.539005 0.798950
Si Si3 0.688040 0.782454 0.295531
Si Si4 0.191206 0.965107 0.032945
Si Si5 0.313795 0.880015 0.732298
Si Si6 0.192313 0.881405 0.610069
Si Si7 0.688455 0.228121 0.531272
Si Si8 0.191095 0.028738 0.412694
O O1 0.500000 0.738779 0.419167
O O2 0.258561 0.775984 0.358536
O O3 0.233755 0.757045 0.470329
O O4 0.274602 0.629522 0.405882
O O5 0.500000 0.553084 0.800812
O O6 0.229254 0.623057 0.775744
O O7 0.276213 0.455522 0.763753
O O8 0.249690 0.520986 0.860148
O O9 0.500000 0.767037 0.294283
O O10 0.770572 0.709219 0.260883
O O11 0.242488 0.866829 0.040769
O O12 0.000000 0.965637 0.031687
O O13 0.242068 0.032312 0.078411
O O14 0.247457 0.994831 0.972934
O O15 0.500000 0.895659 0.736542
O O16 0.261154 0.878012 0.669983
O O17 0.241475 0.798987 0.574543
O O18 0.000000 0.881283 0.613056
O O19 0.500000 0.221763 0.534450
O O20 0.000000 0.020253 0.412295
#
# Coordination Sequence:
#
# PCOD9352270 Si02
#       8
#     8   8   8   8   8   8   8   8
#     4   9  18  36  60  86 123 165 198 243 305 366
#     4  11  22  39  64  93 126 163 204 253 311 371
#     4  11  23  41  63  91 125 164 209 257 309 367
#     4   9  19  38  61  86 119 161 202 240 298 368
#     4  12  26  44  64  89 123 164 213 262 309 366
#     4  10  23  42  64  86 118 165 207 249 305 367
#     4  10  21  36  59  92 123 154 198 254 306 357
#     4   8  15  32  59  87 119 158 195 238 297 362
#
# _framework density 19.659988999999999
#
# number of rings (size 3 to 8) (size 9 to 14) (size 15 to 20)
#    0.000    2.000    1.250    3.000    1.750    3.500 
#    0.000    3.125    0.000    0.000    0.000    0.000 
#    0.000    0.000    0.000    0.000    0.000    0.000 
#
# Total GULP energy -178721.399410 kJ/mol
# GULP energy per Si atom -5585.043732 kJ/mol
# Density = 1.961524 g / cm^3
# Si number density = 19.659989 Si / 1000 Ang^3
#
#
#
# Elastic Constant Matrix: (Units=GPa)
#
#
# Indices 1 2 3 4 5 6 
#
# 1 21.4585 -2.8715 7.2113 0.0000 0.0000 0.0000
# 2 -2.8715 96.7933 62.9263 0.0000 0.0000 0.0000
# 3 7.2113 62.9263 130.7431 0.0000 0.0000 0.0000
# 4 0.0000 0.0000 0.0000 -3.1118 0.0000 0.0000
# 5 0.0000 0.0000 0.0000 0.0000 24.0402 0.0000
# 6 0.0000 0.0000 0.0000 0.0000 0.0000 24.3519
#
#
#
# Elastic Compliance Matrix: (Units=1/GPa)
#
#
# Indices 1 2 3 4 5 6 
#
# 1 0.048886 0.004662 -0.004940 0.000000 0.000000 0.000000
# 2 0.004662 0.015481 -0.007708 0.000000 0.000000 0.000000
# 3 -0.004940 -0.007708 0.011631 0.000000 0.000000 0.000000
# 4 0.000000 0.000000 0.000000 -0.321358 0.000000 0.000000
# 5 0.000000 0.000000 0.000000 0.000000 0.041597 0.000000
# 6 0.000000 0.000000 0.000000 0.000000 0.000000 0.041065
#
#
# Mechanical properties :
#
#
# Convention : Reuss Voigt Hill
#
# Bulk Modulus (GPa) = 16.65981 42.61413 29.63697
# Shear Modulus (GPa) = -39.45745 21.17131 -9.14307
#
# Velocity S-wave (km/s) = -4.48481 3.28513 -2.15886
# Velocity P-wave (km/s) = 4.28084 6.00933 2.98215
#
# Compressibility (1/GPa) = 0.06002468
#
# Stress axis : x y z
#
# Youngs Moduli (GPa) = 20.45596 64.59711 85.97818
#
# Poissons Ratio (x) = -0.30114 0.42474
# Poissons Ratio (y) = -0.09536 0.66271
# Poissons Ratio (z) = 0.10105 0.49791
#
# Static dielectric constant tensor:
#      x y z
#    x 1.668890 0.000000 0.000000 
#    y 0.000000 1.679880 0.000000 
#    z 0.000000 0.000000 1.683530 
# 
# From -- ./inp_files/16693.got.cif
#   From: 2010.05.17/outbox.cif.g08.bks.cpg/sg36_9_cif.got.tgz:16693.got - 2010.06.03 17:41:39.
