data_PCOD9352956
_publ_section_title
;
Structure prediction by ZEFSAII (Michael W. Deem and Ramdas Pophale) SiO2 
 PCOD9352956
Probable space group: C M C 21
;
_chemical_formula_sum "Si O2"
_cell_formula_units_Z 40
_cell_length_a 10.722523
_cell_length_b 18.219278
_cell_length_c 10.156383
_cell_angle_alpha 90.000000
_cell_angle_beta 90.000000
_cell_angle_gamma 90.000000
_cell_volume 1984.116729
_symmetry_space_group_name_H-M "C M C 21"
_symmetry_group_IT_number 36
_symmetry_cell_setting 'orthorhombic'
loop_
_space_group_symop_operation_xyz
x,y,z
-x,-y,1/2+z
x,-y,1/2+z
-x,y,z
1/2+x,1/2+y,z
1/2-x,1/2-y,1/2+z
1/2+x,1/2-y,1/2+z
1/2-x,1/2+y,z
loop_
_atom_site_type_symbol
_atom_site_label
_atom_site_fract_x
_atom_site_fract_y
_atom_site_fract_z
Si Si1 0.862854 0.599573 0.426320
Si Si2 0.866636 0.087914 0.098599
Si Si3 0.352911 0.359862 0.130081
Si Si4 0.201571 0.982212 0.335057
Si Si5 0.861840 0.314165 0.655704
O O1 0.746198 0.618466 0.518303
O O2 0.835153 0.518438 0.367741
O O3 0.861622 0.656051 0.305039
O O4 0.000000 0.601941 0.489523
O O5 0.750423 0.142489 0.087451
O O6 0.000000 0.126977 0.096401
O O7 0.855999 0.041766 0.233912
O O8 0.860312 0.032452 0.975912
O O9 0.500000 0.376254 0.102470
O O10 0.310551 0.406381 0.256897
O O11 0.344226 0.272803 0.152145
O O12 0.000000 0.331136 0.600264
#
# Coordination Sequence:
#
# PCOD9352956 Si02
#       5
#     8   8   8   8   8
#     4  10  23  43  65  92 129 167 211 265 321 378
#     4  11  22  39  66  94 123 162 212 262 314 377
#     4  11  23  41  66  93 126 167 214 264 316 378
#     4  11  23  40  65  94 125 162 211 263 316 374
#     4   9  23  43  62  89 129 168 206 260 319 377
#
# _framework density 20.160104
#
# number of rings (size 3 to 8) (size 9 to 14) (size 15 to 20)
#    0.000    1.600    2.000    1.800    2.800    6.400 
#    0.000    0.000    0.000    0.000    0.000    0.000 
#    0.000    0.000    0.000    0.000    0.000    0.000 
#
# Total GULP energy -111533.710040 kJ/mol
# GULP energy per Si atom -5576.685502 kJ/mol
# Density = 2.011422 g / cm^3
# Si number density = 20.160104 Si / 1000 Ang^3
#
#
#
# Elastic Constant Matrix: (Units=GPa)
#
#
# Indices 1 2 3 4 5 6 
#
# 1 176.7792 89.3587 62.4604 0.0000 0.0000 0.0000
# 2 89.3587 110.0841 24.4714 0.0000 0.0000 0.0000
# 3 62.4604 24.4714 68.1448 0.0000 0.0000 0.0000
# 4 0.0000 0.0000 0.0000 21.8031 0.0000 0.0000
# 5 0.0000 0.0000 0.0000 0.0000 5.9701 0.0000
# 6 0.0000 0.0000 0.0000 0.0000 0.0000 23.4640
#
#
#
# Elastic Compliance Matrix: (Units=1/GPa)
#
#
# Indices 1 2 3 4 5 6 
#
# 1 0.013279 -0.008774 -0.009020 0.000000 0.000000 0.000000
# 2 -0.008774 0.015669 0.002415 0.000000 0.000000 0.000000
# 3 -0.009020 0.002415 0.022075 0.000000 0.000000 0.000000
# 4 0.000000 0.000000 0.000000 0.045865 0.000000 0.000000
# 5 0.000000 0.000000 0.000000 0.000000 0.167502 0.000000
# 6 0.000000 0.000000 0.000000 0.000000 0.000000 0.042618
#
#
# Mechanical properties :
#
#
# Convention : Reuss Voigt Hill
#
# Bulk Modulus (GPa) = 49.34659 78.62100 63.98379
# Shear Modulus (GPa) = 14.51287 22.16195 18.33741
#
# Velocity S-wave (km/s) = 2.68597 3.31916 3.01921
# Velocity P-wave (km/s) = 5.84378 7.33295 6.63030
#
# Compressibility (1/GPa) = 0.02026483
#
# Stress axis : x y z
#
# Youngs Moduli (GPa) = 75.30781 63.82043 45.29922
#
# Poissons Ratio (x) = 0.55994 0.40862
# Poissons Ratio (y) = 0.66072 -0.10939
# Poissons Ratio (z) = 0.67931 -0.15412
#
# Static dielectric constant tensor:
#      x y z
#    x 1.741110 0.000000 0.000000 
#    y 0.000000 1.705770 0.000000 
#    z 0.000000 0.000000 1.714030 
# 
# From -- ./inp_files/6520.got.cif
#   From: 2010.05.17/outbox.cif.g08.bks.cpg/sg36_4_cif.got.tgz:6520.got - 2010.06.03 17:41:39.
