data_PCOD9352992
_publ_section_title
;
Structure prediction by ZEFSAII (Michael W. Deem and Ramdas Pophale) SiO2 
 PCOD9352992
Probable space group: C M C 21
;
_chemical_formula_sum "Si O2"
_cell_formula_units_Z 48
_cell_length_a 14.291497
_cell_length_b 9.030050
_cell_length_c 16.528082
_cell_angle_alpha 90.000000
_cell_angle_beta 90.000000
_cell_angle_gamma 90.000000
_cell_volume 2132.997450
_symmetry_space_group_name_H-M "C M C 21"
_symmetry_group_IT_number 36
_symmetry_cell_setting 'orthorhombic'
loop_
_space_group_symop_operation_xyz
x,y,z
-x,-y,1/2+z
x,-y,1/2+z
-x,y,z
1/2+x,1/2+y,z
1/2-x,1/2-y,1/2+z
1/2+x,1/2-y,1/2+z
1/2-x,1/2+y,z
loop_
_atom_site_type_symbol
_atom_site_label
_atom_site_fract_x
_atom_site_fract_y
_atom_site_fract_z
Si Si1 0.675128 0.724495 0.628930
Si Si2 0.796674 0.904268 0.367215
Si Si3 0.500000 0.762227 0.209009
Si Si4 0.500000 0.181143 0.522337
Si Si5 0.500000 0.116430 0.199494
Si Si6 0.291147 0.132410 0.475717
Si Si7 0.500000 0.340192 0.352011
Si Si8 0.679661 0.426111 0.722238
O O1 0.587073 0.830074 0.644977
O O2 0.722413 0.702337 0.542001
O O3 0.650727 0.560200 0.662105
O O4 0.753673 0.807061 0.680627
O O5 0.757058 0.984813 0.445010
O O6 0.756871 0.983128 0.287925
O O7 0.793205 0.734945 0.394809
O O8 0.905084 0.930004 0.345028
O O9 0.409369 0.677457 0.242966
O O10 0.500000 0.941219 0.219100
O O11 0.500000 0.746160 0.110649
O O12 0.396462 0.107857 0.510277
O O13 0.500000 0.287306 0.444667
O O14 0.500000 0.211845 0.283485
#
# Coordination Sequence:
#
# PCOD9352992 Si02
#       8
#     8   8   4   4   4   8   4   8
#     4  12  25  44  73 106 149 192 249 304 378 437
#     4  11  24  46  71 106 144 193 243 304 372 440
#     4  12  26  47  78 105 144 195 258 304 381 434
#     4  10  24  47  68 103 147 184 242 302 362 438
#     4  12  27  47  69 111 147 191 250 323 365 451
#     4  11  25  45  73 104 147 198 243 307 373 440
#     4  10  23  49  71  99 148 190 238 305 374 435
#     4  12  24  45  72 106 142 193 245 309 364 455
#
# _framework density 22.503544000000002
#
# number of rings (size 3 to 8) (size 9 to 14) (size 15 to 20)
#    0.000    0.667    3.333    4.000    7.000    0.667 
#    0.000    0.833    0.000    0.000    0.000    0.000 
#    0.000    0.000    0.000    0.000    0.000    0.000 
#
# Total GULP energy -133783.613903 kJ/mol
# GULP energy per Si atom -5574.317246 kJ/mol
# Density = 2.245232 g / cm^3
# Si number density = 22.503544 Si / 1000 Ang^3
#
#
#
# Elastic Constant Matrix: (Units=GPa)
#
#
# Indices 1 2 3 4 5 6 
#
# 1 72.3986 59.7158 -4.3742 0.0000 0.0000 0.0000
# 2 59.7158 130.1968 17.3355 0.0000 0.0000 0.0000
# 3 -4.3742 17.3355 85.9262 0.0000 0.0000 0.0000
# 4 0.0000 0.0000 0.0000 44.8052 0.0000 0.0000
# 5 0.0000 0.0000 0.0000 0.0000 -56.9933 0.0000
# 6 0.0000 0.0000 0.0000 0.0000 0.0000 30.3200
#
#
#
# Elastic Compliance Matrix: (Units=1/GPa)
#
#
# Indices 1 2 3 4 5 6 
#
# 1 0.023152 -0.011073 0.003413 0.000000 0.000000 0.000000
# 2 -0.011073 0.013189 -0.003225 0.000000 0.000000 0.000000
# 3 0.003413 -0.003225 0.012462 0.000000 0.000000 0.000000
# 4 0.000000 0.000000 0.000000 0.022319 0.000000 0.000000
# 5 0.000000 0.000000 0.000000 0.000000 -0.017546 0.000000
# 6 0.000000 0.000000 0.000000 0.000000 0.000000 0.032982
#
#
# Mechanical properties :
#
#
# Convention : Reuss Voigt Hill
#
# Bulk Modulus (GPa) = 36.99223 48.20841 42.60032
# Shear Modulus (GPa) = 42.61162 18.01600 30.31381
#
# Velocity S-wave (km/s) = 4.35622 2.83253 3.67422
# Velocity P-wave (km/s) = 6.46346 5.67157 6.08042
#
# Compressibility (1/GPa) = 0.02703270
#
# Stress axis : x y z
#
# Youngs Moduli (GPa) = 43.19269 75.82157 80.24292
#
# Poissons Ratio (x) = 0.83959 -0.27384
# Poissons Ratio (y) = 0.47828 0.25875
# Poissons Ratio (z) = -0.14740 0.24449
#
# Static dielectric constant tensor:
#      x y z
#    x 2.091970 0.000000 0.000000 
#    y 0.000000 1.823230 0.000000 
#    z 0.000000 0.000000 1.900630 
# 
# From -- ./inp_files/14619.got.cif
#   From: 2010.05.17/outbox.cif.g08.bks.cpg/sg36_8_cif.got.tgz:14619.got - 2010.06.03 17:41:39.
