data_PCOD9352902
_publ_section_title
;
Structure prediction by ZEFSAII (Michael W. Deem and Ramdas Pophale) SiO2 
 PCOD9352902
Probable space group: C M C 21
;
_chemical_formula_sum "Si O2"
_cell_formula_units_Z 48
_cell_length_a 17.410924
_cell_length_b 21.573395
_cell_length_c 5.030906
_cell_angle_alpha 90.000000
_cell_angle_beta 90.000000
_cell_angle_gamma 90.000000
_cell_volume 1889.672391
_symmetry_space_group_name_H-M "C M C 21"
_symmetry_group_IT_number 36
_symmetry_cell_setting 'orthorhombic'
loop_
_space_group_symop_operation_xyz
x,y,z
-x,-y,1/2+z
x,-y,1/2+z
-x,y,z
1/2+x,1/2+y,z
1/2-x,1/2-y,1/2+z
1/2+x,1/2-y,1/2+z
1/2-x,1/2+y,z
loop_
_atom_site_type_symbol
_atom_site_label
_atom_site_fract_x
_atom_site_fract_y
_atom_site_fract_z
Si Si1 0.329529 0.043706 0.667960
Si Si2 0.135899 0.249915 0.640859
Si Si3 0.377975 0.641897 0.024591
Si Si4 0.908335 0.968665 0.125577
Si Si5 0.500000 0.959934 0.069734
Si Si6 0.000000 0.202250 0.341525
Si Si7 0.259228 0.842372 0.888970
O O1 0.417438 0.068371 0.638924
O O2 0.275257 0.100008 0.580240
O O3 0.319560 0.987667 0.454596
O O4 0.102537 0.206120 0.872457
O O5 0.163965 0.313360 0.766864
O O6 0.211171 0.212511 0.535088
O O7 0.069049 0.250502 0.426230
O O8 0.394771 0.591205 0.803692
O O9 0.434635 0.648459 0.272135
O O10 0.293548 0.639814 0.140070
O O11 0.000000 0.976051 0.097891
O O12 0.876890 0.021611 0.329699
O O13 0.500000 0.021186 0.260379
#
# Coordination Sequence:
#
# PCOD9352902 Si02
#       7
#     8   8   8   8   4   4   8
#     4  10  23  42  71 102 138 182 235 289 356 425
#     4  11  24  45  68  99 136 184 234 288 359 416
#     4  11  23  42  65  94 135 179 226 289 346 411
#     4  10  23  38  61  92 128 174 229 282 339 404
#     4   8  16  37  63  92 130 172 218 283 346 406
#     4  10  24  41  71  96 126 176 236 289 344 414
#     4  11  25  42  69  97 141 181 229 286 354 429
#
# _framework density 25.401226000000001
#
# number of rings (size 3 to 8) (size 9 to 14) (size 15 to 20)
#    0.000    1.667    2.500    0.500    7.000    2.000 
#    0.000    0.000    7.333    0.000    0.000    0.000 
#    0.000    0.000    0.000    0.000    0.000    0.000 
#
# Total GULP energy -133823.080750 kJ/mol
# GULP energy per Si atom -5575.961698 kJ/mol
# Density = 2.534341 g / cm^3
# Si number density = 25.401226 Si / 1000 Ang^3
#
#
#
# Elastic Constant Matrix: (Units=GPa)
#
#
# Indices 1 2 3 4 5 6 
#
# 1 61.5910 17.1766 -13.6138 0.0000 0.0000 0.0000
# 2 17.1766 54.6563 4.9221 0.0000 0.0000 0.0000
# 3 -13.6138 4.9221 92.9641 0.0000 0.0000 0.0000
# 4 0.0000 0.0000 0.0000 23.1615 0.0000 0.0000
# 5 0.0000 0.0000 0.0000 0.0000 -110.6482 0.0000
# 6 0.0000 0.0000 0.0000 0.0000 0.0000 30.9828
#
#
#
# Elastic Compliance Matrix: (Units=1/GPa)
#
#
# Indices 1 2 3 4 5 6 
#
# 1 0.018619 -0.006126 0.003051 0.000000 0.000000 0.000000
# 2 -0.006126 0.020399 -0.001977 0.000000 0.000000 0.000000
# 3 0.003051 -0.001977 0.011308 0.000000 0.000000 0.000000
# 4 0.000000 0.000000 0.000000 0.043175 0.000000 0.000000
# 5 0.000000 0.000000 0.000000 0.000000 -0.009038 0.000000
# 6 0.000000 0.000000 0.000000 0.000000 0.000000 0.032276
#
#
# Mechanical properties :
#
#
# Convention : Reuss Voigt Hill
#
# Bulk Modulus (GPa) = 24.86194 25.13123 24.99659
# Shear Modulus (GPa) = 35.65009 2.08099 18.86554
#
# Velocity S-wave (km/s) = 3.75037 0.90610 2.72821
# Velocity P-wave (km/s) = 5.34440 3.31811 4.44817
#
# Compressibility (1/GPa) = 0.04022212
#
# Stress axis : x y z
#
# Youngs Moduli (GPa) = 53.70870 49.02102 88.43055
#
# Poissons Ratio (x) = 0.30031 -0.26980
# Poissons Ratio (y) = 0.32902 0.17484
# Poissons Ratio (z) = -0.16386 0.09692
#
# Static dielectric constant tensor:
#      x y z
#    x 2.107880 0.000000 0.000000 
#    y 0.000000 2.046210 0.000000 
#    z 0.000000 0.000000 2.130760 
# 
# From -- ./inp_files/1134.got.cif
#   From: 2010.05.17/outbox.cif.g08.bks.cpg/sg36_1_cif.got.tgz:1134.got - 2010.06.03 17:41:39.
