data_PCOD9352054
_publ_section_title
;
Structure prediction by ZEFSAII (Michael W. Deem and Ramdas Pophale) SiO2 
 PCOD9352054
Probable space group: C M C 21
;
_chemical_formula_sum "Si O2"
_cell_formula_units_Z 64
_cell_length_a 18.006651
_cell_length_b 21.290093
_cell_length_c 7.743335
_cell_angle_alpha 90.000000
_cell_angle_beta 90.000000
_cell_angle_gamma 90.000000
_cell_volume 2968.510260
_symmetry_space_group_name_H-M "C M C 21"
_symmetry_group_IT_number 36
_symmetry_cell_setting 'orthorhombic'
loop_
_space_group_symop_operation_xyz
x,y,z
-x,-y,1/2+z
x,-y,1/2+z
-x,y,z
1/2+x,1/2+y,z
1/2-x,1/2-y,1/2+z
1/2+x,1/2-y,1/2+z
1/2-x,1/2+y,z
loop_
_atom_site_type_symbol
_atom_site_label
_atom_site_fract_x
_atom_site_fract_y
_atom_site_fract_z
Si Si1 0.912192 0.406798 0.302490
Si Si2 0.163927 0.494181 0.027472
Si Si3 0.911843 0.210497 0.611470
Si Si4 0.740497 0.432819 0.752251
Si Si5 0.586377 0.395370 0.825534
Si Si6 0.585817 0.327021 0.482096
Si Si7 0.169411 0.709290 0.637927
Si Si8 0.792468 0.299605 0.748212
O O1 0.876808 0.442584 0.465330
O O2 0.890190 0.455042 0.149426
O O3 0.872860 0.342036 0.249583
O O4 0.000000 0.398735 0.318930
O O5 0.242726 0.515592 0.107982
O O6 0.189467 0.449187 0.873806
O O7 0.899490 0.167540 0.441924
O O8 0.864161 0.273907 0.643679
O O9 0.000000 0.224906 0.610404
O O10 0.889934 0.169064 0.782441
O O11 0.660826 0.436352 0.845861
O O12 0.753370 0.362388 0.678386
O O13 0.500000 0.414690 0.864908
O O14 0.590451 0.382718 0.619193
O O15 0.500000 0.312418 0.465943
O O16 0.620012 0.267572 0.577676
O O17 0.194823 0.684916 0.449857
O O18 0.237291 0.740369 0.739082
#
# Coordination Sequence:
#
# PCOD9352054 Si02
#       8
#     8   8   8   8   8   8   8   8
#     4  11  23  43  66  95 129 171 223 274 326 387
#     4  10  25  43  66  88 124 178 225 273 319 376
#     4   9  20  35  54  90 131 164 204 249 317 397
#     4  11  22  45  62  92 125 166 224 272 320 391
#     4  10  20  38  65  91 127 166 204 265 328 386
#     4   9  18  33  52  85 125 161 195 241 316 387
#     4  11  22  35  59  93 124 166 206 263 324 401
#     4  11  22  36  60  92 127 168 209 263 334 393
#
# _framework density 21.559636000000001
#
# number of rings (size 3 to 8) (size 9 to 14) (size 15 to 20)
#    0.000    1.750    2.500    1.500    1.750    0.500 
#    2.250    3.125    0.000    0.000    0.000    0.000 
#    0.000    0.000    0.000    0.000    0.000    0.000 
#
# Total GULP energy -178254.346794 kJ/mol
# GULP energy per Si atom -5570.448337 kJ/mol
# Density = 2.151057 g / cm^3
# Si number density = 21.559636 Si / 1000 Ang^3
#
#
#
# Elastic Constant Matrix: (Units=GPa)
#
#
# Indices 1 2 3 4 5 6 
#
# 1 54.3973 31.3592 43.3661 0.0000 0.0000 0.0000
# 2 31.3592 49.1419 6.2880 0.0000 0.0000 0.0000
# 3 43.3661 6.2880 47.4199 0.0000 0.0000 0.0000
# 4 0.0000 0.0000 0.0000 9.4138 0.0000 0.0000
# 5 0.0000 0.0000 0.0000 0.0000 24.1115 0.0000
# 6 0.0000 0.0000 0.0000 0.0000 0.0000 -0.0426
#
#
#
# Elastic Compliance Matrix: (Units=1/GPa)
#
#
# Indices 1 2 3 4 5 6 
#
# 1 0.860018 -0.455907 -0.726044 0.000000 0.000000 0.000000
# 2 -0.455907 0.262383 0.382141 0.000000 0.000000 0.000000
# 3 -0.726044 0.382141 0.634393 0.000000 0.000000 0.000000
# 4 0.000000 0.000000 0.000000 0.106227 0.000000 0.000000
# 5 0.000000 0.000000 0.000000 0.000000 0.041474 0.000000
# 6 0.000000 0.000000 0.000000 0.000000 0.000000-23.450239
#
#
# Mechanical properties :
#
#
# Convention : Reuss Voigt Hill
#
# Bulk Modulus (GPa) = 6.36241 34.77618 20.56930
# Shear Modulus (GPa) = -0.25134 11.35958 5.55412
#
# Velocity S-wave (km/s) = -0.34180 2.29790 1.60679
# Velocity P-wave (km/s) = 1.67383 4.81723 3.60607
#
# Compressibility (1/GPa) = 0.15717314
#
# Stress axis : x y z
#
# Youngs Moduli (GPa) = 1.16277 3.81122 1.57631
#
# Poissons Ratio (x) = 1.73756 1.14447
# Poissons Ratio (y) = 0.53011 -0.60237
# Poissons Ratio (z) = 0.84422 -1.45642
#
# Static dielectric constant tensor:
#      x y z
#    x 1.809060 0.000000 0.000000 
#    y 0.000000 1.816430 0.000000 
#    z 0.000000 0.000000 1.947640 
# 
# From -- ./inp_files/4918.got.cif
#   From: 2010.05.17/outbox.cif.g08.bks.cpg/sg36_3_cif.got.tgz:4918.got - 2010.06.03 17:41:39.
