data_PCOD9352172
_publ_section_title
;
Structure prediction by ZEFSAII (Michael W. Deem and Ramdas Pophale) SiO2 
 PCOD9352172
Probable space group: C M C 21
;
_chemical_formula_sum "Si O2"
_cell_formula_units_Z 40
_cell_length_a 8.061745
_cell_length_b 28.397493
_cell_length_c 9.128176
_cell_angle_alpha 90.000000
_cell_angle_beta 90.000000
_cell_angle_gamma 90.000000
_cell_volume 2089.743886
_symmetry_space_group_name_H-M "C M C 21"
_symmetry_group_IT_number 36
_symmetry_cell_setting 'orthorhombic'
loop_
_space_group_symop_operation_xyz
x,y,z
-x,-y,1/2+z
x,-y,1/2+z
-x,y,z
1/2+x,1/2+y,z
1/2-x,1/2-y,1/2+z
1/2+x,1/2-y,1/2+z
1/2-x,1/2+y,z
loop_
_atom_site_type_symbol
_atom_site_label
_atom_site_fract_x
_atom_site_fract_y
_atom_site_fract_z
Si Si1 0.500000 0.250527 0.585341
Si Si2 0.198528 0.030533 0.452653
Si Si3 0.749524 0.164814 0.085046
Si Si4 0.500000 0.833341 0.321423
Si Si5 0.500000 0.826802 0.845708
Si Si6 0.796673 0.439548 0.622178
Si Si7 0.000000 0.410423 0.078635
O O1 0.646748 0.287755 0.588891
O O2 0.500000 0.211587 0.713731
O O3 0.500000 0.220604 0.437424
O O4 0.247901 0.041344 0.283901
O O5 0.331022 0.060200 0.551147
O O6 0.000000 0.039976 0.473655
O O7 0.239565 0.977340 0.501750
O O8 0.651253 0.169153 0.236410
O O9 0.797526 0.109734 0.093576
O O10 0.652485 0.167854 0.932479
O O11 0.500000 0.881700 0.229709
O O12 0.500000 0.870179 0.955432
O O13 0.000000 0.432707 0.616313
#
# Coordination Sequence:
#
# PCOD9352172 Si02
#       7
#     4   8   8   4   4   8   4
#     4  11  24  38  68  96 131 164 219 289 326 382
#     4  12  26  42  67 102 135 176 230 273 328 399
#     4  11  22  41  66  94 127 173 222 266 331 402
#     4  10  24  43  66  95 129 174 221 268 337 408
#     4  10  20  43  66  88 128 175 218 256 341 402
#     4  12  23  44  68  92 136 189 216 273 336 399
#     4  11  22  44  68  93 136 181 214 275 336 390
#
# _framework density 19.141102
#
# number of rings (size 3 to 8) (size 9 to 14) (size 15 to 20)
#    0.000    0.800    6.000    1.800    5.600    0.000 
#    1.800    0.000    4.400    0.000    0.000    0.000 
#    0.000    0.000    0.000    0.000    0.000    0.000 
#
# Total GULP energy -111450.811688 kJ/mol
# GULP energy per Si atom -5572.540584 kJ/mol
# Density = 1.909754 g / cm^3
# Si number density = 19.141102 Si / 1000 Ang^3
#
#
#
# Elastic Constant Matrix: (Units=GPa)
#
#
# Indices 1 2 3 4 5 6 
#
# 1 88.6440 33.7858 14.6097 0.0000 0.0000 0.0000
# 2 33.7858 170.9168 51.4904 0.0000 0.0000 0.0000
# 3 14.6097 51.4904 99.7415 0.0000 0.0000 0.0000
# 4 0.0000 0.0000 0.0000 34.0835 0.0000 0.0000
# 5 0.0000 0.0000 0.0000 0.0000 34.1604 0.0000
# 6 0.0000 0.0000 0.0000 0.0000 0.0000 44.3524
#
#
#
# Elastic Compliance Matrix: (Units=1/GPa)
#
#
# Indices 1 2 3 4 5 6 
#
# 1 0.012235 -0.002225 -0.000644 0.000000 0.000000 0.000000
# 2 -0.002225 0.007333 -0.003460 0.000000 0.000000 0.000000
# 3 -0.000644 -0.003460 0.011906 0.000000 0.000000 0.000000
# 4 0.000000 0.000000 0.000000 0.029340 0.000000 0.000000
# 5 0.000000 0.000000 0.000000 0.000000 0.029274 0.000000
# 6 0.000000 0.000000 0.000000 0.000000 0.000000 0.022547
#
#
# Mechanical properties :
#
#
# Convention : Reuss Voigt Hill
#
# Bulk Modulus (GPa) = 53.14019 62.11936 57.62977
# Shear Modulus (GPa) = 38.00470 39.81370 38.90920
#
# Velocity S-wave (km/s) = 4.46073 4.56566 4.51350
# Velocity P-wave (km/s) = 7.37248 7.76644 7.57202
#
# Compressibility (1/GPa) = 0.01881815
#
# Stress axis : x y z
#
# Youngs Moduli (GPa) = 81.73231 136.37360 83.98988
#
# Poissons Ratio (x) = 0.30338 0.05406
# Poissons Ratio (y) = 0.18182 0.29057
# Poissons Ratio (z) = 0.05261 0.47180
#
# Static dielectric constant tensor:
#      x y z
#    x 1.635580 0.000000 0.000000 
#    y 0.000000 1.660580 0.000000 
#    z 0.000000 0.000000 1.635130 
# 
# From -- ./inp_files/2549.got.cif
#   From: 2010.05.17/outbox.cif.g08.bks.cpg/sg36_2_cif.got.tgz:2549.got - 2010.06.03 17:41:39.
