data_PCOD9352702
_publ_section_title
;
Structure prediction by ZEFSAII (Michael W. Deem and Ramdas Pophale) SiO2 
 PCOD9352702
Probable space group: C M C 21
;
_chemical_formula_sum "Si O2"
_cell_formula_units_Z 40
_cell_length_a 26.611405
_cell_length_b 12.331642
_cell_length_c 4.910482
_cell_angle_alpha 90.000000
_cell_angle_beta 90.000000
_cell_angle_gamma 90.000000
_cell_volume 1611.435163
_symmetry_space_group_name_H-M "C M C 21"
_symmetry_group_IT_number 36
_symmetry_cell_setting 'orthorhombic'
loop_
_space_group_symop_operation_xyz
x,y,z
-x,-y,1/2+z
x,-y,1/2+z
-x,y,z
1/2+x,1/2+y,z
1/2-x,1/2-y,1/2+z
1/2+x,1/2-y,1/2+z
1/2-x,1/2+y,z
loop_
_atom_site_type_symbol
_atom_site_label
_atom_site_fract_x
_atom_site_fract_y
_atom_site_fract_z
Si Si1 0.441554 0.426958 0.333570
Si Si2 0.771027 0.191303 0.291270
Si Si3 0.940759 0.424598 0.262311
Si Si4 0.626587 0.249107 0.051967
Si Si5 0.681123 0.936149 0.895583
O O1 0.434190 0.467473 0.640784
O O2 0.500000 0.392641 0.301107
O O3 0.404419 0.335240 0.227980
O O4 0.757772 0.219748 0.981372
O O5 0.828822 0.196971 0.374117
O O6 0.740589 0.084201 0.367244
O O7 0.930900 0.473479 0.964529
O O8 0.911167 0.319716 0.362981
O O9 0.000000 0.400206 0.280610
O O10 0.653624 0.164745 0.258072
O O11 0.669368 0.960498 0.206907
#
# Coordination Sequence:
#
# PCOD9352702 Si02
#       5
#     8   8   8   8   8
#     4  10  24  44  65  93 127 165 214 269 319 368
#     4  10  23  40  58  86 124 166 212 256 303 363
#     4  10  22  39  61  95 133 166 205 256 320 390
#     4  11  23  41  68  94 125 170 217 260 315 380
#     4  11  23  40  62  92 129 163 201 255 317 379
#
# _framework density 24.822593999999999
#
# number of rings (size 3 to 8) (size 9 to 14) (size 15 to 20)
#    0.000    1.600    0.000    4.200    0.000   11.200 
#    0.000    6.000    0.000    0.000    0.000    0.000 
#    0.000    0.000    0.000    0.000    0.000    0.000 
#
# Total GULP energy -112129.884330 kJ/mol
# GULP energy per Si atom -5606.494217 kJ/mol
# Density = 2.476610 g / cm^3
# Si number density = 24.822594 Si / 1000 Ang^3
#
#
#
# Elastic Constant Matrix: (Units=GPa)
#
#
# Indices 1 2 3 4 5 6 
#
# 1 140.2206 40.9626 16.6810 0.0000 0.0000 0.0000
# 2 40.9626 59.2930 8.3487 0.0000 0.0000 0.0000
# 3 16.6810 8.3487 93.5349 0.0000 0.0000 0.0000
# 4 0.0000 0.0000 0.0000 26.8145 0.0000 0.0000
# 5 0.0000 0.0000 0.0000 0.0000 37.2701 0.0000
# 6 0.0000 0.0000 0.0000 0.0000 0.0000 54.9155
#
#
#
# Elastic Compliance Matrix: (Units=1/GPa)
#
#
# Indices 1 2 3 4 5 6 
#
# 1 0.009039 -0.006094 -0.001068 0.000000 0.000000 0.000000
# 2 -0.006094 0.021189 -0.000804 0.000000 0.000000 0.000000
# 3 -0.001068 -0.000804 0.010953 0.000000 0.000000 0.000000
# 4 0.000000 0.000000 0.000000 0.037293 0.000000 0.000000
# 5 0.000000 0.000000 0.000000 0.000000 0.026831 0.000000
# 6 0.000000 0.000000 0.000000 0.000000 0.000000 0.018210
#
#
# Mechanical properties :
#
#
# Convention : Reuss Voigt Hill
#
# Bulk Modulus (GPa) = 39.60720 47.22591 43.41655
# Shear Modulus (GPa) = 33.81468 38.93711 36.37589
#
# Velocity S-wave (km/s) = 3.69488 3.96487 3.83225
# Velocity P-wave (km/s) = 5.84753 6.32669 6.09182
#
# Compressibility (1/GPa) = 0.02524794
#
# Stress axis : x y z
#
# Youngs Moduli (GPa) = 110.63210 47.19470 91.29519
#
# Poissons Ratio (x) = 0.28761 0.09751
# Poissons Ratio (y) = 0.67421 0.07344
# Poissons Ratio (z) = 0.11816 0.03796
#
# Static dielectric constant tensor:
#      x y z
#    x 2.025120 0.000000 0.000000 
#    y 0.000000 1.966500 0.000000 
#    z 0.000000 0.000000 1.920850 
# 
# From -- ./inp_files/1693.got.cif
#   From: 2010.05.17/outbox.cif.g08.bks.cpg/sg36_1_cif.got.tgz:1693.got - 2010.06.03 17:41:39.
