data_PCOD9352838
_publ_section_title
;
Structure prediction by ZEFSAII (Michael W. Deem and Ramdas Pophale) SiO2 
 PCOD9352838
Probable space group: C M C 21
;
_chemical_formula_sum "Si O2"
_cell_formula_units_Z 40
_cell_length_a 16.793927
_cell_length_b 7.590590
_cell_length_c 12.384127
_cell_angle_alpha 90.000000
_cell_angle_beta 90.000000
_cell_angle_gamma 90.000000
_cell_volume 1578.676674
_symmetry_space_group_name_H-M "C M C 21"
_symmetry_group_IT_number 36
_symmetry_cell_setting 'orthorhombic'
loop_
_space_group_symop_operation_xyz
x,y,z
-x,-y,1/2+z
x,-y,1/2+z
-x,y,z
1/2+x,1/2+y,z
1/2-x,1/2-y,1/2+z
1/2+x,1/2-y,1/2+z
1/2-x,1/2+y,z
loop_
_atom_site_type_symbol
_atom_site_label
_atom_site_fract_x
_atom_site_fract_y
_atom_site_fract_z
Si Si1 0.095442 0.290871 0.948900
Si Si2 0.206864 0.437354 0.117545
Si Si3 0.154020 0.982650 0.273886
Si Si4 0.412612 0.172736 0.853863
Si Si5 0.135204 0.185386 0.570962
O O1 0.127448 0.132681 0.875458
O O2 0.111814 0.473709 0.882831
O O3 0.000000 0.278638 0.963587
O O4 0.257900 0.436115 0.228873
O O5 0.166396 0.626890 0.114616
O O6 0.282818 0.413390 0.037352
O O7 0.141639 0.309950 0.062880
O O8 0.100719 0.919912 0.171414
O O9 0.142023 0.189640 0.290911
O O10 0.500000 0.164410 0.802561
O O11 0.417078 0.268400 0.970010
#
# Coordination Sequence:
#
# PCOD9352838 Si02
#       5
#     8   8   8   8   8
#     4  10  22  44  74 106 145 189 240 300 365 430
#     4   9  22  43  63 106 139 186 237 296 356 425
#     4  10  23  41  68 105 141 190 242 290 359 437
#     4  10  22  42  69 101 141 187 235 298 361 425
#     4   9  22  42  63 100 140 180 236 296 350 427
#
# _framework density 25.337675000000001
#
# number of rings (size 3 to 8) (size 9 to 14) (size 15 to 20)
#    1.200    1.200    0.000    0.600    2.800    4.800 
#    7.200    0.000    0.000    7.200    0.000    2.800 
#    0.000    0.000    0.000    0.000    0.000    0.000 
#
# Total GULP energy -111561.664253 kJ/mol
# GULP energy per Si atom -5578.083213 kJ/mol
# Density = 2.528001 g / cm^3
# Si number density = 25.337675 Si / 1000 Ang^3
#
#
#
# Elastic Constant Matrix: (Units=GPa)
#
#
# Indices 1 2 3 4 5 6 
#
# 1 137.4380 42.6896 64.4994 0.0000 0.0000 0.0000
# 2 42.6896 107.0093 32.5234 0.0000 0.0000 0.0000
# 3 64.4994 32.5234 78.6579 0.0000 0.0000 0.0000
# 4 0.0000 0.0000 0.0000 39.9053 0.0000 0.0000
# 5 0.0000 0.0000 0.0000 0.0000 -6.5182 0.0000
# 6 0.0000 0.0000 0.0000 0.0000 0.0000 -2.7383
#
#
#
# Elastic Compliance Matrix: (Units=1/GPa)
#
#
# Indices 1 2 3 4 5 6 
#
# 1 0.012224 -0.002093 -0.009158 0.000000 0.000000 0.000000
# 2 -0.002093 0.011047 -0.002851 0.000000 0.000000 0.000000
# 3 -0.009158 -0.002851 0.021402 0.000000 0.000000 0.000000
# 4 0.000000 0.000000 0.000000 0.025059 0.000000 0.000000
# 5 0.000000 0.000000 0.000000 0.000000 -0.153417 0.000000
# 6 0.000000 0.000000 0.000000 0.000000 0.000000 -0.365193
#
#
# Mechanical properties :
#
#
# Convention : Reuss Voigt Hill
#
# Bulk Modulus (GPa) = 60.72574 66.94776 63.83675
# Shear Modulus (GPa) = -12.04288 18.35595 3.15654
#
# Velocity S-wave (km/s) = -2.18249 2.69449 1.11736
# Velocity P-wave (km/s) = 4.20328 6.01331 5.18785
#
# Compressibility (1/GPa) = 0.01646748
#
# Stress axis : x y z
#
# Youngs Moduli (GPa) = 81.80540 90.52601 46.72463
#
# Poissons Ratio (x) = 0.18948 0.42792
# Poissons Ratio (y) = 0.17123 0.13322
# Poissons Ratio (z) = 0.74920 0.25810
#
# Static dielectric constant tensor:
#      x y z
#    x 2.085980 0.000000 0.000000 
#    y 0.000000 2.008000 0.000000 
#    z 0.000000 0.000000 2.058120 
# 
# From -- ./inp_files/8786.got.cif
#   From: 2010.05.17/outbox.cif.g08.bks.cpg/sg36_5_cif.got.tgz:8786.got - 2010.06.03 17:41:39.
