data_PCOD9352530
_publ_section_title
;
Structure prediction by ZEFSAII (Michael W. Deem and Ramdas Pophale) SiO2 
 PCOD9352530
Probable space group: C M C 21
;
_chemical_formula_sum "Si O2"
_cell_formula_units_Z 40
_cell_length_a 29.925588
_cell_length_b 5.170521
_cell_length_c 9.265276
_cell_angle_alpha 90.000000
_cell_angle_beta 90.000000
_cell_angle_gamma 90.000000
_cell_volume 1433.624320
_symmetry_space_group_name_H-M "C M C 21"
_symmetry_group_IT_number 36
_symmetry_cell_setting 'orthorhombic'
loop_
_space_group_symop_operation_xyz
x,y,z
-x,-y,1/2+z
x,-y,1/2+z
-x,y,z
1/2+x,1/2+y,z
1/2-x,1/2-y,1/2+z
1/2+x,1/2-y,1/2+z
1/2-x,1/2+y,z
loop_
_atom_site_type_symbol
_atom_site_label
_atom_site_fract_x
_atom_site_fract_y
_atom_site_fract_z
Si Si1 0.222397 0.772466 0.028140
Si Si2 0.909810 0.180860 0.838855
Si Si3 0.500000 0.785908 0.206952
Si Si4 0.596123 0.988196 0.098508
Si Si5 0.500000 0.441107 0.964538
Si Si6 0.667960 0.619007 0.250196
O O1 0.263855 0.973458 0.048483
O O2 0.188387 0.899024 0.144237
O O3 0.205609 0.785747 0.862184
O O4 0.906521 0.230862 0.668265
O O5 0.955278 0.062227 0.896166
O O6 0.867498 0.004265 0.862097
O O7 0.902440 0.443013 0.928786
O O8 0.547168 0.889953 0.151290
O O9 0.500000 0.828937 0.379973
O O10 0.500000 0.499135 0.131772
O O11 0.638154 0.830170 0.163592
#
# Coordination Sequence:
#
# PCOD9352530 Si02
#       6
#     8   8   4   8   4   8
#     4  12  30  52  76 107 148 189 242 312 390 458
#     4  11  25  42  69 104 145 189 241 292 353 433
#     4  10  21  40  62  99 145 191 235 287 353 420
#     4  11  25  42  69 104 145 189 241 292 353 433
#     4  10  21  40  62  99 145 191 235 287 353 420
#     4  12  26  45  76 106 140 186 242 301 368 446
#
# _framework density 27.901311
#
# number of rings (size 3 to 8) (size 9 to 14) (size 15 to 20)
#    0.000    0.800    4.000    1.800    8.400    1.600 
#    0.000    0.000    0.000    0.000    0.000    0.000 
#    0.000    0.000    0.000    0.000    0.000    0.000 
#
# Total GULP energy -111876.712055 kJ/mol
# GULP energy per Si atom -5593.835603 kJ/mol
# Density = 2.783781 g / cm^3
# Si number density = 27.901311 Si / 1000 Ang^3
#
#
#
# Elastic Constant Matrix: (Units=GPa)
#
#
# Indices 1 2 3 4 5 6 
#
# 1 144.0814 19.6233 36.8494 0.0000 0.0000 0.0000
# 2 19.6233 48.8193 3.1202 0.0000 0.0000 0.0000
# 3 36.8494 3.1202 123.7959 0.0000 0.0000 0.0000
# 4 0.0000 0.0000 0.0000 47.9156 0.0000 0.0000
# 5 0.0000 0.0000 0.0000 0.0000 35.7338 0.0000
# 6 0.0000 0.0000 0.0000 0.0000 0.0000 50.7527
#
#
#
# Elastic Compliance Matrix: (Units=1/GPa)
#
#
# Indices 1 2 3 4 5 6 
#
# 1 0.007940 -0.003045 -0.002287 0.000000 0.000000 0.000000
# 2 -0.003045 0.021685 0.000360 0.000000 0.000000 0.000000
# 3 -0.002287 0.000360 0.008749 0.000000 0.000000 0.000000
# 4 0.000000 0.000000 0.000000 0.020870 0.000000 0.000000
# 5 0.000000 0.000000 0.000000 0.000000 0.027985 0.000000
# 6 0.000000 0.000000 0.000000 0.000000 0.000000 0.019703
#
#
# Mechanical properties :
#
#
# Convention : Reuss Voigt Hill
#
# Bulk Modulus (GPa) = 35.17416 48.43138 41.80277
# Shear Modulus (GPa) = 39.57151 44.02069 41.79610
#
# Velocity S-wave (km/s) = 3.77007 3.97637 3.87460
# Velocity P-wave (km/s) = 5.62008 6.20305 5.91875
#
# Compressibility (1/GPa) = 0.02842996
#
# Stress axis : x y z
#
# Youngs Moduli (GPa) = 125.94249 46.11521 114.29346
#
# Poissons Ratio (x) = 0.14044 0.26136
# Poissons Ratio (y) = 0.38355 -0.04114
# Poissons Ratio (z) = 0.28799 -0.01660
#
# Static dielectric constant tensor:
#      x y z
#    x 2.178180 0.000000 0.000000 
#    y 0.000000 2.268250 0.000000 
#    z 0.000000 0.000000 2.138570 
# 
# From -- ./inp_files/9564.got.cif
#   From: 2010.05.17/outbox.cif.g08.bks.cpg/sg36_5_cif.got.tgz:9564.got - 2010.06.03 17:41:39.
