data_PCOD9352242
_publ_section_title
;
Structure prediction by ZEFSAII (Michael W. Deem and Ramdas Pophale) SiO2 
 PCOD9352242
Probable space group: C M C 21
;
_chemical_formula_sum "Si O2"
_cell_formula_units_Z 64
_cell_length_a 7.525430
_cell_length_b 24.596916
_cell_length_c 15.019662
_cell_angle_alpha 90.000000
_cell_angle_beta 90.000000
_cell_angle_gamma 90.000000
_cell_volume 2780.175026
_symmetry_space_group_name_H-M "C M C 21"
_symmetry_group_IT_number 36
_symmetry_cell_setting 'orthorhombic'
loop_
_space_group_symop_operation_xyz
x,y,z
-x,-y,1/2+z
x,-y,1/2+z
-x,y,z
1/2+x,1/2+y,z
1/2-x,1/2-y,1/2+z
1/2+x,1/2-y,1/2+z
1/2-x,1/2+y,z
loop_
_atom_site_type_symbol
_atom_site_label
_atom_site_fract_x
_atom_site_fract_y
_atom_site_fract_z
Si Si1 0.283630 0.898029 0.422730
Si Si2 0.205045 0.369604 0.234687
Si Si3 0.707953 0.499131 0.549528
Si Si4 0.283177 0.752751 0.727053
Si Si5 0.201342 0.317158 0.565017
Si Si6 0.701888 0.881472 0.040247
Si Si7 0.789569 0.082979 0.189311
Si Si8 0.286101 0.851586 0.852436
O O1 0.500000 0.895065 0.422577
O O2 0.218624 0.898693 0.321531
O O3 0.232454 0.951010 0.478409
O O4 0.218351 0.844419 0.476944
O O5 0.213077 0.305535 0.254011
O O6 0.288417 0.375740 0.137182
O O7 0.000000 0.387975 0.227192
O O8 0.500000 0.512155 0.555833
O O9 0.803553 0.554052 0.523313
O O10 0.768548 0.473322 0.644205
O O11 0.500000 0.751965 0.725739
O O12 0.220886 0.769940 0.627298
O O13 0.225886 0.799272 0.796368
O O14 0.198464 0.368369 0.633886
O O15 0.000000 0.300853 0.543266
O O16 0.500000 0.859978 0.048002
O O17 0.783956 0.854729 0.952605
O O18 0.758478 0.095705 0.292319
O O19 0.000000 0.087740 0.171734
O O20 0.500000 0.849435 0.857110
#
# Coordination Sequence:
#
# PCOD9352242 Si02
#       8
#     8   8   8   8   8   8   8   8
#     4   9  18  35  57  79 105 140 181 219 258 311
#     4  10  22  37  53  78 109 140 178 219 258 309
#     4  10  21  36  55  81 109 136 171 218 270 316
#     4   9  18  33  53  77 105 138 175 218 269 313
#     4   8  15  30  52  76 103 136 174 213 254 308
#     4  10  22  39  55  74 106 145 180 214 256 311
#     4   9  17  30  51  80 108 131 164 215 266 308
#     4   9  19  36  56  77 103 140 183 218 255 312
#
# _framework density 23.020133999999999
#
# number of rings (size 3 to 8) (size 9 to 14) (size 15 to 20)
#    0.000    2.750    0.000    1.500    0.000    7.000 
#    0.000    3.750    0.000    0.000    0.000    0.000 
#    0.000    0.000    0.000    0.000    0.000    0.000 
#
# Total GULP energy -178530.273167 kJ/mol
# GULP energy per Si atom -5579.071036 kJ/mol
# Density = 2.296774 g / cm^3
# Si number density = 23.020134 Si / 1000 Ang^3
#
#
#
# Elastic Constant Matrix: (Units=GPa)
#
#
# Indices 1 2 3 4 5 6 
#
# 1 71.0421 -6.6320 2.3674 0.0000 0.0000 0.0000
# 2 -6.6320 46.5094 22.0488 0.0000 0.0000 0.0000
# 3 2.3674 22.0488 179.3826 0.0000 0.0000 0.0000
# 4 0.0000 0.0000 0.0000 24.1840 0.0000 0.0000
# 5 0.0000 0.0000 0.0000 0.0000 -2.0289 0.0000
# 6 0.0000 0.0000 0.0000 0.0000 0.0000 16.2952
#
#
#
# Elastic Compliance Matrix: (Units=1/GPa)
#
#
# Indices 1 2 3 4 5 6 
#
# 1 0.014303 0.002261 -0.000467 0.000000 0.000000 0.000000
# 2 0.002261 0.023189 -0.002880 0.000000 0.000000 0.000000
# 3 -0.000467 -0.002880 0.005935 0.000000 0.000000 0.000000
# 4 0.000000 0.000000 0.000000 0.041350 0.000000 0.000000
# 5 0.000000 0.000000 0.000000 0.000000 -0.492882 0.000000
# 6 0.000000 0.000000 0.000000 0.000000 0.000000 0.061368
#
#
# Mechanical properties :
#
#
# Convention : Reuss Voigt Hill
#
# Bulk Modulus (GPa) = 24.23987 36.94472 30.59230
# Shear Modulus (GPa) = -15.11418 26.30007 5.59294
#
# Velocity S-wave (km/s) = -2.56513 3.38373 1.56040
# Velocity P-wave (km/s) = 1.33399 5.59909 4.06998
#
# Compressibility (1/GPa) = 0.04125435
#
# Stress axis : x y z
#
# Youngs Moduli (GPa) = 69.91663 43.12430 168.49648
#
# Poissons Ratio (x) = -0.09749 0.07863
# Poissons Ratio (y) = -0.15806 0.48528
# Poissons Ratio (z) = 0.03263 0.12420
#
# Static dielectric constant tensor:
#      x y z
#    x 1.856040 0.000000 0.000000 
#    y 0.000000 1.853440 0.000000 
#    z 0.000000 0.000000 1.916140 
# 
# From -- ./inp_files/11110.got.cif
#   From: 2010.05.17/outbox.cif.g08.bks.cpg/sg36_6_cif.got.tgz:11110.got - 2010.06.03 17:41:39.
