data_PCOD9352171
_publ_section_title
;
Structure prediction by ZEFSAII (Michael W. Deem and Ramdas Pophale) SiO2 
 PCOD9352171
Probable space group: C M C 21
;
_chemical_formula_sum "Si O2"
_cell_formula_units_Z 48
_cell_length_a 26.478856
_cell_length_b 8.427306
_cell_length_c 9.340198
_cell_angle_alpha 90.000000
_cell_angle_beta 90.000000
_cell_angle_gamma 90.000000
_cell_volume 2084.222425
_symmetry_space_group_name_H-M "C M C 21"
_symmetry_group_IT_number 36
_symmetry_cell_setting 'orthorhombic'
loop_
_space_group_symop_operation_xyz
x,y,z
-x,-y,1/2+z
x,-y,1/2+z
-x,y,z
1/2+x,1/2+y,z
1/2-x,1/2-y,1/2+z
1/2+x,1/2-y,1/2+z
1/2-x,1/2+y,z
loop_
_atom_site_type_symbol
_atom_site_label
_atom_site_fract_x
_atom_site_fract_y
_atom_site_fract_z
Si Si1 0.322164 0.606616 0.642310
Si Si2 0.892598 0.336500 0.532627
Si Si3 0.000000 0.715924 0.684841
Si Si4 0.324809 0.096256 0.528172
Si Si5 0.769206 0.913718 0.420291
Si Si6 0.887566 0.810160 0.733394
Si Si7 0.500000 0.088410 0.013156
O O1 0.351936 0.771802 0.645906
O O2 0.302508 0.555451 0.487047
O O3 0.274238 0.591953 0.749171
O O4 0.361818 0.474374 0.691459
O O5 0.875456 0.507984 0.473435
O O6 0.891693 0.215672 0.401776
O O7 0.949402 0.344266 0.584175
O O8 0.054569 0.801409 0.678280
O O9 0.000000 0.629067 0.843115
O O10 0.000000 0.594765 0.553310
O O11 0.296145 0.249950 0.465384
O O12 0.349470 0.173242 0.672217
O O13 0.284415 0.955375 0.489929
#
# Coordination Sequence:
#
# PCOD9352171 Si02
#       7
#     8   8   4   8   8   8   4
#     4  11  24  45  65  98 137 176 231 281 345 410
#     4  11  23  43  69  99 139 179 230 291 350 411
#     4  10  20  43  66 102 138 178 233 278 360 414
#     4  11  25  42  68  95 137 178 228 283 347 407
#     4  11  26  41  67  98 131 184 228 281 342 416
#     4  10  23  43  69  98 138 181 227 292 347 416
#     4  10  22  39  70 102 134 180 231 290 346 424
#
# _framework density 23.030170999999999
#
# number of rings (size 3 to 8) (size 9 to 14) (size 15 to 20)
#    0.000    1.333    3.333    1.000    4.667    2.000 
#    0.000    0.000    0.000    1.000    0.000    0.000 
#    0.000    0.000    0.000    0.000    0.000    0.000 
#
# Total GULP energy -133664.281178 kJ/mol
# GULP energy per Si atom -5569.345049 kJ/mol
# Density = 2.297775 g / cm^3
# Si number density = 23.030171 Si / 1000 Ang^3
#
#
#
# Elastic Constant Matrix: (Units=GPa)
#
#
# Indices 1 2 3 4 5 6 
#
# 1 165.6508 40.0379 19.5067 0.0000 0.0000 0.0000
# 2 40.0379 57.8208 -4.2935 0.0000 0.0000 0.0000
# 3 19.5067 -4.2935 38.4345 0.0000 0.0000 0.0000
# 4 0.0000 0.0000 0.0000 15.9050 0.0000 0.0000
# 5 0.0000 0.0000 0.0000 0.0000 31.7160 0.0000
# 6 0.0000 0.0000 0.0000 0.0000 0.0000 31.7869
#
#
#
# Elastic Compliance Matrix: (Units=1/GPa)
#
#
# Indices 1 2 3 4 5 6 
#
# 1 0.008021 -0.005906 -0.004731 0.000000 0.000000 0.000000
# 2 -0.005906 0.021787 0.005431 0.000000 0.000000 0.000000
# 3 -0.004731 0.005431 0.029026 0.000000 0.000000 0.000000
# 4 0.000000 0.000000 0.000000 0.062873 0.000000 0.000000
# 5 0.000000 0.000000 0.000000 0.000000 0.031530 0.000000
# 6 0.000000 0.000000 0.000000 0.000000 0.000000 0.031459
#
#
# Mechanical properties :
#
#
# Convention : Reuss Voigt Hill
#
# Bulk Modulus (GPa) = 20.65079 41.37870 31.01475
# Shear Modulus (GPa) = 23.66872 29.65857 26.66364
#
# Velocity S-wave (km/s) = 3.20930 3.59251 3.40629
# Velocity P-wave (km/s) = 4.76645 5.93416 5.38207
#
# Compressibility (1/GPa) = 0.04842430
#
# Stress axis : x y z
#
# Youngs Moduli (GPa) = 124.66863 45.89803 34.45184
#
# Poissons Ratio (x) = 0.27106 0.16298
# Poissons Ratio (y) = 0.73624 -0.18711
# Poissons Ratio (z) = 0.58978 -0.24928
#
# Static dielectric constant tensor:
#      x y z
#    x 1.915260 0.000000 0.000000 
#    y 0.000000 1.877550 0.000000 
#    z 0.000000 0.000000 1.863810 
# 
# From -- ./inp_files/6004.got.cif
#   From: 2010.05.17/outbox.cif.g08.bks.cpg/sg36_4_cif.got.tgz:6004.got - 2010.06.03 17:41:39.
