data_PCOD9352149
_publ_section_title
;
Structure prediction by ZEFSAII (Michael W. Deem and Ramdas Pophale) SiO2 
 PCOD9352149
Probable space group: C M C 21
;
_chemical_formula_sum "Si O2"
_cell_formula_units_Z 64
_cell_length_a 21.965947
_cell_length_b 9.440562
_cell_length_c 14.504846
_cell_angle_alpha 90.000000
_cell_angle_beta 90.000000
_cell_angle_gamma 90.000000
_cell_volume 3007.882745
_symmetry_space_group_name_H-M "C M C 21"
_symmetry_group_IT_number 36
_symmetry_cell_setting 'orthorhombic'
loop_
_space_group_symop_operation_xyz
x,y,z
-x,-y,1/2+z
x,-y,1/2+z
-x,y,z
1/2+x,1/2+y,z
1/2-x,1/2-y,1/2+z
1/2+x,1/2-y,1/2+z
1/2-x,1/2+y,z
loop_
_atom_site_type_symbol
_atom_site_label
_atom_site_fract_x
_atom_site_fract_y
_atom_site_fract_z
Si Si1 0.302600 0.824844 0.833500
Si Si2 0.432156 0.360856 0.571646
Si Si3 0.925933 0.413571 0.179609
Si Si4 0.752968 0.941261 0.447147
Si Si5 0.433579 0.819227 0.889076
Si Si6 0.860185 0.129099 0.514642
Si Si7 0.930616 0.364126 0.398398
Si Si8 0.184327 0.627989 0.133378
O O1 0.270497 0.703336 0.894489
O O2 0.374613 0.791553 0.828199
O O3 0.281005 0.853885 0.730141
O O4 0.295001 0.971629 0.887427
O O5 0.500000 0.379290 0.608338
O O6 0.405120 0.233426 0.631882
O O7 0.433866 0.295679 0.469133
O O8 0.402612 0.512255 0.561074
O O9 0.920209 0.388356 0.289406
O O10 0.877185 0.533591 0.148544
O O11 0.000000 0.438469 0.160331
O O12 0.726172 0.927265 0.549812
O O13 0.812228 0.039082 0.455843
O O14 0.500000 0.819392 0.841539
O O15 0.427553 0.974619 0.935966
O O16 0.889516 0.249363 0.449164
O O17 0.831807 0.216355 0.598055
O O18 0.000000 0.314402 0.410195
#
# Coordination Sequence:
#
# PCOD9352149 Si02
#       8
#     8   8   8   8   8   8   8   8
#     4  12  26  48  73 101 140 189 238 299 362 420
#     4  10  21  39  66 100 140 182 221 285 361 428
#     4  10  22  42  72 107 141 180 237 296 363 442
#     4  12  28  48  66 101 147 186 246 297 355 425
#     4  10  20  41  71 101 134 174 226 289 361 428
#     4  12  25  44  65  98 139 184 237 295 351 430
#     4  10  21  41  69 104 139 179 228 294 369 433
#     4  12  28  45  74 104 135 192 247 297 358 432
#
# _framework density 21.277425000000001
#
# number of rings (size 3 to 8) (size 9 to 14) (size 15 to 20)
#    0.000    1.000    3.750    2.625    1.750    3.000 
#    0.000    0.000    0.000    0.000    0.000    0.000 
#    0.000    0.000    0.000    0.000    0.000    0.000 
#
# Total GULP energy -178643.720714 kJ/mol
# GULP energy per Si atom -5582.616272 kJ/mol
# Density = 2.122900 g / cm^3
# Si number density = 21.277425 Si / 1000 Ang^3
#
#
#
# Elastic Constant Matrix: (Units=GPa)
#
#
# Indices 1 2 3 4 5 6 
#
# 1 57.8529 9.8115 11.1748 0.0000 0.0000 0.0000
# 2 9.8115 85.0825 7.8211 0.0000 0.0000 0.0000
# 3 11.1748 7.8211 93.0573 0.0000 0.0000 0.0000
# 4 0.0000 0.0000 0.0000 9.5003 0.0000 0.0000
# 5 0.0000 0.0000 0.0000 0.0000 27.3685 0.0000
# 6 0.0000 0.0000 0.0000 0.0000 0.0000 39.6756
#
#
#
# Elastic Compliance Matrix: (Units=1/GPa)
#
#
# Indices 1 2 3 4 5 6 
#
# 1 0.017993 -0.001891 -0.002002 0.000000 0.000000 0.000000
# 2 -0.001891 0.012044 -0.000785 0.000000 0.000000 0.000000
# 3 -0.002002 -0.000785 0.011052 0.000000 0.000000 0.000000
# 4 0.000000 0.000000 0.000000 0.105260 0.000000 0.000000
# 5 0.000000 0.000000 0.000000 0.000000 0.036538 0.000000
# 6 0.000000 0.000000 0.000000 0.000000 0.000000 0.025204
#
#
# Mechanical properties :
#
#
# Convention : Reuss Voigt Hill
#
# Bulk Modulus (GPa) = 31.51288 32.62306 32.06797
# Shear Modulus (GPa) = 21.92750 29.12123 25.52436
#
# Velocity S-wave (km/s) = 3.21370 3.70353 3.46728
# Velocity P-wave (km/s) = 5.34913 5.80118 5.57974
#
# Compressibility (1/GPa) = 0.03173306
#
# Stress axis : x y z
#
# Youngs Moduli (GPa) = 55.57852 83.03217 90.47777
#
# Poissons Ratio (x) = 0.15700 0.18111
# Poissons Ratio (y) = 0.10509 0.07104
# Poissons Ratio (z) = 0.11125 0.06519
#
# Static dielectric constant tensor:
#      x y z
#    x 1.872170 0.000000 0.000000 
#    y 0.000000 1.753210 0.000000 
#    z 0.000000 0.000000 1.786170 
# 
# From -- ./inp_files/12977.got.cif
#   From: 2010.05.17/outbox.cif.g08.bks.cpg/sg36_7_cif.got.tgz:12977.got - 2010.06.03 17:41:39.
