data_PCOD9352711
_publ_section_title
;
Structure prediction by ZEFSAII (Michael W. Deem and Ramdas Pophale) SiO2 
 PCOD9352711
Probable space group: C M C 21
;
_chemical_formula_sum "Si O2"
_cell_formula_units_Z 48
_cell_length_a 25.738931
_cell_length_b 5.672618
_cell_length_c 12.791224
_cell_angle_alpha 90.000000
_cell_angle_beta 90.000000
_cell_angle_gamma 90.000000
_cell_volume 1867.609820
_symmetry_space_group_name_H-M "C M C 21"
_symmetry_group_IT_number 36
_symmetry_cell_setting 'orthorhombic'
loop_
_space_group_symop_operation_xyz
x,y,z
-x,-y,1/2+z
x,-y,1/2+z
-x,y,z
1/2+x,1/2+y,z
1/2-x,1/2-y,1/2+z
1/2+x,1/2-y,1/2+z
1/2-x,1/2+y,z
loop_
_atom_site_type_symbol
_atom_site_label
_atom_site_fract_x
_atom_site_fract_y
_atom_site_fract_z
Si Si1 0.627734 0.752790 0.841160
Si Si2 0.106109 0.374023 0.069036
Si Si3 0.443825 0.482472 0.720471
Si Si4 0.058827 0.348695 0.404377
Si Si5 0.721099 0.884067 0.164781
Si Si6 0.242985 0.863642 0.391766
O O1 0.604266 0.652086 0.734068
O O2 0.686167 0.664704 0.843581
O O3 0.603483 0.014845 0.839880
O O4 0.612139 0.712300 0.964115
O O5 0.068477 0.234309 0.145975
O O6 0.163798 0.401675 0.115013
O O7 0.079619 0.611071 0.021488
O O8 0.500000 0.586072 0.695007
O O9 0.445544 0.393014 0.841852
O O10 0.000000 0.453279 0.398572
O O11 0.747575 0.628268 0.142764
O O12 0.718407 0.876211 0.292678
O O13 0.252917 0.614967 0.447951
#
# Coordination Sequence:
#
# PCOD9352711 Si02
#       6
#     8   8   8   8   8   8
#     4  10  24  41  67  96 135 180 229 289 353 423
#     4  10  24  42  67 100 134 184 234 290 356 429
#     4  11  22  42  71  96 136 185 231 298 363 421
#     4   9  22  43  64  97 134 171 231 289 346 422
#     4  10  22  39  64  98 140 180 238 291 349 427
#     4  10  22  39  67  97 139 182 233 291 353 424
#
# _framework density 25.7013
#
# number of rings (size 3 to 8) (size 9 to 14) (size 15 to 20)
#    1.000    1.000    0.000    3.000    7.000    2.667 
#    3.000    0.000    0.000    0.000    0.000    0.000 
#    0.000    0.000    0.000    0.000    0.000    0.000 
#
# Total GULP energy -133687.308040 kJ/mol
# GULP energy per Si atom -5570.304502 kJ/mol
# Density = 2.564280 g / cm^3
# Si number density = 25.701300 Si / 1000 Ang^3
#
#
#
# Elastic Constant Matrix: (Units=GPa)
#
#
# Indices 1 2 3 4 5 6 
#
# 1 121.3565 11.1101 4.4162 0.0000 0.0000 0.0000
# 2 11.1101 107.3635 25.6129 0.0000 0.0000 0.0000
# 3 4.4162 25.6129 92.2625 0.0000 0.0000 0.0000
# 4 0.0000 0.0000 0.0000 35.5044 0.0000 0.0000
# 5 0.0000 0.0000 0.0000 0.0000 28.7056 0.0000
# 6 0.0000 0.0000 0.0000 0.0000 0.0000 15.1159
#
#
#
# Elastic Compliance Matrix: (Units=1/GPa)
#
#
# Indices 1 2 3 4 5 6 
#
# 1 0.008322 -0.000820 -0.000171 0.000000 0.000000 0.000000
# 2 -0.000820 0.010056 -0.002752 0.000000 0.000000 0.000000
# 3 -0.000171 -0.002752 0.011611 0.000000 0.000000 0.000000
# 4 0.000000 0.000000 0.000000 0.028166 0.000000 0.000000
# 5 0.000000 0.000000 0.000000 0.000000 0.034836 0.000000
# 6 0.000000 0.000000 0.000000 0.000000 0.000000 0.066155
#
#
# Mechanical properties :
#
#
# Convention : Reuss Voigt Hill
#
# Bulk Modulus (GPa) = 44.44149 44.80677 44.62413
# Shear Modulus (GPa) = 28.71379 34.52141 31.61760
#
# Velocity S-wave (km/s) = 3.34610 3.66891 3.51122
# Velocity P-wave (km/s) = 5.67957 5.95142 5.81709
#
# Compressibility (1/GPa) = 0.02250150
#
# Stress axis : x y z
#
# Youngs Moduli (GPa) = 120.17062 99.44670 86.12629
#
# Poissons Ratio (x) = 0.08159 0.01469
# Poissons Ratio (y) = 0.09859 0.23704
# Poissons Ratio (z) = 0.02050 0.27370
#
# Static dielectric constant tensor:
#      x y z
#    x 2.281020 0.000000 0.000000 
#    y 0.000000 2.118220 0.000000 
#    z 0.000000 0.000000 2.096390 
# 
# From -- ./inp_files/13134.got.cif
#   From: 2010.05.17/outbox.cif.g08.bks.cpg/sg36_7_cif.got.tgz:13134.got - 2010.06.03 17:41:39.
