data_PCOD9352451
_publ_section_title
;
Structure prediction by ZEFSAII (Michael W. Deem and Ramdas Pophale) SiO2 
 PCOD9352451
Probable space group: C M C 21
;
_chemical_formula_sum "Si O2"
_cell_formula_units_Z 48
_cell_length_a 27.279944
_cell_length_b 5.109346
_cell_length_c 15.180240
_cell_angle_alpha 90.000000
_cell_angle_beta 90.000000
_cell_angle_gamma 90.000000
_cell_volume 2115.862424
_symmetry_space_group_name_H-M "C M C 21"
_symmetry_group_IT_number 36
_symmetry_cell_setting 'orthorhombic'
loop_
_space_group_symop_operation_xyz
x,y,z
-x,-y,1/2+z
x,-y,1/2+z
-x,y,z
1/2+x,1/2+y,z
1/2-x,1/2-y,1/2+z
1/2+x,1/2-y,1/2+z
1/2-x,1/2+y,z
loop_
_atom_site_type_symbol
_atom_site_label
_atom_site_fract_x
_atom_site_fract_y
_atom_site_fract_z
Si Si1 0.554842 0.990110 0.532880
Si Si2 0.650576 0.457738 0.683757
Si Si3 0.865611 0.652695 0.332866
Si Si4 0.385648 0.502250 0.994342
Si Si5 0.217294 0.709896 0.812734
Si Si6 0.556316 0.114444 0.731048
O O1 0.500000 0.947140 0.501832
O O2 0.590904 0.782525 0.489945
O O3 0.556256 0.953689 0.639046
O O4 0.571679 0.286296 0.516950
O O5 0.654406 0.720667 0.741615
O O6 0.649384 0.494656 0.579597
O O7 0.694106 0.266999 0.715625
O O8 0.597861 0.335175 0.713942
O O9 0.864136 0.875361 0.406093
O O10 0.830598 0.412720 0.359210
O O11 0.920351 0.557256 0.309058
O O12 0.242826 0.985709 0.831037
O O13 0.500000 0.200112 0.746265
#
# Coordination Sequence:
#
# PCOD9352451 Si02
#       6
#     8   8   8   8   8   8
#     4  10  21  39  59  87 128 176 225 272 319 376
#     4  10  22  43  65  95 130 174 220 267 332 391
#     4  11  23  41  66  97 131 174 218 270 331 387
#     4  11  24  39  63  91 133 172 216 274 326 384
#     4  11  23  43  73  94 124 163 209 270 334 394
#     4   9  20  37  61  92 129 175 222 267 318 384
#
# _framework density 22.685784999999999
#
# number of rings (size 3 to 8) (size 9 to 14) (size 15 to 20)
#    0.000    1.667    3.333    0.500    4.667    2.667 
#    0.000    1.667    0.000    0.000    0.000    0.000 
#    0.000    0.000    0.000    0.000    0.000    0.000 
#
# Total GULP energy -133940.104289 kJ/mol
# GULP energy per Si atom -5580.837679 kJ/mol
# Density = 2.263415 g / cm^3
# Si number density = 22.685785 Si / 1000 Ang^3
#
#
#
# Elastic Constant Matrix: (Units=GPa)
#
#
# Indices 1 2 3 4 5 6 
#
# 1 82.1389 13.2450 3.2346 0.0000 0.0000 0.0000
# 2 13.2450 75.9873 1.8487 0.0000 0.0000 0.0000
# 3 3.2346 1.8487 69.0800 0.0000 0.0000 0.0000
# 4 0.0000 0.0000 0.0000 28.9083 0.0000 0.0000
# 5 0.0000 0.0000 0.0000 0.0000 18.3907 0.0000
# 6 0.0000 0.0000 0.0000 0.0000 0.0000 28.4120
#
#
#
# Elastic Compliance Matrix: (Units=1/GPa)
#
#
# Indices 1 2 3 4 5 6 
#
# 1 0.012546 -0.002174 -0.000529 0.000000 0.000000 0.000000
# 2 -0.002174 0.013545 -0.000261 0.000000 0.000000 0.000000
# 3 -0.000529 -0.000261 0.014508 0.000000 0.000000 0.000000
# 4 0.000000 0.000000 0.000000 0.034592 0.000000 0.000000
# 5 0.000000 0.000000 0.000000 0.000000 0.054375 0.000000
# 6 0.000000 0.000000 0.000000 0.000000 0.000000 0.035196
#
#
# Mechanical properties :
#
#
# Convention : Reuss Voigt Hill
#
# Bulk Modulus (GPa) = 28.84242 29.31809 29.08025
# Shear Modulus (GPa) = 27.43519 29.06740 28.25130
#
# Velocity S-wave (km/s) = 3.48135 3.58341 3.53275
# Velocity P-wave (km/s) = 5.37599 5.48386 5.43019
#
# Compressibility (1/GPa) = 0.03467116
#
# Stress axis : x y z
#
# Youngs Moduli (GPa) = 79.70738 73.82598 68.92879
#
# Poissons Ratio (x) = 0.16049 0.03648
# Poissons Ratio (y) = 0.17328 0.01797
# Poissons Ratio (z) = 0.04219 0.01925
#
# Static dielectric constant tensor:
#      x y z
#    x 1.869040 0.000000 0.000000 
#    y 0.000000 1.868370 0.000000 
#    z 0.000000 0.000000 1.877400 
# 
# From -- ./inp_files/13058.got.cif
#   From: 2010.05.17/outbox.cif.g08.bks.cpg/sg36_7_cif.got.tgz:13058.got - 2010.06.03 17:41:39.
