data_PCOD9352830
_publ_section_title
;
Structure prediction by ZEFSAII (Michael W. Deem and Ramdas Pophale) SiO2 
 PCOD9352830
Probable space group: C M C 21
;
_chemical_formula_sum "Si O2"
_cell_formula_units_Z 56
_cell_length_a 31.111031
_cell_length_b 5.239182
_cell_length_c 13.453491
_cell_angle_alpha 90.000000
_cell_angle_beta 90.000000
_cell_angle_gamma 90.000000
_cell_volume 2192.869976
_symmetry_space_group_name_H-M "C M C 21"
_symmetry_group_IT_number 36
_symmetry_cell_setting 'orthorhombic'
loop_
_space_group_symop_operation_xyz
x,y,z
-x,-y,1/2+z
x,-y,1/2+z
-x,y,z
1/2+x,1/2+y,z
1/2-x,1/2-y,1/2+z
1/2+x,1/2-y,1/2+z
1/2-x,1/2+y,z
loop_
_atom_site_type_symbol
_atom_site_label
_atom_site_fract_x
_atom_site_fract_y
_atom_site_fract_z
Si Si1 0.766733 0.147670 0.305500
Si Si2 0.077365 0.666916 0.226529
Si Si3 0.873233 0.055044 0.088517
Si Si4 0.923218 0.036222 0.907765
Si Si5 0.226195 0.915777 0.566461
Si Si6 0.358645 0.824969 0.298524
Si Si7 0.000000 0.180738 0.526237
Si Si8 0.000000 0.331761 0.153111
O O1 0.731596 0.355274 0.339064
O O2 0.766137 0.111151 0.185856
O O3 0.809861 0.302544 0.326722
O O4 0.097827 0.819282 0.132954
O O5 0.055421 0.839616 0.310547
O O6 0.119742 0.597474 0.291415
O O7 0.044361 0.433541 0.205352
O O8 0.823943 0.007553 0.053346
O O9 0.865599 0.228829 0.185206
O O10 0.900860 0.183949 0.000592
O O11 0.959415 0.872185 0.959713
O O12 0.886262 0.850097 0.869359
O O13 0.242581 0.640619 0.529843
O O14 0.000000 0.962280 0.615328
O O15 0.000000 0.471225 0.560939
#
# Coordination Sequence:
#
# PCOD9352830 Si02
#       8
#     8   8   8   8   8   8   4   4
#     4   9  19  35  63  94 136 182 231 286 345 414
#     4  11  25  43  71 102 140 187 232 300 351 431
#     4  10  22  42  67  96 139 183 233 290 353 424
#     4  11  25  45  69 105 139 184 233 293 353 430
#     4   9  19  35  60  96 129 178 231 285 343 412
#     4  10  24  40  68 102 140 184 240 289 356 414
#     4  12  27  49  76 103 140 184 228 280 359 416
#     4  12  27  49  76 105 138 184 232 286 357 422
#
# _framework density 25.537306999999998
#
# number of rings (size 3 to 8) (size 9 to 14) (size 15 to 20)
#    0.000    1.714    1.429    1.286   16.000    1.714 
#    0.000    1.429    0.000    0.000    0.000    0.000 
#    0.000    0.000    0.000    0.000    0.000    0.000 
#
# Total GULP energy -156314.275286 kJ/mol
# GULP energy per Si atom -5582.652689 kJ/mol
# Density = 2.547918 g / cm^3
# Si number density = 25.537307 Si / 1000 Ang^3
#
#
#
# Elastic Constant Matrix: (Units=GPa)
#
#
# Indices 1 2 3 4 5 6 
#
# 1 68.6368 18.1074 14.2666 0.0000 0.0000 0.0000
# 2 18.1074 65.7410 14.8948 0.0000 0.0000 0.0000
# 3 14.2666 14.8948 69.9495 0.0000 0.0000 0.0000
# 4 0.0000 0.0000 0.0000 7.5567 0.0000 0.0000
# 5 0.0000 0.0000 0.0000 0.0000 1.2456 0.0000
# 6 0.0000 0.0000 0.0000 0.0000 0.0000 27.7275
#
#
#
# Elastic Compliance Matrix: (Units=1/GPa)
#
#
# Indices 1 2 3 4 5 6 
#
# 1 0.016104 -0.003878 -0.002459 0.000000 0.000000 0.000000
# 2 -0.003878 0.016916 -0.002811 0.000000 0.000000 0.000000
# 3 -0.002459 -0.002811 0.015396 0.000000 0.000000 0.000000
# 4 0.000000 0.000000 0.000000 0.132333 0.000000 0.000000
# 5 0.000000 0.000000 0.000000 0.000000 0.802799 0.000000
# 6 0.000000 0.000000 0.000000 0.000000 0.000000 0.036065
#
#
# Mechanical properties :
#
#
# Convention : Reuss Voigt Hill
#
# Bulk Modulus (GPa) = 33.20069 33.20720 33.20394
# Shear Modulus (GPa) = 4.77122 17.77653 11.27388
#
# Velocity S-wave (km/s) = 1.36835 2.64123 2.10339
# Velocity P-wave (km/s) = 3.94025 4.72579 4.35079
#
# Compressibility (1/GPa) = 0.03011985
#
# Stress axis : x y z
#
# Youngs Moduli (GPa) = 62.09760 59.11428 64.95173
#
# Poissons Ratio (x) = 0.22927 0.15969
# Poissons Ratio (y) = 0.24084 0.18258
# Poissons Ratio (z) = 0.15267 0.16617
#
# Static dielectric constant tensor:
#      x y z
#    x 2.044830 0.000000 0.000000 
#    y 0.000000 2.051120 0.000000 
#    z 0.000000 0.000000 2.131700 
# 
# From -- ./inp_files/13190.got.cif
#   From: 2010.05.17/outbox.cif.g08.bks.cpg/sg36_7_cif.got.tgz:13190.got - 2010.06.03 17:41:39.
