data_PCOD9352879
_publ_section_title
;
Structure prediction by ZEFSAII (Michael W. Deem and Ramdas Pophale) SiO2 
 PCOD9352879
Probable space group: C M C 21
;
_chemical_formula_sum "Si O2"
_cell_formula_units_Z 36
_cell_length_a 7.343967
_cell_length_b 20.272185
_cell_length_c 10.135243
_cell_angle_alpha 90.000000
_cell_angle_beta 90.000000
_cell_angle_gamma 90.000000
_cell_volume 1508.917319
_symmetry_space_group_name_H-M "C M C 21"
_symmetry_group_IT_number 36
_symmetry_cell_setting 'orthorhombic'
loop_
_space_group_symop_operation_xyz
x,y,z
-x,-y,1/2+z
x,-y,1/2+z
-x,y,z
1/2+x,1/2+y,z
1/2-x,1/2-y,1/2+z
1/2+x,1/2-y,1/2+z
1/2-x,1/2+y,z
loop_
_atom_site_type_symbol
_atom_site_label
_atom_site_fract_x
_atom_site_fract_y
_atom_site_fract_z
Si Si1 0.707678 0.201779 0.614930
Si Si2 0.719385 0.149129 0.095617
Si Si3 0.281197 0.046319 0.868979
Si Si4 0.720287 0.105332 0.385439
Si Si5 0.000000 0.869983 0.241435
O O1 0.500000 0.184915 0.646389
O O2 0.840800 0.187817 0.735174
O O3 0.784684 0.153805 0.500411
O O4 0.716272 0.277067 0.569235
O O5 0.500000 0.149215 0.094703
O O6 0.775017 0.095831 0.986781
O O7 0.781152 0.128205 0.241249
O O8 0.500000 0.049541 0.846733
O O9 0.161718 0.073154 0.749313
O O10 0.235051 0.971192 0.904009
O O11 0.500000 0.110213 0.387444
#
# Coordination Sequence:
#
# PCOD9352879 Si02
#       5
#     8   8   8   8   4
#     4  11  25  44  70 102 139 186 226 283 348 406
#     4  10  22  44  72 103 137 179 234 285 341 415
#     4  10  24  45  72 100 136 184 228 286 347 408
#     4   9  22  45  72 100 140 179 229 287 348 408
#     4  12  26  44  68 100 140 180 236 276 338 416
#
# _framework density 23.858165
#
# number of rings (size 3 to 8) (size 9 to 14) (size 15 to 20)
#    0.000    1.778    1.111    0.667    7.778    0.889 
#    4.000    0.000    0.000    0.000    0.000    0.000 
#    0.000    0.000    0.000    0.000    0.000    0.000 
#
# Total GULP energy -100236.879691 kJ/mol
# GULP energy per Si atom -5568.715538 kJ/mol
# Density = 2.380386 g / cm^3
# Si number density = 23.858165 Si / 1000 Ang^3
#
#
#
# Elastic Constant Matrix: (Units=GPa)
#
#
# Indices 1 2 3 4 5 6 
#
# 1 147.8810 29.9702 11.7552 0.0000 0.0000 0.0000
# 2 29.9702 203.6026 55.5108 0.0000 0.0000 0.0000
# 3 11.7552 55.5108 73.8815 0.0000 0.0000 0.0000
# 4 0.0000 0.0000 0.0000 46.5741 0.0000 0.0000
# 5 0.0000 0.0000 0.0000 0.0000-1968.1070 0.0000
# 6 0.0000 0.0000 0.0000 0.0000 0.0000 24.1515
#
#
#
# Elastic Compliance Matrix: (Units=1/GPa)
#
#
# Indices 1 2 3 4 5 6 
#
# 1 0.006981 -0.000911 -0.000426 0.000000 0.000000 0.000000
# 2 -0.000911 0.006296 -0.004585 0.000000 0.000000 0.000000
# 3 -0.000426 -0.004585 0.017048 0.000000 0.000000 0.000000
# 4 0.000000 0.000000 0.000000 0.021471 0.000000 0.000000
# 5 0.000000 0.000000 0.000000 0.000000 -0.000508 0.000000
# 6 0.000000 0.000000 0.000000 0.000000 0.000000 0.041405
#
#
# Mechanical properties :
#
#
# Convention : Reuss Voigt Hill
#
# Bulk Modulus (GPa) = 54.11440 68.87087 61.49264
# Shear Modulus (GPa) = 45.16779 -357.60103 -156.21662
#
# Velocity S-wave (km/s) = 4.35579 -12.25608 -8.10058
# Velocity P-wave (km/s) = 6.93023 13.09018 7.85253
#
# Compressibility (1/GPa) = 0.01847937
#
# Stress axis : x y z
#
# Youngs Moduli (GPa) = 143.25076 158.83442 58.65735
#
# Poissons Ratio (x) = 0.14477 0.02498
# Poissons Ratio (y) = 0.13057 0.26897
# Poissons Ratio (z) = 0.06101 0.72832
#
# Static dielectric constant tensor:
#      x y z
#    x 2.594060 0.000000 0.000000 
#    y 0.000000 1.925390 0.000000 
#    z 0.000000 0.000000 2.080040 
# 
# From -- ./inp_files/6558.got.cif
#   From: 2010.05.17/outbox.cif.g08.bks.cpg/sg36_4_cif.got.tgz:6558.got - 2010.06.03 17:41:39.
