data_PCOD9352159
_publ_section_title
;
Structure prediction by ZEFSAII (Michael W. Deem and Ramdas Pophale) SiO2 
 PCOD9352159
Probable space group: C M C 21
;
_chemical_formula_sum "Si O2"
_cell_formula_units_Z 56
_cell_length_a 22.476343
_cell_length_b 10.434713
_cell_length_c 10.663926
_cell_angle_alpha 90.000000
_cell_angle_beta 90.000000
_cell_angle_gamma 90.000000
_cell_volume 2501.055231
_symmetry_space_group_name_H-M "C M C 21"
_symmetry_group_IT_number 36
_symmetry_cell_setting 'orthorhombic'
loop_
_space_group_symop_operation_xyz
x,y,z
-x,-y,1/2+z
x,-y,1/2+z
-x,y,z
1/2+x,1/2+y,z
1/2-x,1/2-y,1/2+z
1/2+x,1/2-y,1/2+z
1/2-x,1/2+y,z
loop_
_atom_site_type_symbol
_atom_site_label
_atom_site_fract_x
_atom_site_fract_y
_atom_site_fract_z
Si Si1 0.731614 0.582752 0.706730
Si Si2 0.622852 0.752370 0.027139
Si Si3 0.850959 0.479785 0.629594
Si Si4 0.235537 0.707245 0.023870
Si Si5 0.570074 0.505691 0.581805
Si Si6 0.177564 0.054645 0.439491
Si Si7 0.570560 0.755323 0.750226
O O1 0.884608 0.394882 0.080423
O O2 0.799441 0.537485 0.719004
O O3 0.726211 0.730344 0.664517
O O4 0.699048 0.535476 0.829314
O O5 0.591430 0.745089 0.892909
O O6 0.693772 0.729019 0.009554
O O7 0.595133 0.636812 0.109426
O O8 0.808847 0.413056 0.524203
O O9 0.703278 0.520123 0.579803
O O10 0.893561 0.371761 0.685720
O O11 0.205245 0.805271 0.925397
O O12 0.500000 0.498237 0.560522
O O13 0.607403 0.549237 0.459320
O O14 0.582126 0.619679 0.680453
O O15 0.500000 0.778655 0.743040
#
# Coordination Sequence:
#
# PCOD9352159 Si02
#       7
#     8   8   8   8   8   8   8
#     4   9  21  38  67 107 150 190 243 307 387 448
#     4  11  25  45  74 105 151 195 254 315 395 463
#     4  11  22  45  70 113 142 200 243 322 386 468
#     4   9  21  41  68 107 147 193 239 317 386 458
#     4  11  25  45  72 105 143 200 262 310 370 461
#     4  10  20  42  66 108 144 194 245 311 370 453
#     4  11  25  48  75 103 150 206 258 318 386 467
#
# _framework density 22.390550000000001
#
# number of rings (size 3 to 8) (size 9 to 14) (size 15 to 20)
#    0.857    0.857    1.429    2.143    4.000    1.143 
#    2.571    2.857    0.000    0.000    0.000    0.000 
#    0.000    0.000    0.000    0.000    0.000    0.000 
#
# Total GULP energy -156222.702098 kJ/mol
# GULP energy per Si atom -5579.382218 kJ/mol
# Density = 2.233959 g / cm^3
# Si number density = 22.390550 Si / 1000 Ang^3
#
#
#
# Elastic Constant Matrix: (Units=GPa)
#
#
# Indices 1 2 3 4 5 6 
#
# 1 138.4741 67.6713 31.4535 0.0000 0.0000 0.0000
# 2 67.6713 155.5407 44.5171 0.0000 0.0000 0.0000
# 3 31.4535 44.5171 96.9352 0.0000 0.0000 0.0000
# 4 0.0000 0.0000 0.0000 31.9117 0.0000 0.0000
# 5 0.0000 0.0000 0.0000 0.0000 27.7445 0.0000
# 6 0.0000 0.0000 0.0000 0.0000 0.0000 39.9900
#
#
#
# Elastic Compliance Matrix: (Units=1/GPa)
#
#
# Indices 1 2 3 4 5 6 
#
# 1 0.009320 -0.003672 -0.001338 0.000000 0.000000 0.000000
# 2 -0.003672 0.008849 -0.002872 0.000000 0.000000 0.000000
# 3 -0.001338 -0.002872 0.012069 0.000000 0.000000 0.000000
# 4 0.000000 0.000000 0.000000 0.031336 0.000000 0.000000
# 5 0.000000 0.000000 0.000000 0.000000 0.036043 0.000000
# 6 0.000000 0.000000 0.000000 0.000000 0.000000 0.025006
#
#
# Mechanical properties :
#
#
# Convention : Reuss Voigt Hill
#
# Bulk Modulus (GPa) = 69.08950 75.35930 72.22440
# Shear Modulus (GPa) = 34.91312 36.41645 35.66479
#
# Velocity S-wave (km/s) = 3.95305 4.03727 3.99538
# Velocity P-wave (km/s) = 7.19438 7.44731 7.32194
#
# Compressibility (1/GPa) = 0.01447398
#
# Stress axis : x y z
#
# Youngs Moduli (GPa) = 107.29745 113.00945 82.85443
#
# Poissons Ratio (x) = 0.41496 0.11084
# Poissons Ratio (y) = 0.39399 0.23798
# Poissons Ratio (z) = 0.14354 0.32460
#
# Static dielectric constant tensor:
#      x y z
#    x 1.858900 0.000000 0.000000 
#    y 0.000000 2.035250 0.000000 
#    z 0.000000 0.000000 1.858630 
# 
# From -- ./inp_files/9240.got.cif
#   From: 2010.05.17/outbox.cif.g08.bks.cpg/sg36_5_cif.got.tgz:9240.got - 2010.06.03 17:41:39.
