data_PCOD9352650
_publ_section_title
;
Structure prediction by ZEFSAII (Michael W. Deem and Ramdas Pophale) SiO2 
 PCOD9352650
Probable space group: C M C 21
;
_chemical_formula_sum "Si O2"
_cell_formula_units_Z 64
_cell_length_a 27.808494
_cell_length_b 5.337367
_cell_length_c 18.359182
_cell_angle_alpha 90.000000
_cell_angle_beta 90.000000
_cell_angle_gamma 90.000000
_cell_volume 2724.945766
_symmetry_space_group_name_H-M "C M C 21"
_symmetry_group_IT_number 36
_symmetry_cell_setting 'orthorhombic'
loop_
_space_group_symop_operation_xyz
x,y,z
-x,-y,1/2+z
x,-y,1/2+z
-x,y,z
1/2+x,1/2+y,z
1/2-x,1/2-y,1/2+z
1/2+x,1/2-y,1/2+z
1/2-x,1/2+y,z
loop_
_atom_site_type_symbol
_atom_site_label
_atom_site_fract_x
_atom_site_fract_y
_atom_site_fract_z
Si Si1 0.444668 0.523047 0.577570
Si Si2 0.757134 0.852087 0.415666
Si Si3 0.550732 0.407784 0.839608
Si Si4 0.635219 0.721490 0.878876
Si Si5 0.596643 0.968530 0.016552
Si Si6 0.626936 0.791375 0.154854
Si Si7 0.221106 0.675128 0.752390
Si Si8 0.923389 0.394720 0.761683
O O1 0.500000 0.553280 0.602207
O O2 0.439984 0.263696 0.531479
O O3 0.403828 0.460669 0.639188
O O4 0.427515 0.766474 0.533082
O O5 0.752309 0.599680 0.459227
O O6 0.811501 0.861173 0.389723
O O7 0.723982 0.837312 0.342166
O O8 0.500000 0.421770 0.880542
O O9 0.597970 0.490520 0.882746
O O10 0.555107 0.133280 0.805209
O O11 0.550187 0.635204 0.779589
O O12 0.627895 0.835250 0.799152
O O13 0.617968 0.924540 0.937210
O O14 0.638627 0.902924 0.075458
O O15 0.670456 0.771085 0.211547
O O16 0.586964 0.989858 0.183999
O O17 0.255932 0.907511 0.731582
#
# Coordination Sequence:
#
# PCOD9352650 Si02
#       8
#     8   8   8   8   8   8   8   8
#     4  10  24  43  68  96 133 183 232 271 331 411
#     4  10  22  38  65  96 123 163 218 270 331 399
#     4  10  24  39  61  96 132 168 212 274 339 400
#     4  10  25  43  70  94 139 170 228 280 342 396
#     4  10  25  43  65  97 135 183 222 276 334 392
#     4  10  25  43  67  94 138 175 226 282 337 397
#     4  10  22  36  66  94 123 164 221 270 328 398
#     4  10  23  37  64  89 129 170 217 273 334 393
#
# _framework density 23.486706999999999
#
# number of rings (size 3 to 8) (size 9 to 14) (size 15 to 20)
#    1.500    0.500    0.000    2.250   10.500    2.000 
#    0.000    1.250    0.000    0.000    0.000    0.000 
#    0.000    0.000    0.000    0.000    0.000    0.000 
#
# Total GULP energy -178221.199436 kJ/mol
# GULP energy per Si atom -5569.412482 kJ/mol
# Density = 2.343325 g / cm^3
# Si number density = 23.486707 Si / 1000 Ang^3
#
#
#
# Elastic Constant Matrix: (Units=GPa)
#
#
# Indices 1 2 3 4 5 6 
#
# 1 73.3060 23.6587 -3.7055 0.0000 0.0000 0.0000
# 2 23.6587 157.0261 3.7081 0.0000 0.0000 0.0000
# 3 -3.7055 3.7081 44.3755 0.0000 0.0000 0.0000
# 4 0.0000 0.0000 0.0000 28.7708 0.0000 0.0000
# 5 0.0000 0.0000 0.0000 0.0000 17.7007 0.0000
# 6 0.0000 0.0000 0.0000 0.0000 0.0000 9.1199
#
#
#
# Elastic Compliance Matrix: (Units=1/GPa)
#
#
# Indices 1 2 3 4 5 6 
#
# 1 0.014424 -0.002206 0.001389 0.000000 0.000000 0.000000
# 2 -0.002206 0.006718 -0.000746 0.000000 0.000000 0.000000
# 3 0.001389 -0.000746 0.022713 0.000000 0.000000 0.000000
# 4 0.000000 0.000000 0.000000 0.034757 0.000000 0.000000
# 5 0.000000 0.000000 0.000000 0.000000 0.056495 0.000000
# 6 0.000000 0.000000 0.000000 0.000000 0.000000 0.109650
#
#
# Mechanical properties :
#
#
# Convention : Reuss Voigt Hill
#
# Bulk Modulus (GPa) = 24.55220 35.78113 30.16666
# Shear Modulus (GPa) = 19.12343 27.85473 23.48908
#
# Velocity S-wave (km/s) = 2.85656 3.44754 3.16587
# Velocity P-wave (km/s) = 4.62128 5.57809 5.12208
#
# Compressibility (1/GPa) = 0.04072955
#
# Stress axis : x y z
#
# Youngs Moduli (GPa) = 69.33078 148.84630 44.02724
#
# Poissons Ratio (x) = 0.32835 -0.06114
# Poissons Ratio (y) = 0.15294 0.03283
# Poissons Ratio (z) = -0.09628 0.11098
#
# Static dielectric constant tensor:
#      x y z
#    x 1.879340 0.000000 0.000000 
#    y 0.000000 1.979820 0.000000 
#    z 0.000000 0.000000 1.951150 
# 
# From -- ./inp_files/16367.got.cif
#   From: 2010.05.17/outbox.cif.g08.bks.cpg/sg36_9_cif.got.tgz:16367.got - 2010.06.03 17:41:39.
