data_PCOD9352746
_publ_section_title
;
Structure prediction by ZEFSAII (Michael W. Deem and Ramdas Pophale) SiO2 
 PCOD9352746
Probable space group: C M C 21
;
_chemical_formula_sum "Si O2"
_cell_formula_units_Z 48
_cell_length_a 28.381702
_cell_length_b 5.256205
_cell_length_c 14.496968
_cell_angle_alpha 90.000000
_cell_angle_beta 90.000000
_cell_angle_gamma 90.000000
_cell_volume 2162.658324
_symmetry_space_group_name_H-M "C M C 21"
_symmetry_group_IT_number 36
_symmetry_cell_setting 'orthorhombic'
loop_
_space_group_symop_operation_xyz
x,y,z
-x,-y,1/2+z
x,-y,1/2+z
-x,y,z
1/2+x,1/2+y,z
1/2-x,1/2-y,1/2+z
1/2+x,1/2-y,1/2+z
1/2-x,1/2+y,z
loop_
_atom_site_type_symbol
_atom_site_label
_atom_site_fract_x
_atom_site_fract_y
_atom_site_fract_z
Si Si1 0.780922 0.688936 0.067100
Si Si2 0.450147 0.431822 0.856806
Si Si3 0.551739 0.186793 0.502624
Si Si4 0.134935 0.391447 0.425626
Si Si5 0.410507 0.540370 0.168223
Si Si6 0.646044 0.957791 0.717945
O O1 0.757377 0.964796 0.060052
O O2 0.807364 0.629723 0.163704
O O3 0.819392 0.672971 0.985052
O O4 0.500000 0.312130 0.889591
O O5 0.447935 0.409711 0.748227
O O6 0.399897 0.329338 0.890310
O O7 0.451834 0.713374 0.897896
O O8 0.500000 0.090250 0.531694
O O9 0.598832 0.024506 0.496768
O O10 0.565093 0.418594 0.570252
O O11 0.148881 0.532920 0.329807
O O12 0.390734 0.261139 0.188099
O O13 0.371031 0.762063 0.183781
#
# Coordination Sequence:
#
# PCOD9352746 Si02
#       6
#     8   8   8   8   8   8
#     4  12  28  46  73 102 133 173 233 294 348 414
#     4  10  22  40  65 103 145 183 229 273 330 413
#     4  11  22  39  66 100 139 183 229 273 334 412
#     4  11  24  44  71  98 139 184 225 287 350 415
#     4  11  22  41  67  99 136 187 221 275 331 406
#     4  11  24  44  72  94 137 178 227 278 352 404
#
# _framework density 22.194904999999999
#
# number of rings (size 3 to 8) (size 9 to 14) (size 15 to 20)
#    0.000    1.000    3.333    3.000    2.333    1.333 
#    0.000    1.667    0.000    0.000    0.000    0.000 
#    0.000    0.000    0.000    0.000    0.000    0.000 
#
# Total GULP energy -133821.066819 kJ/mol
# GULP energy per Si atom -5575.877784 kJ/mol
# Density = 2.214439 g / cm^3
# Si number density = 22.194905 Si / 1000 Ang^3
#
#
#
# Elastic Constant Matrix: (Units=GPa)
#
#
# Indices 1 2 3 4 5 6 
#
# 1 83.0701 -15.0842 27.4604 0.0000 0.0000 0.0000
# 2 -15.0842 32.6620 -2.3834 0.0000 0.0000 0.0000
# 3 27.4604 -2.3834 95.0155 0.0000 0.0000 0.0000
# 4 0.0000 0.0000 0.0000 31.1162 0.0000 0.0000
# 5 0.0000 0.0000 0.0000 0.0000 72.7732 0.0000
# 6 0.0000 0.0000 0.0000 0.0000 0.0000 35.8342
#
#
#
# Elastic Compliance Matrix: (Units=1/GPa)
#
#
# Indices 1 2 3 4 5 6 
#
# 1 0.014540 0.006420 -0.004041 0.000000 0.000000 0.000000
# 2 0.006420 0.033507 -0.001015 0.000000 0.000000 0.000000
# 3 -0.004041 -0.001015 0.011667 0.000000 0.000000 0.000000
# 4 0.000000 0.000000 0.000000 0.032138 0.000000 0.000000
# 5 0.000000 0.000000 0.000000 0.000000 0.013741 0.000000
# 6 0.000000 0.000000 0.000000 0.000000 0.000000 0.027906
#
#
# Mechanical properties :
#
#
# Convention : Reuss Voigt Hill
#
# Bulk Modulus (GPa) = 16.01487 25.63703 20.82595
# Shear Modulus (GPa) = 32.98471 41.32837 37.15654
#
# Velocity S-wave (km/s) = 3.85923 4.31985 4.09602
# Velocity P-wave (km/s) = 5.20475 6.03799 5.63679
#
# Compressibility (1/GPa) = 0.06244196
#
# Stress axis : x y z
#
# Youngs Moduli (GPa) = 68.77757 29.84415 85.71154
#
# Poissons Ratio (x) = -0.19160 0.34636
# Poissons Ratio (y) = -0.44155 0.08699
# Poissons Ratio (z) = 0.27793 0.03029
#
# Static dielectric constant tensor:
#      x y z
#    x 1.823370 0.000000 0.000000 
#    y 0.000000 1.892850 0.000000 
#    z 0.000000 0.000000 1.834230 
# 
# From -- ./inp_files/13047.got.cif
#   From: 2010.05.17/outbox.cif.g08.bks.cpg/sg36_7_cif.got.tgz:13047.got - 2010.06.03 17:41:39.
