data_PCOD9352160
_publ_section_title
;
Structure prediction by ZEFSAII (Michael W. Deem and Ramdas Pophale) SiO2 
 PCOD9352160
Probable space group: C M C 21
;
_chemical_formula_sum "Si O2"
_cell_formula_units_Z 56
_cell_length_a 13.462174
_cell_length_b 33.416669
_cell_length_c 5.414691
_cell_angle_alpha 90.000000
_cell_angle_beta 90.000000
_cell_angle_gamma 90.000000
_cell_volume 2435.858376
_symmetry_space_group_name_H-M "C M C 21"
_symmetry_group_IT_number 36
_symmetry_cell_setting 'orthorhombic'
loop_
_space_group_symop_operation_xyz
x,y,z
-x,-y,1/2+z
x,-y,1/2+z
-x,y,z
1/2+x,1/2+y,z
1/2-x,1/2-y,1/2+z
1/2+x,1/2-y,1/2+z
1/2-x,1/2+y,z
loop_
_atom_site_type_symbol
_atom_site_label
_atom_site_fract_x
_atom_site_fract_y
_atom_site_fract_z
Si Si1 0.612364 0.667522 0.716110
Si Si2 0.778191 0.897206 0.909194
Si Si3 0.309882 0.164302 0.039761
Si Si4 0.688327 0.250816 0.023645
Si Si5 0.108970 0.406981 0.269445
Si Si6 0.882060 0.025279 0.241197
Si Si7 0.615856 0.982706 0.568005
O O1 0.500000 0.665420 0.811948
O O2 0.638316 0.628336 0.554284
O O3 0.626454 0.708724 0.561601
O O4 0.699802 0.669333 0.919585
O O5 0.712817 0.863238 0.773701
O O6 0.826161 0.931998 0.745694
O O7 0.701444 0.917032 0.099056
O O8 0.357884 0.207399 0.080847
O O9 0.375493 0.138106 0.855815
O O10 0.772281 0.251890 0.241712
O O11 0.115761 0.436091 0.505262
O O12 0.000000 0.413000 0.155998
O O13 0.000000 0.033879 0.242113
O O14 0.862532 0.000249 0.493274
O O15 0.500000 0.004869 0.084881
O O16 0.658985 0.995700 0.827237
#
# Coordination Sequence:
#
# PCOD9352160 Si02
#       7
#     8   8   8   8   8   8   8
#     4  10  22  40  67 101 130 173 225 275 334 405
#     4  11  23  42  66  95 132 180 224 285 337 404
#     4  10  23  41  65  94 136 176 214 280 336 401
#     4  10  20  42  66  92 133 172 213 269 331 394
#     4  10  24  41  61  91 127 175 228 276 337 402
#     4  10  24  44  68 100 138 178 224 281 346 412
#     4   9  19  36  57  83 116 156 208 270 321 374
#
# _framework density 22.989841999999999
#
# number of rings (size 3 to 8) (size 9 to 14) (size 15 to 20)
#    0.000    2.000    1.429    0.429    6.000    3.429 
#    0.000    0.000    0.000    0.000    0.000    0.000 
#    0.000    0.000    0.000    0.000    0.000    0.000 
#
# Total GULP energy -156442.721079 kJ/mol
# GULP energy per Si atom -5587.240039 kJ/mol
# Density = 2.293752 g / cm^3
# Si number density = 22.989842 Si / 1000 Ang^3
#
#
#
# Elastic Constant Matrix: (Units=GPa)
#
#
# Indices 1 2 3 4 5 6 
#
# 1 112.0396 32.6564 23.0982 0.0000 0.0000 0.0000
# 2 32.6564 124.3063 14.5433 0.0000 0.0000 0.0000
# 3 23.0982 14.5433 63.3775 0.0000 0.0000 0.0000
# 4 0.0000 0.0000 0.0000 40.1005 0.0000 0.0000
# 5 0.0000 0.0000 0.0000 0.0000 18.8366 0.0000
# 6 0.0000 0.0000 0.0000 0.0000 0.0000 17.0758
#
#
#
# Elastic Compliance Matrix: (Units=1/GPa)
#
#
# Indices 1 2 3 4 5 6 
#
# 1 0.010263 -0.002321 -0.003208 0.000000 0.000000 0.000000
# 2 -0.002321 0.008791 -0.001172 0.000000 0.000000 0.000000
# 3 -0.003208 -0.001172 0.017216 0.000000 0.000000 0.000000
# 4 0.000000 0.000000 0.000000 0.024937 0.000000 0.000000
# 5 0.000000 0.000000 0.000000 0.000000 0.053088 0.000000
# 6 0.000000 0.000000 0.000000 0.000000 0.000000 0.058563
#
#
# Mechanical properties :
#
#
# Convention : Reuss Voigt Hill
#
# Bulk Modulus (GPa) = 43.72454 48.92433 46.32444
# Shear Modulus (GPa) = 25.78870 30.49760 28.14315
#
# Velocity S-wave (km/s) = 3.35288 3.64616 3.50259
# Velocity P-wave (km/s) = 5.83519 6.24924 6.04576
#
# Compressibility (1/GPa) = 0.02287045
#
# Stress axis : x y z
#
# Youngs Moduli (GPa) = 97.43508 113.74711 58.08402
#
# Poissons Ratio (x) = 0.26400 0.18633
# Poissons Ratio (y) = 0.22614 0.06805
# Poissons Ratio (z) = 0.31256 0.13325
#
# Static dielectric constant tensor:
#      x y z
#    x 1.843190 0.000000 0.000000 
#    y 0.000000 1.879050 0.000000 
#    z 0.000000 0.000000 1.891980 
# 
# From -- ./inp_files/929.got.cif
#   From: 2010.05.17/outbox.cif.g08.bks.cpg/sg36_1_cif.got.tgz:929.got - 2010.06.03 17:41:39.
