data_PCOD9352162
_publ_section_title
;
Structure prediction by ZEFSAII (Michael W. Deem and Ramdas Pophale) SiO2 
 PCOD9352162
Probable space group: C M C 21
;
_chemical_formula_sum "Si O2"
_cell_formula_units_Z 44
_cell_length_a 11.891439
_cell_length_b 13.730027
_cell_length_c 14.080499
_cell_angle_alpha 90.000000
_cell_angle_beta 90.000000
_cell_angle_gamma 90.000000
_cell_volume 2298.919953
_symmetry_space_group_name_H-M "C M C 21"
_symmetry_group_IT_number 36
_symmetry_cell_setting 'orthorhombic'
loop_
_space_group_symop_operation_xyz
x,y,z
-x,-y,1/2+z
x,-y,1/2+z
-x,y,z
1/2+x,1/2+y,z
1/2-x,1/2-y,1/2+z
1/2+x,1/2-y,1/2+z
1/2-x,1/2+y,z
loop_
_atom_site_type_symbol
_atom_site_label
_atom_site_fract_x
_atom_site_fract_y
_atom_site_fract_z
Si Si1 0.000000 0.820537 0.526260
Si Si2 0.246247 0.506684 0.424843
Si Si3 0.000000 0.013509 0.185829
Si Si4 0.791610 0.682143 0.556517
Si Si5 0.000000 0.987259 0.404173
Si Si6 0.864766 0.639667 0.069995
Si Si7 0.254931 0.021297 0.700396
O O1 0.000000 0.900049 0.610267
O O2 0.890830 0.757321 0.541459
O O3 0.000000 0.870597 0.422008
O O4 0.204674 0.608361 0.467569
O O5 0.379713 0.512129 0.448213
O O6 0.183172 0.419608 0.479126
O O7 0.234114 0.488167 0.313134
O O8 0.000000 0.033098 0.299478
O O9 0.122556 0.965628 0.174827
O O10 0.681460 0.750119 0.566570
O O11 0.810280 0.613850 0.648715
O O12 0.806944 0.576819 0.154650
O O13 0.000000 0.635726 0.074861
#
# Coordination Sequence:
#
# PCOD9352162 Si02
#       7
#     4   8   4   8   4   8   8
#     4  12  20  44  64  94 122 162 212 254 300 370
#     4  10  23  43  63  90 126 164 203 255 309 363
#     4  10  20  42  68  89 121 164 209 256 301 357
#     4  11  24  39  66  89 122 164 208 253 310 361
#     4  10  20  42  68  89 121 164 209 256 301 357
#     4  11  24  41  59  93 127 162 205 247 313 373
#     4  10  23  43  63  90 126 164 203 255 309 363
#
# _framework density 19.139422
#
# number of rings (size 3 to 8) (size 9 to 14) (size 15 to 20)
#    0.000    1.455    3.636    1.091    7.636    2.182 
#    0.000    0.000    0.000    0.000    0.000    0.000 
#    0.000    0.000    0.000    0.000    0.000    0.000 
#
# Total GULP energy -122564.875582 kJ/mol
# GULP energy per Si atom -5571.130708 kJ/mol
# Density = 1.909586 g / cm^3
# Si number density = 19.139422 Si / 1000 Ang^3
#
#
#
# Elastic Constant Matrix: (Units=GPa)
#
#
# Indices 1 2 3 4 5 6 
#
# 1 63.2959 -4.9931 22.2268 0.0000 0.0000 0.0000
# 2 -4.9931 92.7371 49.9654 0.0000 0.0000 0.0000
# 3 22.2268 49.9654 140.5750 0.0000 0.0000 0.0000
# 4 0.0000 0.0000 0.0000 10.3198 0.0000 0.0000
# 5 0.0000 0.0000 0.0000 0.0000 20.0020 0.0000
# 6 0.0000 0.0000 0.0000 0.0000 0.0000 154.6584
#
#
#
# Elastic Compliance Matrix: (Units=1/GPa)
#
#
# Indices 1 2 3 4 5 6 
#
# 1 0.017372 0.002987 -0.003809 0.000000 0.000000 0.000000
# 2 0.002987 0.013851 -0.005395 0.000000 0.000000 0.000000
# 3 -0.003809 -0.005395 0.009634 0.000000 0.000000 0.000000
# 4 0.000000 0.000000 0.000000 0.096901 0.000000 0.000000
# 5 0.000000 0.000000 0.000000 0.000000 0.049995 0.000000
# 6 0.000000 0.000000 0.000000 0.000000 0.000000 0.006466
#
#
# Mechanical properties :
#
#
# Convention : Reuss Voigt Hill
#
# Bulk Modulus (GPa) = 35.18272 47.88957 41.53614
# Shear Modulus (GPa) = 23.13466 52.28998 37.71232
#
# Velocity S-wave (km/s) = 3.48047 5.23258 4.44373
# Velocity P-wave (km/s) = 5.87995 7.84744 6.93383
#
# Compressibility (1/GPa) = 0.02842305
#
# Stress axis : x y z
#
# Youngs Moduli (GPa) = 57.56439 72.19686 103.80376
#
# Poissons Ratio (x) = -0.21567 0.39534
# Poissons Ratio (y) = -0.17196 0.56007
# Poissons Ratio (z) = 0.21924 0.38954
#
# Static dielectric constant tensor:
#      x y z
#    x 1.697350 0.000000 0.000000 
#    y 0.000000 1.647840 0.000000 
#    z 0.000000 0.000000 1.681740 
# 
# From -- ./inp_files/11499.got.cif
#   From: 2010.05.17/outbox.cif.g08.bks.cpg/sg36_6_cif.got.tgz:11499.got - 2010.06.03 17:41:39.
