data_PCOD9352903
_publ_section_title
;
Structure prediction by ZEFSAII (Michael W. Deem and Ramdas Pophale) SiO2 
 PCOD9352903
Probable space group: C M C 21
;
_chemical_formula_sum "Si O2"
_cell_formula_units_Z 48
_cell_length_a 7.811769
_cell_length_b 35.053567
_cell_length_c 7.944832
_cell_angle_alpha 90.000000
_cell_angle_beta 90.000000
_cell_angle_gamma 90.000000
_cell_volume 2175.536270
_symmetry_space_group_name_H-M "C M C 21"
_symmetry_group_IT_number 36
_symmetry_cell_setting 'orthorhombic'
loop_
_space_group_symop_operation_xyz
x,y,z
-x,-y,1/2+z
x,-y,1/2+z
-x,y,z
1/2+x,1/2+y,z
1/2-x,1/2-y,1/2+z
1/2+x,1/2-y,1/2+z
1/2-x,1/2+y,z
loop_
_atom_site_type_symbol
_atom_site_label
_atom_site_fract_x
_atom_site_fract_y
_atom_site_fract_z
Si Si1 0.808608 0.411295 0.317190
Si Si2 0.798349 0.304156 0.046770
Si Si3 0.292875 0.350784 0.596301
Si Si4 0.754290 0.616986 0.436454
Si Si5 0.706432 0.723418 0.911015
Si Si6 0.500000 0.466080 0.282168
Si Si7 0.500000 0.551601 0.390209
O O1 0.750099 0.375565 0.430657
O O2 0.816281 0.399608 0.118243
O O3 0.669309 0.444496 0.347948
O O4 0.000000 0.422911 0.366468
O O5 0.691110 0.341859 0.006119
O O6 0.783914 0.292560 0.240471
O O7 0.000000 0.313096 0.012740
O O8 0.740511 0.266555 0.947960
O O9 0.500000 0.353776 0.628090
O O10 0.250749 0.306797 0.557139
O O11 0.187438 0.366697 0.754508
O O12 0.656665 0.580062 0.364995
O O13 0.500000 0.723406 0.896000
O O14 0.500000 0.511325 0.301296
O O15 0.500000 0.457993 0.085685
#
# Coordination Sequence:
#
# PCOD9352903 Si02
#       7
#     8   8   8   8   8   4   4
#     4  11  24  44  71 104 140 187 232 301 361 436
#     4  11  23  41  60  93 139 181 235 299 354 420
#     4  11  22  39  70  99 136 187 247 290 354 427
#     4  11  23  41  70 101 137 184 234 289 362 428
#     4  10  23  38  62  94 132 189 241 294 352 414
#     4  10  24  46  72 104 144 180 242 289 379 436
#     4  10  24  42  76 104 132 190 234 295 363 444
#
# _framework density 22.063527000000001
#
# number of rings (size 3 to 8) (size 9 to 14) (size 15 to 20)
#    0.000    1.333    3.333    1.500    3.500    2.000 
#    0.000    4.167    0.000    0.000    0.000    0.000 
#    0.000    0.000    0.000    0.000    0.000    0.000 
#
# Total GULP energy -133651.739417 kJ/mol
# GULP energy per Si atom -5568.822476 kJ/mol
# Density = 2.201331 g / cm^3
# Si number density = 22.063527 Si / 1000 Ang^3
#
#
#
# Elastic Constant Matrix: (Units=GPa)
#
#
# Indices 1 2 3 4 5 6 
#
# 1 101.8769 58.9391 12.6588 0.0000 0.0000 0.0000
# 2 58.9391 193.4043 18.7329 0.0000 0.0000 0.0000
# 3 12.6588 18.7329 73.4091 0.0000 0.0000 0.0000
# 4 0.0000 0.0000 0.0000 47.3339 0.0000 0.0000
# 5 0.0000 0.0000 0.0000 0.0000 -0.5035 0.0000
# 6 0.0000 0.0000 0.0000 0.0000 0.0000 11.8469
#
#
#
# Elastic Compliance Matrix: (Units=1/GPa)
#
#
# Indices 1 2 3 4 5 6 
#
# 1 0.012013 -0.003548 -0.001166 0.000000 0.000000 0.000000
# 2 -0.003548 0.006349 -0.001008 0.000000 0.000000 0.000000
# 3 -0.001166 -0.001008 0.014081 0.000000 0.000000 0.000000
# 4 0.000000 0.000000 0.000000 0.021126 0.000000 0.000000
# 5 0.000000 0.000000 0.000000 0.000000 -1.985991 0.000000
# 6 0.000000 0.000000 0.000000 0.000000 0.000000 0.084411
#
#
# Mechanical properties :
#
#
# Convention : Reuss Voigt Hill
#
# Bulk Modulus (GPa) = 47.62332 61.03911 54.33122
# Shear Modulus (GPa) = -2.73289 30.29276 13.77993
#
# Velocity S-wave (km/s) = -1.11415 3.70939 2.50183
# Velocity P-wave (km/s) = 4.46949 6.78759 5.74664
#
# Compressibility (1/GPa) = 0.02099811
#
# Stress axis : x y z
#
# Youngs Moduli (GPa) = 83.24081 157.49399 71.01907
#
# Poissons Ratio (x) = 0.55880 0.08282
# Poissons Ratio (y) = 0.29534 0.07162
# Poissons Ratio (z) = 0.09707 0.15882
#
# Static dielectric constant tensor:
#      x y z
#    x 1.879410 0.000000 0.000000 
#    y 0.000000 1.897540 0.000000 
#    z 0.000000 0.000000 1.821000 
# 
# From -- ./inp_files/2739.got.cif
#   From: 2010.05.17/outbox.cif.g08.bks.cpg/sg36_2_cif.got.tgz:2739.got - 2010.06.03 17:41:39.
