data_PCOD9352124
_publ_section_title
;
Structure prediction by ZEFSAII (Michael W. Deem and Ramdas Pophale) SiO2 
 PCOD9352124
Probable space group: C M C 21
;
_chemical_formula_sum "Si O2"
_cell_formula_units_Z 48
_cell_length_a 24.959012
_cell_length_b 9.083329
_cell_length_c 10.581040
_cell_angle_alpha 90.000000
_cell_angle_beta 90.000000
_cell_angle_gamma 90.000000
_cell_volume 2398.837287
_symmetry_space_group_name_H-M "C M C 21"
_symmetry_group_IT_number 36
_symmetry_cell_setting 'orthorhombic'
loop_
_space_group_symop_operation_xyz
x,y,z
-x,-y,1/2+z
x,-y,1/2+z
-x,y,z
1/2+x,1/2+y,z
1/2-x,1/2-y,1/2+z
1/2+x,1/2-y,1/2+z
1/2-x,1/2+y,z
loop_
_atom_site_type_symbol
_atom_site_label
_atom_site_fract_x
_atom_site_fract_y
_atom_site_fract_z
Si Si1 0.500000 0.408608 0.376290
Si Si2 0.500000 0.344415 0.663726
Si Si3 0.622712 0.350426 0.382035
Si Si4 0.168253 0.820709 0.873966
Si Si5 0.289973 0.118766 0.310341
Si Si6 0.110481 0.691334 0.637963
Si Si7 0.670785 0.928806 0.547205
O O1 0.500000 0.432469 0.529062
O O2 0.500000 0.548833 0.284006
O O3 0.558797 0.333832 0.352278
O O4 0.550623 0.238750 0.663509
O O5 0.641294 0.518694 0.368008
O O6 0.663614 0.243463 0.309220
O O7 0.630365 0.299571 0.527025
O O8 0.231442 0.827156 0.848163
O O9 0.142648 0.723103 0.764015
O O10 0.158732 0.737148 0.005884
O O11 0.289619 0.060103 0.166829
O O12 0.305599 0.005864 0.421794
O O13 0.120091 0.526495 0.589366
#
# Coordination Sequence:
#
# PCOD9352124 Si02
#       7
#     4   4   8   8   8   8   8
#     4  10  20  40  66  96 130 166 216 272 326 376
#     4  10  20  42  68  94 134 170 218 280 330 386
#     4  10  24  41  67  98 128 171 220 278 325 386
#     4  12  24  39  67  94 132 177 217 269 331 397
#     4  11  26  41  65  95 137 173 219 270 331 397
#     4  10  23  44  63  95 134 170 218 276 328 392
#     4  11  25  45  62  93 134 177 215 266 333 400
#
# _framework density 20.009692999999999
#
# number of rings (size 3 to 8) (size 9 to 14) (size 15 to 20)
#    0.000    1.333    3.333    1.000    9.333    0.000 
#    0.000    2.500    0.000    0.000    0.000    0.000 
#    0.000    0.000    0.000    0.000    0.000    0.000 
#
# Total GULP energy -133888.977030 kJ/mol
# GULP energy per Si atom -5578.707376 kJ/mol
# Density = 1.996415 g / cm^3
# Si number density = 20.009693 Si / 1000 Ang^3
#
#
#
# Elastic Constant Matrix: (Units=GPa)
#
#
# Indices 1 2 3 4 5 6 
#
# 1 118.6943 35.0752 44.1535 0.0000 0.0000 0.0000
# 2 35.0752 73.0134 37.8949 0.0000 0.0000 0.0000
# 3 44.1535 37.8949 100.0273 0.0000 0.0000 0.0000
# 4 0.0000 0.0000 0.0000 29.7606 0.0000 0.0000
# 5 0.0000 0.0000 0.0000 0.0000 19.2128 0.0000
# 6 0.0000 0.0000 0.0000 0.0000 0.0000 28.4847
#
#
#
# Elastic Compliance Matrix: (Units=1/GPa)
#
#
# Indices 1 2 3 4 5 6 
#
# 1 0.010699 -0.003347 -0.003455 0.000000 0.000000 0.000000
# 2 -0.003347 0.018095 -0.005378 0.000000 0.000000 0.000000
# 3 -0.003455 -0.005378 0.013560 0.000000 0.000000 0.000000
# 4 0.000000 0.000000 0.000000 0.033601 0.000000 0.000000
# 5 0.000000 0.000000 0.000000 0.000000 0.052049 0.000000
# 6 0.000000 0.000000 0.000000 0.000000 0.000000 0.035107
#
#
# Mechanical properties :
#
#
# Convention : Reuss Voigt Hill
#
# Bulk Modulus (GPa) = 55.57132 58.44247 57.00690
# Shear Modulus (GPa) = 25.84403 27.13236 26.48820
#
# Velocity S-wave (km/s) = 3.59775 3.68633 3.64231
# Velocity P-wave (km/s) = 6.71497 6.88398 6.80000
#
# Compressibility (1/GPa) = 0.01799489
#
# Stress axis : x y z
#
# Youngs Moduli (GPa) = 93.46511 55.26363 73.74779
#
# Poissons Ratio (x) = 0.18495 0.25479
# Poissons Ratio (y) = 0.31280 0.39661
# Poissons Ratio (z) = 0.32291 0.29721
#
# Static dielectric constant tensor:
#      x y z
#    x 1.715670 0.000000 0.000000 
#    y 0.000000 1.753990 0.000000 
#    z 0.000000 0.000000 1.708920 
# 
# From -- ./inp_files/9445.got.cif
#   From: 2010.05.17/outbox.cif.g08.bks.cpg/sg36_5_cif.got.tgz:9445.got - 2010.06.03 17:41:39.
