data_PCOD9352469
_publ_section_title
;
Structure prediction by ZEFSAII (Michael W. Deem and Ramdas Pophale) SiO2 
 PCOD9352469
Probable space group: C M C 21
;
_chemical_formula_sum "Si O2"
_cell_formula_units_Z 64
_cell_length_a 8.246819
_cell_length_b 29.953189
_cell_length_c 12.714173
_cell_angle_alpha 90.000000
_cell_angle_beta 90.000000
_cell_angle_gamma 90.000000
_cell_volume 3140.636301
_symmetry_space_group_name_H-M "C M C 21"
_symmetry_group_IT_number 36
_symmetry_cell_setting 'orthorhombic'
loop_
_space_group_symop_operation_xyz
x,y,z
-x,-y,1/2+z
x,-y,1/2+z
-x,y,z
1/2+x,1/2+y,z
1/2-x,1/2-y,1/2+z
1/2+x,1/2-y,1/2+z
1/2-x,1/2+y,z
loop_
_atom_site_type_symbol
_atom_site_label
_atom_site_fract_x
_atom_site_fract_y
_atom_site_fract_z
Si Si1 0.803350 0.659201 0.055840
Si Si2 0.187101 0.929210 0.665378
Si Si3 0.802672 0.474802 0.457435
Si Si4 0.695789 0.322883 0.164009
Si Si5 0.194568 0.727776 0.228197
Si Si6 0.685951 0.070964 0.386554
Si Si7 0.805280 0.385479 0.340152
Si Si8 0.309453 0.330741 0.926006
O O1 0.721961 0.620466 0.124278
O O2 0.758847 0.704242 0.117220
O O3 0.000000 0.654453 0.060783
O O4 0.756181 0.648368 0.935539
O O5 0.232117 0.960324 0.568581
O O6 0.303517 0.937514 0.762473
O O7 0.000000 0.933992 0.696691
O O8 0.749326 0.525068 0.434668
O O9 0.753602 0.435481 0.375324
O O10 0.000000 0.474212 0.460346
O O11 0.500000 0.321941 0.160249
O O12 0.754922 0.278587 0.225233
O O13 0.743840 0.366390 0.230231
O O14 0.755693 0.321127 0.043508
O O15 0.242635 0.698532 0.329315
O O16 0.000000 0.728980 0.228835
O O17 0.500000 0.077582 0.420106
O O18 0.779095 0.116777 0.406995
O O19 0.000000 0.385779 0.336788
O O20 0.500000 0.321760 0.927564
#
# Coordination Sequence:
#
# PCOD9352469 Si02
#       8
#     8   8   8   8   8   8   8   8
#     4   9  18  35  60  83 110 150 198 249 293 346
#     4  11  21  34  56  87 119 150 191 248 307 356
#     4   9  21  40  61  85 115 160 210 250 295 357
#     4  10  24  41  58  86 126 164 196 244 309 365
#     4  10  21  39  62  85 114 158 202 242 295 359
#     4  11  22  39  63  87 118 159 204 251 298 359
#     4   9  19  37  61  87 115 153 202 249 296 351
#     4  11  24  41  61  90 125 156 197 251 311 363
#
# _framework density 20.378036000000002
#
# number of rings (size 3 to 8) (size 9 to 14) (size 15 to 20)
#    0.000    2.000    1.250    2.625    1.750    5.500 
#    0.000    3.750    0.000    0.000    0.000    0.000 
#    0.000    0.000    0.000    0.000    0.000    0.000 
#
# Total GULP energy -178533.688774 kJ/mol
# GULP energy per Si atom -5579.177774 kJ/mol
# Density = 2.033165 g / cm^3
# Si number density = 20.378036 Si / 1000 Ang^3
#
#
#
# Elastic Constant Matrix: (Units=GPa)
#
#
# Indices 1 2 3 4 5 6 
#
# 1 2.0225 1.0546 -0.6203 0.0000 0.0000 0.0000
# 2 1.0546 84.6236 33.5605 0.0000 0.0000 0.0000
# 3 -0.6203 33.5605 66.0806 0.0000 0.0000 0.0000
# 4 0.0000 0.0000 0.0000 20.9870 0.0000 0.0000
# 5 0.0000 0.0000 0.0000 0.0000 22.5109 0.0000
# 6 0.0000 0.0000 0.0000 0.0000 0.0000 6.5200
#
#
#
# Elastic Compliance Matrix: (Units=1/GPa)
#
#
# Indices 1 2 3 4 5 6 
#
# 1 0.502791 -0.010190 0.009895 0.000000 0.000000 0.000000
# 2 -0.010190 0.015004 -0.007716 0.000000 0.000000 0.000000
# 3 0.009895 -0.007716 0.019145 0.000000 0.000000 0.000000
# 4 0.000000 0.000000 0.000000 0.047649 0.000000 0.000000
# 5 0.000000 0.000000 0.000000 0.000000 0.044423 0.000000
# 6 0.000000 0.000000 0.000000 0.000000 0.000000 0.153375
#
#
# Mechanical properties :
#
#
# Convention : Reuss Voigt Hill
#
# Bulk Modulus (GPa) = 1.91969 24.52402 13.22186
# Shear Modulus (GPa) = 5.14379 17.91905 11.53142
#
# Velocity S-wave (km/s) = 1.59049 2.96857 2.38139
# Velocity P-wave (km/s) = 2.07773 4.87960 3.75017
#
# Compressibility (1/GPa) = 0.52091768
#
# Stress axis : x y z
#
# Youngs Moduli (GPa) = 1.98890 66.64898 52.23423
#
# Poissons Ratio (x) = 0.67917 -0.51687
# Poissons Ratio (y) = 0.02027 0.40303
# Poissons Ratio (z) = -0.01968 0.51425
#
# Static dielectric constant tensor:
#      x y z
#    x 1.707850 0.000000 0.000000 
#    y 0.000000 1.739630 0.000000 
#    z 0.000000 0.000000 1.736430 
# 
# From -- ./inp_files/7264.got.cif
#   From: 2010.05.17/outbox.cif.g08.bks.cpg/sg36_4_cif.got.tgz:7264.got - 2010.06.03 17:41:39.
