data_PCOD9352456
_publ_section_title
;
Structure prediction by ZEFSAII (Michael W. Deem and Ramdas Pophale) SiO2 
 PCOD9352456
Probable space group: C M C 21
;
_chemical_formula_sum "Si O2"
_cell_formula_units_Z 56
_cell_length_a 30.314972
_cell_length_b 5.250016
_cell_length_c 15.350962
_cell_angle_alpha 90.000000
_cell_angle_beta 90.000000
_cell_angle_gamma 90.000000
_cell_volume 2443.168358
_symmetry_space_group_name_H-M "C M C 21"
_symmetry_group_IT_number 36
_symmetry_cell_setting 'orthorhombic'
loop_
_space_group_symop_operation_xyz
x,y,z
-x,-y,1/2+z
x,-y,1/2+z
-x,y,z
1/2+x,1/2+y,z
1/2-x,1/2-y,1/2+z
1/2+x,1/2-y,1/2+z
1/2-x,1/2+y,z
loop_
_atom_site_type_symbol
_atom_site_label
_atom_site_fract_x
_atom_site_fract_y
_atom_site_fract_z
Si Si1 0.081173 0.065316 0.695680
Si Si2 0.223262 0.353674 0.405837
Si Si3 0.273270 0.864406 0.194956
Si Si4 0.548111 0.826903 0.857547
Si Si5 0.378523 0.080454 0.952684
Si Si6 0.953409 0.957201 0.013186
Si Si7 0.629885 0.084055 0.640826
O O1 0.056900 0.108108 0.786433
O O2 0.049873 0.991874 0.615352
O O3 0.102211 0.339867 0.672394
O O4 0.116325 0.838490 0.692409
O O5 0.249032 0.607534 0.435566
O O6 0.224157 0.361568 0.300206
O O7 0.171865 0.348894 0.432221
O O8 0.262391 0.576508 0.167956
O O9 0.319136 0.961122 0.158111
O O10 0.500000 0.946700 0.835773
O O11 0.593680 0.981353 0.869451
O O12 0.544334 0.701233 0.952277
O O13 0.409804 0.307662 0.985467
O O14 0.376545 0.892464 0.036536
O O15 0.000000 0.812821 0.997785
#
# Coordination Sequence:
#
# PCOD9352456 Si02
#       7
#     8   8   8   8   8   8   8
#     4  11  24  43  66  98 134 180 224 277 338 406
#     4  10  24  40  65  97 133 174 225 281 341 404
#     4  10  21  39  60  90 126 168 218 280 335 397
#     4  11  24  42  69 100 134 184 230 279 345 412
#     4  11  24  42  68  97 140 177 232 284 348 409
#     4  10  23  44  66  99 140 179 228 284 339 408
#     4  11  24  42  66  95 131 178 225 279 341 408
#
# _framework density 22.921056
#
# number of rings (size 3 to 8) (size 9 to 14) (size 15 to 20)
#    0.000    1.429    1.429    2.571    6.000    2.286 
#    0.000    1.429    0.000    0.000    0.000    0.000 
#    0.000    0.000    0.000    0.000    0.000    0.000 
#
# Total GULP energy -156356.197993 kJ/mol
# GULP energy per Si atom -5584.149928 kJ/mol
# Density = 2.286889 g / cm^3
# Si number density = 22.921056 Si / 1000 Ang^3
#
#
#
# Elastic Constant Matrix: (Units=GPa)
#
#
# Indices 1 2 3 4 5 6 
#
# 1 169.0951 23.4796 13.3150 0.0000 0.0000 0.0000
# 2 23.4796 63.9149 13.8957 0.0000 0.0000 0.0000
# 3 13.3150 13.8957 48.7255 0.0000 0.0000 0.0000
# 4 0.0000 0.0000 0.0000 24.3907 0.0000 0.0000
# 5 0.0000 0.0000 0.0000 0.0000 -23.2915 0.0000
# 6 0.0000 0.0000 0.0000 0.0000 0.0000 -11.4326
#
#
#
# Elastic Compliance Matrix: (Units=1/GPa)
#
#
# Indices 1 2 3 4 5 6 
#
# 1 0.006290 -0.002065 -0.001130 0.000000 0.000000 0.000000
# 2 -0.002065 0.017358 -0.004386 0.000000 0.000000 0.000000
# 3 -0.001130 -0.004386 0.022083 0.000000 0.000000 0.000000
# 4 0.000000 0.000000 0.000000 0.040999 0.000000 0.000000
# 5 0.000000 0.000000 0.000000 0.000000 -0.042934 0.000000
# 6 0.000000 0.000000 0.000000 0.000000 0.000000 -0.087469
#
#
# Mechanical properties :
#
#
# Convention : Reuss Voigt Hill
#
# Bulk Modulus (GPa) = 32.71305 42.56844 37.64075
# Shear Modulus (GPa) = -272.88543 13.33631 -129.77456
#
# Velocity S-wave (km/s) = -10.92305 2.41475 -7.53266
# Velocity P-wave (km/s) = 12.03249 5.13680 7.69396
#
# Compressibility (1/GPa) = 0.03056884
#
# Stress axis : x y z
#
# Youngs Moduli (GPa) = 158.99475 57.61069 45.28438
#
# Poissons Ratio (x) = 0.11896 0.05116
# Poissons Ratio (y) = 0.32830 0.19861
# Poissons Ratio (z) = 0.17964 0.25268
#
# Static dielectric constant tensor:
#      x y z
#    x 1.874820 0.000000 0.000000 
#    y 0.000000 1.866240 0.000000 
#    z 0.000000 0.000000 1.882590 
# 
# From -- ./inp_files/13149.got.cif
#   From: 2010.05.17/outbox.cif.g08.bks.cpg/sg36_7_cif.got.tgz:13149.got - 2010.06.03 17:41:39.
