data_PCOD9352106
_publ_section_title
;
Structure prediction by ZEFSAII (Michael W. Deem and Ramdas Pophale) SiO2 
 PCOD9352106
Probable space group: C M C 21
;
_chemical_formula_sum "Si O2"
_cell_formula_units_Z 40
_cell_length_a 7.833319
_cell_length_b 27.006076
_cell_length_c 8.151541
_cell_angle_alpha 90.000000
_cell_angle_beta 90.000000
_cell_angle_gamma 90.000000
_cell_volume 1724.435741
_symmetry_space_group_name_H-M "C M C 21"
_symmetry_group_IT_number 36
_symmetry_cell_setting 'orthorhombic'
loop_
_space_group_symop_operation_xyz
x,y,z
-x,-y,1/2+z
x,-y,1/2+z
-x,y,z
1/2+x,1/2+y,z
1/2-x,1/2-y,1/2+z
1/2+x,1/2-y,1/2+z
1/2-x,1/2+y,z
loop_
_atom_site_type_symbol
_atom_site_label
_atom_site_fract_x
_atom_site_fract_y
_atom_site_fract_z
Si Si1 0.314427 0.418875 0.008480
Si Si2 0.500000 0.076730 0.982156
Si Si3 0.697436 0.852843 0.298176
Si Si4 0.292398 0.765321 0.512322
Si Si5 0.000000 0.479321 0.132575
Si Si6 0.200599 0.673202 0.325044
O O1 0.500000 0.442144 0.992915
O O2 0.304027 0.383698 0.169791
O O3 0.165272 0.458088 0.038424
O O4 0.282715 0.379463 0.863880
O O5 0.338574 0.113013 0.960055
O O6 0.500000 0.043499 0.814987
O O7 0.500000 0.038486 0.128311
O O8 0.500000 0.848375 0.233873
O O9 0.762356 0.800578 0.360750
O O10 0.500000 0.764190 0.514462
O O11 0.226557 0.710456 0.479228
O O12 0.231474 0.794437 0.673211
O O13 0.000000 0.664934 0.300500
#
# Coordination Sequence:
#
# PCOD9352106 Si02
#       6
#     8   4   8   8   4   8
#     4  11  21  37  60  84 117 154 194 240 291 341
#     4   8  18  34  64  82 112 154 186 238 301 330
#     4   8  17  37  58  84 109 149 193 236 285 347
#     4  10  21  35  55  80 113 153 197 238 288 345
#     4  10  20  40  60  90 116 152 194 244 289 356
#     4  11  22  35  52  81 117 155 194 241 288 344
#
# _framework density 23.195993000000001
#
# number of rings (size 3 to 8) (size 9 to 14) (size 15 to 20)
#    0.600    1.600    2.000    1.800    0.000    7.200 
#    0.000    4.000    0.000    0.000    0.000    0.000 
#    0.000    0.000    0.000    0.000    0.000    0.000 
#
# Total GULP energy -111722.748492 kJ/mol
# GULP energy per Si atom -5586.137425 kJ/mol
# Density = 2.314320 g / cm^3
# Si number density = 23.195993 Si / 1000 Ang^3
#
#
#
# Elastic Constant Matrix: (Units=GPa)
#
#
# Indices 1 2 3 4 5 6 
#
# 1 95.0187 2.3365 -0.7496 0.0000 0.0000 0.0000
# 2 2.3365 75.7627 -9.5177 0.0000 0.0000 0.0000
# 3 -0.7496 -9.5177 55.4509 0.0000 0.0000 0.0000
# 4 0.0000 0.0000 0.0000 42.5400 0.0000 0.0000
# 5 0.0000 0.0000 0.0000 0.0000 14.7577 0.0000
# 6 0.0000 0.0000 0.0000 0.0000 0.0000 17.1571
#
#
#
# Elastic Compliance Matrix: (Units=1/GPa)
#
#
# Indices 1 2 3 4 5 6 
#
# 1 0.010533 -0.000314 0.000089 0.000000 0.000000 0.000000
# 2 -0.000314 0.013499 0.002313 0.000000 0.000000 0.000000
# 3 0.000089 0.002313 0.018432 0.000000 0.000000 0.000000
# 4 0.000000 0.000000 0.000000 0.023507 0.000000 0.000000
# 5 0.000000 0.000000 0.000000 0.000000 0.067761 0.000000
# 6 0.000000 0.000000 0.000000 0.000000 0.000000 0.058285
#
#
# Mechanical properties :
#
#
# Convention : Reuss Voigt Hill
#
# Bulk Modulus (GPa) = 21.44108 23.37452 22.40780
# Shear Modulus (GPa) = 24.58347 30.50183 27.54265
#
# Velocity S-wave (km/s) = 3.25901 3.63017 3.44959
# Velocity P-wave (km/s) = 4.83994 5.26020 5.05444
#
# Compressibility (1/GPa) = 0.04663944
#
# Stress axis : x y z
#
# Youngs Moduli (GPa) = 94.94278 74.07779 54.25302
#
# Poissons Ratio (x) = 0.02324 -0.00480
# Poissons Ratio (y) = 0.02978 -0.12548
# Poissons Ratio (z) = -0.00841 -0.17133
#
# Static dielectric constant tensor:
#      x y z
#    x 1.820610 0.000000 0.000000 
#    y 0.000000 1.828740 0.000000 
#    z 0.000000 0.000000 1.985310 
# 
# From -- ./inp_files/2571.got.cif
#   From: 2010.05.17/outbox.cif.g08.bks.cpg/sg36_2_cif.got.tgz:2571.got - 2010.06.03 17:41:39.
