data_PCOD9352589
_publ_section_title
;
Structure prediction by ZEFSAII (Michael W. Deem and Ramdas Pophale) SiO2 
 PCOD9352589
Probable space group: C M C 21
;
_chemical_formula_sum "Si O2"
_cell_formula_units_Z 64
_cell_length_a 8.347614
_cell_length_b 31.418551
_cell_length_c 12.319187
_cell_angle_alpha 90.000000
_cell_angle_beta 90.000000
_cell_angle_gamma 90.000000
_cell_volume 3230.952388
_symmetry_space_group_name_H-M "C M C 21"
_symmetry_group_IT_number 36
_symmetry_cell_setting 'orthorhombic'
loop_
_space_group_symop_operation_xyz
x,y,z
-x,-y,1/2+z
x,-y,1/2+z
-x,y,z
1/2+x,1/2+y,z
1/2-x,1/2-y,1/2+z
1/2+x,1/2-y,1/2+z
1/2-x,1/2+y,z
loop_
_atom_site_type_symbol
_atom_site_label
_atom_site_fract_x
_atom_site_fract_y
_atom_site_fract_z
Si Si1 0.185293 0.826239 0.961690
Si Si2 0.307428 0.953487 0.191582
Si Si3 0.187612 0.954432 0.746623
Si Si4 0.194693 0.793580 0.731897
Si Si5 0.307706 0.876142 0.600398
Si Si6 0.804234 0.623035 0.848699
Si Si7 0.809765 0.698409 0.692548
Si Si8 0.686447 0.083787 0.454869
O O1 0.242750 0.800405 0.857214
O O2 0.206058 0.875390 0.930571
O O3 0.000000 0.815920 0.981497
O O4 0.279003 0.818857 0.072385
O O5 0.500000 0.958835 0.200548
O O6 0.255868 0.919459 0.283182
O O7 0.226725 0.999156 0.200881
O O8 0.274866 0.933870 0.073365
O O9 0.239480 0.916470 0.666031
O O10 0.282965 0.949267 0.859201
O O11 0.000000 0.950449 0.768263
O O12 0.258346 0.832176 0.658784
O O13 0.251829 0.746683 0.698386
O O14 0.000000 0.795531 0.727347
O O15 0.500000 0.879313 0.602846
O O16 0.254676 0.876537 0.474322
O O17 0.747632 0.664494 0.781091
O O18 0.000000 0.623603 0.846923
O O19 0.000000 0.701009 0.711086
O O20 0.500000 0.096803 0.454262
#
# Coordination Sequence:
#
# PCOD9352589 Si02
#       8
#     8   8   8   8   8   8   8   8
#     4  11  22  38  62  92 125 159 202 260 316 361
#     4  10  22  42  66  91 119 156 209 256 302 364
#     4  12  26  42  61  91 130 162 199 251 314 368
#     4  10  23  40  61  89 126 164 201 256 315 360
#     4  11  23  40  65  90 120 163 212 253 300 367
#     4   9  20  40  64  89 117 157 206 256 299 353
#     4  10  21  41  64  88 122 165 208 252 309 368
#     4  11  22  41  69  92 117 160 211 256 301 365
#
# _framework density 19.808399999999999
#
# number of rings (size 3 to 8) (size 9 to 14) (size 15 to 20)
#    0.000    1.500    2.500    2.250    3.500    2.000 
#    0.000    1.875    0.000    0.000    0.000    0.000 
#    0.000    0.000    0.000    0.000    0.000    0.000 
#
# Total GULP energy -178777.009952 kJ/mol
# GULP energy per Si atom -5586.781561 kJ/mol
# Density = 1.976332 g / cm^3
# Si number density = 19.808400 Si / 1000 Ang^3
#
#
#
# Elastic Constant Matrix: (Units=GPa)
#
#
# Indices 1 2 3 4 5 6 
#
# 1 14.2852 16.1117 17.3037 0.0000 0.0000 0.0000
# 2 16.1117 110.9832 29.1083 0.0000 0.0000 0.0000
# 3 17.3037 29.1083 107.5094 0.0000 0.0000 0.0000
# 4 0.0000 0.0000 0.0000 18.3569 0.0000 0.0000
# 5 0.0000 0.0000 0.0000 0.0000 19.0751 0.0000
# 6 0.0000 0.0000 0.0000 0.0000 0.0000 25.9520
#
#
#
# Elastic Compliance Matrix: (Units=1/GPa)
#
#
# Indices 1 2 3 4 5 6 
#
# 1 0.097716 -0.010830 -0.012795 0.000000 0.000000 0.000000
# 2 -0.010830 0.010899 -0.001208 0.000000 0.000000 0.000000
# 3 -0.012795 -0.001208 0.011688 0.000000 0.000000 0.000000
# 4 0.000000 0.000000 0.000000 0.054475 0.000000 0.000000
# 5 0.000000 0.000000 0.000000 0.000000 0.052424 0.000000
# 6 0.000000 0.000000 0.000000 0.000000 0.000000 0.038533
#
#
# Mechanical properties :
#
#
# Convention : Reuss Voigt Hill
#
# Bulk Modulus (GPa) = 14.15684 39.75835 26.95759
# Shear Modulus (GPa) = 14.75155 24.02706 19.38931
#
# Velocity S-wave (km/s) = 2.73190 3.48656 3.13204
# Velocity P-wave (km/s) = 4.13684 6.02687 5.16897
#
# Compressibility (1/GPa) = 0.07063725
#
# Stress axis : x y z
#
# Youngs Moduli (GPa) = 10.23376 91.74839 85.55804
#
# Poissons Ratio (x) = 0.99361 1.09474
# Poissons Ratio (y) = 0.11083 0.10335
# Poissons Ratio (z) = 0.13094 0.11083
#
# Static dielectric constant tensor:
#      x y z
#    x 1.692480 0.000000 0.000000 
#    y 0.000000 1.675150 0.000000 
#    z 0.000000 0.000000 1.669230 
# 
# From -- ./inp_files/7063.got.cif
#   From: 2010.05.17/outbox.cif.g08.bks.cpg/sg36_4_cif.got.tgz:7063.got - 2010.06.03 17:41:39.
