data_PCOD9352894
_publ_section_title
;
Structure prediction by ZEFSAII (Michael W. Deem and Ramdas Pophale) SiO2 
 PCOD9352894
Probable space group: C M C 21
;
_chemical_formula_sum "Si O2"
_cell_formula_units_Z 48
_cell_length_a 22.954337
_cell_length_b 7.561971
_cell_length_c 11.733516
_cell_angle_alpha 90.000000
_cell_angle_beta 90.000000
_cell_angle_gamma 90.000000
_cell_volume 2036.704068
_symmetry_space_group_name_H-M "C M C 21"
_symmetry_group_IT_number 36
_symmetry_cell_setting 'orthorhombic'
loop_
_space_group_symop_operation_xyz
x,y,z
-x,-y,1/2+z
x,-y,1/2+z
-x,y,z
1/2+x,1/2+y,z
1/2-x,1/2-y,1/2+z
1/2+x,1/2-y,1/2+z
1/2-x,1/2+y,z
loop_
_atom_site_type_symbol
_atom_site_label
_atom_site_fract_x
_atom_site_fract_y
_atom_site_fract_z
Si Si1 0.647262 0.240962 0.019460
Si Si2 0.725605 0.843527 0.707573
Si Si3 0.934255 0.270937 0.733075
Si Si4 0.931992 0.872692 0.825190
Si Si5 0.342533 0.787152 0.168996
Si Si6 0.345591 0.866075 0.914712
O O1 0.703295 0.276041 0.100476
O O2 0.599913 0.192999 0.116754
O O3 0.611976 0.368150 0.933803
O O4 0.665722 0.070225 0.946121
O O5 0.794665 0.854894 0.708638
O O6 0.702620 0.782962 0.831028
O O7 0.691970 0.029665 0.691793
O O8 0.904059 0.358976 0.841400
O O9 0.000000 0.327205 0.720798
O O10 0.931103 0.062186 0.762706
O O11 0.902284 0.737728 0.736108
O O12 0.000000 0.834052 0.854171
O O13 0.351584 0.770140 0.034676
#
# Coordination Sequence:
#
# PCOD9352894 Si02
#       6
#     8   8   8   8   8   8
#     4  10  22  46  65  94 140 178 232 284 337 413
#     4  10  24  42  67 102 133 176 229 281 347 407
#     4  10  24  42  67 100 133 181 235 279 344 416
#     4  11  25  44  68  98 138 184 229 285 348 412
#     4  11  25  42  68 100 137 178 225 284 345 414
#     4  10  23  44  65 100 136 177 228 283 347 406
#
# _framework density 23.567491
#
# number of rings (size 3 to 8) (size 9 to 14) (size 15 to 20)
#    0.000    1.667    1.667    0.500    9.333    2.000 
#    0.000    2.500    0.000    0.000    0.000    0.000 
#    0.000    0.000    0.000    0.000    0.000    0.000 
#
# Total GULP energy -134081.318940 kJ/mol
# GULP energy per Si atom -5586.721623 kJ/mol
# Density = 2.351385 g / cm^3
# Si number density = 23.567491 Si / 1000 Ang^3
#
#
#
# Elastic Constant Matrix: (Units=GPa)
#
#
# Indices 1 2 3 4 5 6 
#
# 1 97.8306 14.5866 27.3683 0.0000 0.0000 0.0000
# 2 14.5866 53.6641 3.9347 0.0000 0.0000 0.0000
# 3 27.3683 3.9347 146.3753 0.0000 0.0000 0.0000
# 4 0.0000 0.0000 0.0000 12.4101 0.0000 0.0000
# 5 0.0000 0.0000 0.0000 0.0000 22.3121 0.0000
# 6 0.0000 0.0000 0.0000 0.0000 0.0000 30.5072
#
#
#
# Elastic Compliance Matrix: (Units=1/GPa)
#
#
# Indices 1 2 3 4 5 6 
#
# 1 0.011219 -0.002901 -0.002020 0.000000 0.000000 0.000000
# 2 -0.002901 0.019422 0.000020 0.000000 0.000000 0.000000
# 3 -0.002020 0.000020 0.007209 0.000000 0.000000 0.000000
# 4 0.000000 0.000000 0.000000 0.080579 0.000000 0.000000
# 5 0.000000 0.000000 0.000000 0.000000 0.044819 0.000000
# 6 0.000000 0.000000 0.000000 0.000000 0.000000 0.032779
#
#
# Mechanical properties :
#
#
# Convention : Reuss Voigt Hill
#
# Bulk Modulus (GPa) = 35.65284 43.29434 39.47359
# Shear Modulus (GPa) = 23.23658 29.84458 26.54058
#
# Velocity S-wave (km/s) = 3.14340 3.56244 3.35946
# Velocity P-wave (km/s) = 5.32311 5.94403 5.64212
#
# Compressibility (1/GPa) = 0.02804826
#
# Stress axis : x y z
#
# Youngs Moduli (GPa) = 89.13141 51.48904 138.71858
#
# Poissons Ratio (x) = 0.14940 0.28017
# Poissons Ratio (y) = 0.25861 -0.00284
# Poissons Ratio (z) = 0.18002 -0.00105
#
# Static dielectric constant tensor:
#      x y z
#    x 1.880650 0.000000 0.000000 
#    y 0.000000 1.989590 0.000000 
#    z 0.000000 0.000000 1.887390 
# 
# From -- ./inp_files/9415.got.cif
#   From: 2010.05.17/outbox.cif.g08.bks.cpg/sg36_5_cif.got.tgz:9415.got - 2010.06.03 17:41:39.
