data_PCOD9352098
_publ_section_title
;
Structure prediction by ZEFSAII (Michael W. Deem and Ramdas Pophale) SiO2 
 PCOD9352098
Probable space group: C M C 21
;
_chemical_formula_sum "Si O2"
_cell_formula_units_Z 64
_cell_length_a 21.878395
_cell_length_b 8.354347
_cell_length_c 14.381386
_cell_angle_alpha 90.000000
_cell_angle_beta 90.000000
_cell_angle_gamma 90.000000
_cell_volume 2628.625471
_symmetry_space_group_name_H-M "C M C 21"
_symmetry_group_IT_number 36
_symmetry_cell_setting 'orthorhombic'
loop_
_space_group_symop_operation_xyz
x,y,z
-x,-y,1/2+z
x,-y,1/2+z
-x,y,z
1/2+x,1/2+y,z
1/2-x,1/2-y,1/2+z
1/2+x,1/2-y,1/2+z
1/2-x,1/2+y,z
loop_
_atom_site_type_symbol
_atom_site_label
_atom_site_fract_x
_atom_site_fract_y
_atom_site_fract_z
Si Si1 0.932560 0.903059 0.393650
Si Si2 0.319214 0.549401 0.492666
Si Si3 0.564642 0.203225 0.735571
Si Si4 0.814348 0.416669 0.442968
Si Si5 0.933694 0.592877 0.520277
Si Si6 0.930997 0.357413 0.736821
Si Si7 0.805328 0.501169 0.725382
Si Si8 0.679947 0.653249 0.177163
O O1 0.934101 0.762263 0.469943
O O2 0.926734 0.799515 0.299697
O O3 0.000000 0.981999 0.398460
O O4 0.872690 0.000040 0.421194
O O5 0.251331 0.488521 0.469595
O O6 0.316456 0.739605 0.485253
O O7 0.334418 0.459967 0.589881
O O8 0.500000 0.282969 0.749770
O O9 0.567263 0.134459 0.629762
O O10 0.619722 0.326071 0.740451
O O11 0.564945 0.032363 0.788493
O O12 0.873681 0.504136 0.484729
O O13 0.814182 0.433215 0.330583
O O14 0.000000 0.513699 0.500660
O O15 0.861625 0.383077 0.697771
O O16 0.000000 0.343700 0.691915
O O17 0.740680 0.415450 0.722850
O O18 0.804558 0.658316 0.659536
#
# Coordination Sequence:
#
# PCOD9352098 Si02
#       8
#     8   8   8   8   8   8   8   8
#     4  10  20  39  66  96 132 173 220 279 338 399
#     4  12  26  42  65  95 134 174 230 281 336 401
#     4   9  19  39  69 101 134 176 224 273 339 408
#     4  12  26  42  63  94 133 178 225 279 335 402
#     4  10  20  39  67  97 133 175 224 276 334 403
#     4   9  19  37  65  95 126 169 217 264 327 405
#     4  11  24  42  63  91 128 171 219 269 337 404
#     4  11  24  42  64  95 128 174 219 275 336 404
#
# _framework density 24.347325999999999
#
# number of rings (size 3 to 8) (size 9 to 14) (size 15 to 20)
#    0.000    1.500    2.500    2.250    5.250    0.500 
#    0.000    0.000    0.000    3.000    0.000    0.000 
#    0.000    0.000    0.000    0.000    0.000    0.000 
#
# Total GULP energy -178525.878982 kJ/mol
# GULP energy per Si atom -5578.933718 kJ/mol
# Density = 2.429191 g / cm^3
# Si number density = 24.347326 Si / 1000 Ang^3
#
#
#
# Elastic Constant Matrix: (Units=GPa)
#
#
# Indices 1 2 3 4 5 6 
#
# 1 271.8229 91.6519 36.2719 0.0000 0.0000 0.0000
# 2 91.6519 79.1809 43.2109 0.0000 0.0000 0.0000
# 3 36.2719 43.2109 70.3270 0.0000 0.0000 0.0000
# 4 0.0000 0.0000 0.0000 38.1439 0.0000 0.0000
# 5 0.0000 0.0000 0.0000 0.0000 20.9884 0.0000
# 6 0.0000 0.0000 0.0000 0.0000 0.0000 25.0232
#
#
#
# Elastic Compliance Matrix: (Units=1/GPa)
#
#
# Indices 1 2 3 4 5 6 
#
# 1 0.006185 -0.008151 0.001818 0.000000 0.000000 0.000000
# 2 -0.008151 0.029743 -0.014071 0.000000 0.000000 0.000000
# 3 0.001818 -0.014071 0.021927 0.000000 0.000000 0.000000
# 4 0.000000 0.000000 0.000000 0.026216 0.000000 0.000000
# 5 0.000000 0.000000 0.000000 0.000000 0.047645 0.000000
# 6 0.000000 0.000000 0.000000 0.000000 0.000000 0.039963
#
#
# Mechanical properties :
#
#
# Convention : Reuss Voigt Hill
#
# Bulk Modulus (GPa) = 58.65960 84.84448 71.75204
# Shear Modulus (GPa) = 22.91809 33.51086 28.21447
#
# Velocity S-wave (km/s) = 3.07139 3.71397 3.40786
# Velocity P-wave (km/s) = 6.05995 7.30169 6.70961
#
# Compressibility (1/GPa) = 0.01704751
#
# Stress axis : x y z
#
# Youngs Moduli (GPa) = 161.69452 33.62155 45.60594
#
# Poissons Ratio (x) = 0.27405 -0.08293
# Poissons Ratio (y) = 1.31796 0.64172
# Poissons Ratio (z) = -0.29403 0.47309
#
# Static dielectric constant tensor:
#      x y z
#    x 2.042030 0.000000 0.000000 
#    y 0.000000 1.947960 0.000000 
#    z 0.000000 0.000000 2.054520 
# 
# From -- ./inp_files/15052.got.cif
#   From: 2010.05.17/outbox.cif.g08.bks.cpg/sg36_8_cif.got.tgz:15052.got - 2010.06.03 17:41:39.
