data_PCOD9352731
_publ_section_title
;
Structure prediction by ZEFSAII (Michael W. Deem and Ramdas Pophale) SiO2 
 PCOD9352731
Probable space group: C M C 21
;
_chemical_formula_sum "Si O2"
_cell_formula_units_Z 40
_cell_length_a 7.867160
_cell_length_b 14.340363
_cell_length_c 14.343355
_cell_angle_alpha 90.000000
_cell_angle_beta 90.000000
_cell_angle_gamma 90.000000
_cell_volume 1618.187623
_symmetry_space_group_name_H-M "C M C 21"
_symmetry_group_IT_number 36
_symmetry_cell_setting 'orthorhombic'
loop_
_space_group_symop_operation_xyz
x,y,z
-x,-y,1/2+z
x,-y,1/2+z
-x,y,z
1/2+x,1/2+y,z
1/2-x,1/2-y,1/2+z
1/2+x,1/2-y,1/2+z
1/2-x,1/2+y,z
loop_
_atom_site_type_symbol
_atom_site_label
_atom_site_fract_x
_atom_site_fract_y
_atom_site_fract_z
Si Si1 0.203998 0.853497 0.118510
Si Si2 0.198543 0.861144 0.899843
Si Si3 0.690504 0.656365 0.914390
Si Si4 0.752332 0.504644 0.760362
Si Si5 0.698244 0.134926 0.118039
O O1 0.313625 0.918100 0.185610
O O2 0.233652 0.743978 0.134028
O O3 0.000000 0.869917 0.137060
O O4 0.233057 0.873701 0.009566
O O5 0.221216 0.751313 0.880884
O O6 0.000000 0.886566 0.882995
O O7 0.311926 0.926104 0.834444
O O8 0.500000 0.683551 0.941942
O O9 0.681622 0.578376 0.835657
O O10 0.778744 0.619451 0.007924
O O11 0.688054 0.431267 0.681748
O O12 0.500000 0.116870 0.142513
#
# Coordination Sequence:
#
# PCOD9352731 Si02
#       5
#     8   8   8   8   8
#     4   9  19  39  61  85 124 167 206 251 307 372
#     4  10  22  40  62  90 126 166 208 258 313 372
#     4  11  24  42  65  93 128 169 211 258 315 381
#     4  12  22  36  65  97 123 160 209 258 315 376
#     4  10  24  45  65  89 127 170 212 263 316 371
#
# _framework density 24.719011999999999
#
# number of rings (size 3 to 8) (size 9 to 14) (size 15 to 20)
#    0.000    1.600    0.000    6.000    0.000    8.000 
#    0.000    8.000    0.000    0.000    0.000    0.000 
#    0.000    0.000    0.000    0.000    0.000    0.000 
#
# Total GULP energy -111413.309962 kJ/mol
# GULP energy per Si atom -5570.665498 kJ/mol
# Density = 2.466275 g / cm^3
# Si number density = 24.719012 Si / 1000 Ang^3
#
#
#
# Elastic Constant Matrix: (Units=GPa)
#
#
# Indices 1 2 3 4 5 6 
#
# 1 98.3316 37.7966 42.3113 0.0000 0.0000 0.0000
# 2 37.7966 176.8651 105.7272 0.0000 0.0000 0.0000
# 3 42.3113 105.7272 172.6655 0.0000 0.0000 0.0000
# 4 0.0000 0.0000 0.0000 74.3687 0.0000 0.0000
# 5 0.0000 0.0000 0.0000 0.0000 3.2308 0.0000
# 6 0.0000 0.0000 0.0000 0.0000 0.0000 -27.8848
#
#
#
# Elastic Compliance Matrix: (Units=1/GPa)
#
#
# Indices 1 2 3 4 5 6 
#
# 1 0.011534 -0.001223 -0.002077 0.000000 0.000000 0.000000
# 2 -0.001223 0.009048 -0.005241 0.000000 0.000000 0.000000
# 3 -0.002077 -0.005241 0.009510 0.000000 0.000000 0.000000
# 4 0.000000 0.000000 0.000000 0.013447 0.000000 0.000000
# 5 0.000000 0.000000 0.000000 0.000000 0.309517 0.000000
# 6 0.000000 0.000000 0.000000 0.000000 0.000000 -0.035862
#
#
# Mechanical properties :
#
#
# Convention : Reuss Voigt Hill
#
# Bulk Modulus (GPa) = 76.86840 91.05913 83.96376
# Shear Modulus (GPa) = 14.76616 27.41143 21.08880
#
# Velocity S-wave (km/s) = 2.44675 3.33366 2.92403
# Velocity P-wave (km/s) = 6.25671 7.19273 6.74099
#
# Compressibility (1/GPa) = 0.01300925
#
# Stress axis : x y z
#
# Youngs Moduli (GPa) = 86.70282 110.51913 105.15602
#
# Poissons Ratio (x) = 0.13515 0.21846
# Poissons Ratio (y) = 0.10603 0.55110
# Poissons Ratio (z) = 0.18013 0.57921
#
# Static dielectric constant tensor:
#      x y z
#    x 1.989630 0.000000 0.000000 
#    y 0.000000 1.913480 0.000000 
#    z 0.000000 0.000000 1.914150 
# 
# From -- ./inp_files/10103.got.cif
#   From: 2010.05.17/outbox.cif.g08.bks.cpg/sg36_6_cif.got.tgz:10103.got - 2010.06.03 17:41:39.
