data_PCOD9352616
_publ_section_title
;
Structure prediction by ZEFSAII (Michael W. Deem and Ramdas Pophale) SiO2 
 PCOD9352616
Probable space group: C M C 21
;
_chemical_formula_sum "Si O2"
_cell_formula_units_Z 48
_cell_length_a 19.117014
_cell_length_b 13.087989
_cell_length_c 7.952284
_cell_angle_alpha 90.000000
_cell_angle_beta 90.000000
_cell_angle_gamma 90.000000
_cell_volume 1989.687452
_symmetry_space_group_name_H-M "C M C 21"
_symmetry_group_IT_number 36
_symmetry_cell_setting 'orthorhombic'
loop_
_space_group_symop_operation_xyz
x,y,z
-x,-y,1/2+z
x,-y,1/2+z
-x,y,z
1/2+x,1/2+y,z
1/2-x,1/2-y,1/2+z
1/2+x,1/2-y,1/2+z
1/2-x,1/2+y,z
loop_
_atom_site_type_symbol
_atom_site_label
_atom_site_fract_x
_atom_site_fract_y
_atom_site_fract_z
Si Si1 0.722549 0.350008 0.618430
Si Si2 0.866226 0.244073 0.669659
Si Si3 0.842638 0.958456 0.301157
Si Si4 0.890334 0.703824 0.552800
Si Si5 0.000000 0.162617 0.241273
Si Si6 0.500000 0.491070 0.440631
Si Si7 0.500000 0.154953 0.063140
Si Si8 0.000000 0.445324 0.933639
O O1 0.802539 0.323349 0.652941
O O2 0.687273 0.431624 0.745672
O O3 0.706951 0.406168 0.441284
O O4 0.686703 0.236848 0.610921
O O5 0.845077 0.125551 0.650440
O O6 0.928983 0.282212 0.555775
O O7 0.893716 0.252760 0.862333
O O8 0.922948 0.963485 0.366538
O O9 0.930340 0.596674 0.529947
O O10 0.935748 0.771017 0.679450
O O11 0.000000 0.112631 0.422914
O O12 0.000000 0.062549 0.120469
O O13 0.500000 0.099424 0.245969
O O14 0.500000 0.065908 0.928268
#
# Coordination Sequence:
#
# PCOD9352616 Si02
#       8
#     8   8   8   8   4   4   4   4
#     4  11  23  38  61  92 130 169 211 267 329 394
#     4  10  22  39  64  84 126 171 214 262 321 390
#     4  11  23  40  63  96 130 167 216 265 334 399
#     4   9  19  40  59  92 120 170 208 255 322 389
#     4  11  18  33  68  93 131 162 214 260 335 389
#     4  12  17  36  67  97 129 169 204 274 325 405
#     4  10  21  42  62  90 112 168 211 262 320 373
#     4   9  20  37  69  82 120 151 209 262 308 383
#
# _framework density 24.124392
#
# number of rings (size 3 to 8) (size 9 to 14) (size 15 to 20)
#    0.000    1.667    5.000    1.000    0.000    6.667 
#    0.000    3.333    3.667    0.000    0.000    0.000 
#    0.000    0.000    0.000    0.000    0.000    0.000 
#
# Total GULP energy -133939.239507 kJ/mol
# GULP energy per Si atom -5580.801646 kJ/mol
# Density = 2.406948 g / cm^3
# Si number density = 24.124392 Si / 1000 Ang^3
#
#
#
# Elastic Constant Matrix: (Units=GPa)
#
#
# Indices 1 2 3 4 5 6 
#
# 1 106.7568 55.7954 20.0698 0.0000 0.0000 0.0000
# 2 55.7954 89.5215 44.5445 0.0000 0.0000 0.0000
# 3 20.0698 44.5445 67.1572 0.0000 0.0000 0.0000
# 4 0.0000 0.0000 0.0000 39.3547 0.0000 0.0000
# 5 0.0000 0.0000 0.0000 0.0000 9.4207 0.0000
# 6 0.0000 0.0000 0.0000 0.0000 0.0000 34.2846
#
#
#
# Elastic Compliance Matrix: (Units=1/GPa)
#
#
# Indices 1 2 3 4 5 6 
#
# 1 0.014151 -0.010024 0.002420 0.000000 0.000000 0.000000
# 2 -0.010024 0.023774 -0.012773 0.000000 0.000000 0.000000
# 3 0.002420 -0.012773 0.022640 0.000000 0.000000 0.000000
# 4 0.000000 0.000000 0.000000 0.025410 0.000000 0.000000
# 5 0.000000 0.000000 0.000000 0.000000 0.106150 0.000000
# 6 0.000000 0.000000 0.000000 0.000000 0.000000 0.029168
#
#
# Mechanical properties :
#
#
# Convention : Reuss Voigt Hill
#
# Bulk Modulus (GPa) = 50.48037 56.02832 53.25435
# Shear Modulus (GPa) = 18.61161 26.14704 22.37932
#
# Velocity S-wave (km/s) = 2.78058 3.29575 3.04906
# Velocity P-wave (km/s) = 5.59279 6.14474 5.87525
#
# Compressibility (1/GPa) = 0.01980968
#
# Stress axis : x y z
#
# Youngs Moduli (GPa) = 70.66626 42.06329 44.17028
#
# Poissons Ratio (x) = 0.42163 -0.10688
# Poissons Ratio (y) = 0.70834 0.56420
# Poissons Ratio (z) = -0.17099 0.53728
#
# Static dielectric constant tensor:
#      x y z
#    x 1.931430 0.000000 0.000000 
#    y 0.000000 1.940370 0.000000 
#    z 0.000000 0.000000 2.015470 
# 
# From -- ./inp_files/4700.got.cif
#   From: 2010.05.17/outbox.cif.g08.bks.cpg/sg36_3_cif.got.tgz:4700.got - 2010.06.03 17:41:39.
