data_PCOD9352657
_publ_section_title
;
Structure prediction by ZEFSAII (Michael W. Deem and Ramdas Pophale) SiO2 
 PCOD9352657
Probable space group: C M C 21
;
_chemical_formula_sum "Si O2"
_cell_formula_units_Z 48
_cell_length_a 8.785581
_cell_length_b 24.471551
_cell_length_c 12.247529
_cell_angle_alpha 90.000000
_cell_angle_beta 90.000000
_cell_angle_gamma 90.000000
_cell_volume 2633.179463
_symmetry_space_group_name_H-M "C M C 21"
_symmetry_group_IT_number 36
_symmetry_cell_setting 'orthorhombic'
loop_
_space_group_symop_operation_xyz
x,y,z
-x,-y,1/2+z
x,-y,1/2+z
-x,y,z
1/2+x,1/2+y,z
1/2-x,1/2-y,1/2+z
1/2+x,1/2-y,1/2+z
1/2-x,1/2+y,z
loop_
_atom_site_type_symbol
_atom_site_label
_atom_site_fract_x
_atom_site_fract_y
_atom_site_fract_z
Si Si1 0.816495 0.605746 0.130360
Si Si2 0.816512 0.670147 0.709072
Si Si3 0.318670 0.539855 0.329022
Si Si4 0.317559 0.212347 0.262153
Si Si5 0.815973 0.578090 0.882250
Si Si6 0.316129 0.862273 0.965182
O O1 0.741794 0.563112 0.213670
O O2 0.774913 0.666375 0.172527
O O3 0.000000 0.600985 0.140909
O O4 0.774426 0.594805 0.005641
O O5 0.756835 0.729737 0.739944
O O6 0.768120 0.624869 0.797138
O O7 0.768193 0.652830 0.587223
O O8 0.000000 0.671682 0.709395
O O9 0.500000 0.539808 0.329971
O O10 0.254808 0.479845 0.351453
O O11 0.256198 0.582213 0.419646
O O12 0.500000 0.218458 0.259486
O O13 0.276259 0.185477 0.378851
O O14 0.000000 0.573562 0.877606
O O15 0.500000 0.868428 0.962443
#
# Coordination Sequence:
#
# PCOD9352657 Si02
#       6
#     8   8   8   8   8   8
#     4   9  20  40  62  82 113 157 195 229 281 349
#     4  10  22  37  59  88 114 148 194 235 277 337
#     4  11  23  38  59  88 117 146 188 244 294 337
#     4   9  19  36  58  83 115 152 187 233 284 331
#     4  10  22  39  60  85 114 153 196 234 278 343
#     4   9  20  40  60  82 115 156 194 227 280 351
#
# _framework density 18.228912999999999
#
# number of rings (size 3 to 8) (size 9 to 14) (size 15 to 20)
#    0.000    2.333    0.000    2.500    4.667    4.667 
#    0.000    0.000    0.000    0.000    0.000    0.000 
#    0.000    0.000    0.000    0.000    0.000    0.000 
#
# Total GULP energy -134009.459736 kJ/mol
# GULP energy per Si atom -5583.727489 kJ/mol
# Density = 1.818742 g / cm^3
# Si number density = 18.228913 Si / 1000 Ang^3
#
#
#
# Elastic Constant Matrix: (Units=GPa)
#
#
# Indices 1 2 3 4 5 6 
#
# 1 23.2965 50.7336 50.9843 0.0000 0.0000 0.0000
# 2 50.7336 202.4188 137.0755 0.0000 0.0000 0.0000
# 3 50.9843 137.0755 189.3028 0.0000 0.0000 0.0000
# 4 0.0000 0.0000 0.0000 12.5707 0.0000 0.0000
# 5 0.0000 0.0000 0.0000 0.0000 9.9854 0.0000
# 6 0.0000 0.0000 0.0000 0.0000 0.0000 35.6566
#
#
#
# Elastic Compliance Matrix: (Units=1/GPa)
#
#
# Indices 1 2 3 4 5 6 
#
# 1 0.129619 -0.017359 -0.022340 0.000000 0.000000 0.000000
# 2 -0.017359 0.012018 -0.004027 0.000000 0.000000 0.000000
# 3 -0.022340 -0.004027 0.014216 0.000000 0.000000 0.000000
# 4 0.000000 0.000000 0.000000 0.079550 0.000000 0.000000
# 5 0.000000 0.000000 0.000000 0.000000 0.100146 0.000000
# 6 0.000000 0.000000 0.000000 0.000000 0.000000 0.028045
#
#
# Mechanical properties :
#
#
# Convention : Reuss Voigt Hill
#
# Bulk Modulus (GPa) = 14.61984 99.17834 56.89909
# Shear Modulus (GPa) = 10.55192 23.39085 16.97138
#
# Velocity S-wave (km/s) = 2.40855 3.58603 3.05456
# Velocity P-wave (km/s) = 3.97145 8.46590 6.61225
#
# Compressibility (1/GPa) = 0.06840019
#
# Stress axis : x y z
#
# Youngs Moduli (GPa) = 7.71491 83.20671 70.34530
#
# Poissons Ratio (x) = 1.44437 1.57153
# Poissons Ratio (y) = 0.13392 0.28330
# Poissons Ratio (z) = 0.17235 0.33510
#
# Static dielectric constant tensor:
#      x y z
#    x 1.615140 0.000000 0.000000 
#    y 0.000000 1.583910 0.000000 
#    z 0.000000 0.000000 1.622460 
# 
# From -- ./inp_files/6700.got.cif
#   From: 2010.05.17/outbox.cif.g08.bks.cpg/sg36_4_cif.got.tgz:6700.got - 2010.06.03 17:41:39.
