data_PCOD9352052
_publ_section_title
;
Structure prediction by ZEFSAII (Michael W. Deem and Ramdas Pophale) SiO2 
 PCOD9352052
Probable space group: C M C 21
;
_chemical_formula_sum "Si O2"
_cell_formula_units_Z 36
_cell_length_a 7.630130
_cell_length_b 22.927976
_cell_length_c 11.511375
_cell_angle_alpha 90.000000
_cell_angle_beta 90.000000
_cell_angle_gamma 90.000000
_cell_volume 2013.839513
_symmetry_space_group_name_H-M "C M C 21"
_symmetry_group_IT_number 36
_symmetry_cell_setting 'orthorhombic'
loop_
_space_group_symop_operation_xyz
x,y,z
-x,-y,1/2+z
x,-y,1/2+z
-x,y,z
1/2+x,1/2+y,z
1/2-x,1/2-y,1/2+z
1/2+x,1/2-y,1/2+z
1/2-x,1/2+y,z
loop_
_atom_site_type_symbol
_atom_site_label
_atom_site_fract_x
_atom_site_fract_y
_atom_site_fract_z
Si Si1 0.295167 0.122881 0.465270
Si Si2 0.500000 0.453419 0.855700
Si Si3 0.794516 0.659053 0.730289
Si Si4 0.795058 0.294936 0.747767
Si Si5 0.500000 0.370583 0.634884
Si Si6 0.000000 0.091413 0.869622
O O1 0.500000 0.106378 0.457974
O O2 0.257552 0.142998 0.595896
O O3 0.266870 0.175841 0.374402
O O4 0.168790 0.071373 0.424003
O O5 0.500000 0.422416 0.729736
O O6 0.500000 0.522488 0.848432
O O7 0.754222 0.727257 0.748482
O O8 0.669054 0.621047 0.810833
O O9 0.000000 0.648429 0.752390
O O10 0.668906 0.330306 0.661467
O O11 0.000000 0.301390 0.718233
O O12 0.500000 0.394716 0.505927
#
# Coordination Sequence:
#
# PCOD9352052 Si02
#       6
#     8   4   8   8   4   4
#     4   9  21  40  64  89 121 164 207 252 310 364
#     4  10  23  44  67  84 120 173 214 246 308 365
#     4  11  23  38  62  97 126 159 204 257 313 368
#     4  10  20  38  64  94 125 161 199 251 316 372
#     4  10  24  42  60  94 128 161 204 262 303 363
#     4  12  27  40  63  94 128 164 216 250 301 370
#
# _framework density 17.876298999999999
#
# number of rings (size 3 to 8) (size 9 to 14) (size 15 to 20)
#    0.000    1.778    2.222    0.667    6.222    1.778 
#    0.000    0.000    0.000    0.000    0.000    0.000 
#    0.000    0.000    0.000    0.000    0.000    0.000 
#
# Total GULP energy -100560.441971 kJ/mol
# GULP energy per Si atom -5586.691221 kJ/mol
# Density = 1.783561 g / cm^3
# Si number density = 17.876299 Si / 1000 Ang^3
#
#
#
# Elastic Constant Matrix: (Units=GPa)
#
#
# Indices 1 2 3 4 5 6 
#
# 1 117.5428 79.4060 74.9499 0.0000 0.0000 0.0000
# 2 79.4060 180.6474 72.1385 0.0000 0.0000 0.0000
# 3 74.9499 72.1385 106.7923 0.0000 0.0000 0.0000
# 4 0.0000 0.0000 0.0000 10.2556 0.0000 0.0000
# 5 0.0000 0.0000 0.0000 0.0000 28.0964 0.0000
# 6 0.0000 0.0000 0.0000 0.0000 0.0000 15.4571
#
#
#
# Elastic Compliance Matrix: (Units=1/GPa)
#
#
# Indices 1 2 3 4 5 6 
#
# 1 0.017046 -0.003719 -0.009452 0.000000 0.000000 0.000000
# 2 -0.003719 0.008392 -0.003059 0.000000 0.000000 0.000000
# 3 -0.009452 -0.003059 0.018064 0.000000 0.000000 0.000000
# 4 0.000000 0.000000 0.000000 0.097508 0.000000 0.000000
# 5 0.000000 0.000000 0.000000 0.000000 0.035592 0.000000
# 6 0.000000 0.000000 0.000000 0.000000 0.000000 0.064695
#
#
# Mechanical properties :
#
#
# Convention : Reuss Voigt Hill
#
# Bulk Modulus (GPa) = 90.55064 95.33014 92.94039
# Shear Modulus (GPa) = 18.02217 22.66103 20.34160
#
# Velocity S-wave (km/s) = 3.17860 3.56428 3.37695
# Velocity P-wave (km/s) = 8.01469 8.38941 8.20419
#
# Compressibility (1/GPa) = 0.01104354
#
# Stress axis : x y z
#
# Youngs Moduli (GPa) = 58.66323 119.16571 55.35963
#
# Poissons Ratio (x) = 0.44313 0.52325
# Poissons Ratio (y) = 0.21814 0.16933
# Poissons Ratio (z) = 0.55447 0.36450
#
# Static dielectric constant tensor:
#      x y z
#    x 1.616800 0.000000 0.000000 
#    y 0.000000 1.564840 0.000000 
#    z 0.000000 0.000000 1.593120 
# 
# From -- ./inp_files/2365.got.cif
#   From: 2010.05.17/outbox.cif.g08.bks.cpg/sg36_2_cif.got.tgz:2365.got - 2010.06.03 17:41:39.
