data_PCOD9352797
_publ_section_title
;
Structure prediction by ZEFSAII (Michael W. Deem and Ramdas Pophale) SiO2 
 PCOD9352797
Probable space group: C M C 21
;
_chemical_formula_sum "Si O2"
_cell_formula_units_Z 56
_cell_length_a 14.067928
_cell_length_b 36.007516
_cell_length_c 5.139067
_cell_angle_alpha 90.000000
_cell_angle_beta 90.000000
_cell_angle_gamma 90.000000
_cell_volume 2603.200260
_symmetry_space_group_name_H-M "C M C 21"
_symmetry_group_IT_number 36
_symmetry_cell_setting 'orthorhombic'
loop_
_space_group_symop_operation_xyz
x,y,z
-x,-y,1/2+z
x,-y,1/2+z
-x,y,z
1/2+x,1/2+y,z
1/2-x,1/2-y,1/2+z
1/2+x,1/2-y,1/2+z
1/2-x,1/2+y,z
loop_
_atom_site_type_symbol
_atom_site_label
_atom_site_fract_x
_atom_site_fract_y
_atom_site_fract_z
Si Si1 0.765374 0.293261 0.606540
Si Si2 0.500000 0.101814 0.141668
Si Si3 0.106186 0.172442 0.737517
Si Si4 0.500000 0.947048 0.144707
Si Si5 0.805129 0.632125 0.321239
Si Si6 0.213353 0.477111 0.184365
Si Si7 0.284424 0.602298 0.808463
Si Si8 0.897002 0.242248 0.355722
O O1 0.698001 0.314313 0.399490
O O2 0.781669 0.324565 0.821648
O O3 0.866925 0.276060 0.538928
O O4 0.694910 0.259664 0.674887
O O5 0.500000 0.067611 0.348278
O O6 0.407583 0.125286 0.203492
O O7 0.500000 0.086341 0.852030
O O8 0.128688 0.128449 0.705772
O O9 0.101092 0.202290 0.502169
O O10 0.000000 0.175383 0.861480
O O11 0.599910 0.967815 0.197377
O O12 0.797450 0.616250 0.609364
O O13 0.736334 0.611594 0.110872
O O14 0.232139 0.509427 0.392536
O O15 0.277237 0.441636 0.263429
O O16 0.000000 0.248070 0.234591
#
# Coordination Sequence:
#
# PCOD9352797 Si02
#       8
#     8   4   8   4   8   8   8   8
#     4  11  22  39  61  88 130 164 210 273 318 377
#     4  12  20  37  58  86 128 166 216 260 292 374
#     4  10  22  41  67  89 116 160 211 262 315 376
#     4  12  22  37  58  88 126 166 214 254 298 374
#     4  11  22  37  61  83 124 169 210 253 309 355
#     4  12  23  38  59  87 125 165 202 254 318 377
#     4  11  22  42  61  90 118 161 206 259 309 371
#     4  11  22  38  60  90 124 165 211 260 325 382
#
# _framework density 21.511982
#
# number of rings (size 3 to 8) (size 9 to 14) (size 15 to 20)
#    0.000    0.857    5.714    2.571    1.000    0.000 
#    0.000    0.000    6.286    0.857    0.000    0.000 
#    0.000    0.000    0.000    0.000    0.000    0.000 
#
# Total GULP energy -156093.734006 kJ/mol
# GULP energy per Si atom -5574.776214 kJ/mol
# Density = 2.146302 g / cm^3
# Si number density = 21.511982 Si / 1000 Ang^3
#
#
#
# Elastic Constant Matrix: (Units=GPa)
#
#
# Indices 1 2 3 4 5 6 
#
# 1 71.3191 24.0184 -0.6810 0.0000 0.0000 0.0000
# 2 24.0184 83.5766 -0.5200 0.0000 0.0000 0.0000
# 3 -0.6810 -0.5200 49.8218 0.0000 0.0000 0.0000
# 4 0.0000 0.0000 0.0000 29.8295 0.0000 0.0000
# 5 0.0000 0.0000 0.0000 0.0000 9.2341 0.0000
# 6 0.0000 0.0000 0.0000 0.0000 0.0000 9.5917
#
#
#
# Elastic Compliance Matrix: (Units=1/GPa)
#
#
# Indices 1 2 3 4 5 6 
#
# 1 0.015525 -0.004461 0.000166 0.000000 0.000000 0.000000
# 2 -0.004461 0.013247 0.000077 0.000000 0.000000 0.000000
# 3 0.000166 0.000077 0.020075 0.000000 0.000000 0.000000
# 4 0.000000 0.000000 0.000000 0.033524 0.000000 0.000000
# 5 0.000000 0.000000 0.000000 0.000000 0.108295 0.000000
# 6 0.000000 0.000000 0.000000 0.000000 0.000000 0.104257
#
#
# Mechanical properties :
#
#
# Convention : Reuss Voigt Hill
#
# Bulk Modulus (GPa) = 24.74516 27.81692 26.28104
# Shear Modulus (GPa) = 15.78137 21.85771 18.81954
#
# Velocity S-wave (km/s) = 2.71146 3.19105 2.96098
# Velocity P-wave (km/s) = 4.61851 5.15131 4.89217
#
# Compressibility (1/GPa) = 0.04041195
#
# Stress axis : x y z
#
# Youngs Moduli (GPa) = 64.41094 75.48606 49.81419
#
# Poissons Ratio (x) = 0.33672 -0.00825
# Poissons Ratio (y) = 0.28732 -0.00385
# Poissons Ratio (z) = -0.01067 -0.00583
#
# Static dielectric constant tensor:
#      x y z
#    x 1.791260 0.000000 0.000000 
#    y 0.000000 1.827780 0.000000 
#    z 0.000000 0.000000 1.847210 
# 
# From -- ./inp_files/953.got.cif
#   From: 2010.05.17/outbox.cif.g08.bks.cpg/sg36_1_cif.got.tgz:953.got - 2010.06.03 17:41:39.
