data_PCOD9352516
_publ_section_title
;
Structure prediction by ZEFSAII (Michael W. Deem and Ramdas Pophale) SiO2 
 PCOD9352516
Probable space group: C M C 21
;
_chemical_formula_sum "Si O2"
_cell_formula_units_Z 64
_cell_length_a 18.187672
_cell_length_b 13.719155
_cell_length_c 10.168182
_cell_angle_alpha 90.000000
_cell_angle_beta 90.000000
_cell_angle_gamma 90.000000
_cell_volume 2537.159600
_symmetry_space_group_name_H-M "C M C 21"
_symmetry_group_IT_number 36
_symmetry_cell_setting 'orthorhombic'
loop_
_space_group_symop_operation_xyz
x,y,z
-x,-y,1/2+z
x,-y,1/2+z
-x,y,z
1/2+x,1/2+y,z
1/2-x,1/2-y,1/2+z
1/2+x,1/2-y,1/2+z
1/2-x,1/2+y,z
loop_
_atom_site_type_symbol
_atom_site_label
_atom_site_fract_x
_atom_site_fract_y
_atom_site_fract_z
Si Si1 0.176577 0.356633 0.342740
Si Si2 0.420347 0.707670 0.506418
Si Si3 0.923661 0.633335 0.211061
Si Si4 0.367621 0.482372 0.148774
Si Si5 0.729280 0.955647 0.996342
Si Si6 0.911803 0.878831 0.421886
Si Si7 0.706471 0.786301 0.843148
Si Si8 0.580019 0.071201 0.613055
O O1 0.134522 0.279950 0.433860
O O2 0.217556 0.443111 0.420614
O O3 0.238760 0.289949 0.271778
O O4 0.112867 0.402527 0.254422
O O5 0.500000 0.705942 0.437615
O O6 0.429013 0.762751 0.644973
O O7 0.399341 0.600990 0.552353
O O8 0.841653 0.636949 0.262198
O O9 0.926189 0.545524 0.108445
O O10 0.000000 0.617609 0.291991
O O11 0.279614 0.478121 0.122591
O O12 0.395883 0.577766 0.068958
O O13 0.390452 0.453405 0.298648
O O14 0.759786 0.861895 0.919842
O O15 0.648800 0.909556 0.022576
O O16 0.856160 0.786191 0.405454
O O17 0.000000 0.858889 0.411455
O O18 0.500000 0.114967 0.592033
#
# Coordination Sequence:
#
# PCOD9352516 Si02
#       8
#     8   8   8   8   8   8   8   8
#     4  12  24  43  66  99 138 180 232 301 364 437
#     4  11  22  42  69  98 134 184 237 288 361 438
#     4  10  21  39  69  98 129 183 236 285 357 439
#     4  12  26  48  75 108 149 197 253 309 369 442
#     4  12  26  44  70 102 142 191 239 306 368 445
#     4  12  26  48  77 109 149 199 252 308 370 442
#     4  12  24  43  69 100 139 188 239 299 355 447
#     4  11  25  43  67 100 142 182 236 310 372 434
#
# _framework density 25.225059999999999
#
# number of rings (size 3 to 8) (size 9 to 14) (size 15 to 20)
#    0.000    0.500    6.250    2.625    0.000    1.500 
#    2.250    0.000    0.000    0.000    0.000    0.000 
#    0.000    0.000    0.000    0.000    0.000    0.000 
#
# Total GULP energy -178328.158759 kJ/mol
# GULP energy per Si atom -5572.754961 kJ/mol
# Density = 2.516765 g / cm^3
# Si number density = 25.225060 Si / 1000 Ang^3
#
#
#
# Elastic Constant Matrix: (Units=GPa)
#
#
# Indices 1 2 3 4 5 6 
#
# 1 115.2360 6.0836 5.2986 0.0000 0.0000 0.0000
# 2 6.0836 70.4657 -2.1007 0.0000 0.0000 0.0000
# 3 5.2986 -2.1007 39.0696 0.0000 0.0000 0.0000
# 4 0.0000 0.0000 0.0000 25.0275 0.0000 0.0000
# 5 0.0000 0.0000 0.0000 0.0000 24.8426 0.0000
# 6 0.0000 0.0000 0.0000 0.0000 0.0000 56.8042
#
#
#
# Elastic Compliance Matrix: (Units=1/GPa)
#
#
# Indices 1 2 3 4 5 6 
#
# 1 0.008776 -0.000794 -0.001233 0.000000 0.000000 0.000000
# 2 -0.000794 0.014286 0.000876 0.000000 0.000000 0.000000
# 3 -0.001233 0.000876 0.025810 0.000000 0.000000 0.000000
# 4 0.000000 0.000000 0.000000 0.039956 0.000000 0.000000
# 5 0.000000 0.000000 0.000000 0.000000 0.040253 0.000000
# 6 0.000000 0.000000 0.000000 0.000000 0.000000 0.017604
#
#
# Mechanical properties :
#
#
# Convention : Reuss Voigt Hill
#
# Bulk Modulus (GPa) = 21.47351 27.03714 24.25533
# Shear Modulus (GPa) = 30.39288 35.70082 33.04685
#
# Velocity S-wave (km/s) = 3.47489 3.76612 3.62343
# Velocity P-wave (km/s) = 4.96297 5.44547 5.20981
#
# Compressibility (1/GPa) = 0.04656900
#
# Stress axis : x y z
#
# Youngs Moduli (GPa) = 113.94090 69.99855 38.74517
#
# Poissons Ratio (x) = 0.05561 0.04777
# Poissons Ratio (y) = 0.09052 -0.03394
# Poissons Ratio (z) = 0.14049 -0.06131
#
# Static dielectric constant tensor:
#      x y z
#    x 2.292660 0.000000 0.000000 
#    y 0.000000 1.906440 0.000000 
#    z 0.000000 0.000000 2.146880 
# 
# From -- ./inp_files/8993.got.cif
#   From: 2010.05.17/outbox.cif.g08.bks.cpg/sg36_5_cif.got.tgz:8993.got - 2010.06.03 17:41:39.
