data_PCOD9352189
_publ_section_title
;
Structure prediction by ZEFSAII (Michael W. Deem and Ramdas Pophale) SiO2 
 PCOD9352189
Probable space group: C M C 21
;
_chemical_formula_sum "Si O2"
_cell_formula_units_Z 60
_cell_length_a 29.032658
_cell_length_b 20.779967
_cell_length_c 4.984902
_cell_angle_alpha 90.000000
_cell_angle_beta 90.000000
_cell_angle_gamma 90.000000
_cell_volume 3007.379788
_symmetry_space_group_name_H-M "C M C 21"
_symmetry_group_IT_number 36
_symmetry_cell_setting 'orthorhombic'
loop_
_space_group_symop_operation_xyz
x,y,z
-x,-y,1/2+z
x,-y,1/2+z
-x,y,z
1/2+x,1/2+y,z
1/2-x,1/2-y,1/2+z
1/2+x,1/2-y,1/2+z
1/2-x,1/2+y,z
loop_
_atom_site_type_symbol
_atom_site_label
_atom_site_fract_x
_atom_site_fract_y
_atom_site_fract_z
Si Si1 0.071499 0.633668 0.889290
Si Si2 0.220261 0.712010 0.475452
Si Si3 0.174982 0.636225 0.953507
Si Si4 0.351135 0.731480 0.706443
Si Si5 0.701039 0.671964 0.230827
Si Si6 0.762118 0.953409 0.525677
Si Si7 0.552832 0.780472 0.885753
Si Si8 0.500000 0.037679 0.647474
O O1 0.067399 0.692379 0.676223
O O2 0.043138 0.577854 0.751173
O O3 0.123289 0.611713 0.939274
O O4 0.053090 0.661423 0.169553
O O5 0.182162 0.783986 0.456799
O O6 0.258651 0.652812 0.455530
O O7 0.185086 0.672950 0.679596
O O8 0.244095 0.762181 0.711140
O O9 0.172873 0.695803 0.173181
O O10 0.212810 0.584371 0.022159
O O11 0.339893 0.692776 0.441442
O O12 0.404221 0.737153 0.782686
O O13 0.700912 0.603375 0.074393
O O14 0.765750 0.993418 0.254932
O O15 0.500000 0.755486 0.896795
O O16 0.500000 0.025690 0.332459
#
# Coordination Sequence:
#
# PCOD9352189 Si02
#       8
#     8   8   8   8   8   8   8   4
#     4  11  22  37  58  76 108 148 190 261 305 363
#     4  11  17  33  60  84 109 146 185 256 306 350
#     4  10  22  37  55  83 112 145 208 247 306 358
#     4  10  21  33  61  90 111 150 192 249 310 371
#     4  11  21  35  56  86 119 150 198 247 294 368
#     4  12  27  40  56  78 119 170 200 239 295 352
#     4  11  20  38  59  86 117 146 180 234 331 388
#     4  12  24  38  52  74  98 148 212 256 296 334
#
# _framework density 19.950921999999998
#
# number of rings (size 3 to 8) (size 9 to 14) (size 15 to 20)
#    0.000    1.067    5.333    2.400    1.867    1.067 
#    0.000    0.000    0.000    0.000    0.000    0.000 
#    0.000    1.067    0.000    0.000    0.000    0.000 
#
# Total GULP energy -167116.206642 kJ/mol
# GULP energy per Si atom -5570.540221 kJ/mol
# Density = 1.990551 g / cm^3
# Si number density = 19.950922 Si / 1000 Ang^3
#
#
#
# Elastic Constant Matrix: (Units=GPa)
#
#
# Indices 1 2 3 4 5 6 
#
# 1 123.5216 24.6836 13.4666 0.0000 0.0000 0.0000
# 2 24.6836 88.1400 29.4934 0.0000 0.0000 0.0000
# 3 13.4666 29.4934 127.9672 0.0000 0.0000 0.0000
# 4 0.0000 0.0000 0.0000 41.1347 0.0000 0.0000
# 5 0.0000 0.0000 0.0000 0.0000 23.9883 0.0000
# 6 0.0000 0.0000 0.0000 0.0000 0.0000 -87.9693
#
#
#
# Elastic Compliance Matrix: (Units=1/GPa)
#
#
# Indices 1 2 3 4 5 6 
#
# 1 0.008593 -0.002280 -0.000379 0.000000 0.000000 0.000000
# 2 -0.002280 0.012898 -0.002733 0.000000 0.000000 0.000000
# 3 -0.000379 -0.002733 0.008484 0.000000 0.000000 0.000000
# 4 0.000000 0.000000 0.000000 0.024310 0.000000 0.000000
# 5 0.000000 0.000000 0.000000 0.000000 0.041687 0.000000
# 6 0.000000 0.000000 0.000000 0.000000 0.000000 -0.011368
#
#
# Mechanical properties :
#
#
# Convention : Reuss Voigt Hill
#
# Bulk Modulus (GPa) = 52.10333 52.76845 52.43589
# Shear Modulus (GPa) = 49.12305 13.56310 31.34307
#
# Velocity S-wave (km/s) = 4.96743 2.61017 3.96790
# Velocity P-wave (km/s) = 7.68589 5.96578 6.87981
#
# Compressibility (1/GPa) = 0.01919263
#
# Stress axis : x y z
#
# Youngs Moduli (GPa) = 116.37934 77.52853 117.86562
#
# Poissons Ratio (x) = 0.17673 0.04465
# Poissons Ratio (y) = 0.26530 0.32212
# Poissons Ratio (z) = 0.04409 0.21188
#
# Static dielectric constant tensor:
#      x y z
#    x 1.764870 0.000000 0.000000 
#    y 0.000000 1.791590 0.000000 
#    z 0.000000 0.000000 1.932200 
# 
# From -- ./inp_files/1895.got.cif
#   From: 2010.05.17/outbox.cif.g08.bks.cpg/sg36_1_cif.got.tgz:1895.got - 2010.06.03 17:41:39.
