data_PCOD9352239
_publ_section_title
;
Structure prediction by ZEFSAII (Michael W. Deem and Ramdas Pophale) SiO2 
 PCOD9352239
Probable space group: C M C 21
;
_chemical_formula_sum "Si O2"
_cell_formula_units_Z 56
_cell_length_a 21.204708
_cell_length_b 26.502331
_cell_length_c 4.966478
_cell_angle_alpha 90.000000
_cell_angle_beta 90.000000
_cell_angle_gamma 90.000000
_cell_volume 2791.032452
_symmetry_space_group_name_H-M "C M C 21"
_symmetry_group_IT_number 36
_symmetry_cell_setting 'orthorhombic'
loop_
_space_group_symop_operation_xyz
x,y,z
-x,-y,1/2+z
x,-y,1/2+z
-x,y,z
1/2+x,1/2+y,z
1/2-x,1/2-y,1/2+z
1/2+x,1/2-y,1/2+z
1/2-x,1/2+y,z
loop_
_atom_site_type_symbol
_atom_site_label
_atom_site_fract_x
_atom_site_fract_y
_atom_site_fract_z
Si Si1 0.235714 0.531392 0.574360
Si Si2 0.888176 0.032113 0.538922
Si Si3 0.148475 0.733655 0.484551
Si Si4 0.268914 0.137006 0.379316
Si Si5 0.071447 0.241341 0.478012
Si Si6 0.690868 0.657915 0.887762
Si Si7 0.928910 0.130716 0.221967
O O1 0.219858 0.486429 0.370983
O O2 0.311926 0.537858 0.543653
O O3 0.205964 0.583791 0.483644
O O4 0.916331 0.082577 0.411182
O O5 0.905683 0.986122 0.336802
O O6 0.182960 0.682838 0.403315
O O7 0.092054 0.748234 0.281667
O O8 0.193041 0.782661 0.457557
O O9 0.120828 0.731270 0.783050
O O10 0.242162 0.131838 0.079685
O O11 0.210618 0.150613 0.580409
O O12 0.075215 0.182359 0.396086
O O13 0.000000 0.257798 0.430881
O O14 0.624108 0.636073 0.989884
O O15 0.000000 0.128130 0.110247
#
# Coordination Sequence:
#
# PCOD9352239 Si02
#       7
#     8   8   8   8   8   8   8
#     4  10  21  36  55  78 106 148 185 225 285 336
#     4  10  22  36  54  72 102 143 194 249 290 321
#     4  11  22  36  58  88 112 144 188 219 276 340
#     4  12  22  37  59  82 115 144 181 236 281 338
#     4  10  22  40  59  82 118 149 179 224 274 336
#     4  11  22  36  55  80 114 146 181 235 292 331
#     4  10  22  39  57  78 106 152 201 240 284 330
#
# _framework density 20.064260000000001
#
# number of rings (size 3 to 8) (size 9 to 14) (size 15 to 20)
#    0.000    1.429    1.429    4.714    4.000    2.286 
#    0.000    5.000    0.000    0.000    0.000    0.000 
#    0.000   11.429    0.000    0.000    0.000    0.000 
#
# Total GULP energy -156687.827903 kJ/mol
# GULP energy per Si atom -5595.993854 kJ/mol
# Density = 2.001859 g / cm^3
# Si number density = 20.064260 Si / 1000 Ang^3
#
#
#
# Elastic Constant Matrix: (Units=GPa)
#
#
# Indices 1 2 3 4 5 6 
#
# 1 32.6664 24.1163 -2.2839 0.0000 0.0000 0.0000
# 2 24.1163 82.5910 -6.8575 0.0000 0.0000 0.0000
# 3 -2.2839 -6.8575 46.5042 0.0000 0.0000 0.0000
# 4 0.0000 0.0000 0.0000 16.5466 0.0000 0.0000
# 5 0.0000 0.0000 0.0000 0.0000 12.5945 0.0000
# 6 0.0000 0.0000 0.0000 0.0000 0.0000 16.9514
#
#
#
# Elastic Compliance Matrix: (Units=1/GPa)
#
#
# Indices 1 2 3 4 5 6 
#
# 1 0.039028 -0.011376 0.000239 0.000000 0.000000 0.000000
# 2 -0.011376 0.015574 0.001738 0.000000 0.000000 0.000000
# 3 0.000239 0.001738 0.021771 0.000000 0.000000 0.000000
# 4 0.000000 0.000000 0.000000 0.060435 0.000000 0.000000
# 5 0.000000 0.000000 0.000000 0.000000 0.079400 0.000000
# 6 0.000000 0.000000 0.000000 0.000000 0.000000 0.058992
#
#
# Mechanical properties :
#
#
# Convention : Reuss Voigt Hill
#
# Bulk Modulus (GPa) = 17.36868 21.30127 19.33497
# Shear Modulus (GPa) = 15.96471 19.00426 17.48449
#
# Velocity S-wave (km/s) = 2.82384 3.08095 2.95519
# Velocity P-wave (km/s) = 4.39402 4.82658 4.61537
#
# Compressibility (1/GPa) = 0.05757491
#
# Stress axis : x y z
#
# Youngs Moduli (GPa) = 25.62277 64.20981 45.93176
#
# Poissons Ratio (x) = 0.73046 -0.01098
# Poissons Ratio (y) = 0.29149 -0.07982
# Poissons Ratio (z) = -0.00613 -0.11159
#
# Static dielectric constant tensor:
#      x y z
#    x 1.701780 0.000000 0.000000 
#    y 0.000000 1.724900 0.000000 
#    z 0.000000 0.000000 1.714620 
# 
# From -- ./inp_files/1460.got.cif
#   From: 2010.05.17/outbox.cif.g08.bks.cpg/sg36_1_cif.got.tgz:1460.got - 2010.06.03 17:41:39.
