data_PCOD9352433
_publ_section_title
;
Structure prediction by ZEFSAII (Michael W. Deem and Ramdas Pophale) SiO2 
 PCOD9352433
Probable space group: C M C 21
;
_chemical_formula_sum "Si O2"
_cell_formula_units_Z 60
_cell_length_a 20.214170
_cell_length_b 10.837173
_cell_length_c 14.370845
_cell_angle_alpha 90.000000
_cell_angle_beta 90.000000
_cell_angle_gamma 90.000000
_cell_volume 3148.141361
_symmetry_space_group_name_H-M "C M C 21"
_symmetry_group_IT_number 36
_symmetry_cell_setting 'orthorhombic'
loop_
_space_group_symop_operation_xyz
x,y,z
-x,-y,1/2+z
x,-y,1/2+z
-x,y,z
1/2+x,1/2+y,z
1/2-x,1/2-y,1/2+z
1/2+x,1/2-y,1/2+z
1/2-x,1/2+y,z
loop_
_atom_site_type_symbol
_atom_site_label
_atom_site_fract_x
_atom_site_fract_y
_atom_site_fract_z
Si Si1 0.619588 0.178303 0.808370
Si Si2 0.578955 0.675677 0.701578
Si Si3 0.500000 0.000000 0.344011
Si Si4 0.347566 0.418522 0.485153
Si Si5 0.652434 0.581478 0.202869
Si Si6 0.735972 0.000000 0.844011
Si Si7 0.421045 0.324323 0.986444
Si Si8 0.380412 0.178303 0.379653
O O1 0.558392 0.086607 0.797088
O O2 0.619119 0.293804 0.739349
O O3 0.687887 0.103816 0.801784
O O4 0.612878 0.234872 0.912487
O O5 0.500000 0.683124 0.716041
O O6 0.604826 0.536924 0.716497
O O7 0.592672 0.709144 0.594011
O O8 0.612878 0.765128 0.775536
O O9 0.441608 0.086607 0.390935
O O10 0.331754 0.410144 0.594011
O O11 0.283179 0.443340 0.422690
O O12 0.395174 0.536924 0.471525
O O13 0.380881 0.293804 0.448674
O O14 0.716821 0.556660 0.265332
O O15 0.687887 0.896184 0.886239
O O16 0.500000 0.316877 0.971982
#
# Coordination Sequence:
#
# PCOD9352433 Si02
#       8
#     8   8   4   8   8   8   8   8
#     4  11  22  42  64  90 127 166 206 259 314 377
#     4  10  21  38  65  95 122 163 210 258 318 372
#     4  10  24  40  68  92 122 164 196 258 324 368
#     4  11  24  40  64  94 125 165 212 264 312 369
#     4  11  24  40  64  94 125 165 212 264 312 369
#     4  11  24  41  61  94 125 170 218 248 319 372
#     4  10  21  38  65  95 122 163 210 258 318 372
#     4  11  22  42  64  90 127 166 206 259 314 377
#
# _framework density 19.058864
#
# number of rings (size 3 to 8) (size 9 to 14) (size 15 to 20)
#    0.000    1.333    4.000    0.800    1.867    3.200 
#    0.000    5.333    0.000    0.000    0.000    0.000 
#    0.000    0.000    0.000    0.000    0.000    0.000 
#
# Total GULP energy -167075.279794 kJ/mol
# GULP energy per Si atom -5569.175993 kJ/mol
# Density = 1.901548 g / cm^3
# Si number density = 19.058864 Si / 1000 Ang^3
#
#
#
# Elastic Constant Matrix: (Units=GPa)
#
#
# Indices 1 2 3 4 5 6 
#
# 1 81.9625 24.6820 28.3137 0.0000 0.0000 0.0000
# 2 24.6820 43.4873 5.5272 0.0000 0.0000 0.0000
# 3 28.3137 5.5272 53.6283 0.0000 0.0000 0.0000
# 4 0.0000 0.0000 0.0000 13.9863 0.0000 0.0000
# 5 0.0000 0.0000 0.0000 0.0000 -15.8969 0.0000
# 6 0.0000 0.0000 0.0000 0.0000 0.0000 -9.8503
#
#
#
# Elastic Compliance Matrix: (Units=1/GPa)
#
#
# Indices 1 2 3 4 5 6 
#
# 1 0.017864 -0.009059 -0.008498 0.000000 0.000000 0.000000
# 2 -0.009059 0.027894 0.001908 0.000000 0.000000 0.000000
# 3 -0.008498 0.001908 0.022937 0.000000 0.000000 0.000000
# 4 0.000000 0.000000 0.000000 0.071499 0.000000 0.000000
# 5 0.000000 0.000000 0.000000 0.000000 -0.062905 0.000000
# 6 0.000000 0.000000 0.000000 0.000000 0.000000 -0.101520
#
#
# Mechanical properties :
#
#
# Convention : Reuss Voigt Hill
#
# Bulk Modulus (GPa) = 26.74001 32.90268 29.82135
# Shear Modulus (GPa) = 255.97424 5.68484 130.82954
#
# Velocity S-wave (km/s) = 11.60167 1.72895 8.29422
# Velocity P-wave (km/s) = 13.91135 4.61377 10.36370
#
# Compressibility (1/GPa) = 0.03739714
#
# Stress axis : x y z
#
# Youngs Moduli (GPa) = 55.97731 35.84950 43.59797
#
# Poissons Ratio (x) = 0.32477 0.37050
# Poissons Ratio (y) = 0.50711 -0.08318
# Poissons Ratio (z) = 0.47570 -0.06840
#
# Static dielectric constant tensor:
#      x y z
#    x 1.630590 0.000000 0.000000 
#    y 0.000000 1.681770 0.000000 
#    z 0.000000 0.000000 1.649570 
# 
# From -- ./inp_files/12600.got.cif
#   From: 2010.05.17/outbox.cif.g08.bks.cpg/sg36_7_cif.got.tgz:12600.got - 2010.06.03 17:41:39.
