data_PCOD9352435
_publ_section_title
;
Structure prediction by ZEFSAII (Michael W. Deem and Ramdas Pophale) SiO2 
 PCOD9352435
Probable space group: C M C 21
;
_chemical_formula_sum "Si O2"
_cell_formula_units_Z 64
_cell_length_a 28.485728
_cell_length_b 10.575960
_cell_length_c 10.758603
_cell_angle_alpha 90.000000
_cell_angle_beta 90.000000
_cell_angle_gamma 90.000000
_cell_volume 3241.178912
_symmetry_space_group_name_H-M "C M C 21"
_symmetry_group_IT_number 36
_symmetry_cell_setting 'orthorhombic'
loop_
_space_group_symop_operation_xyz
x,y,z
-x,-y,1/2+z
x,-y,1/2+z
-x,y,z
1/2+x,1/2+y,z
1/2-x,1/2-y,1/2+z
1/2+x,1/2-y,1/2+z
1/2-x,1/2+y,z
loop_
_atom_site_type_symbol
_atom_site_label
_atom_site_fract_x
_atom_site_fract_y
_atom_site_fract_z
Si Si1 0.554239 0.133084 0.705610
Si Si2 0.108692 0.274382 0.964809
Si Si3 0.649904 0.834221 0.314909
Si Si4 0.946999 0.669411 0.219334
Si Si5 0.816922 0.608176 0.299864
Si Si6 0.638448 0.244301 0.074830
Si Si7 0.708082 0.413403 0.757172
Si Si8 0.665079 0.522513 0.002028
O O1 0.500000 0.177236 0.714953
O O2 0.577109 0.162620 0.571381
O O3 0.594381 0.188897 0.795423
O O4 0.553611 0.982710 0.730156
O O5 0.128356 0.137602 0.002706
O O6 0.076717 0.272433 0.841765
O O7 0.154966 0.354037 0.924655
O O8 0.659047 0.835700 0.461521
O O9 0.679984 0.719081 0.262056
O O10 0.664280 0.969602 0.260731
O O11 0.914449 0.705579 0.104664
O O12 0.000000 0.711983 0.204891
O O13 0.832569 0.710095 0.197428
O O14 0.761210 0.605630 0.301665
O O15 0.641500 0.389430 0.036452
O O16 0.702568 0.457907 0.614270
O O17 0.685580 0.505222 0.862596
#
# Coordination Sequence:
#
# PCOD9352435 Si02
#       8
#     8   8   8   8   8   8   8   8
#     4  11  22  39  67  98 127 169 219 279 338 386
#     4  11  22  42  64  91 130 177 217 274 326 410
#     4  11  23  41  62  99 133 166 224 278 324 404
#     4  10  21  38  65  96 126 164 215 276 341 395
#     4  11  25  39  68  95 134 169 219 272 336 390
#     4  10  23  42  61  92 132 170 213 272 329 395
#     4  11  26  41  67  99 132 181 223 269 332 396
#     4  11  25  44  67  88 136 176 224 266 330 394
#
# _framework density 19.745901
#
# number of rings (size 3 to 8) (size 9 to 14) (size 15 to 20)
#    0.000    1.250    3.750    2.625    5.250    1.500 
#    0.000    1.250    0.000    0.750    0.000    0.000 
#    0.000    0.000    0.000    0.000    0.000    0.000 
#
# Total GULP energy -178597.067699 kJ/mol
# GULP energy per Si atom -5581.158366 kJ/mol
# Density = 1.970096 g / cm^3
# Si number density = 19.745901 Si / 1000 Ang^3
#
#
#
# Elastic Constant Matrix: (Units=GPa)
#
#
# Indices 1 2 3 4 5 6 
#
# 1 119.4023 33.4330 -11.0834 0.0000 0.0000 0.0000
# 2 33.4330 60.9487 19.9693 0.0000 0.0000 0.0000
# 3 -11.0834 19.9693 48.4850 0.0000 0.0000 0.0000
# 4 0.0000 0.0000 0.0000 22.6149 0.0000 0.0000
# 5 0.0000 0.0000 0.0000 0.0000 18.3384 0.0000
# 6 0.0000 0.0000 0.0000 0.0000 0.0000 -8.0975
#
#
#
# Elastic Compliance Matrix: (Units=1/GPa)
#
#
# Indices 1 2 3 4 5 6 
#
# 1 0.011175 -0.008054 0.005872 0.000000 0.000000 0.000000
# 2 -0.008054 0.024771 -0.012043 0.000000 0.000000 0.000000
# 3 0.005872 -0.012043 0.026927 0.000000 0.000000 0.000000
# 4 0.000000 0.000000 0.000000 0.044219 0.000000 0.000000
# 5 0.000000 0.000000 0.000000 0.000000 0.054531 0.000000
# 6 0.000000 0.000000 0.000000 0.000000 0.000000 -0.123496
#
#
# Mechanical properties :
#
#
# Convention : Reuss Voigt Hill
#
# Bulk Modulus (GPa) = 29.05078 34.83044 31.94061
# Shear Modulus (GPa) = 64.05925 19.00563 41.53244
#
# Velocity S-wave (km/s) = 5.70195 3.10580 4.59120
# Velocity P-wave (km/s) = 7.62193 5.52621 6.65706
#
# Compressibility (1/GPa) = 0.03442249
#
# Stress axis : x y z
#
# Youngs Moduli (GPa) = 89.48388 40.36967 37.13683
#
# Poissons Ratio (x) = 0.32513 -0.21806
# Poissons Ratio (y) = 0.72069 0.44725
# Poissons Ratio (z) = -0.52542 0.48619
#
# Static dielectric constant tensor:
#      x y z
#    x 1.684120 0.000000 0.000000 
#    y 0.000000 1.684750 0.000000 
#    z 0.000000 0.000000 1.733500 
# 
# From -- ./inp_files/9747.got.cif
#   From: 2010.05.17/outbox.cif.g08.bks.cpg/sg36_5_cif.got.tgz:9747.got - 2010.06.03 17:41:39.
