data_PCOD9352518
_publ_section_title
;
Structure prediction by ZEFSAII (Michael W. Deem and Ramdas Pophale) SiO2 
 PCOD9352518
Probable space group: C M C 21
;
_chemical_formula_sum "Si O2"
_cell_formula_units_Z 40
_cell_length_a 12.740410
_cell_length_b 24.807487
_cell_length_c 5.325112
_cell_angle_alpha 90.000000
_cell_angle_beta 90.000000
_cell_angle_gamma 90.000000
_cell_volume 1683.041881
_symmetry_space_group_name_H-M "C M C 21"
_symmetry_group_IT_number 36
_symmetry_cell_setting 'orthorhombic'
loop_
_space_group_symop_operation_xyz
x,y,z
-x,-y,1/2+z
x,-y,1/2+z
-x,y,z
1/2+x,1/2+y,z
1/2-x,1/2-y,1/2+z
1/2+x,1/2-y,1/2+z
1/2-x,1/2+y,z
loop_
_atom_site_type_symbol
_atom_site_label
_atom_site_fract_x
_atom_site_fract_y
_atom_site_fract_z
Si Si1 0.388188 0.699629 0.390520
Si Si2 0.299208 0.470192 0.210198
Si Si3 0.119500 0.420709 0.942052
Si Si4 0.824920 0.308254 0.189917
Si Si5 0.720420 0.379635 0.554357
O O1 0.500000 0.697392 0.523110
O O2 0.287031 0.703877 0.565020
O O3 0.385621 0.752878 0.216609
O O4 0.367408 0.646551 0.225696
O O5 0.336295 0.506886 0.443885
O O6 0.174425 0.459503 0.148741
O O7 0.326097 0.410559 0.313687
O O8 0.123472 0.359039 0.047653
O O9 0.000000 0.434727 0.882957
O O10 0.202091 0.418758 0.710961
O O11 0.796588 0.332019 0.462598
#
# Coordination Sequence:
#
# PCOD9352518 Si02
#       5
#     8   8   8   8   8
#     4  11  22  39  65  95 135 184 234 288 342 413
#     4  11  22  42  65  93 129 178 223 288 354 408
#     4  10  22  38  61  93 132 177 226 281 340 419
#     4  10  21  40  57  93 136 178 228 279 347 410
#     4  10  22  41  63  92 134 177 234 282 346 418
#
# _framework density 23.766490000000001
#
# number of rings (size 3 to 8) (size 9 to 14) (size 15 to 20)
#    0.000    1.600    4.000    0.600    0.000    5.600 
#    0.000    0.000    0.000    1.200    0.000    0.000 
#    0.000    0.000    0.000    0.000    0.000    0.000 
#
# Total GULP energy -111563.762408 kJ/mol
# GULP energy per Si atom -5578.188120 kJ/mol
# Density = 2.371240 g / cm^3
# Si number density = 23.766490 Si / 1000 Ang^3
#
#
#
# Elastic Constant Matrix: (Units=GPa)
#
#
# Indices 1 2 3 4 5 6 
#
# 1 84.1048 5.4544 13.1906 0.0000 0.0000 0.0000
# 2 5.4544 95.9530 29.8383 0.0000 0.0000 0.0000
# 3 13.1906 29.8383 106.1724 0.0000 0.0000 0.0000
# 4 0.0000 0.0000 0.0000 49.1765 0.0000 0.0000
# 5 0.0000 0.0000 0.0000 0.0000 4.9244 0.0000
# 6 0.0000 0.0000 0.0000 0.0000 0.0000 10.1014
#
#
#
# Elastic Compliance Matrix: (Units=1/GPa)
#
#
# Indices 1 2 3 4 5 6 
#
# 1 0.012131 -0.000242 -0.001439 0.000000 0.000000 0.000000
# 2 -0.000242 0.011425 -0.003181 0.000000 0.000000 0.000000
# 3 -0.001439 -0.003181 0.010491 0.000000 0.000000 0.000000
# 4 0.000000 0.000000 0.000000 0.020335 0.000000 0.000000
# 5 0.000000 0.000000 0.000000 0.000000 0.203070 0.000000
# 6 0.000000 0.000000 0.000000 0.000000 0.000000 0.098997
#
#
# Mechanical properties :
#
#
# Convention : Reuss Voigt Hill
#
# Bulk Modulus (GPa) = 41.11247 42.57744 41.84495
# Shear Modulus (GPa) = 13.35896 28.69024 21.02460
#
# Velocity S-wave (km/s) = 2.37342 3.47821 2.97750
# Velocity P-wave (km/s) = 4.98467 5.83818 5.42822
#
# Compressibility (1/GPa) = 0.02432352
#
# Stress axis : x y z
#
# Youngs Moduli (GPa) = 82.43112 87.53037 95.31692
#
# Poissons Ratio (x) = 0.02119 0.13717
# Poissons Ratio (y) = 0.01995 0.30317
# Poissons Ratio (z) = 0.11863 0.27840
#
# Static dielectric constant tensor:
#      x y z
#    x 1.825600 0.000000 0.000000 
#    y 0.000000 2.002250 0.000000 
#    z 0.000000 0.000000 1.974690 
# 
# From -- ./inp_files/503.got.cif
#   From: 2010.05.17/outbox.cif.g08.bks.cpg/sg36_1_cif.got.tgz:503.got - 2010.06.03 17:41:39.
