data_PCOD9352658
_publ_section_title
;
Structure prediction by ZEFSAII (Michael W. Deem and Ramdas Pophale) SiO2 
 PCOD9352658
Probable space group: C M C 21
;
_chemical_formula_sum "Si O2"
_cell_formula_units_Z 40
_cell_length_a 10.878919
_cell_length_b 8.828402
_cell_length_c 17.991153
_cell_angle_alpha 90.000000
_cell_angle_beta 90.000000
_cell_angle_gamma 90.000000
_cell_volume 1727.932768
_symmetry_space_group_name_H-M "C M C 21"
_symmetry_group_IT_number 36
_symmetry_cell_setting 'orthorhombic'
loop_
_space_group_symop_operation_xyz
x,y,z
-x,-y,1/2+z
x,-y,1/2+z
-x,y,z
1/2+x,1/2+y,z
1/2-x,1/2-y,1/2+z
1/2+x,1/2-y,1/2+z
1/2-x,1/2+y,z
loop_
_atom_site_type_symbol
_atom_site_label
_atom_site_fract_x
_atom_site_fract_y
_atom_site_fract_z
Si Si1 0.368781 0.072101 0.420990
Si Si2 0.190637 0.260603 0.774817
Si Si3 0.638429 0.733252 0.071133
Si Si4 0.360663 0.949963 0.628668
Si Si5 0.363167 0.463811 0.837803
O O1 0.500000 0.986778 0.425938
O O2 0.376467 0.178251 0.348597
O O3 0.356476 0.173914 0.494076
O O4 0.238815 0.994632 0.400392
O O5 0.150396 0.360595 0.705746
O O6 0.329290 0.303679 0.799623
O O7 0.157795 0.085943 0.772405
O O8 0.500000 0.668468 0.078474
O O9 0.750046 0.617555 0.079506
O O10 0.653709 0.868349 0.132083
O O11 0.500000 0.924294 0.599724
O O12 0.500000 0.467478 0.866778
#
# Coordination Sequence:
#
# PCOD9352658 Si02
#       5
#     8   8   8   8   8
#     4   9  21  40  62  87 122 161 200 250 305 354
#     4  10  22  39  64  87 122 158 201 251 303 350
#     4  10  24  41  60  89 124 161 203 247 301 365
#     4  11  23  41  62  89 124 162 203 248 303 363
#     4  10  22  37  60  90 116 150 203 250 298 358
#
# _framework density 23.149049000000002
#
# number of rings (size 3 to 8) (size 9 to 14) (size 15 to 20)
#    1.200    0.800    0.000    3.000    2.800    3.200 
#    0.000    0.000    0.000    0.000    0.000    0.000 
#    0.000    0.000    0.000    0.000    0.000    0.000 
#
# Total GULP energy -111441.818574 kJ/mol
# GULP energy per Si atom -5572.090929 kJ/mol
# Density = 2.309636 g / cm^3
# Si number density = 23.149049 Si / 1000 Ang^3
#
#
#
# Elastic Constant Matrix: (Units=GPa)
#
#
# Indices 1 2 3 4 5 6 
#
# 1 211.8773 44.3664 14.8922 0.0000 0.0000 0.0000
# 2 44.3664 38.6694 0.1033 0.0000 0.0000 0.0000
# 3 14.8922 0.1033 53.1554 0.0000 0.0000 0.0000
# 4 0.0000 0.0000 0.0000 25.3843 0.0000 0.0000
# 5 0.0000 0.0000 0.0000 0.0000 0.7728 0.0000
# 6 0.0000 0.0000 0.0000 0.0000 0.0000 17.2792
#
#
#
# Elastic Compliance Matrix: (Units=1/GPa)
#
#
# Indices 1 2 3 4 5 6 
#
# 1 0.006375 -0.007309 -0.001772 0.000000 0.000000 0.000000
# 2 -0.007309 0.034241 0.001981 0.000000 0.000000 0.000000
# 3 -0.001772 0.001981 0.019305 0.000000 0.000000 0.000000
# 4 0.000000 0.000000 0.000000 0.039394 0.000000 0.000000
# 5 0.000000 0.000000 0.000000 0.000000 1.294053 0.000000
# 6 0.000000 0.000000 0.000000 0.000000 0.000000 0.057873
#
#
# Mechanical properties :
#
#
# Convention : Reuss Voigt Hill
#
# Bulk Modulus (GPa) = 21.87151 46.93622 34.40386
# Shear Modulus (GPa) = 3.37682 24.97661 14.17671
#
# Velocity S-wave (km/s) = 1.20909 3.28830 2.47738
# Velocity P-wave (km/s) = 3.37903 5.89380 4.80389
#
# Compressibility (1/GPa) = 0.04572159
#
# Stress axis : x y z
#
# Youngs Moduli (GPa) = 156.86846 29.20476 51.79923
#
# Poissons Ratio (x) = 0.21346 0.09178
# Poissons Ratio (y) = 1.14658 -0.10263
# Poissons Ratio (z) = 0.27794 -0.05786
#
# Static dielectric constant tensor:
#      x y z
#    x 1.931760 0.000000 0.000000 
#    y 0.000000 1.873640 0.000000 
#    z 0.000000 0.000000 1.902300 
# 
# From -- ./inp_files/13308.got.cif
#   From: 2010.05.17/outbox.cif.g08.bks.cpg/sg36_7_cif.got.tgz:13308.got - 2010.06.03 17:41:39.
