data_PCOD9352266
_publ_section_title
;
Structure prediction by ZEFSAII (Michael W. Deem and Ramdas Pophale) SiO2 
 PCOD9352266
Probable space group: C M C 21
;
_chemical_formula_sum "Si O2"
_cell_formula_units_Z 64
_cell_length_a 15.458727
_cell_length_b 22.776643
_cell_length_c 8.150469
_cell_angle_alpha 90.000000
_cell_angle_beta 90.000000
_cell_angle_gamma 90.000000
_cell_volume 2869.763069
_symmetry_space_group_name_H-M "C M C 21"
_symmetry_group_IT_number 36
_symmetry_cell_setting 'orthorhombic'
loop_
_space_group_symop_operation_xyz
x,y,z
-x,-y,1/2+z
x,-y,1/2+z
-x,y,z
1/2+x,1/2+y,z
1/2-x,1/2-y,1/2+z
1/2+x,1/2-y,1/2+z
1/2-x,1/2+y,z
loop_
_atom_site_type_symbol
_atom_site_label
_atom_site_fract_x
_atom_site_fract_y
_atom_site_fract_z
Si Si1 0.907315 0.571254 0.161280
Si Si2 0.264471 0.129415 0.679731
Si Si3 0.224010 0.822048 0.818336
Si Si4 0.903531 0.936421 0.153723
Si Si5 0.401575 0.219173 0.833337
Si Si6 0.838016 0.944901 0.797229
Si Si7 0.672959 0.977216 0.348945
Si Si8 0.595269 0.796055 0.723398
O O1 0.901679 0.521309 0.296772
O O2 0.898520 0.633700 0.246797
O O3 0.000000 0.572366 0.076083
O O4 0.841235 0.557496 0.016115
O O5 0.246127 0.156592 0.502341
O O6 0.168633 0.106461 0.735325
O O7 0.329168 0.173339 0.772323
O O8 0.314997 0.067847 0.698642
O O9 0.139043 0.782624 0.799004
O O10 0.200379 0.883708 0.727090
O O11 0.307159 0.780389 0.776506
O O12 0.000000 0.921895 0.208477
O O13 0.884986 0.005649 0.188520
O O14 0.894233 0.929019 0.957294
O O15 0.500000 0.210262 0.768970
O O16 0.407076 0.214206 0.029538
O O17 0.755953 0.981469 0.862645
O O18 0.500000 0.776297 0.789332
#
# Coordination Sequence:
#
# PCOD9352266 Si02
#       8
#     8   8   8   8   8   8   8   8
#     4  11  21  33  55  87 121 161 202 244 297 358
#     4  10  23  40  61  88 124 160 195 251 310 356
#     4  11  22  40  63  90 120 161 205 254 297 358
#     4  10  21  37  60  89 122 158 196 244 303 360
#     4  11  24  43  65  87 117 161 206 249 304 360
#     4  10  21  36  58  88 122 158 197 244 297 355
#     4  11  20  37  57  86 125 161 195 246 307 360
#     4  10  22  40  60  87 123 160 202 252 299 357
#
# _framework density 22.301492
#
# number of rings (size 3 to 8) (size 9 to 14) (size 15 to 20)
#    0.000    1.500    2.500    3.750    0.000    3.500 
#    0.000    0.625    0.000    2.250    0.000    0.000 
#    0.000    0.000    0.000    0.000    0.000    0.000 
#
# Total GULP energy -178257.622435 kJ/mol
# GULP energy per Si atom -5570.550701 kJ/mol
# Density = 2.225073 g / cm^3
# Si number density = 22.301492 Si / 1000 Ang^3
#
#
#
# Elastic Constant Matrix: (Units=GPa)
#
#
# Indices 1 2 3 4 5 6 
#
# 1 155.1949 46.5784 7.7614 0.0000 0.0000 0.0000
# 2 46.5784 69.2214 7.2757 0.0000 0.0000 0.0000
# 3 7.7614 7.2757 21.3401 0.0000 0.0000 0.0000
# 4 0.0000 0.0000 0.0000 9.0272 0.0000 0.0000
# 5 0.0000 0.0000 0.0000 0.0000 22.4317 0.0000
# 6 0.0000 0.0000 0.0000 0.0000 0.0000 -106.3520
#
#
#
# Elastic Compliance Matrix: (Units=1/GPa)
#
#
# Indices 1 2 3 4 5 6 
#
# 1 0.008100 -0.005332 -0.001128 0.000000 0.000000 0.000000
# 2 -0.005332 0.018493 -0.004366 0.000000 0.000000 0.000000
# 3 -0.001128 -0.004366 0.048759 0.000000 0.000000 0.000000
# 4 0.000000 0.000000 0.000000 0.110776 0.000000 0.000000
# 5 0.000000 0.000000 0.000000 0.000000 0.044580 0.000000
# 6 0.000000 0.000000 0.000000 0.000000 0.000000 -0.009403
#
#
# Mechanical properties :
#
#
# Convention : Reuss Voigt Hill
#
# Bulk Modulus (GPa) = 18.62186 40.99862 29.81024
# Shear Modulus (GPa) = 19.16757 -2.70257 8.23250
#
# Velocity S-wave (km/s) = 2.93486 -1.10203 1.92340
# Velocity P-wave (km/s) = 4.45564 4.09932 4.28119
#
# Compressibility (1/GPa) = 0.05370033
#
# Stress axis : x y z
#
# Youngs Moduli (GPa) = 123.45363 54.07421 20.50907
#
# Poissons Ratio (x) = 0.28832 0.02314
# Poissons Ratio (y) = 0.65825 0.08954
# Poissons Ratio (z) = 0.13928 0.23608
#
# Static dielectric constant tensor:
#      x y z
#    x 1.953180 0.000000 0.000000 
#    y 0.000000 1.858060 0.000000 
#    z 0.000000 0.000000 1.854930 
# 
# From -- ./inp_files/4327.got.cif
#   From: 2010.05.17/outbox.cif.g08.bks.cpg/sg36_3_cif.got.tgz:4327.got - 2010.06.03 17:41:39.
