data_PCOD9352375
_publ_section_title
;
Structure prediction by ZEFSAII (Michael W. Deem and Ramdas Pophale) SiO2 
 PCOD9352375
Probable space group: C M C 21
;
_chemical_formula_sum "Si O2"
_cell_formula_units_Z 64
_cell_length_a 8.950316
_cell_length_b 16.621281
_cell_length_c 19.529944
_cell_angle_alpha 90.000000
_cell_angle_beta 90.000000
_cell_angle_gamma 90.000000
_cell_volume 2905.386127
_symmetry_space_group_name_H-M "C M C 21"
_symmetry_group_IT_number 36
_symmetry_cell_setting 'orthorhombic'
loop_
_space_group_symop_operation_xyz
x,y,z
-x,-y,1/2+z
x,-y,1/2+z
-x,y,z
1/2+x,1/2+y,z
1/2-x,1/2-y,1/2+z
1/2+x,1/2-y,1/2+z
1/2-x,1/2+y,z
loop_
_atom_site_type_symbol
_atom_site_label
_atom_site_fract_x
_atom_site_fract_y
_atom_site_fract_z
Si Si1 0.676224 0.913737 0.007390
Si Si2 0.324055 0.671882 0.199923
Si Si3 0.822624 0.997351 0.623501
Si Si4 0.326019 0.672513 0.960042
Si Si5 0.176147 0.758248 0.076916
Si Si6 0.675114 0.502309 0.387330
Si Si7 0.821043 0.255931 0.821193
Si Si8 0.318611 0.585879 0.756466
O O1 0.500000 0.903623 0.007180
O O2 0.753096 0.836665 0.041818
O O3 0.728086 0.987368 0.056035
O O4 0.734563 0.934137 0.931702
O O5 0.500000 0.687628 0.202229
O O6 0.301757 0.586427 0.162684
O O7 0.243461 0.735685 0.150322
O O8 0.259449 0.676575 0.276635
O O9 0.000000 0.004771 0.606981
O O10 0.777824 0.064198 0.679669
O O11 0.500000 0.683508 0.981008
O O12 0.316282 0.584781 0.925683
O O13 0.289958 0.737920 0.900734
O O14 0.221452 0.687196 0.024405
O O15 0.000000 0.768185 0.083051
O O16 0.500000 0.525181 0.385336
O O17 0.730431 0.481492 0.311158
O O18 0.773126 0.172631 0.783760
O O19 0.000000 0.264628 0.815160
O O20 0.500000 0.584460 0.759257
#
# Coordination Sequence:
#
# PCOD9352375 Si02
#       8
#     8   8   8   8   8   8   8   8
#     4  12  25  39  57  84 115 145 185 238 289 338
#     4  11  23  37  56  85 119 152 190 238 284 332
#     4  10  21  38  59  83 114 151 188 228 277 335
#     4   9  19  37  60  87 119 152 188 234 282 329
#     4  12  25  40  59  80 108 151 197 239 288 344
#     4   9  18  36  61  86 115 151 186 223 274 335
#     4   9  18  35  60  86 115 153 192 231 279 335
#     4   8  16  34  60  85 109 145 190 227 267 328
#
# _framework density 22.028054000000001
#
# number of rings (size 3 to 8) (size 9 to 14) (size 15 to 20)
#    0.000    2.000    0.000    5.625    0.000    7.000 
#    0.000    3.750    0.000    0.000    0.000    0.000 
#    0.000    0.000    0.000    0.000    0.000    0.000 
#
# Total GULP energy -178953.875346 kJ/mol
# GULP energy per Si atom -5592.308605 kJ/mol
# Density = 2.197792 g / cm^3
# Si number density = 22.028054 Si / 1000 Ang^3
#
#
#
# Elastic Constant Matrix: (Units=GPa)
#
#
# Indices 1 2 3 4 5 6 
#
# 1 56.9964 15.1421 13.4854 0.0000 0.0000 0.0000
# 2 15.1421 48.0811 -6.3474 0.0000 0.0000 0.0000
# 3 13.4854 -6.3474 68.0059 0.0000 0.0000 0.0000
# 4 0.0000 0.0000 0.0000 33.4384 0.0000 0.0000
# 5 0.0000 0.0000 0.0000 0.0000 30.2986 0.0000
# 6 0.0000 0.0000 0.0000 0.0000 0.0000 19.0442
#
#
#
# Elastic Compliance Matrix: (Units=1/GPa)
#
#
# Indices 1 2 3 4 5 6 
#
# 1 0.020552 -0.007098 -0.004738 0.000000 0.000000 0.000000
# 2 -0.007098 0.023509 0.003602 0.000000 0.000000 0.000000
# 3 -0.004738 0.003602 0.015980 0.000000 0.000000 0.000000
# 4 0.000000 0.000000 0.000000 0.029906 0.000000 0.000000
# 5 0.000000 0.000000 0.000000 0.000000 0.033005 0.000000
# 6 0.000000 0.000000 0.000000 0.000000 0.000000 0.052509
#
#
# Mechanical properties :
#
#
# Convention : Reuss Voigt Hill
#
# Bulk Modulus (GPa) = 22.94994 24.18263 23.56629
# Shear Modulus (GPa) = 24.21861 26.60979 25.41420
#
# Velocity S-wave (km/s) = 3.31938 3.47939 3.40033
# Velocity P-wave (km/s) = 5.01320 5.20994 5.11252
#
# Compressibility (1/GPa) = 0.04357309
#
# Stress axis : x y z
#
# Youngs Moduli (GPa) = 48.65805 42.53700 62.57714
#
# Poissons Ratio (x) = 0.30192 0.29648
# Poissons Ratio (y) = 0.34536 -0.22538
# Poissons Ratio (z) = 0.23053 -0.15321
#
# Static dielectric constant tensor:
#      x y z
#    x 1.730180 0.000000 0.000000 
#    y 0.000000 1.892900 0.000000 
#    z 0.000000 0.000000 1.815710 
# 
# From -- ./inp_files/15582.got.cif
#   From: 2010.05.17/outbox.cif.g08.bks.cpg/sg36_8_cif.got.tgz:15582.got - 2010.06.03 17:41:39.
