data_PCOD9352056
_publ_section_title
;
Structure prediction by ZEFSAII (Michael W. Deem and Ramdas Pophale) SiO2 
 PCOD9352056
Probable space group: C M C 21
;
_chemical_formula_sum "Si O2"
_cell_formula_units_Z 48
_cell_length_a 12.768319
_cell_length_b 8.994674
_cell_length_c 18.893550
_cell_angle_alpha 90.000000
_cell_angle_beta 90.000000
_cell_angle_gamma 90.000000
_cell_volume 2169.865023
_symmetry_space_group_name_H-M "C M C 21"
_symmetry_group_IT_number 36
_symmetry_cell_setting 'orthorhombic'
loop_
_space_group_symop_operation_xyz
x,y,z
-x,-y,1/2+z
x,-y,1/2+z
-x,y,z
1/2+x,1/2+y,z
1/2-x,1/2-y,1/2+z
1/2+x,1/2-y,1/2+z
1/2-x,1/2+y,z
loop_
_atom_site_type_symbol
_atom_site_label
_atom_site_fract_x
_atom_site_fract_y
_atom_site_fract_z
Si Si1 0.622816 0.495544 0.658340
Si Si2 0.823748 0.251968 0.975246
Si Si3 0.123307 0.905920 0.008278
Si Si4 0.378522 0.117670 0.326767
Si Si5 0.376378 0.831703 0.127314
Si Si6 0.250005 0.118043 0.763903
O O1 0.500000 0.475993 0.650335
O O2 0.646950 0.605521 0.593032
O O3 0.666352 0.335175 0.639530
O O4 0.645144 0.535072 0.738984
O O5 0.849928 0.077371 0.986478
O O6 0.700398 0.290449 0.970919
O O7 0.862216 0.348304 0.043298
O O8 0.876517 0.312950 0.904714
O O9 0.000000 0.881273 0.996156
O O10 0.500000 0.114408 0.301564
O O11 0.296550 0.222000 0.283278
O O12 0.322421 0.956693 0.322691
O O13 0.500000 0.847409 0.141989
O O14 0.314849 0.911746 0.190571
#
# Coordination Sequence:
#
# PCOD9352056 Si02
#       6
#     8   8   8   8   8   8
#     4   9  18  36  63  90 119 158 206 262 317 370
#     4  11  22  43  67  91 131 170 211 265 320 375
#     4  10  21  40  67  96 123 160 213 263 314 375
#     4  12  27  43  63  95 133 173 212 259 325 391
#     4  10  20  38  66  91 119 165 218 265 312 373
#     4  12  22  42  62  93 129 164 212 266 316 378
#
# _framework density 22.121192000000001
#
# number of rings (size 3 to 8) (size 9 to 14) (size 15 to 20)
#    0.000    1.333    3.333    4.500    0.000    0.000 
#    0.000    6.667    0.000    0.000    0.000    0.000 
#    0.000    0.000    0.000    0.000    0.000    0.000 
#
# Total GULP energy -133628.114188 kJ/mol
# GULP energy per Si atom -5567.838091 kJ/mol
# Density = 2.207084 g / cm^3
# Si number density = 22.121192 Si / 1000 Ang^3
#
#
#
# Elastic Constant Matrix: (Units=GPa)
#
#
# Indices 1 2 3 4 5 6 
#
# 1 113.2035 35.4857 14.4834 0.0000 0.0000 0.0000
# 2 35.4857 33.7315 0.7406 0.0000 0.0000 0.0000
# 3 14.4834 0.7406 66.4443 0.0000 0.0000 0.0000
# 4 0.0000 0.0000 0.0000 22.3137 0.0000 0.0000
# 5 0.0000 0.0000 0.0000 0.0000 32.6911 0.0000
# 6 0.0000 0.0000 0.0000 0.0000 0.0000 18.4848
#
#
#
# Elastic Compliance Matrix: (Units=1/GPa)
#
#
# Indices 1 2 3 4 5 6 
#
# 1 0.013690 -0.014340 -0.002824 0.000000 0.000000 0.000000
# 2 -0.014340 0.044674 0.002628 0.000000 0.000000 0.000000
# 3 -0.002824 0.002628 0.015637 0.000000 0.000000 0.000000
# 4 0.000000 0.000000 0.000000 0.044815 0.000000 0.000000
# 5 0.000000 0.000000 0.000000 0.000000 0.030589 0.000000
# 6 0.000000 0.000000 0.000000 0.000000 0.000000 0.054098
#
#
# Mechanical properties :
#
#
# Convention : Reuss Voigt Hill
#
# Bulk Modulus (GPa) = 22.25802 34.97764 28.61783
# Shear Modulus (GPa) = 20.19771 25.54257 22.87014
#
# Velocity S-wave (km/s) = 3.02495 3.40172 3.21885
# Velocity P-wave (km/s) = 4.72060 5.59242 5.17490
#
# Compressibility (1/GPa) = 0.04492762
#
# Stress axis : x y z
#
# Youngs Moduli (GPa) = 73.04519 22.38438 63.95274
#
# Poissons Ratio (x) = 0.32099 0.18062
# Poissons Ratio (y) = 1.04747 -0.16806
# Poissons Ratio (z) = 0.20630 -0.05882
#
# Static dielectric constant tensor:
#      x y z
#    x 1.930080 0.000000 0.000000 
#    y 0.000000 1.844940 0.000000 
#    z 0.000000 0.000000 1.929950 
# 
# From -- ./inp_files/15926.got.cif
#   From: 2010.05.17/outbox.cif.g08.bks.cpg/sg36_8_cif.got.tgz:15926.got - 2010.06.03 17:41:39.
