data_PCOD9352332
_publ_section_title
;
Structure prediction by ZEFSAII (Michael W. Deem and Ramdas Pophale) SiO2 
 PCOD9352332
Probable space group: C M C 21
;
_chemical_formula_sum "Si O2"
_cell_formula_units_Z 56
_cell_length_a 14.730259
_cell_length_b 20.098975
_cell_length_c 9.291176
_cell_angle_alpha 90.000000
_cell_angle_beta 90.000000
_cell_angle_gamma 90.000000
_cell_volume 2750.774438
_symmetry_space_group_name_H-M "C M C 21"
_symmetry_group_IT_number 36
_symmetry_cell_setting 'orthorhombic'
loop_
_space_group_symop_operation_xyz
x,y,z
-x,-y,1/2+z
x,-y,1/2+z
-x,y,z
1/2+x,1/2+y,z
1/2-x,1/2-y,1/2+z
1/2+x,1/2-y,1/2+z
1/2-x,1/2+y,z
loop_
_atom_site_type_symbol
_atom_site_label
_atom_site_fract_x
_atom_site_fract_y
_atom_site_fract_z
Si Si1 0.106469 0.245528 0.186230
Si Si2 0.749072 0.634835 0.684824
Si Si3 0.103275 0.429039 0.830788
Si Si4 0.713327 0.635450 0.005736
Si Si5 0.400349 0.316673 0.003969
Si Si6 0.603070 0.181400 0.142230
Si Si7 0.800419 0.503266 0.085613
O O1 0.170734 0.310503 0.170353
O O2 0.147417 0.184339 0.093486
O O3 0.110469 0.220247 0.351810
O O4 0.000000 0.258886 0.152944
O O5 0.683244 0.638347 0.546923
O O6 0.780338 0.558936 0.687598
O O7 0.698605 0.644081 0.836692
O O8 0.122747 0.350987 0.798262
O O9 0.120223 0.458548 0.671704
O O10 0.000000 0.435918 0.877662
O O11 0.165576 0.468136 0.940767
O O12 0.816398 0.659757 0.037375
O O13 0.721591 0.558116 0.056950
O O14 0.500000 0.348782 0.004222
O O15 0.397531 0.260347 0.128115
O O16 0.500000 0.160898 0.101523
#
# Coordination Sequence:
#
# PCOD9352332 Si02
#       7
#     8   8   8   8   8   8   8
#     4  11  24  42  67  96 128 169 217 267 320 381
#     4  12  23  40  66  97 128 166 212 269 320 385
#     4  10  21  37  59  89 128 170 211 255 315 389
#     4  11  23  42  62  93 129 173 210 261 318 381
#     4  10  22  40  65  95 127 164 209 264 325 382
#     4   9  18  35  61  90 127 165 199 248 312 379
#     4  11  24  40  60  92 129 173 215 264 325 383
#
# _framework density 20.357903
#
# number of rings (size 3 to 8) (size 9 to 14) (size 15 to 20)
#    0.000    1.429    4.286    0.429    4.000    3.429 
#    0.000    2.143    0.000    0.000    0.000    0.000 
#    0.000    0.000    0.000    0.000    0.000    0.000 
#
# Total GULP energy -156004.921106 kJ/mol
# GULP energy per Si atom -5571.604325 kJ/mol
# Density = 2.031157 g / cm^3
# Si number density = 20.357903 Si / 1000 Ang^3
#
#
#
# Elastic Constant Matrix: (Units=GPa)
#
#
# Indices 1 2 3 4 5 6 
#
# 1 67.1446 22.9009 29.3945 0.0000 0.0000 0.0000
# 2 22.9009 82.5620 27.7279 0.0000 0.0000 0.0000
# 3 29.3945 27.7279 74.9457 0.0000 0.0000 0.0000
# 4 0.0000 0.0000 0.0000 27.1678 0.0000 0.0000
# 5 0.0000 0.0000 0.0000 0.0000 15.6149 0.0000
# 6 0.0000 0.0000 0.0000 0.0000 0.0000 16.4934
#
#
#
# Elastic Compliance Matrix: (Units=1/GPa)
#
#
# Indices 1 2 3 4 5 6 
#
# 1 0.018651 -0.003102 -0.006168 0.000000 0.000000 0.000000
# 2 -0.003102 0.014347 -0.004091 0.000000 0.000000 0.000000
# 3 -0.006168 -0.004091 0.017276 0.000000 0.000000 0.000000
# 4 0.000000 0.000000 0.000000 0.036808 0.000000 0.000000
# 5 0.000000 0.000000 0.000000 0.000000 0.064041 0.000000
# 6 0.000000 0.000000 0.000000 0.000000 0.000000 0.060630
#
#
# Mechanical properties :
#
#
# Convention : Reuss Voigt Hill
#
# Bulk Modulus (GPa) = 42.45958 42.74429 42.60194
# Shear Modulus (GPa) = 20.29836 21.49718 20.89777
#
# Velocity S-wave (km/s) = 3.16108 3.25308 3.20741
# Velocity P-wave (km/s) = 5.85022 5.92892 5.88970
#
# Compressibility (1/GPa) = 0.02355181
#
# Stress axis : x y z
#
# Youngs Moduli (GPa) = 53.61568 69.70310 57.88520
#
# Poissons Ratio (x) = 0.21623 0.35701
# Poissons Ratio (y) = 0.16632 0.23682
# Poissons Ratio (z) = 0.33068 0.28517
#
# Static dielectric constant tensor:
#      x y z
#    x 1.728180 0.000000 0.000000 
#    y 0.000000 1.777400 0.000000 
#    z 0.000000 0.000000 1.748480 
# 
# From -- ./inp_files/4186.got.cif
#   From: 2010.05.17/outbox.cif.g08.bks.cpg/sg36_3_cif.got.tgz:4186.got - 2010.06.03 17:41:39.
