data_PCOD9352422
_publ_section_title
;
Structure prediction by ZEFSAII (Michael W. Deem and Ramdas Pophale) SiO2 
 PCOD9352422
Probable space group: C M C 21
;
_chemical_formula_sum "Si O2"
_cell_formula_units_Z 56
_cell_length_a 18.246911
_cell_length_b 8.148150
_cell_length_c 16.585944
_cell_angle_alpha 90.000000
_cell_angle_beta 90.000000
_cell_angle_gamma 90.000000
_cell_volume 2465.974401
_symmetry_space_group_name_H-M "C M C 21"
_symmetry_group_IT_number 36
_symmetry_cell_setting 'orthorhombic'
loop_
_space_group_symop_operation_xyz
x,y,z
-x,-y,1/2+z
x,-y,1/2+z
-x,y,z
1/2+x,1/2+y,z
1/2-x,1/2-y,1/2+z
1/2+x,1/2-y,1/2+z
1/2-x,1/2+y,z
loop_
_atom_site_type_symbol
_atom_site_label
_atom_site_fract_x
_atom_site_fract_y
_atom_site_fract_z
Si Si1 0.209550 0.203376 0.290610
Si Si2 0.088642 0.156545 0.570043
Si Si3 0.915483 0.464984 0.668666
Si Si4 0.646145 0.053263 0.336031
Si Si5 0.347414 0.312815 0.627588
Si Si6 0.416998 0.787797 0.972304
Si Si7 0.916749 0.055449 0.388848
O O1 0.284554 0.172425 0.336624
O O2 0.182797 0.381673 0.315100
O O3 0.217304 0.176090 0.193789
O O4 0.143055 0.089765 0.321312
O O5 0.116519 0.327638 0.607844
O O6 0.104743 0.138851 0.474639
O O7 0.000000 0.146489 0.576359
O O8 0.119165 0.995492 0.616974
O O9 0.903267 0.404216 0.759384
O O10 0.890168 0.654175 0.663833
O O11 0.000000 0.466788 0.649547
O O12 0.601536 0.056014 0.418508
O O13 0.351898 0.250465 0.535041
O O14 0.500000 0.794271 0.007852
O O15 0.418855 0.636069 0.910795
O O16 0.000000 0.107725 0.366632
#
# Coordination Sequence:
#
# PCOD9352422 Si02
#       7
#     8   8   8   8   8   8   8
#     4  11  25  43  63  89 130 171 214 266 312 386
#     4   9  19  36  62  93 124 157 198 256 317 374
#     4  10  21  38  63  92 122 160 211 263 315 379
#     4  11  25  42  60  90 124 168 217 255 324 378
#     4  10  22  40  63  93 128 166 207 264 320 377
#     4  10  21  41  67  95 130 165 208 266 323 381
#     4   9  20  38  62  94 122 161 209 254 319 379
#
# _framework density 22.709077000000001
#
# number of rings (size 3 to 8) (size 9 to 14) (size 15 to 20)
#    0.000    2.000    0.000    3.429    6.000    4.000 
#    2.571    1.429    0.000    0.000    0.000    0.000 
#    0.000    0.000    0.000    0.000    0.000    0.000 
#
# Total GULP energy -156049.368536 kJ/mol
# GULP energy per Si atom -5573.191733 kJ/mol
# Density = 2.265739 g / cm^3
# Si number density = 22.709077 Si / 1000 Ang^3
#
#
#
# Elastic Constant Matrix: (Units=GPa)
#
#
# Indices 1 2 3 4 5 6 
#
# 1 33.3525 17.3435 11.8397 0.0000 0.0000 0.0000
# 2 17.3435 58.5527 21.2121 0.0000 0.0000 0.0000
# 3 11.8397 21.2121 58.7214 0.0000 0.0000 0.0000
# 4 0.0000 0.0000 0.0000 27.8157 0.0000 0.0000
# 5 0.0000 0.0000 0.0000 0.0000 0.2177 0.0000
# 6 0.0000 0.0000 0.0000 0.0000 0.0000 6.2106
#
#
#
# Elastic Compliance Matrix: (Units=1/GPa)
#
#
# Indices 1 2 3 4 5 6 
#
# 1 0.036218 -0.009299 -0.003943 0.000000 0.000000 0.000000
# 2 -0.009299 0.022038 -0.006086 0.000000 0.000000 0.000000
# 3 -0.003943 -0.006086 0.020023 0.000000 0.000000 0.000000
# 4 0.000000 0.000000 0.000000 0.035951 0.000000 0.000000
# 5 0.000000 0.000000 0.000000 0.000000 4.592604 0.000000
# 6 0.000000 0.000000 0.000000 0.000000 0.000000 0.161015
#
#
# Mechanical properties :
#
#
# Convention : Reuss Voigt Hill
#
# Bulk Modulus (GPa) = 25.23837 27.93527 26.58682
# Shear Modulus (GPa) = 1.01632 13.53090 7.27361
#
# Velocity S-wave (km/s) = 0.66971 2.44362 1.79162
# Velocity P-wave (km/s) = 3.42577 4.50442 4.00161
#
# Compressibility (1/GPa) = 0.03962220
#
# Stress axis : x y z
#
# Youngs Moduli (GPa) = 27.61026 45.37639 49.94245
#
# Poissons Ratio (x) = 0.42198 0.19694
# Poissons Ratio (y) = 0.25676 0.30394
# Poissons Ratio (z) = 0.10888 0.27615
#
# Static dielectric constant tensor:
#      x y z
#    x 1.847650 0.000000 0.000000 
#    y 0.000000 1.943640 0.000000 
#    z 0.000000 0.000000 1.910200 
# 
# From -- ./inp_files/12852.got.cif
#   From: 2010.05.17/outbox.cif.g08.bks.cpg/sg36_7_cif.got.tgz:12852.got - 2010.06.03 17:41:39.
