data_PCOD9352537
_publ_section_title
;
Structure prediction by ZEFSAII (Michael W. Deem and Ramdas Pophale) SiO2 
 PCOD9352537
Probable space group: C M C 21
;
_chemical_formula_sum "Si O2"
_cell_formula_units_Z 64
_cell_length_a 8.217041
_cell_length_b 24.580015
_cell_length_c 15.614743
_cell_angle_alpha 90.000000
_cell_angle_beta 90.000000
_cell_angle_gamma 90.000000
_cell_volume 3153.787577
_symmetry_space_group_name_H-M "C M C 21"
_symmetry_group_IT_number 36
_symmetry_cell_setting 'orthorhombic'
loop_
_space_group_symop_operation_xyz
x,y,z
-x,-y,1/2+z
x,-y,1/2+z
-x,y,z
1/2+x,1/2+y,z
1/2-x,1/2-y,1/2+z
1/2+x,1/2-y,1/2+z
1/2-x,1/2+y,z
loop_
_atom_site_type_symbol
_atom_site_label
_atom_site_fract_x
_atom_site_fract_y
_atom_site_fract_z
Si Si1 0.198837 0.745925 0.501460
Si Si2 0.303586 0.742280 0.806024
Si Si3 0.686547 0.027873 0.808080
Si Si4 0.197299 0.947879 0.661396
Si Si5 0.188303 0.377430 0.037346
Si Si6 0.803776 0.822098 0.658988
Si Si7 0.811072 0.870673 0.220896
Si Si8 0.189925 0.009439 0.486999
O O1 0.252301 0.758459 0.404601
O O2 0.247147 0.683753 0.520140
O O3 0.254617 0.786769 0.576672
O O4 0.000000 0.747570 0.503092
O O5 0.500000 0.744062 0.807859
O O6 0.245293 0.791671 0.746464
O O7 0.255111 0.686176 0.760403
O O8 0.500000 0.042406 0.792754
O O9 0.794558 0.080363 0.787081
O O10 0.735705 0.979460 0.743710
O O11 0.712707 0.010731 0.905376
O O12 0.250505 0.884906 0.657131
O O13 0.000000 0.003501 0.974735
O O14 0.243873 0.980532 0.575200
O O15 0.205896 0.385391 0.138672
O O16 0.000000 0.381491 0.010568
O O17 0.287225 0.425890 0.994821
O O18 0.000000 0.822597 0.654922
O O19 0.000000 0.865619 0.194397
O O20 0.000000 0.949231 0.666341
#
# Coordination Sequence:
#
# PCOD9352537 Si02
#       8
#     8   8   8   8   8   8   8   8
#     4   9  20  38  61  88 121 159 199 245 302 362
#     4  10  22  39  62  90 121 162 205 248 302 364
#     4  12  26  42  64  91 125 163 207 259 315 371
#     4  10  23  42  65  91 123 164 207 254 310 371
#     4  11  21  38  64  91 122 159 206 257 313 368
#     4  10  21  40  63  88 121 160 201 248 303 362
#     4  11  22  39  64  90 121 160 209 259 310 367
#     4  11  24  42  65  91 124 163 210 256 309 373
#
# _framework density 20.293061000000002
#
# number of rings (size 3 to 8) (size 9 to 14) (size 15 to 20)
#    0.000    1.500    2.500    2.250    3.500    1.500 
#    0.000    1.250    0.000    0.000    0.000    0.000 
#    0.000    0.000    0.000    0.000    0.000    0.000 
#
# Total GULP energy -178810.193727 kJ/mol
# GULP energy per Si atom -5587.818554 kJ/mol
# Density = 2.024687 g / cm^3
# Si number density = 20.293061 Si / 1000 Ang^3
#
#
#
# Elastic Constant Matrix: (Units=GPa)
#
#
# Indices 1 2 3 4 5 6 
#
# 1 16.1877 4.1667 4.9278 0.0000 0.0000 0.0000
# 2 4.1667 87.5729 -3.8978 0.0000 0.0000 0.0000
# 3 4.9278 -3.8978 65.9823 0.0000 0.0000 0.0000
# 4 0.0000 0.0000 0.0000 29.0654 0.0000 0.0000
# 5 0.0000 0.0000 0.0000 0.0000 21.9962 0.0000
# 6 0.0000 0.0000 0.0000 0.0000 0.0000 19.9068
#
#
#
# Elastic Compliance Matrix: (Units=1/GPa)
#
#
# Indices 1 2 3 4 5 6 
#
# 1 0.064135 -0.003273 -0.004983 0.000000 0.000000 0.000000
# 2 -0.003273 0.011616 0.000931 0.000000 0.000000 0.000000
# 3 -0.004983 0.000931 0.015583 0.000000 0.000000 0.000000
# 4 0.000000 0.000000 0.000000 0.034405 0.000000 0.000000
# 5 0.000000 0.000000 0.000000 0.000000 0.045462 0.000000
# 6 0.000000 0.000000 0.000000 0.000000 0.000000 0.050234
#
#
# Mechanical properties :
#
#
# Convention : Reuss Voigt Hill
#
# Bulk Modulus (GPa) = 13.04087 20.01515 16.52801
# Shear Modulus (GPa) = 19.10967 25.16343 22.13655
#
# Velocity S-wave (km/s) = 3.07202 3.52519 3.30637
# Velocity P-wave (km/s) = 4.36157 5.14332 4.76849
#
# Compressibility (1/GPa) = 0.07668200
#
# Stress axis : x y z
#
# Youngs Moduli (GPa) = 15.59217 86.08647 64.17363
#
# Poissons Ratio (x) = 0.28179 0.31979
# Poissons Ratio (y) = 0.05104 -0.05972
# Poissons Ratio (z) = 0.07770 -0.08012
#
# Static dielectric constant tensor:
#      x y z
#    x 1.703260 0.000000 0.000000 
#    y 0.000000 1.716460 0.000000 
#    z 0.000000 0.000000 1.703490 
# 
# From -- ./inp_files/11097.got.cif
#   From: 2010.05.17/outbox.cif.g08.bks.cpg/sg36_6_cif.got.tgz:11097.got - 2010.06.03 17:41:39.
