data_PCOD9352413
_publ_section_title
;
Structure prediction by ZEFSAII (Michael W. Deem and Ramdas Pophale) SiO2 
 PCOD9352413
Probable space group: C M C 21
;
_chemical_formula_sum "Si O2"
_cell_formula_units_Z 64
_cell_length_a 8.792093
_cell_length_b 15.047168
_cell_length_c 23.307184
_cell_angle_alpha 90.000000
_cell_angle_beta 90.000000
_cell_angle_gamma 90.000000
_cell_volume 3083.449555
_symmetry_space_group_name_H-M "C M C 21"
_symmetry_group_IT_number 36
_symmetry_cell_setting 'orthorhombic'
loop_
_space_group_symop_operation_xyz
x,y,z
-x,-y,1/2+z
x,-y,1/2+z
-x,y,z
1/2+x,1/2+y,z
1/2-x,1/2-y,1/2+z
1/2+x,1/2-y,1/2+z
1/2-x,1/2+y,z
loop_
_atom_site_type_symbol
_atom_site_label
_atom_site_fract_x
_atom_site_fract_y
_atom_site_fract_z
Si Si1 0.178513 0.502107 0.344640
Si Si2 0.318054 0.444610 0.045722
Si Si3 0.683552 0.701854 0.635665
Si Si4 0.181947 0.350535 0.936063
Si Si5 0.180575 0.168714 0.884683
Si Si6 0.821647 0.940437 0.731967
Si Si7 0.818275 0.403427 0.612056
Si Si8 0.680904 0.248027 0.259429
O O1 0.207671 0.594520 0.377515
O O2 0.230648 0.423149 0.386434
O O3 0.267084 0.499150 0.284643
O O4 0.000000 0.495961 0.332902
O O5 0.500000 0.450974 0.047939
O O6 0.261028 0.376361 0.095066
O O7 0.248833 0.540493 0.059813
O O8 0.266556 0.401156 0.986463
O O9 0.500000 0.701144 0.631205
O O10 0.733666 0.800355 0.615445
O O11 0.718029 0.693541 0.703207
O O12 0.228928 0.248313 0.926705
O O13 0.000000 0.352020 0.946310
O O14 0.203870 0.205556 0.819996
O O15 0.000000 0.153461 0.892363
O O16 0.737375 0.949040 0.671277
O O17 0.778434 0.840908 0.752529
O O18 0.000000 0.951839 0.722656
O O19 0.000000 0.404133 0.610156
O O20 0.500000 0.223890 0.255660
#
# Coordination Sequence:
#
# PCOD9352413 Si02
#       8
#     8   8   8   8   8   8   8   8
#     4  11  23  40  61  88 120 160 207 250 306 368
#     4  11  23  39  62  91 119 156 206 254 297 357
#     4   8  18  36  59  85 118 156 192 234 297 359
#     4  10  23  44  62  81 120 166 203 246 304 365
#     4  10  21  38  62  90 119 157 202 250 306 361
#     4  11  21  35  59  91 126 159 199 251 304 357
#     4  10  21  40  62  87 121 162 200 241 304 369
#     4   9  17  36  61  85 121 162 193 238 306 366
#
# _framework density 20.755973000000001
#
# number of rings (size 3 to 8) (size 9 to 14) (size 15 to 20)
#    0.000    2.000    1.250    3.000    1.750    3.000 
#    0.000   10.000    0.000    0.000    0.000    0.000 
#    0.000    0.000    0.000    0.000    0.000    0.000 
#
# Total GULP energy -178776.510493 kJ/mol
# GULP energy per Si atom -5586.765953 kJ/mol
# Density = 2.070873 g / cm^3
# Si number density = 20.755973 Si / 1000 Ang^3
#
#
#
# Elastic Constant Matrix: (Units=GPa)
#
#
# Indices 1 2 3 4 5 6 
#
# 1 34.6146 12.1432 11.3252 0.0000 0.0000 0.0000
# 2 12.1432 54.7251 -12.0811 0.0000 0.0000 0.0000
# 3 11.3252 -12.0811 17.9696 0.0000 0.0000 0.0000
# 4 0.0000 0.0000 0.0000 22.1819 0.0000 0.0000
# 5 0.0000 0.0000 0.0000 0.0000 26.4077 0.0000
# 6 0.0000 0.0000 0.0000 0.0000 0.0000 26.1020
#
#
#
# Elastic Compliance Matrix: (Units=1/GPa)
#
#
# Indices 1 2 3 4 5 6 
#
# 1 0.052354 -0.022195 -0.047917 0.000000 0.000000 0.000000
# 2 -0.022195 0.030867 0.034741 0.000000 0.000000 0.000000
# 3 -0.047917 0.034741 0.109206 0.000000 0.000000 0.000000
# 4 0.000000 0.000000 0.000000 0.045082 0.000000 0.000000
# 5 0.000000 0.000000 0.000000 0.000000 0.037868 0.000000
# 6 0.000000 0.000000 0.000000 0.000000 0.000000 0.038311
#
#
# Mechanical properties :
#
#
# Convention : Reuss Voigt Hill
#
# Bulk Modulus (GPa) = 8.21809 14.45378 11.33594
# Shear Modulus (GPa) = 11.76493 21.33313 16.54903
#
# Velocity S-wave (km/s) = 2.38338 3.20942 2.82674
# Velocity P-wave (km/s) = 3.39735 4.55111 4.01588
#
# Compressibility (1/GPa) = 0.12168279
#
# Stress axis : x y z
#
# Youngs Moduli (GPa) = 19.10090 32.39657 9.15705
#
# Poissons Ratio (x) = 0.71905 0.43878
# Poissons Ratio (y) = 0.42395 -0.31812
# Poissons Ratio (z) = 0.91527 -1.12548
#
# Static dielectric constant tensor:
#      x y z
#    x 1.693790 0.000000 0.000000 
#    y 0.000000 1.774070 0.000000 
#    z 0.000000 0.000000 1.748700 
# 
# From -- ./inp_files/16602.got.cif
#   From: 2010.05.17/outbox.cif.g08.bks.cpg/sg36_9_cif.got.tgz:16602.got - 2010.06.03 17:41:39.
