data_PCOD9352561
_publ_section_title
;
Structure prediction by ZEFSAII (Michael W. Deem and Ramdas Pophale) SiO2 
 PCOD9352561
Probable space group: C M C 21
;
_chemical_formula_sum "Si O2"
_cell_formula_units_Z 64
_cell_length_a 8.868929
_cell_length_b 29.245447
_cell_length_c 12.228908
_cell_angle_alpha 90.000000
_cell_angle_beta 90.000000
_cell_angle_gamma 90.000000
_cell_volume 3171.882710
_symmetry_space_group_name_H-M "C M C 21"
_symmetry_group_IT_number 36
_symmetry_cell_setting 'orthorhombic'
loop_
_space_group_symop_operation_xyz
x,y,z
-x,-y,1/2+z
x,-y,1/2+z
-x,y,z
1/2+x,1/2+y,z
1/2-x,1/2-y,1/2+z
1/2+x,1/2-y,1/2+z
1/2-x,1/2+y,z
loop_
_atom_site_type_symbol
_atom_site_label
_atom_site_fract_x
_atom_site_fract_y
_atom_site_fract_z
Si Si1 0.181874 0.332099 0.119800
Si Si2 0.673219 0.062067 0.650452
Si Si3 0.826580 0.969453 0.602640
Si Si4 0.666196 0.930593 0.406132
Si Si5 0.178904 0.227738 0.815503
Si Si6 0.679907 0.115541 0.215839
Si Si7 0.672613 0.830623 0.493698
Si Si8 0.179824 0.819614 0.884292
O O1 0.221074 0.386009 0.127787
O O2 0.255822 0.303786 0.218547
O O3 0.000000 0.328042 0.126154
O O4 0.244133 0.315999 0.003157
O O5 0.500000 0.057102 0.612410
O O6 0.675614 0.056197 0.781192
O O7 0.772901 0.021490 0.604684
O O8 0.794405 0.951259 0.480955
O O9 0.732064 0.934989 0.679961
O O10 0.000000 0.965449 0.632526
O O11 0.500000 0.944406 0.450419
O O12 0.671310 0.875922 0.417922
O O13 0.260202 0.276583 0.814872
O O14 0.000000 0.232760 0.804304
O O15 0.220981 0.204750 0.932378
O O16 0.500000 0.116241 0.231243
O O17 0.714585 0.149349 0.112561
O O18 0.762998 0.135182 0.321490
O O19 0.500000 0.812818 0.498908
O O20 0.000000 0.819017 0.892972
#
# Coordination Sequence:
#
# PCOD9352561 Si02
#       8
#     8   8   8   8   8   8   8   8
#     4  11  24  46  70  96 130 169 219 271 327 389
#     4  10  21  40  66  91 122 167 214 264 321 385
#     4  11  23  37  59  94 131 168 213 265 324 385
#     4   9  18  37  61  86 116 158 211 262 315 376
#     4  12  25  41  65  96 130 169 212 261 323 389
#     4  10  22  43  67  91 126 170 219 267 322 384
#     4   9  18  37  64  91 119 155 207 267 315 371
#     4  12  27  45  66  95 134 174 217 269 329 391
#
# _framework density 20.177289999999999
#
# number of rings (size 3 to 8) (size 9 to 14) (size 15 to 20)
#    0.000    1.500    1.250    4.875    1.750    5.000 
#    0.000    1.250    0.000    0.000    0.000    0.000 
#    0.000    0.000    0.000    0.000    0.000    0.000 
#
# Total GULP energy -178826.475390 kJ/mol
# GULP energy per Si atom -5588.327356 kJ/mol
# Density = 2.013137 g / cm^3
# Si number density = 20.177290 Si / 1000 Ang^3
#
#
#
# Elastic Constant Matrix: (Units=GPa)
#
#
# Indices 1 2 3 4 5 6 
#
# 1 87.1266 39.5835 21.2214 0.0000 0.0000 0.0000
# 2 39.5835 92.0434 21.3817 0.0000 0.0000 0.0000
# 3 21.2214 21.3817 45.8395 0.0000 0.0000 0.0000
# 4 0.0000 0.0000 0.0000 18.9778 0.0000 0.0000
# 5 0.0000 0.0000 0.0000 0.0000 29.0103 0.0000
# 6 0.0000 0.0000 0.0000 0.0000 0.0000 27.1856
#
#
#
# Elastic Compliance Matrix: (Units=1/GPa)
#
#
# Indices 1 2 3 4 5 6 
#
# 1 0.015023 -0.005434 -0.004420 0.000000 0.000000 0.000000
# 2 -0.005434 0.014150 -0.004085 0.000000 0.000000 0.000000
# 3 -0.004420 -0.004085 0.025767 0.000000 0.000000 0.000000
# 4 0.000000 0.000000 0.000000 0.052693 0.000000 0.000000
# 5 0.000000 0.000000 0.000000 0.000000 0.034471 0.000000
# 6 0.000000 0.000000 0.000000 0.000000 0.000000 0.036784
#
#
# Mechanical properties :
#
#
# Convention : Reuss Voigt Hill
#
# Bulk Modulus (GPa) = 36.95167 43.26475 40.10821
# Shear Modulus (GPa) = 23.17108 24.55626 23.86367
#
# Velocity S-wave (km/s) = 3.39244 3.49237 3.44277
# Velocity P-wave (km/s) = 5.80501 6.14419 5.97701
#
# Compressibility (1/GPa) = 0.02706237
#
# Stress axis : x y z
#
# Youngs Moduli (GPa) = 66.56506 70.67067 38.80949
#
# Poissons Ratio (x) = 0.38401 0.17155
# Poissons Ratio (y) = 0.36170 0.15852
# Poissons Ratio (z) = 0.29424 0.28867
#
# Static dielectric constant tensor:
#      x y z
#    x 1.688500 0.000000 0.000000 
#    y 0.000000 1.717340 0.000000 
#    z 0.000000 0.000000 1.713210 
# 
# From -- ./inp_files/7177.got.cif
#   From: 2010.05.17/outbox.cif.g08.bks.cpg/sg36_4_cif.got.tgz:7177.got - 2010.06.03 17:41:39.
