data_PCOD9352053
_publ_section_title
;
Structure prediction by ZEFSAII (Michael W. Deem and Ramdas Pophale) SiO2 
 PCOD9352053
Probable space group: C M C 21
;
_chemical_formula_sum "Si O2"
_cell_formula_units_Z 60
_cell_length_a 12.370050
_cell_length_b 21.385774
_cell_length_c 11.564744
_cell_angle_alpha 90.000000
_cell_angle_beta 90.000000
_cell_angle_gamma 90.000000
_cell_volume 3059.373155
_symmetry_space_group_name_H-M "C M C 21"
_symmetry_group_IT_number 36
_symmetry_cell_setting 'orthorhombic'
loop_
_space_group_symop_operation_xyz
x,y,z
-x,-y,1/2+z
x,-y,1/2+z
-x,y,z
1/2+x,1/2+y,z
1/2-x,1/2-y,1/2+z
1/2+x,1/2-y,1/2+z
1/2-x,1/2+y,z
loop_
_atom_site_type_symbol
_atom_site_label
_atom_site_fract_x
_atom_site_fract_y
_atom_site_fract_z
Si Si1 0.500000 0.114308 0.543951
Si Si2 0.662009 0.030843 0.385448
Si Si3 0.878242 0.820523 0.810008
Si Si4 0.255215 0.080976 0.164245
Si Si5 0.169675 0.313182 0.213799
Si Si6 0.625060 0.475636 0.029352
Si Si7 0.623554 0.330976 0.075787
Si Si8 0.122134 0.388065 0.438124
O O1 0.594740 0.078315 0.465225
O O2 0.405626 0.149079 0.624164
O O3 0.659522 0.048185 0.250478
O O4 0.788281 0.028508 0.425054
O O5 0.619375 0.961279 0.405877
O O6 0.804497 0.868082 0.741127
O O7 0.876662 0.754138 0.747297
O O8 0.000000 0.846227 0.813586
O O9 0.845507 0.814107 0.943903
O O10 0.173983 0.028608 0.113402
O O11 0.312933 0.114232 0.056923
O O12 0.288120 0.304064 0.160998
O O13 0.175808 0.352222 0.332207
O O14 0.500000 0.489066 0.997273
O O15 0.626662 0.406580 0.084948
O O16 0.500000 0.310466 0.096288
O O17 0.000000 0.364171 0.451206
#
# Coordination Sequence:
#
# PCOD9352053 Si02
#       8
#     4   8   8   8   8   8   8   8
#     4  12  22  40  68 100 128 182 228 268 344 408
#     4  11  23  39  67  98 134 173 219 285 340 411
#     4  11  23  43  69  94 128 181 221 276 331 401
#     4  11  24  40  63 102 133 171 227 278 345 399
#     4  12  24  44  68  95 135 180 228 273 330 418
#     4  10  20  38  64  95 127 167 218 274 337 404
#     4  10  22  43  72  95 126 174 225 272 340 394
#     4  11  25  40  65  97 135 180 219 282 350 403
#
# _framework density 19.61186
#
# number of rings (size 3 to 8) (size 9 to 14) (size 15 to 20)
#    0.000    1.067    4.667    1.200    4.667    0.533 
#    0.000    4.667    1.467    0.000    0.000    0.000 
#    0.000    0.000    0.000    0.000    0.000    0.000 
#
# Total GULP energy -167067.179609 kJ/mol
# GULP energy per Si atom -5568.905987 kJ/mol
# Density = 1.956722 g / cm^3
# Si number density = 19.611860 Si / 1000 Ang^3
#
#
#
# Elastic Constant Matrix: (Units=GPa)
#
#
# Indices 1 2 3 4 5 6 
#
# 1 108.5997 16.1995 70.4029 0.0000 0.0000 0.0000
# 2 16.1995 38.6919 31.1353 0.0000 0.0000 0.0000
# 3 70.4029 31.1353 99.4116 0.0000 0.0000 0.0000
# 4 0.0000 0.0000 0.0000 16.8689 0.0000 0.0000
# 5 0.0000 0.0000 0.0000 0.0000 22.3612 0.0000
# 6 0.0000 0.0000 0.0000 0.0000 0.0000 19.5967
#
#
#
# Elastic Compliance Matrix: (Units=1/GPa)
#
#
# Indices 1 2 3 4 5 6 
#
# 1 0.017374 0.003512 -0.013404 0.000000 0.000000 0.000000
# 2 0.003512 0.035264 -0.013532 0.000000 0.000000 0.000000
# 3 -0.013404 -0.013532 0.023790 0.000000 0.000000 0.000000
# 4 0.000000 0.000000 0.000000 0.059281 0.000000 0.000000
# 5 0.000000 0.000000 0.000000 0.000000 0.044720 0.000000
# 6 0.000000 0.000000 0.000000 0.000000 0.000000 0.051029
#
#
# Mechanical properties :
#
#
# Convention : Reuss Voigt Hill
#
# Bulk Modulus (GPa) = 33.80641 53.57540 43.69090
# Shear Modulus (GPa) = 17.35118 20.36306 18.85712
#
# Velocity S-wave (km/s) = 2.97767 3.22577 3.10420
# Velocity P-wave (km/s) = 5.39418 6.42271 5.93078
#
# Compressibility (1/GPa) = 0.02958019
#
# Stress axis : x y z
#
# Youngs Moduli (GPa) = 57.55791 28.35783 42.03456
#
# Poissons Ratio (x) = -0.09960 0.56343
# Poissons Ratio (y) = -0.20215 0.56880
# Poissons Ratio (z) = 0.77151 0.38373
#
# Static dielectric constant tensor:
#      x y z
#    x 1.707500 0.000000 0.000000 
#    y 0.000000 1.688140 0.000000 
#    z 0.000000 0.000000 1.675030 
# 
# From -- ./inp_files/7897.got.cif
#   From: 2010.05.17/outbox.cif.g08.bks.cpg/sg36_4_cif.got.tgz:7897.got - 2010.06.03 17:41:39.
