data_PCOD9352719
_publ_section_title
;
Structure prediction by ZEFSAII (Michael W. Deem and Ramdas Pophale) SiO2 
 PCOD9352719
Probable space group: C M C 21
;
_chemical_formula_sum "Si O2"
_cell_formula_units_Z 64
_cell_length_a 9.006669
_cell_length_b 10.145566
_cell_length_c 35.228154
_cell_angle_alpha 90.000000
_cell_angle_beta 90.000000
_cell_angle_gamma 90.000000
_cell_volume 3219.069618
_symmetry_space_group_name_H-M "C M C 21"
_symmetry_group_IT_number 36
_symmetry_cell_setting 'orthorhombic'
loop_
_space_group_symop_operation_xyz
x,y,z
-x,-y,1/2+z
x,-y,1/2+z
-x,y,z
1/2+x,1/2+y,z
1/2-x,1/2-y,1/2+z
1/2+x,1/2-y,1/2+z
1/2-x,1/2+y,z
loop_
_atom_site_type_symbol
_atom_site_label
_atom_site_fract_x
_atom_site_fract_y
_atom_site_fract_z
Si Si1 0.677319 0.707476 0.932410
Si Si2 0.822525 0.787287 0.852964
Si Si3 0.824018 0.954662 0.558582
Si Si4 0.177368 0.300259 0.183680
Si Si5 0.824683 0.223707 0.603243
Si Si6 0.677921 0.557992 0.474779
Si Si7 0.178277 0.038853 0.225752
Si Si8 0.821689 0.052306 0.810370
O O1 0.500000 0.717080 0.929553
O O2 0.750630 0.747746 0.892797
O O3 0.713273 0.558529 0.945016
O O4 0.737164 0.809903 0.963647
O O5 0.785768 0.935688 0.840048
O O6 0.761932 0.684523 0.821948
O O7 0.000000 0.777888 0.855444
O O8 0.733007 0.830081 0.573054
O O9 0.000000 0.922764 0.558574
O O10 0.799998 0.077495 0.586773
O O11 0.784592 0.003603 0.516443
O O12 0.238252 0.260508 0.142589
O O13 0.219344 0.186743 0.213868
O O14 0.247746 0.436741 0.197030
O O15 0.000000 0.310596 0.182432
O O16 0.000000 0.240958 0.609474
O O17 0.500000 0.581809 0.473633
O O18 0.218926 0.999513 0.268566
O O19 0.000000 0.028366 0.222502
O O20 0.000000 0.073649 0.811480
#
# Coordination Sequence:
#
# PCOD9352719 Si02
#       8
#     8   8   8   8   8   8   8   8
#     4  11  23  38  59  87 116 150 193 237 285 341
#     4  11  23  39  60  86 117 153 192 234 284 341
#     4  10  22  40  60  84 116 152 191 238 290 343
#     4  11  23  39  60  86 117 153 192 234 284 341
#     4  11  23  38  59  87 116 150 193 237 285 341
#     4  10  22  40  60  84 116 152 191 238 290 343
#     4  10  22  40  60  84 115 149 188 235 283 334
#     4  10  22  40  60  84 115 149 188 235 283 334
#
# _framework density 19.881519000000001
#
# number of rings (size 3 to 8) (size 9 to 14) (size 15 to 20)
#    0.000    1.500    0.000    4.500    0.000   12.000 
#    0.000    0.000    0.000    0.000    0.000    0.000 
#    0.000    0.000    0.000    0.000    0.000    0.000 
#
# Total GULP energy -179004.804365 kJ/mol
# GULP energy per Si atom -5593.900136 kJ/mol
# Density = 1.983627 g / cm^3
# Si number density = 19.881519 Si / 1000 Ang^3
#
#
#
# Elastic Constant Matrix: (Units=GPa)
#
#
# Indices 1 2 3 4 5 6 
#
# 1 15.1676 14.7832 -1.3216 0.0000 0.0000 0.0000
# 2 14.7832 48.7488 -26.0726 0.0000 0.0000 0.0000
# 3 -1.3216 -26.0726 49.1091 0.0000 0.0000 0.0000
# 4 0.0000 0.0000 0.0000 33.7660 0.0000 0.0000
# 5 0.0000 0.0000 0.0000 0.0000 35.7960 0.0000
# 6 0.0000 0.0000 0.0000 0.0000 0.0000 21.8897
#
#
#
# Elastic Compliance Matrix: (Units=1/GPa)
#
#
# Indices 1 2 3 4 5 6 
#
# 1 0.105804 -0.042682 -0.019813 0.000000 0.000000 0.000000
# 2 -0.042682 0.045866 0.023202 0.000000 0.000000 0.000000
# 3 -0.019813 0.023202 0.032148 0.000000 0.000000 0.000000
# 4 0.000000 0.000000 0.000000 0.029616 0.000000 0.000000
# 5 0.000000 0.000000 0.000000 0.000000 0.027936 0.000000
# 6 0.000000 0.000000 0.000000 0.000000 0.000000 0.045684
#
#
# Mechanical properties :
#
#
# Convention : Reuss Voigt Hill
#
# Bulk Modulus (GPa) = 9.50280 9.75596 9.62938
# Shear Modulus (GPa) = 12.47761 26.66612 19.57186
#
# Velocity S-wave (km/s) = 2.50791 3.66628 3.14096
# Velocity P-wave (km/s) = 3.62991 4.77911 4.24359
#
# Compressibility (1/GPa) = 0.10523219
#
# Stress axis : x y z
#
# Youngs Moduli (GPa) = 9.45141 21.80248 31.10614
#
# Poissons Ratio (x) = 0.93058 0.61631
# Poissons Ratio (y) = 0.40341 -0.72173
# Poissons Ratio (z) = 0.18726 -0.50587
#
# Static dielectric constant tensor:
#      x y z
#    x 1.657960 0.000000 0.000000 
#    y 0.000000 1.667200 0.000000 
#    z 0.000000 0.000000 1.699430 
# 
# From -- ./inp_files/17309.got.cif
#   From: 2010.05.17/outbox.cif.g08.bks.cpg/sg36_9_cif.got.tgz:17309.got - 2010.06.03 17:41:39.
