data_PCOD9352732
_publ_section_title
;
Structure prediction by ZEFSAII (Michael W. Deem and Ramdas Pophale) SiO2 
 PCOD9352732
Probable space group: C M C 21
;
_chemical_formula_sum "Si O2"
_cell_formula_units_Z 64
_cell_length_a 22.892644
_cell_length_b 9.250675
_cell_length_c 15.452509
_cell_angle_alpha 90.000000
_cell_angle_beta 90.000000
_cell_angle_gamma 90.000000
_cell_volume 3272.415064
_symmetry_space_group_name_H-M "C M C 21"
_symmetry_group_IT_number 36
_symmetry_cell_setting 'orthorhombic'
loop_
_space_group_symop_operation_xyz
x,y,z
-x,-y,1/2+z
x,-y,1/2+z
-x,y,z
1/2+x,1/2+y,z
1/2-x,1/2-y,1/2+z
1/2+x,1/2-y,1/2+z
1/2-x,1/2+y,z
loop_
_atom_site_type_symbol
_atom_site_label
_atom_site_fract_x
_atom_site_fract_y
_atom_site_fract_z
Si Si1 0.719032 0.664753 0.300960
Si Si2 0.328171 0.009696 0.525550
Si Si3 0.336346 0.552320 0.664931
Si Si4 0.435634 0.676726 0.131550
Si Si5 0.861646 0.593043 0.718412
Si Si6 0.567104 0.841426 0.950040
Si Si7 0.279694 0.690691 0.494353
Si Si8 0.141883 0.294659 0.795833
O O1 0.704355 0.537088 0.232913
O O2 0.686754 0.806640 0.264012
O O3 0.698520 0.637880 0.399843
O O4 0.788121 0.692853 0.307338
O O5 0.337954 0.028575 0.627776
O O6 0.390088 0.025584 0.476845
O O7 0.288312 0.146283 0.498278
O O8 0.295054 0.860532 0.503378
O O9 0.386695 0.443527 0.637495
O O10 0.305244 0.610763 0.578844
O O11 0.364079 0.685123 0.716914
O O12 0.500000 0.622497 0.152231
O O13 0.415507 0.803766 0.195895
O O14 0.435266 0.746021 0.036680
O O15 0.878428 0.456376 0.774435
O O16 0.500000 0.878122 0.926692
O O17 0.602098 0.753431 0.876804
#
# Coordination Sequence:
#
# PCOD9352732 Si02
#       8
#     8   8   8   8   8   8   8   8
#     4  11  24  39  61  95 140 173 208 265 334 400
#     4  11  23  41  64  97 132 171 215 265 329 397
#     4  11  26  39  65  99 135 168 218 273 329 394
#     4   9  22  46  66  85 123 177 222 262 324 393
#     4  10  22  40  62  93 131 168 209 269 328 389
#     4  10  23  42  67  91 125 175 222 262 320 395
#     4  12  25  40  65  99 136 174 210 270 340 389
#     4  12  21  39  60  99 128 162 214 272 320 385
#
# _framework density 19.557421000000001
#
# number of rings (size 3 to 8) (size 9 to 14) (size 15 to 20)
#    0.000    1.250    2.500    3.000    8.750    1.000 
#    0.000    0.625    0.000    0.000    0.000    0.000 
#    0.000    0.000    0.000    0.000    0.000    0.000 
#
# Total GULP energy -178668.794384 kJ/mol
# GULP energy per Si atom -5583.399825 kJ/mol
# Density = 1.951291 g / cm^3
# Si number density = 19.557421 Si / 1000 Ang^3
#
#
#
# Elastic Constant Matrix: (Units=GPa)
#
#
# Indices 1 2 3 4 5 6 
#
# 1 115.0657 25.3676 28.5934 0.0000 0.0000 0.0000
# 2 25.3676 71.3439 16.0827 0.0000 0.0000 0.0000
# 3 28.5934 16.0827 89.2870 0.0000 0.0000 0.0000
# 4 0.0000 0.0000 0.0000 16.5357 0.0000 0.0000
# 5 0.0000 0.0000 0.0000 0.0000 11.1117 0.0000
# 6 0.0000 0.0000 0.0000 0.0000 0.0000 -41.3466
#
#
#
# Elastic Compliance Matrix: (Units=1/GPa)
#
#
# Indices 1 2 3 4 5 6 
#
# 1 0.010006 -0.002956 -0.002672 0.000000 0.000000 0.000000
# 2 -0.002956 0.015483 -0.001842 0.000000 0.000000 0.000000
# 3 -0.002672 -0.001842 0.012387 0.000000 0.000000 0.000000
# 4 0.000000 0.000000 0.000000 0.060475 0.000000 0.000000
# 5 0.000000 0.000000 0.000000 0.000000 0.089996 0.000000
# 6 0.000000 0.000000 0.000000 0.000000 0.000000 -0.024186
#
#
# Mechanical properties :
#
#
# Convention : Reuss Voigt Hill
#
# Bulk Modulus (GPa) = 43.59844 46.19821 44.89833
# Shear Modulus (GPa) = 26.77420 10.97034 18.87227
#
# Velocity S-wave (km/s) = 3.70402 2.37097 3.10976
# Velocity P-wave (km/s) = 6.37448 5.58287 5.99176
#
# Compressibility (1/GPa) = 0.02293660
#
# Stress axis : x y z
#
# Youngs Moduli (GPa) = 99.93729 64.58768 80.72729
#
# Poissons Ratio (x) = 0.19089 0.21571
# Poissons Ratio (y) = 0.29537 0.14873
# Poissons Ratio (z) = 0.26704 0.11899
#
# Static dielectric constant tensor:
#      x y z
#    x 1.697920 0.000000 0.000000 
#    y 0.000000 1.679510 0.000000 
#    z 0.000000 0.000000 1.728980 
# 
# From -- ./inp_files/12988.got.cif
#   From: 2010.05.17/outbox.cif.g08.bks.cpg/sg36_7_cif.got.tgz:12988.got - 2010.06.03 17:41:39.
