data_PCOD9352467
_publ_section_title
;
Structure prediction by ZEFSAII (Michael W. Deem and Ramdas Pophale) SiO2 
 PCOD9352467
Probable space group: C M C 21
;
_chemical_formula_sum "Si O2"
_cell_formula_units_Z 64
_cell_length_a 24.049612
_cell_length_b 13.931261
_cell_length_c 9.241730
_cell_angle_alpha 90.000000
_cell_angle_beta 90.000000
_cell_angle_gamma 90.000000
_cell_volume 3096.362358
_symmetry_space_group_name_H-M "C M C 21"
_symmetry_group_IT_number 36
_symmetry_cell_setting 'orthorhombic'
loop_
_space_group_symop_operation_xyz
x,y,z
-x,-y,1/2+z
x,-y,1/2+z
-x,y,z
1/2+x,1/2+y,z
1/2-x,1/2-y,1/2+z
1/2+x,1/2-y,1/2+z
1/2-x,1/2+y,z
loop_
_atom_site_type_symbol
_atom_site_label
_atom_site_fract_x
_atom_site_fract_y
_atom_site_fract_z
Si Si1 0.372670 0.215964 0.290270
Si Si2 0.334850 0.096376 0.533313
Si Si3 0.131354 0.075748 0.909184
Si Si4 0.332426 0.212364 0.827959
Si Si5 0.298902 0.900205 0.587301
Si Si6 0.776691 0.919870 0.839721
Si Si7 0.936188 0.768331 0.017589
Si Si8 0.064669 0.980603 0.132564
O O1 0.377003 0.135118 0.412434
O O2 0.357260 0.314521 0.370076
O O3 0.322432 0.186503 0.184178
O O4 0.423316 0.229248 0.179578
O O5 0.334292 0.167131 0.669267
O O6 0.275367 0.090383 0.449645
O O7 0.342990 0.987275 0.584447
O O8 0.084529 0.043367 0.793218
O O9 0.182977 0.005237 0.886564
O O10 0.104277 0.061020 0.065453
O O11 0.307539 0.318398 0.833813
O O12 0.294675 0.141773 0.927329
O O13 0.392520 0.222055 0.906347
O O14 0.246881 0.937649 0.678356
O O15 0.926750 0.883126 0.038048
O O16 0.000000 0.752691 0.976981
O O17 0.000000 0.006249 0.128756
#
# Coordination Sequence:
#
# PCOD9352467 Si02
#       8
#     8   8   8   8   8   8   8   8
#     4   9  22  41  62  87 125 163 200 254 307 368
#     4  11  24  40  60  88 119 165 215 260 301 359
#     4  11  23  38  61  92 128 161 204 252 303 371
#     4  11  21  39  63  87 122 164 207 260 300 368
#     4  10  23  41  58  83 121 168 208 251 307 359
#     4  11  24  37  57  90 126 166 201 249 306 373
#     4   9  19  39  65  92 124 163 199 245 316 374
#     4  10  21  39  61  89 128 168 199 241 304 370
#
# _framework density 20.669416999999999
#
# number of rings (size 3 to 8) (size 9 to 14) (size 15 to 20)
#    0.000    1.750    1.250    2.625    3.500    4.500 
#    0.000    0.625    0.000   12.000    0.000    0.000 
#    0.000    0.000    0.000    0.000    0.000    0.000 
#
# Total GULP energy -178786.830982 kJ/mol
# GULP energy per Si atom -5587.088468 kJ/mol
# Density = 2.062237 g / cm^3
# Si number density = 20.669417 Si / 1000 Ang^3
#
#
#
# Elastic Constant Matrix: (Units=GPa)
#
#
# Indices 1 2 3 4 5 6 
#
# 1 66.7791 20.7513 21.7810 0.0000 0.0000 0.0000
# 2 20.7513 89.0515 16.5395 0.0000 0.0000 0.0000
# 3 21.7810 16.5395 86.1020 0.0000 0.0000 0.0000
# 4 0.0000 0.0000 0.0000 41.6351 0.0000 0.0000
# 5 0.0000 0.0000 0.0000 0.0000 22.2501 0.0000
# 6 0.0000 0.0000 0.0000 0.0000 0.0000 15.7355
#
#
#
# Elastic Compliance Matrix: (Units=1/GPa)
#
#
# Indices 1 2 3 4 5 6 
#
# 1 0.017220 -0.003322 -0.003718 0.000000 0.000000 0.000000
# 2 -0.003322 0.012286 -0.001520 0.000000 0.000000 0.000000
# 3 -0.003718 -0.001520 0.012847 0.000000 0.000000 0.000000
# 4 0.000000 0.000000 0.000000 0.024018 0.000000 0.000000
# 5 0.000000 0.000000 0.000000 0.000000 0.044944 0.000000
# 6 0.000000 0.000000 0.000000 0.000000 0.000000 0.063551
#
#
# Mechanical properties :
#
#
# Convention : Reuss Voigt Hill
#
# Bulk Modulus (GPa) = 39.63087 40.00848 39.81967
# Shear Modulus (GPa) = 24.95077 28.11486 26.53282
#
# Velocity S-wave (km/s) = 3.47815 3.69211 3.58673
# Velocity P-wave (km/s) = 5.94520 6.12976 6.03818
#
# Compressibility (1/GPa) = 0.02523285
#
# Stress axis : x y z
#
# Youngs Moduli (GPa) = 58.07298 81.39451 77.84198
#
# Poissons Ratio (x) = 0.27040 0.28941
# Poissons Ratio (y) = 0.19293 0.11829
# Poissons Ratio (z) = 0.21591 0.12369
#
# Static dielectric constant tensor:
#      x y z
#    x 1.743650 0.000000 0.000000 
#    y 0.000000 1.771770 0.000000 
#    z 0.000000 0.000000 1.760710 
# 
# From -- ./inp_files/5679.got.cif
#   From: 2010.05.17/outbox.cif.g08.bks.cpg/sg36_3_cif.got.tgz:5679.got - 2010.06.03 17:41:39.
