data_PCOD9352676
_publ_section_title
;
Structure prediction by ZEFSAII (Michael W. Deem and Ramdas Pophale) SiO2 
 PCOD9352676
Probable space group: C M C 21
;
_chemical_formula_sum "Si O2"
_cell_formula_units_Z 64
_cell_length_a 27.744104
_cell_length_b 13.596744
_cell_length_c 9.833182
_cell_angle_alpha 90.000000
_cell_angle_beta 90.000000
_cell_angle_gamma 90.000000
_cell_volume 3709.366129
_symmetry_space_group_name_H-M "C M C 21"
_symmetry_group_IT_number 36
_symmetry_cell_setting 'orthorhombic'
loop_
_space_group_symop_operation_xyz
x,y,z
-x,-y,1/2+z
x,-y,1/2+z
-x,y,z
1/2+x,1/2+y,z
1/2-x,1/2-y,1/2+z
1/2+x,1/2-y,1/2+z
1/2-x,1/2+y,z
loop_
_atom_site_type_symbol
_atom_site_label
_atom_site_fract_x
_atom_site_fract_y
_atom_site_fract_z
Si Si1 0.231811 0.996383 0.504010
Si Si2 0.349984 0.798307 0.175668
Si Si3 0.944201 0.599844 0.742782
Si Si4 0.444040 0.095961 0.062555
Si Si5 0.797320 0.501281 0.254231
Si Si6 0.795732 0.210426 0.415064
Si Si7 0.850943 0.695212 0.160964
Si Si8 0.810844 0.795711 0.405790
O O1 0.279450 0.994554 0.408417
O O2 0.208055 0.101357 0.474739
O O3 0.250248 0.987465 0.658172
O O4 0.199067 0.906008 0.456014
O O5 0.406214 0.818571 0.196591
O O6 0.328367 0.720430 0.282071
O O7 0.323849 0.901523 0.211337
O O8 0.335740 0.764728 0.026301
O O9 0.937356 0.503391 0.649802
O O10 0.000000 0.630103 0.729656
O O11 0.935190 0.576637 0.902236
O O12 0.500000 0.126172 0.077991
O O13 0.405371 0.174689 0.115098
O O14 0.830708 0.595040 0.228045
O O15 0.818741 0.279655 0.530078
O O16 0.742106 0.248590 0.380402
O O17 0.841849 0.780709 0.270398
#
# Coordination Sequence:
#
# PCOD9352676 Si02
#       8
#     8   8   8   8   8   8   8   8
#     4  12  24  36  52  76 114 152 192 238 262 320
#     4  12  22  36  57  83 115 155 188 224 288 343
#     4  10  22  38  59  87 116 147 187 234 284 344
#     4  10  22  38  59  87 116 147 187 234 284 344
#     4  12  20  32  55  78 114 148 185 226 272 330
#     4  12  22  38  55  79 111 159 193 233 278 335
#     4  12  22  36  57  83 115 155 188 224 288 343
#     4  12  24  36  53  83 111 151 197 231 274 339
#
# _framework density 17.253620999999999
#
# number of rings (size 3 to 8) (size 9 to 14) (size 15 to 20)
#    0.000    0.500    7.500    2.250    1.750    0.000 
#    0.000    0.000    0.000    0.000    0.000    5.250 
#    0.000    0.000    0.000    0.000    0.000    0.000 
#
# Total GULP energy -178911.674507 kJ/mol
# GULP energy per Si atom -5590.989828 kJ/mol
# Density = 1.721435 g / cm^3
# Si number density = 17.253621 Si / 1000 Ang^3
#
#
#
# Elastic Constant Matrix: (Units=GPa)
#
#
# Indices 1 2 3 4 5 6 
#
# 1 93.8075 20.3880 22.8971 0.0000 0.0000 0.0000
# 2 20.3880 57.2630 -16.9978 0.0000 0.0000 0.0000
# 3 22.8971 -16.9978 49.4668 0.0000 0.0000 0.0000
# 4 0.0000 0.0000 0.0000 23.7058 0.0000 0.0000
# 5 0.0000 0.0000 0.0000 0.0000 22.4559 0.0000
# 6 0.0000 0.0000 0.0000 0.0000 0.0000 29.1446
#
#
#
# Elastic Compliance Matrix: (Units=1/GPa)
#
#
# Indices 1 2 3 4 5 6 
#
# 1 0.014775 -0.008119 -0.009629 0.000000 0.000000 0.000000
# 2 -0.008119 0.023908 0.011973 0.000000 0.000000 0.000000
# 3 -0.009629 0.011973 0.028787 0.000000 0.000000 0.000000
# 4 0.000000 0.000000 0.000000 0.042184 0.000000 0.000000
# 5 0.000000 0.000000 0.000000 0.000000 0.044532 0.000000
# 6 0.000000 0.000000 0.000000 0.000000 0.000000 0.034312
#
#
# Mechanical properties :
#
#
# Convention : Reuss Voigt Hill
#
# Bulk Modulus (GPa) = 17.88226 28.12352 23.00289
# Shear Modulus (GPa) = 22.86390 26.67791 24.77091
#
# Velocity S-wave (km/s) = 3.64423 3.93647 3.79316
# Velocity P-wave (km/s) = 5.30039 6.08247 5.70485
#
# Compressibility (1/GPa) = 0.05592133
#
# Stress axis : x y z
#
# Youngs Moduli (GPa) = 67.68265 41.82714 34.73824
#
# Poissons Ratio (x) = 0.33958 0.33448
# Poissons Ratio (y) = 0.54949 -0.41593
# Poissons Ratio (z) = 0.65169 -0.50080
#
# Static dielectric constant tensor:
#      x y z
#    x 1.580970 0.000000 0.000000 
#    y 0.000000 1.583160 0.000000 
#    z 0.000000 0.000000 1.596220 
# 
# From -- ./inp_files/5650.got.cif
#   From: 2010.05.17/outbox.cif.g08.bks.cpg/sg36_3_cif.got.tgz:5650.got - 2010.06.03 17:41:39.
