data_PCOD9352861
_publ_section_title
;
Structure prediction by ZEFSAII (Michael W. Deem and Ramdas Pophale) SiO2 
 PCOD9352861
Probable space group: C M C 21
;
_chemical_formula_sum "Si O2"
_cell_formula_units_Z 48
_cell_length_a 14.072201
_cell_length_b 9.342559
_cell_length_c 15.337836
_cell_angle_alpha 90.000000
_cell_angle_beta 90.000000
_cell_angle_gamma 90.000000
_cell_volume 2016.470945
_symmetry_space_group_name_H-M "C M C 21"
_symmetry_group_IT_number 36
_symmetry_cell_setting 'orthorhombic'
loop_
_space_group_symop_operation_xyz
x,y,z
-x,-y,1/2+z
x,-y,1/2+z
-x,y,z
1/2+x,1/2+y,z
1/2-x,1/2-y,1/2+z
1/2+x,1/2-y,1/2+z
1/2-x,1/2+y,z
loop_
_atom_site_type_symbol
_atom_site_label
_atom_site_fract_x
_atom_site_fract_y
_atom_site_fract_z
Si Si1 0.606968 0.413913 0.542260
Si Si2 0.791740 0.628725 0.141727
Si Si3 0.111838 0.588175 0.954960
Si Si4 0.111879 0.895189 0.881727
Si Si5 0.713594 0.593170 0.751440
Si Si6 0.889780 0.294439 0.885123
O O1 0.500000 0.449025 0.571750
O O2 0.680423 0.386979 0.618050
O O3 0.642544 0.533643 0.473702
O O4 0.604376 0.274828 0.480798
O O5 0.803284 0.494940 0.209317
O O6 0.812769 0.789094 0.176090
O O7 0.843115 0.605036 0.049747
O O8 0.123007 0.727986 0.896251
O O9 0.147051 0.453347 0.900276
O O10 0.000000 0.564138 0.968280
O O11 0.000000 0.931465 0.877365
O O12 0.156925 0.960107 0.795464
O O13 0.685682 0.703417 0.830602
O O14 0.000000 0.290477 0.849790
#
# Coordination Sequence:
#
# PCOD9352861 Si02
#       6
#     8   8   8   8   8   8
#     4   9  19  38  63  91 128 177 228 270 318 394
#     4  12  25  39  63 101 137 174 216 279 352 400
#     4  10  22  43  71 100 130 175 234 282 330 404
#     4   9  20  41  69  96 127 176 229 277 333 406
#     4  11  25  40  58  94 137 172 217 274 344 402
#     4   9  20  41  67  92 127 178 228 274 325 394
#
# _framework density 23.803965000000002
#
# number of rings (size 3 to 8) (size 9 to 14) (size 15 to 20)
#    0.000    2.000    0.000    3.500    0.000    9.333 
#    0.000    0.000    0.000    6.000    0.000    2.333 
#    0.000    0.000    0.000    0.000    0.000    0.000 
#
# Total GULP energy -133817.630385 kJ/mol
# GULP energy per Si atom -5575.734599 kJ/mol
# Density = 2.374979 g / cm^3
# Si number density = 23.803965 Si / 1000 Ang^3
#
#
#
# Elastic Constant Matrix: (Units=GPa)
#
#
# Indices 1 2 3 4 5 6 
#
# 1 82.1451 -13.7640 41.6988 0.0000 0.0000 0.0000
# 2 -13.7640 157.4132 39.9259 0.0000 0.0000 0.0000
# 3 41.6988 39.9259 119.9886 0.0000 0.0000 0.0000
# 4 0.0000 0.0000 0.0000 41.1522 0.0000 0.0000
# 5 0.0000 0.0000 0.0000 0.0000 19.8924 0.0000
# 6 0.0000 0.0000 0.0000 0.0000 0.0000 18.9158
#
#
#
# Elastic Compliance Matrix: (Units=1/GPa)
#
#
# Indices 1 2 3 4 5 6 
#
# 1 0.016038 0.003076 -0.006597 0.000000 0.000000 0.000000
# 2 0.003076 0.007528 -0.003574 0.000000 0.000000 0.000000
# 3 -0.006597 -0.003574 0.011816 0.000000 0.000000 0.000000
# 4 0.000000 0.000000 0.000000 0.024300 0.000000 0.000000
# 5 0.000000 0.000000 0.000000 0.000000 0.050270 0.000000
# 6 0.000000 0.000000 0.000000 0.000000 0.000000 0.052866
#
#
# Mechanical properties :
#
#
# Convention : Reuss Voigt Hill
#
# Bulk Modulus (GPa) = 47.18900 55.02982 51.10941
# Shear Modulus (GPa) = 27.16337 35.43785 31.30061
#
# Velocity S-wave (km/s) = 3.38172 3.86260 3.63013
# Velocity P-wave (km/s) = 5.92580 6.56209 6.25205
#
# Compressibility (1/GPa) = 0.02119138
#
# Stress axis : x y z
#
# Youngs Moduli (GPa) = 62.35353 132.83626 84.63232
#
# Poissons Ratio (x) = -0.40854 0.55830
# Poissons Ratio (y) = -0.19177 0.30245
# Poissons Ratio (z) = 0.41133 0.47472
#
# Static dielectric constant tensor:
#      x y z
#    x 1.982270 0.000000 0.000000 
#    y 0.000000 1.999090 0.000000 
#    z 0.000000 0.000000 1.946580 
# 
# From -- ./inp_files/14580.got.cif
#   From: 2010.05.17/outbox.cif.g08.bks.cpg/sg36_8_cif.got.tgz:14580.got - 2010.06.03 17:41:39.
