data_PCOD9352244
_publ_section_title
;
Structure prediction by ZEFSAII (Michael W. Deem and Ramdas Pophale) SiO2 
 PCOD9352244
Probable space group: C M C 21
;
_chemical_formula_sum "Si O2"
_cell_formula_units_Z 64
_cell_length_a 7.390933
_cell_length_b 9.913751
_cell_length_c 34.427310
_cell_angle_alpha 90.000000
_cell_angle_beta 90.000000
_cell_angle_gamma 90.000000
_cell_volume 2522.553363
_symmetry_space_group_name_H-M "C M C 21"
_symmetry_group_IT_number 36
_symmetry_cell_setting 'orthorhombic'
loop_
_space_group_symop_operation_xyz
x,y,z
-x,-y,1/2+z
x,-y,1/2+z
-x,y,z
1/2+x,1/2+y,z
1/2-x,1/2-y,1/2+z
1/2+x,1/2-y,1/2+z
1/2-x,1/2+y,z
loop_
_atom_site_type_symbol
_atom_site_label
_atom_site_fract_x
_atom_site_fract_y
_atom_site_fract_z
Si Si1 0.280271 0.336526 0.998940
Si Si2 0.790281 0.578207 0.798984
Si Si3 0.209468 0.314985 0.423023
Si Si4 0.209530 0.420030 0.116548
Si Si5 0.290816 0.912331 0.545332
Si Si6 0.719210 0.324397 0.751351
Si Si7 0.219370 0.827190 0.664074
Si Si8 0.280292 0.062968 0.376772
O O1 0.500000 0.340079 0.998456
O O2 0.213577 0.268835 0.959108
O O3 0.217449 0.486482 0.008615
O O4 0.218087 0.232632 0.032710
O O5 0.778154 0.472645 0.763780
O O6 0.711874 0.717770 0.783257
O O7 0.714375 0.501118 0.836441
O O8 0.000000 0.604116 0.808337
O O9 0.219424 0.213369 0.386456
O O10 0.284527 0.459145 0.410259
O O11 0.000000 0.338419 0.432445
O O12 0.293238 0.502233 0.080510
O O13 0.286311 0.279563 0.131928
O O14 0.219194 0.524498 0.152142
O O15 0.000000 0.394478 0.106569
O O16 0.500000 0.888588 0.555255
O O17 0.500000 0.320147 0.751804
O O18 0.777314 0.291395 0.707609
O O19 0.000000 0.824601 0.663410
O O20 0.500000 0.065367 0.376607
#
# Coordination Sequence:
#
# PCOD9352244 Si02
#       8
#     8   8   8   8   8   8   8   8
#     4  10  21  36  55  81 110 141 179 220 265 319
#     4  10  21  37  57  81 109 142 180 222 268 318
#     4  10  21  37  56  79 109 143 178 219 267 318
#     4  10  21  37  57  81 109 142 180 222 268 318
#     4  10  21  37  57  81 109 142 180 222 268 318
#     4  10  21  37  56  79 109 143 178 219 267 318
#     4  10  21  36  55  81 110 141 179 220 265 319
#     4  10  21  37  57  81 109 142 180 222 268 318
#
# _framework density 25.371117000000002
#
# number of rings (size 3 to 8) (size 9 to 14) (size 15 to 20)
#    0.000    2.000    0.000    3.000    0.000    7.000 
#    0.000    0.000    0.000    0.000    0.000    0.000 
#    0.000    0.000    0.000    0.000    0.000    0.000 
#
# Total GULP energy -179062.211297 kJ/mol
# GULP energy per Si atom -5595.694103 kJ/mol
# Density = 2.531337 g / cm^3
# Si number density = 25.371117 Si / 1000 Ang^3
#
#
#
# Elastic Constant Matrix: (Units=GPa)
#
#
# Indices 1 2 3 4 5 6 
#
# 1 99.3486 -8.9713 1.4138 0.0000 0.0000 0.0000
# 2 -8.9713 106.8448 -13.6789 0.0000 0.0000 0.0000
# 3 1.4138 -13.6789 73.1582 0.0000 0.0000 0.0000
# 4 0.0000 0.0000 0.0000 49.9296 0.0000 0.0000
# 5 0.0000 0.0000 0.0000 0.0000 14.6846 0.0000
# 6 0.0000 0.0000 0.0000 0.0000 0.0000 11.6566
#
#
#
# Elastic Compliance Matrix: (Units=1/GPa)
#
#
# Indices 1 2 3 4 5 6 
#
# 1 0.010143 0.000847 -0.000038 0.000000 0.000000 0.000000
# 2 0.000847 0.009660 0.001790 0.000000 0.000000 0.000000
# 3 -0.000038 0.001790 0.014004 0.000000 0.000000 0.000000
# 4 0.000000 0.000000 0.000000 0.020028 0.000000 0.000000
# 5 0.000000 0.000000 0.000000 0.000000 0.068098 0.000000
# 6 0.000000 0.000000 0.000000 0.000000 0.000000 0.085788
#
#
# Mechanical properties :
#
#
# Convention : Reuss Voigt Hill
#
# Bulk Modulus (GPa) = 25.63815 26.31984 25.97900
# Shear Modulus (GPa) = 23.19917 35.29337 29.24627
#
# Velocity S-wave (km/s) = 3.02717 3.73377 3.39888
# Velocity P-wave (km/s) = 4.72711 5.38373 5.06607
#
# Compressibility (1/GPa) = 0.03900438
#
# Stress axis : x y z
#
# Youngs Moduli (GPa) = 98.59431 103.52388 71.40619
#
# Poissons Ratio (x) = -0.08766 0.00269
# Poissons Ratio (y) = -0.08349 -0.12780
# Poissons Ratio (z) = 0.00371 -0.18528
#
# Static dielectric constant tensor:
#      x y z
#    x 1.951060 0.000000 0.000000 
#    y 0.000000 1.911010 0.000000 
#    z 0.000000 0.000000 2.049460 
# 
# From -- ./inp_files/17297.got.cif
#   From: 2010.05.17/outbox.cif.g08.bks.cpg/sg36_9_cif.got.tgz:17297.got - 2010.06.03 17:41:39.
