data_PCOD9352981
_publ_section_title
;
Structure prediction by ZEFSAII (Michael W. Deem and Ramdas Pophale) SiO2 
 PCOD9352981
Probable space group: C M C 21
;
_chemical_formula_sum "Si O2"
_cell_formula_units_Z 40
_cell_length_a 23.276030
_cell_length_b 7.428093
_cell_length_c 8.578430
_cell_angle_alpha 90.000000
_cell_angle_beta 90.000000
_cell_angle_gamma 90.000000
_cell_volume 1483.180656
_symmetry_space_group_name_H-M "C M C 21"
_symmetry_group_IT_number 36
_symmetry_cell_setting 'orthorhombic'
loop_
_space_group_symop_operation_xyz
x,y,z
-x,-y,1/2+z
x,-y,1/2+z
-x,y,z
1/2+x,1/2+y,z
1/2-x,1/2-y,1/2+z
1/2+x,1/2-y,1/2+z
1/2-x,1/2+y,z
loop_
_atom_site_type_symbol
_atom_site_label
_atom_site_fract_x
_atom_site_fract_y
_atom_site_fract_z
Si Si1 0.936861 0.562577 0.550930
Si Si2 0.616056 0.198366 0.262369
Si Si3 0.934891 0.096076 0.258738
Si Si4 0.209284 0.171081 0.999866
Si Si5 0.678045 0.711140 0.366776
O O1 0.885790 0.440242 0.619754
O O2 0.929019 0.593607 0.370006
O O3 0.935760 0.769777 0.611786
O O4 0.000000 0.484214 0.582038
O O5 0.592758 0.399715 0.229342
O O6 0.673241 0.214764 0.369582
O O7 0.890824 0.207481 0.365247
O O8 0.000000 0.077428 0.317411
O O9 0.276292 0.167466 0.956134
O O10 0.189182 0.972371 0.960205
O O11 0.196475 0.210958 0.182039
#
# Coordination Sequence:
#
# PCOD9352981 Si02
#       5
#     8   8   8   8   8
#     4  11  23  43  72 104 144 192 240 296 365 432
#     4  11  25  45  70 108 148 191 244 302 363 436
#     4  10  23  45  72 104 147 191 241 300 362 436
#     4  11  25  45  73 103 145 188 245 304 364 439
#     4  11  24  46  71 107 138 192 238 300 370 427
#
# _framework density 26.969066000000002
#
# number of rings (size 3 to 8) (size 9 to 14) (size 15 to 20)
#    0.000    1.200    2.000    3.000    2.800    3.200 
#    3.600    2.000    0.000    0.000    0.000    1.400 
#    0.000    0.000    0.000    0.000    0.000    0.000 
#
# Total GULP energy -111807.851682 kJ/mol
# GULP energy per Si atom -5590.392584 kJ/mol
# Density = 2.690768 g / cm^3
# Si number density = 26.969066 Si / 1000 Ang^3
#
#
#
# Elastic Constant Matrix: (Units=GPa)
#
#
# Indices 1 2 3 4 5 6 
#
# 1 190.5424 33.9323 44.9735 0.0000 0.0000 0.0000
# 2 33.9323 105.2675 32.2555 0.0000 0.0000 0.0000
# 3 44.9735 32.2555 133.8835 0.0000 0.0000 0.0000
# 4 0.0000 0.0000 0.0000 29.5108 0.0000 0.0000
# 5 0.0000 0.0000 0.0000 0.0000 30.8752 0.0000
# 6 0.0000 0.0000 0.0000 0.0000 0.0000 -48.0272
#
#
#
# Elastic Compliance Matrix: (Units=1/GPa)
#
#
# Indices 1 2 3 4 5 6 
#
# 1 0.005884 -0.001394 -0.001641 0.000000 0.000000 0.000000
# 2 -0.001394 0.010587 -0.002082 0.000000 0.000000 0.000000
# 3 -0.001641 -0.002082 0.008522 0.000000 0.000000 0.000000
# 4 0.000000 0.000000 0.000000 0.033886 0.000000 0.000000
# 5 0.000000 0.000000 0.000000 0.000000 0.032388 0.000000
# 6 0.000000 0.000000 0.000000 0.000000 0.000000 -0.020822
#
#
# Mechanical properties :
#
#
# Convention : Reuss Voigt Hill
#
# Bulk Modulus (GPa) = 67.75585 72.44621 70.10103
# Shear Modulus (GPa) = 58.41206 23.70723 41.05964
#
# Velocity S-wave (km/s) = 4.65896 2.96810 3.90612
# Velocity P-wave (km/s) = 7.35658 6.21829 6.81126
#
# Compressibility (1/GPa) = 0.01475887
#
# Stress axis : x y z
#
# Youngs Moduli (GPa) = 169.96332 94.45551 117.34357
#
# Poissons Ratio (x) = 0.13166 0.19251
# Poissons Ratio (y) = 0.23690 0.24436
# Poissons Ratio (z) = 0.27884 0.19670
#
# Static dielectric constant tensor:
#      x y z
#    x 2.281770 0.000000 0.000000 
#    y 0.000000 2.102560 0.000000 
#    z 0.000000 0.000000 2.131980 
# 
# From -- ./inp_files/5462.got.cif
#   From: 2010.05.17/outbox.cif.g08.bks.cpg/sg36_3_cif.got.tgz:5462.got - 2010.06.03 17:41:39.
