data_PCOD9352055
_publ_section_title
;
Structure prediction by ZEFSAII (Michael W. Deem and Ramdas Pophale) SiO2 
 PCOD9352055
Probable space group: C M C 21
;
_chemical_formula_sum "Si O2"
_cell_formula_units_Z 48
_cell_length_a 22.638601
_cell_length_b 15.289594
_cell_length_c 5.604711
_cell_angle_alpha 90.000000
_cell_angle_beta 90.000000
_cell_angle_gamma 90.000000
_cell_volume 1939.986743
_symmetry_space_group_name_H-M "C M C 21"
_symmetry_group_IT_number 36
_symmetry_cell_setting 'orthorhombic'
loop_
_space_group_symop_operation_xyz
x,y,z
-x,-y,1/2+z
x,-y,1/2+z
-x,y,z
1/2+x,1/2+y,z
1/2-x,1/2-y,1/2+z
1/2+x,1/2-y,1/2+z
1/2-x,1/2+y,z
loop_
_atom_site_type_symbol
_atom_site_label
_atom_site_fract_x
_atom_site_fract_y
_atom_site_fract_z
Si Si1 0.500000 0.444609 0.681581
Si Si2 0.805620 0.296965 0.199650
Si Si3 0.872821 0.553138 0.480954
Si Si4 0.208865 0.980486 0.970398
Si Si5 0.883580 0.861897 0.509561
Si Si6 0.500000 0.053350 0.552481
Si Si7 0.829311 0.208685 0.611172
O O1 0.500000 0.505413 0.437547
O O2 0.441581 0.385858 0.650736
O O3 0.822362 0.375413 0.028129
O O4 0.841359 0.213018 0.110896
O O5 0.832843 0.298560 0.465738
O O6 0.735870 0.283021 0.236222
O O7 0.871067 0.509585 0.218248
O O8 0.937226 0.599490 0.511556
O O9 0.154345 0.049477 0.973263
O O10 0.240236 0.000174 0.221312
O O11 0.185017 0.882909 0.976149
O O12 0.888743 0.818368 0.247573
O O13 0.500000 0.983662 0.326728
#
# Coordination Sequence:
#
# PCOD9352055 Si02
#       7
#     4   8   8   8   8   4   8
#     4  12  28  49  77 112 154 206 264 310 367 461
#     4  12  25  43  71 102 149 183 252 306 378 442
#     4  10  24  43  69  99 135 182 234 294 359 432
#     4  10  20  38  65  91 127 181 228 274 356 431
#     4  11  25  45  71 104 145 194 247 311 373 447
#     4   8  16  39  65  90 122 164 210 272 341 399
#     4  11  24  43  66  99 143 191 235 307 373 439
#
# _framework density 24.742435
#
# number of rings (size 3 to 8) (size 9 to 14) (size 15 to 20)
#    0.000    1.333    3.333    2.000    4.667    3.333 
#    0.000    0.833    0.000    0.000    0.000    0.000 
#    0.000    0.000    0.000    0.000    0.000    0.000 
#
# Total GULP energy -133657.326347 kJ/mol
# GULP energy per Si atom -5569.055264 kJ/mol
# Density = 2.468612 g / cm^3
# Si number density = 24.742435 Si / 1000 Ang^3
#
#
#
# Elastic Constant Matrix: (Units=GPa)
#
#
# Indices 1 2 3 4 5 6 
#
# 1 99.8103 16.5493 -10.1573 0.0000 0.0000 0.0000
# 2 16.5493 76.2767 32.1725 0.0000 0.0000 0.0000
# 3 -10.1573 32.1725 127.2982 0.0000 0.0000 0.0000
# 4 0.0000 0.0000 0.0000 21.4963 0.0000 0.0000
# 5 0.0000 0.0000 0.0000 0.0000 0.7454 0.0000
# 6 0.0000 0.0000 0.0000 0.0000 0.0000 31.3825
#
#
#
# Elastic Compliance Matrix: (Units=1/GPa)
#
#
# Indices 1 2 3 4 5 6 
#
# 1 0.010680 -0.002996 0.001609 0.000000 0.000000 0.000000
# 2 -0.002996 0.015515 -0.004160 0.000000 0.000000 0.000000
# 3 0.001609 -0.004160 0.009035 0.000000 0.000000 0.000000
# 4 0.000000 0.000000 0.000000 0.046520 0.000000 0.000000
# 5 0.000000 0.000000 0.000000 0.000000 1.341616 0.000000
# 6 0.000000 0.000000 0.000000 0.000000 0.000000 0.031865
#
#
# Mechanical properties :
#
#
# Convention : Reuss Voigt Hill
#
# Bulk Modulus (GPa) = 41.43134 42.27934 41.85534
# Shear Modulus (GPa) = 3.39128 28.37955 15.88542
#
# Velocity S-wave (km/s) = 1.17201 3.39041 2.53658
# Velocity P-wave (km/s) = 4.31427 5.69661 5.05293
#
# Compressibility (1/GPa) = 0.02413632
#
# Stress axis : x y z
#
# Youngs Moduli (GPa) = 93.63719 64.45433 110.67596
#
# Poissons Ratio (x) = 0.19310 -0.17811
# Poissons Ratio (y) = 0.28052 0.46043
# Poissons Ratio (z) = -0.15069 0.26814
#
# Static dielectric constant tensor:
#      x y z
#    x 1.964870 0.000000 0.000000 
#    y 0.000000 1.929010 0.000000 
#    z 0.000000 0.000000 2.819510 
# 
# From -- ./inp_files/1745.got.cif
#   From: 2010.05.17/outbox.cif.g08.bks.cpg/sg36_1_cif.got.tgz:1745.got - 2010.06.03 17:41:39.
