data_PCOD9352814
_publ_section_title
;
Structure prediction by ZEFSAII (Michael W. Deem and Ramdas Pophale) SiO2 
 PCOD9352814
Probable space group: C M C 21
;
_chemical_formula_sum "Si O2"
_cell_formula_units_Z 56
_cell_length_a 14.289768
_cell_length_b 19.338355
_cell_length_c 8.943463
_cell_angle_alpha 90.000000
_cell_angle_beta 90.000000
_cell_angle_gamma 90.000000
_cell_volume 2471.441989
_symmetry_space_group_name_H-M "C M C 21"
_symmetry_group_IT_number 36
_symmetry_cell_setting 'orthorhombic'
loop_
_space_group_symop_operation_xyz
x,y,z
-x,-y,1/2+z
x,-y,1/2+z
-x,y,z
1/2+x,1/2+y,z
1/2-x,1/2-y,1/2+z
1/2+x,1/2-y,1/2+z
1/2-x,1/2+y,z
loop_
_atom_site_type_symbol
_atom_site_label
_atom_site_fract_x
_atom_site_fract_y
_atom_site_fract_z
Si Si1 0.105446 0.146217 0.726830
Si Si2 0.788305 0.202098 0.994134
Si Si3 0.259201 0.861738 0.993803
Si Si4 0.324671 0.590437 0.205623
Si Si5 0.390217 0.100791 0.996516
Si Si6 0.102135 0.986904 0.441047
Si Si7 0.891463 0.535833 0.672625
O O1 0.168084 0.195635 0.829463
O O2 0.158638 0.131462 0.574502
O O3 0.103461 0.077186 0.826590
O O4 0.000000 0.171140 0.704574
O O5 0.785011 0.282588 0.025367
O O6 0.687702 0.161576 0.999563
O O7 0.851991 0.158798 0.111654
O O8 0.253477 0.879343 0.818865
O O9 0.328376 0.914372 0.073646
O O10 0.384447 0.550713 0.330177
O O11 0.322990 0.533739 0.069591
O O12 0.500000 0.123824 0.995692
O O13 0.373333 0.056220 0.844676
O O14 0.378806 0.044282 0.128386
O O15 0.000000 0.990815 0.515272
O O16 0.000000 0.551089 0.641436
#
# Coordination Sequence:
#
# PCOD9352814 Si02
#       7
#     8   8   8   8   8   8   8
#     4  10  23  43  67  94 139 182 226 286 352 424
#     4  11  25  44  67 100 139 186 235 290 356 439
#     4  12  25  42  68 102 138 185 235 292 357 435
#     4  11  25  37  67  97 135 184 225 290 362 414
#     4  10  23  44  70  99 131 174 231 294 351 410
#     4  10  22  42  63  98 137 178 236 291 343 426
#     4  10  24  44  70  98 131 175 231 295 350 408
#
# _framework density 22.658837999999999
#
# number of rings (size 3 to 8) (size 9 to 14) (size 15 to 20)
#    0.000    1.429    1.429    2.143    8.000    4.000 
#    0.000    0.000    0.000    0.000    0.000    0.000 
#    0.000    0.000    0.000    0.000    0.000    0.000 
#
# Total GULP energy -156245.791509 kJ/mol
# GULP energy per Si atom -5580.206840 kJ/mol
# Density = 2.260727 g / cm^3
# Si number density = 22.658838 Si / 1000 Ang^3
#
#
#
# Elastic Constant Matrix: (Units=GPa)
#
#
# Indices 1 2 3 4 5 6 
#
# 1 83.5398 48.1046 24.2961 0.0000 0.0000 0.0000
# 2 48.1046 106.0376 27.9572 0.0000 0.0000 0.0000
# 3 24.2961 27.9572 118.3209 0.0000 0.0000 0.0000
# 4 0.0000 0.0000 0.0000 25.2663 0.0000 0.0000
# 5 0.0000 0.0000 0.0000 0.0000 27.9721 0.0000
# 6 0.0000 0.0000 0.0000 0.0000 0.0000 6.6272
#
#
#
# Elastic Compliance Matrix: (Units=1/GPa)
#
#
# Indices 1 2 3 4 5 6 
#
# 1 0.016529 -0.007042 -0.001730 0.000000 0.000000 0.000000
# 2 -0.007042 0.013058 -0.001639 0.000000 0.000000 0.000000
# 3 -0.001730 -0.001639 0.009194 0.000000 0.000000 0.000000
# 4 0.000000 0.000000 0.000000 0.039578 0.000000 0.000000
# 5 0.000000 0.000000 0.000000 0.000000 0.035750 0.000000
# 6 0.000000 0.000000 0.000000 0.000000 0.000000 0.150893
#
#
# Mechanical properties :
#
#
# Convention : Reuss Voigt Hill
#
# Bulk Modulus (GPa) = 55.68737 56.51269 56.10003
# Shear Modulus (GPa) = 17.13443 25.80914 21.47178
#
# Velocity S-wave (km/s) = 2.75288 3.37862 3.08167
# Velocity P-wave (km/s) = 5.89358 6.34152 6.12165
#
# Compressibility (1/GPa) = 0.01795739
#
# Stress axis : x y z
#
# Youngs Moduli (GPa) = 60.50130 76.58426 108.76462
#
# Poissons Ratio (x) = 0.53932 0.18817
# Poissons Ratio (y) = 0.42606 0.17829
# Poissons Ratio (z) = 0.10467 0.12554
#
# Static dielectric constant tensor:
#      x y z
#    x 1.961850 0.000000 0.000000 
#    y 0.000000 1.881080 0.000000 
#    z 0.000000 0.000000 1.819830 
# 
# From -- ./inp_files/4208.got.cif
#   From: 2010.05.17/outbox.cif.g08.bks.cpg/sg36_3_cif.got.tgz:4208.got - 2010.06.03 17:41:39.
