data_PCOD9352208
_publ_section_title
;
Structure prediction by ZEFSAII (Michael W. Deem and Ramdas Pophale) SiO2 
 PCOD9352208
Probable space group: C M C 21
;
_chemical_formula_sum "Si O2"
_cell_formula_units_Z 64
_cell_length_a 17.697099
_cell_length_b 29.748354
_cell_length_c 5.343044
_cell_angle_alpha 90.000000
_cell_angle_beta 90.000000
_cell_angle_gamma 90.000000
_cell_volume 2812.896624
_symmetry_space_group_name_H-M "C M C 21"
_symmetry_group_IT_number 36
_symmetry_cell_setting 'orthorhombic'
loop_
_space_group_symop_operation_xyz
x,y,z
-x,-y,1/2+z
x,-y,1/2+z
-x,y,z
1/2+x,1/2+y,z
1/2-x,1/2-y,1/2+z
1/2+x,1/2-y,1/2+z
1/2-x,1/2+y,z
loop_
_atom_site_type_symbol
_atom_site_label
_atom_site_fract_x
_atom_site_fract_y
_atom_site_fract_z
Si Si1 0.407720 0.521933 0.109820
Si Si2 0.584361 0.784166 0.114832
Si Si3 0.820672 0.228522 0.745631
Si Si4 0.091186 0.475052 0.978462
Si Si5 0.695855 0.817837 0.506607
Si Si6 0.587938 0.124636 0.282473
Si Si7 0.409403 0.666864 0.405181
Si Si8 0.908545 0.882307 0.410387
O O1 0.384270 0.513515 0.395373
O O2 0.500000 0.521717 0.115529
O O3 0.382397 0.569035 0.996119
O O4 0.500000 0.769870 0.158744
O O5 0.624417 0.744280 0.966176
O O6 0.585474 0.829994 0.948669
O O7 0.621921 0.799375 0.369053
O O8 0.761615 0.188772 0.804426
O O9 0.781191 0.276840 0.692377
O O10 0.870045 0.210544 0.516626
O O11 0.119243 0.504252 0.740585
O O12 0.102953 0.421868 0.928992
O O13 0.000000 0.480283 0.986191
O O14 0.662792 0.864074 0.614734
O O15 0.500000 0.120316 0.175652
O O16 0.500000 0.671789 0.400299
O O17 0.391787 0.630628 0.625545
O O18 0.382705 0.650664 0.133701
O O19 0.000000 0.882102 0.423900
#
# Coordination Sequence:
#
# PCOD9352208 Si02
#       8
#     8   8   8   8   8   8   8   8
#     4   9  15  24  43  70 101 134 167 213 280 348
#     4  10  21  37  59  84 117 157 202 255 306 363
#     4  11  23  38  56  81 112 154 205 250 299 357
#     4   9  18  32  55  88 126 161 197 249 309 370
#     4  11  22  38  58  82 118 156 202 258 297 362
#     4   9  20  36  57  89 122 159 205 252 311 372
#     4  10  21  35  54  77 109 146 187 237 290 347
#     4   9  18  32  48  75 108 137 176 228 281 343
#
# _framework density 22.752345999999999
#
# number of rings (size 3 to 8) (size 9 to 14) (size 15 to 20)
#    0.000    2.250    1.250    1.500    3.500    4.500 
#    0.000    0.000    0.000    0.000    0.000    5.250 
#    0.000    0.000    0.000    0.000    0.000    0.250 
#
# Total GULP energy -178398.392157 kJ/mol
# GULP energy per Si atom -5574.949755 kJ/mol
# Density = 2.270056 g / cm^3
# Si number density = 22.752346 Si / 1000 Ang^3
#
#
#
# Elastic Constant Matrix: (Units=GPa)
#
#
# Indices 1 2 3 4 5 6 
#
# 1 26.7359 -2.3389 -7.4657 0.0000 0.0000 0.0000
# 2 -2.3389 74.9535 4.1224 0.0000 0.0000 0.0000
# 3 -7.4657 4.1224 57.0002 0.0000 0.0000 0.0000
# 4 0.0000 0.0000 0.0000 30.2758 0.0000 0.0000
# 5 0.0000 0.0000 0.0000 0.0000 35.1337 0.0000
# 6 0.0000 0.0000 0.0000 0.0000 0.0000 12.9846
#
#
#
# Elastic Compliance Matrix: (Units=1/GPa)
#
#
# Indices 1 2 3 4 5 6 
#
# 1 0.038888 0.000937 0.005026 0.000000 0.000000 0.000000
# 2 0.000937 0.013417 -0.000848 0.000000 0.000000 0.000000
# 3 0.005026 -0.000848 0.018263 0.000000 0.000000 0.000000
# 4 0.000000 0.000000 0.000000 0.033030 0.000000 0.000000
# 5 0.000000 0.000000 0.000000 0.000000 0.028463 0.000000
# 6 0.000000 0.000000 0.000000 0.000000 0.000000 0.077014
#
#
# Mechanical properties :
#
#
# Convention : Reuss Voigt Hill
#
# Bulk Modulus (GPa) = 12.37635 16.36946 14.37290
# Shear Modulus (GPa) = 22.14559 26.63694 24.39127
#
# Velocity S-wave (km/s) = 3.12321 3.42531 3.27774
# Velocity P-wave (km/s) = 4.29620 4.78058 4.54485
#
# Compressibility (1/GPa) = 0.08079927
#
# Stress axis : x y z
#
# Youngs Moduli (GPa) = 25.71476 74.52972 54.75444
#
# Poissons Ratio (x) = -0.06984 -0.27518
# Poissons Ratio (y) = -0.02410 0.04641
# Poissons Ratio (z) = -0.12923 0.06317
#
# Static dielectric constant tensor:
#      x y z
#    x 1.871130 0.000000 0.000000 
#    y 0.000000 1.883310 0.000000 
#    z 0.000000 0.000000 1.922990 
# 
# From -- ./inp_files/1482.got.cif
#   From: 2010.05.17/outbox.cif.g08.bks.cpg/sg36_1_cif.got.tgz:1482.got - 2010.06.03 17:41:39.
