data_PCOD9352070
_publ_section_title
;
Structure prediction by ZEFSAII (Michael W. Deem and Ramdas Pophale) SiO2 
 PCOD9352070
Probable space group: C M C 21
;
_chemical_formula_sum "Si O2"
_cell_formula_units_Z 52
_cell_length_a 7.459269
_cell_length_b 9.777687
_cell_length_c 27.555399
_cell_angle_alpha 90.000000
_cell_angle_beta 90.000000
_cell_angle_gamma 90.000000
_cell_volume 2009.736425
_symmetry_space_group_name_H-M "C M C 21"
_symmetry_group_IT_number 36
_symmetry_cell_setting 'orthorhombic'
loop_
_space_group_symop_operation_xyz
x,y,z
-x,-y,1/2+z
x,-y,1/2+z
-x,y,z
1/2+x,1/2+y,z
1/2-x,1/2-y,1/2+z
1/2+x,1/2-y,1/2+z
1/2-x,1/2+y,z
loop_
_atom_site_type_symbol
_atom_site_label
_atom_site_fract_x
_atom_site_fract_y
_atom_site_fract_z
Si Si1 0.798920 0.792286 0.246090
Si Si2 0.291738 0.130138 0.039910
Si Si3 0.206254 0.463696 0.693340
Si Si4 0.285405 0.288413 0.947384
Si Si5 0.290695 0.464152 0.385870
Si Si6 0.717482 0.118256 0.598045
Si Si7 0.000000 0.390858 0.820323
O O1 0.698896 0.934245 0.239647
O O2 0.000000 0.830261 0.228769
O O3 0.777618 0.951465 0.147997
O O4 0.844321 0.712908 0.295406
O O5 0.500000 0.106580 0.028893
O O6 0.216511 0.983854 0.055372
O O7 0.280880 0.230083 0.086437
O O8 0.210556 0.216889 0.995732
O O9 0.287585 0.321103 0.710472
O O10 0.000000 0.431003 0.681726
O O11 0.500000 0.287933 0.951125
O O12 0.228144 0.191631 0.902955
O O13 0.236137 0.442218 0.932907
O O14 0.500000 0.489252 0.374128
O O15 0.156655 0.513305 0.345085
O O16 0.500000 0.121722 0.598189
#
# Coordination Sequence:
#
# PCOD9352070 Si02
#       7
#     8   8   8   8   8   8   4
#     4   9  22  41  60  87 118 156 203 265 312 373
#     4  10  21  38  60  91 126 166 206 255 305 366
#     4  10  20  39  61  86 123 162 202 255 319 373
#     4  10  22  41  63  92 131 168 215 263 316 381
#     4  11  24  42  66  95 127 173 210 266 325 382
#     4  10  21  35  58  91 123 161 206 252 304 372
#     4  10  24  46  64  98 126 162 220 270 320 388
#
# _framework density 25.874040000000001
#
# number of rings (size 3 to 8) (size 9 to 14) (size 15 to 20)
#    0.462    1.538    0.769    1.846    1.077    5.538 
#    0.000    0.000    0.000    0.000    0.000    0.000 
#    0.000    0.000    0.000    0.000    0.000    0.000 
#
# Total GULP energy -144819.652882 kJ/mol
# GULP energy per Si atom -5569.986649 kJ/mol
# Density = 2.581515 g / cm^3
# Si number density = 25.874040 Si / 1000 Ang^3
#
#
#
# Elastic Constant Matrix: (Units=GPa)
#
#
# Indices 1 2 3 4 5 6 
#
# 1 83.9004 -13.4023 -2.3126 0.0000 0.0000 0.0000
# 2 -13.4023 107.4177 -1.8285 0.0000 0.0000 0.0000
# 3 -2.3126 -1.8285 83.5965 0.0000 0.0000 0.0000
# 4 0.0000 0.0000 0.0000 45.9476 0.0000 0.0000
# 5 0.0000 0.0000 0.0000 0.0000 1.0425 0.0000
# 6 0.0000 0.0000 0.0000 0.0000 0.0000 130.9346
#
#
#
# Elastic Compliance Matrix: (Units=1/GPa)
#
#
# Indices 1 2 3 4 5 6 
#
# 1 0.012173 0.001525 0.000370 0.000000 0.000000 0.000000
# 2 0.001525 0.009504 0.000250 0.000000 0.000000 0.000000
# 3 0.000370 0.000250 0.011978 0.000000 0.000000 0.000000
# 4 0.000000 0.000000 0.000000 0.021764 0.000000 0.000000
# 5 0.000000 0.000000 0.000000 0.000000 0.959222 0.000000
# 6 0.000000 0.000000 0.000000 0.000000 0.000000 0.007637
#
#
# Mechanical properties :
#
#
# Convention : Reuss Voigt Hill
#
# Bulk Modulus (GPa) = 26.35385 26.64752 26.50068
# Shear Modulus (GPa) = 4.85137 55.08215 29.96676
#
# Velocity S-wave (km/s) = 1.37079 4.61896 3.40689
# Velocity P-wave (km/s) = 3.56553 6.22637 5.07349
#
# Compressibility (1/GPa) = 0.03794513
#
# Stress axis : x y z
#
# Youngs Moduli (GPa) = 82.15096 105.21899 83.48682
#
# Poissons Ratio (x) = -0.16047 -0.03090
# Poissons Ratio (y) = -0.12529 -0.02088
# Poissons Ratio (z) = -0.03040 -0.02631
#
# Static dielectric constant tensor:
#      x y z
#    x 1.955920 0.000000 0.000000 
#    y 0.000000 1.975310 0.000000 
#    z 0.000000 0.000000 2.170840 
# 
# From -- ./inp_files/17089.got.cif
#   From: 2010.05.17/outbox.cif.g08.bks.cpg/sg36_9_cif.got.tgz:17089.got - 2010.06.03 17:41:39.
