data_PCOD9352973
_publ_section_title
;
Structure prediction by ZEFSAII (Michael W. Deem and Ramdas Pophale) SiO2 
 PCOD9352973
Probable space group: C M C 21
;
_chemical_formula_sum "Si O2"
_cell_formula_units_Z 64
_cell_length_a 24.151638
_cell_length_b 8.777022
_cell_length_c 14.938540
_cell_angle_alpha 90.000000
_cell_angle_beta 90.000000
_cell_angle_gamma 90.000000
_cell_volume 3166.663613
_symmetry_space_group_name_H-M "C M C 21"
_symmetry_group_IT_number 36
_symmetry_cell_setting 'orthorhombic'
loop_
_space_group_symop_operation_xyz
x,y,z
-x,-y,1/2+z
x,-y,1/2+z
-x,y,z
1/2+x,1/2+y,z
1/2-x,1/2-y,1/2+z
1/2+x,1/2-y,1/2+z
1/2-x,1/2+y,z
loop_
_atom_site_type_symbol
_atom_site_label
_atom_site_fract_x
_atom_site_fract_y
_atom_site_fract_z
Si Si1 0.061584 0.560471 0.131810
Si Si2 0.269419 0.588313 0.640737
Si Si3 0.156022 0.043082 0.987395
Si Si4 0.210587 0.779987 0.324615
Si Si5 0.936412 0.711345 0.496131
Si Si6 0.680598 0.107401 0.072621
Si Si7 0.170039 0.731375 0.888536
Si Si8 0.888259 0.543630 0.320983
O O1 0.116894 0.641850 0.095413
O O2 0.070424 0.559193 0.237903
O O3 0.000000 0.620463 0.109448
O O4 0.066001 0.396003 0.083661
O O5 0.309165 0.488632 0.577072
O O6 0.286275 0.598011 0.744020
O O7 0.280798 0.758229 0.607378
O O8 0.206536 0.540359 0.619208
O O9 0.190188 0.142961 0.915950
O O10 0.101313 0.140124 0.005632
O O11 0.146986 0.879866 0.938777
O O12 0.273233 0.725440 0.339585
O O13 0.166986 0.645683 0.302762
O O14 0.914403 0.610379 0.412251
O O15 0.000000 0.751897 0.479506
O O16 0.685199 0.107457 0.966013
O O17 0.128556 0.633360 0.829109
#
# Coordination Sequence:
#
# PCOD9352973 Si02
#       8
#     8   8   8   8   8   8   8   8
#     4  11  23  42  67  95 127 172 227 270 321 391
#     4  11  24  38  62  93 134 169 211 268 337 394
#     4  10  24  40  63  91 131 171 216 267 328 403
#     4  11  22  38  61  95 135 172 210 264 336 399
#     4  10  23  44  68  91 127 177 223 281 336 388
#     4  11  23  40  62  95 127 172 211 270 330 393
#     4  11  22  38  62  97 129 165 213 268 327 398
#     4  11  22  40  67  95 130 168 224 274 329 392
#
# _framework density 20.210546999999998
#
# number of rings (size 3 to 8) (size 9 to 14) (size 15 to 20)
#    0.000    1.250    3.750    1.875    5.250    1.000 
#    0.000    3.750    0.000    1.500    0.000    0.000 
#    0.000    0.000    0.000    0.000    0.000    0.000 
#
# Total GULP energy -178678.397336 kJ/mol
# GULP energy per Si atom -5583.699917 kJ/mol
# Density = 2.016455 g / cm^3
# Si number density = 20.210547 Si / 1000 Ang^3
#
#
#
# Elastic Constant Matrix: (Units=GPa)
#
#
# Indices 1 2 3 4 5 6 
#
# 1 106.4988 40.1665 25.6161 0.0000 0.0000 0.0000
# 2 40.1665 74.2650 16.9419 0.0000 0.0000 0.0000
# 3 25.6161 16.9419 82.9004 0.0000 0.0000 0.0000
# 4 0.0000 0.0000 0.0000 27.0572 0.0000 0.0000
# 5 0.0000 0.0000 0.0000 0.0000 27.3353 0.0000
# 6 0.0000 0.0000 0.0000 0.0000 0.0000 28.7993
#
#
#
# Elastic Compliance Matrix: (Units=1/GPa)
#
#
# Indices 1 2 3 4 5 6 
#
# 1 0.012293 -0.006065 -0.002559 0.000000 0.000000 0.000000
# 2 -0.006065 0.017116 -0.001624 0.000000 0.000000 0.000000
# 3 -0.002559 -0.001624 0.013185 0.000000 0.000000 0.000000
# 4 0.000000 0.000000 0.000000 0.036959 0.000000 0.000000
# 5 0.000000 0.000000 0.000000 0.000000 0.036583 0.000000
# 6 0.000000 0.000000 0.000000 0.000000 0.000000 0.034723
#
#
# Mechanical properties :
#
#
# Convention : Reuss Voigt Hill
#
# Bulk Modulus (GPa) = 45.25182 47.67922 46.46552
# Shear Modulus (GPa) = 27.97677 28.70101 28.33889
#
# Velocity S-wave (km/s) = 3.72461 3.77251 3.74864
# Velocity P-wave (km/s) = 6.39811 6.52827 6.46351
#
# Compressibility (1/GPa) = 0.02209856
#
# Stress axis : x y z
#
# Youngs Moduli (GPa) = 81.34953 58.42532 75.84235
#
# Poissons Ratio (x) = 0.35433 0.19408
# Poissons Ratio (y) = 0.49336 0.12316
# Poissons Ratio (z) = 0.20817 0.09488
#
# Static dielectric constant tensor:
#      x y z
#    x 1.725350 0.000000 0.000000 
#    y 0.000000 1.730330 0.000000 
#    z 0.000000 0.000000 1.770450 
# 
# From -- ./inp_files/12970.got.cif
#   From: 2010.05.17/outbox.cif.g08.bks.cpg/sg36_7_cif.got.tgz:12970.got - 2010.06.03 17:41:39.
