data_PCOD9352222
_publ_section_title
;
Structure prediction by ZEFSAII (Michael W. Deem and Ramdas Pophale) SiO2 
 PCOD9352222
Probable space group: C M C 21
;
_chemical_formula_sum "Si O2"
_cell_formula_units_Z 56
_cell_length_a 21.672381
_cell_length_b 10.325324
_cell_length_c 13.826804
_cell_angle_alpha 90.000000
_cell_angle_beta 90.000000
_cell_angle_gamma 90.000000
_cell_volume 3094.084156
_symmetry_space_group_name_H-M "C M C 21"
_symmetry_group_IT_number 36
_symmetry_cell_setting 'orthorhombic'
loop_
_space_group_symop_operation_xyz
x,y,z
-x,-y,1/2+z
x,-y,1/2+z
-x,y,z
1/2+x,1/2+y,z
1/2-x,1/2-y,1/2+z
1/2+x,1/2-y,1/2+z
1/2-x,1/2+y,z
loop_
_atom_site_type_symbol
_atom_site_label
_atom_site_fract_x
_atom_site_fract_y
_atom_site_fract_z
Si Si1 0.215640 0.357434 0.834970
Si Si2 0.251969 0.774285 0.525756
Si Si3 0.071637 0.683616 0.747084
Si Si4 0.670205 0.603633 0.186822
Si Si5 0.845297 0.187913 0.682514
Si Si6 0.428006 0.069795 0.113070
Si Si7 0.639404 0.073642 0.919154
O O1 0.276717 0.389358 0.771429
O O2 0.182525 0.237290 0.783324
O O3 0.168359 0.475652 0.841442
O O4 0.225453 0.321953 0.946419
O O5 0.204624 0.863297 0.585643
O O6 0.288995 0.696385 0.607001
O O7 0.301906 0.855280 0.465329
O O8 0.119166 0.787088 0.704099
O O9 0.077119 0.548147 0.688689
O O10 0.093387 0.662428 0.857436
O O11 0.000000 0.723424 0.741908
O O12 0.638537 0.462616 0.187346
O O13 0.893617 0.298365 0.648105
O O14 0.500000 0.098082 0.099407
O O15 0.397777 0.023292 0.012123
#
# Coordination Sequence:
#
# PCOD9352222 Si02
#       7
#     8   8   8   8   8   8   8
#     4  11  20  35  60  88 126 153 196 254 311 359
#     4  10  21  35  58  89 125 157 193 251 314 365
#     4  11  23  41  63  87 122 169 209 248 295 370
#     4  11  23  37  59  93 128 157 205 250 314 368
#     4  10  22  36  57  89 120 157 196 251 312 363
#     4  10  22  41  63  85 117 163 213 253 299 367
#     4  11  20  37  62  91 117 158 206 251 297 364
#
# _framework density 18.099055
#
# number of rings (size 3 to 8) (size 9 to 14) (size 15 to 20)
#    0.000    1.429    2.857    3.000    2.000    0.571 
#    0.000    0.000    0.000    0.000    0.000    0.000 
#    0.000    0.000    0.000    0.000    0.000    0.000 
#
# Total GULP energy -156119.870661 kJ/mol
# GULP energy per Si atom -5575.709666 kJ/mol
# Density = 1.805786 g / cm^3
# Si number density = 18.099055 Si / 1000 Ang^3
#
#
#
# Elastic Constant Matrix: (Units=GPa)
#
#
# Indices 1 2 3 4 5 6 
#
# 1 103.5444 37.2106 24.1791 0.0000 0.0000 0.0000
# 2 37.2106 73.0822 5.9863 0.0000 0.0000 0.0000
# 3 24.1791 5.9863 49.4639 0.0000 0.0000 0.0000
# 4 0.0000 0.0000 0.0000 21.4388 0.0000 0.0000
# 5 0.0000 0.0000 0.0000 0.0000 21.1388 0.0000
# 6 0.0000 0.0000 0.0000 0.0000 0.0000 16.5747
#
#
#
# Elastic Compliance Matrix: (Units=1/GPa)
#
#
# Indices 1 2 3 4 5 6 
#
# 1 0.013248 -0.006277 -0.005716 0.000000 0.000000 0.000000
# 2 -0.006277 0.016795 0.001036 0.000000 0.000000 0.000000
# 3 -0.005716 0.001036 0.022886 0.000000 0.000000 0.000000
# 4 0.000000 0.000000 0.000000 0.046644 0.000000 0.000000
# 5 0.000000 0.000000 0.000000 0.000000 0.047306 0.000000
# 6 0.000000 0.000000 0.000000 0.000000 0.000000 0.060333
#
#
# Mechanical properties :
#
#
# Convention : Reuss Voigt Hill
#
# Bulk Modulus (GPa) = 32.24445 40.09361 36.16903
# Shear Modulus (GPa) = 20.87981 22.41142 21.64561
#
# Velocity S-wave (km/s) = 3.40021 3.52272 3.46201
# Velocity P-wave (km/s) = 5.76797 6.22466 6.00066
#
# Compressibility (1/GPa) = 0.03101309
#
# Stress axis : x y z
#
# Youngs Moduli (GPa) = 75.48051 59.54319 43.69531
#
# Poissons Ratio (x) = 0.37377 0.24978
# Poissons Ratio (y) = 0.47382 -0.04527
# Poissons Ratio (z) = 0.43148 -0.06169
#
# Static dielectric constant tensor:
#      x y z
#    x 1.624550 0.000000 0.000000 
#    y 0.000000 1.647090 0.000000 
#    z 0.000000 0.000000 1.644060 
# 
# From -- ./inp_files/12839.got.cif
#   From: 2010.05.17/outbox.cif.g08.bks.cpg/sg36_7_cif.got.tgz:12839.got - 2010.06.03 17:41:39.
