data_PCOD9352014
_publ_section_title
;
Structure prediction by ZEFSAII (Michael W. Deem and Ramdas Pophale) SiO2 
 PCOD9352014
Probable space group: C M C 21
;
_chemical_formula_sum "Si O2"
_cell_formula_units_Z 48
_cell_length_a 8.364815
_cell_length_b 27.878407
_cell_length_c 10.330486
_cell_angle_alpha 90.000000
_cell_angle_beta 90.000000
_cell_angle_gamma 90.000000
_cell_volume 2409.045751
_symmetry_space_group_name_H-M "C M C 21"
_symmetry_group_IT_number 36
_symmetry_cell_setting 'orthorhombic'
loop_
_space_group_symop_operation_xyz
x,y,z
-x,-y,1/2+z
x,-y,1/2+z
-x,y,z
1/2+x,1/2+y,z
1/2-x,1/2-y,1/2+z
1/2+x,1/2-y,1/2+z
1/2-x,1/2+y,z
loop_
_atom_site_type_symbol
_atom_site_label
_atom_site_fract_x
_atom_site_fract_y
_atom_site_fract_z
Si Si1 0.193140 0.822614 0.799610
Si Si2 0.189982 0.536706 0.931979
Si Si3 0.309879 0.534356 0.650389
Si Si4 0.692926 0.858521 0.526131
Si Si5 0.806809 0.858200 0.079683
Si Si6 0.692885 0.212440 0.801648
O O1 0.250222 0.849055 0.671025
O O2 0.249346 0.767262 0.798031
O O3 0.000000 0.822410 0.799228
O O4 0.245593 0.847341 0.933161
O O5 0.269863 0.521234 0.797759
O O6 0.000000 0.538648 0.911443
O O7 0.229347 0.500817 0.047972
O O8 0.246927 0.590096 0.971286
O O9 0.500000 0.532429 0.630423
O O10 0.254659 0.589157 0.626132
O O11 0.500000 0.858637 0.525796
O O12 0.748089 0.816400 0.429216
O O13 0.745765 0.817647 0.177096
O O14 0.000000 0.857110 0.082716
O O15 0.500000 0.213300 0.804912
#
# Coordination Sequence:
#
# PCOD9352014 Si02
#       6
#     8   8   8   8   8   8
#     4  10  22  37  58  89 123 160 201 247 296 352
#     4  11  24  43  66  92 122 161 204 253 309 366
#     4  11  24  42  65  93 123 161 204 253 309 366
#     4  10  22  40  61  87 121 159 199 247 301 356
#     4  10  22  40  61  87 121 159 198 246 302 356
#     4  10  20  38  61  86 120 160 202 248 297 352
#
# _framework density 19.924903
#
# number of rings (size 3 to 8) (size 9 to 14) (size 15 to 20)
#    0.000    1.667    1.667    2.000    2.333    5.333 
#    0.000    0.000    0.000    0.000    0.000    0.000 
#    0.000    0.000    0.000    0.000    0.000    0.000 
#
# Total GULP energy -134168.119517 kJ/mol
# GULP energy per Si atom -5590.338313 kJ/mol
# Density = 1.987955 g / cm^3
# Si number density = 19.924903 Si / 1000 Ang^3
#
#
#
# Elastic Constant Matrix: (Units=GPa)
#
#
# Indices 1 2 3 4 5 6 
#
# 1 6.5388 0.0888 -6.1366 0.0000 0.0000 0.0000
# 2 0.0888 53.4550 11.9125 0.0000 0.0000 0.0000
# 3 -6.1366 11.9125 130.7560 0.0000 0.0000 0.0000
# 4 0.0000 0.0000 0.0000 41.1069 0.0000 0.0000
# 5 0.0000 0.0000 0.0000 0.0000 153.3192 0.0000
# 6 0.0000 0.0000 0.0000 0.0000 0.0000 17.5275
#
#
#
# Elastic Compliance Matrix: (Units=1/GPa)
#
#
# Indices 1 2 3 4 5 6 
#
# 1 0.160184 -0.001982 0.007698 0.000000 0.000000 0.000000
# 2 -0.001982 0.019120 -0.001835 0.000000 0.000000 0.000000
# 3 0.007698 -0.001835 0.008176 0.000000 0.000000 0.000000
# 4 0.000000 0.000000 0.000000 0.024327 0.000000 0.000000
# 5 0.000000 0.000000 0.000000 0.000000 0.006522 0.000000
# 6 0.000000 0.000000 0.000000 0.000000 0.000000 0.057053
#
#
# Mechanical properties :
#
#
# Convention : Reuss Voigt Hill
#
# Bulk Modulus (GPa) = 5.12182 22.49770 13.80976
# Shear Modulus (GPa) = 15.02858 54.71640 34.87249
#
# Velocity S-wave (km/s) = 2.74936 5.24604 4.18807
# Velocity P-wave (km/s) = 3.55736 6.92895 5.50750
#
# Compressibility (1/GPa) = 0.19524309
#
# Stress axis : x y z
#
# Youngs Moduli (GPa) = 6.24283 52.30261 122.30479
#
# Poissons Ratio (x) = 0.10365 -0.94153
# Poissons Ratio (y) = 0.01237 0.22442
# Poissons Ratio (z) = -0.04806 0.09597
#
# Static dielectric constant tensor:
#      x y z
#    x 1.691990 0.000000 0.000000 
#    y 0.000000 1.692370 0.000000 
#    z 0.000000 0.000000 1.660220 
# 
# From -- ./inp_files/2673.got.cif
#   From: 2010.05.17/outbox.cif.g08.bks.cpg/sg36_2_cif.got.tgz:2673.got - 2010.06.03 17:41:39.
