data_PCOD9352785
_publ_section_title
;
Structure prediction by ZEFSAII (Michael W. Deem and Ramdas Pophale) SiO2 
 PCOD9352785
Probable space group: C M C 21
;
_chemical_formula_sum "Si O2"
_cell_formula_units_Z 64
_cell_length_a 8.775592
_cell_length_b 15.823361
_cell_length_c 24.279011
_cell_angle_alpha 90.000000
_cell_angle_beta 90.000000
_cell_angle_gamma 90.000000
_cell_volume 3371.367934
_symmetry_space_group_name_H-M "C M C 21"
_symmetry_group_IT_number 36
_symmetry_cell_setting 'orthorhombic'
loop_
_space_group_symop_operation_xyz
x,y,z
-x,-y,1/2+z
x,-y,1/2+z
-x,y,z
1/2+x,1/2+y,z
1/2-x,1/2-y,1/2+z
1/2+x,1/2-y,1/2+z
1/2-x,1/2+y,z
loop_
_atom_site_type_symbol
_atom_site_label
_atom_site_fract_x
_atom_site_fract_y
_atom_site_fract_z
Si Si1 0.318328 0.657947 0.704510
Si Si2 0.683229 0.904103 0.090789
Si Si3 0.182107 0.594693 0.087698
Si Si4 0.682196 0.092867 0.816973
Si Si5 0.317167 0.653529 0.202351
Si Si6 0.316852 0.584381 0.323061
Si Si7 0.816345 0.751172 0.893689
Si Si8 0.682447 0.745350 0.015417
O O1 0.500000 0.664584 0.705118
O O2 0.263239 0.612983 0.648897
O O3 0.260616 0.608850 0.758215
O O4 0.244077 0.750960 0.705353
O O5 0.500000 0.899120 0.098991
O O6 0.727637 0.830235 0.048590
O O7 0.718989 0.998594 0.070724
O O8 0.244131 0.609879 0.149277
O O9 0.253737 0.664818 0.048198
O O10 0.000000 0.604759 0.087792
O O11 0.500000 0.095054 0.810053
O O12 0.726305 0.169401 0.857475
O O13 0.735346 0.002232 0.838849
O O14 0.500000 0.655326 0.196434
O O15 0.279786 0.607490 0.259674
O O16 0.500000 0.574083 0.326535
O O17 0.272793 0.663876 0.360855
O O18 0.000000 0.750924 0.898558
O O19 0.744483 0.747900 0.953730
O O20 0.500000 0.741364 0.015029
#
# Coordination Sequence:
#
# PCOD9352785 Si02
#       8
#     8   8   8   8   8   8   8   8
#     4  12  23  36  62  95 125 161 204 248 301 367
#     4  10  23  42  63  89 126 162 199 249 308 366
#     4  11  23  40  63  93 124 161 204 248 302 366
#     4  11  23  41  64  91 125 164 201 249 310 364
#     4  11  21  38  62  90 128 164 197 245 307 365
#     4  10  22  41  64  92 125 162 203 250 304 364
#     4  10  23  44  64  85 121 164 205 255 308 360
#     4  11  24  42  64  89 120 162 207 258 308 358
#
# _framework density 18.983391999999998
#
# number of rings (size 3 to 8) (size 9 to 14) (size 15 to 20)
#    0.000    1.250    2.500    3.375    0.000    7.000 
#    0.000    3.750    0.000    0.000    0.000    0.000 
#    0.000    0.000    0.000    0.000    0.000    0.000 
#
# Total GULP energy -178962.429535 kJ/mol
# GULP energy per Si atom -5592.575923 kJ/mol
# Density = 1.894019 g / cm^3
# Si number density = 18.983392 Si / 1000 Ang^3
#
#
#
# Elastic Constant Matrix: (Units=GPa)
#
#
# Indices 1 2 3 4 5 6 
#
# 1 39.6949 51.9042 47.2791 0.0000 0.0000 0.0000
# 2 51.9042 175.9784 77.1686 0.0000 0.0000 0.0000
# 3 47.2791 77.1686 147.3180 0.0000 0.0000 0.0000
# 4 0.0000 0.0000 0.0000 -1.7620 0.0000 0.0000
# 5 0.0000 0.0000 0.0000 0.0000 35.7059 0.0000
# 6 0.0000 0.0000 0.0000 0.0000 0.0000 30.0860
#
#
#
# Elastic Compliance Matrix: (Units=1/GPa)
#
#
# Indices 1 2 3 4 5 6 
#
# 1 0.052388 -0.010488 -0.011319 0.000000 0.000000 0.000000
# 2 -0.010488 0.009477 -0.001598 0.000000 0.000000 0.000000
# 3 -0.011319 -0.001598 0.011258 0.000000 0.000000 0.000000
# 4 0.000000 0.000000 0.000000 -0.567533 0.000000 0.000000
# 5 0.000000 0.000000 0.000000 0.000000 0.028007 0.000000
# 6 0.000000 0.000000 0.000000 0.000000 0.000000 0.033238
#
#
# Mechanical properties :
#
#
# Convention : Reuss Voigt Hill
#
# Bulk Modulus (GPa) = 38.00568 79.52167 58.76367
# Shear Modulus (GPa) = -13.24208 25.24861 6.00327
#
# Velocity S-wave (km/s) = -2.64400 3.65092 1.78024
# Velocity P-wave (km/s) = 3.27764 7.73003 5.93702
#
# Compressibility (1/GPa) = 0.02631186
#
# Stress axis : x y z
#
# Youngs Moduli (GPa) = 19.08839 105.52129 88.82693
#
# Poissons Ratio (x) = 1.10672 1.00544
# Poissons Ratio (y) = 0.20020 0.14196
# Poissons Ratio (z) = 0.21606 0.16864
#
# Static dielectric constant tensor:
#      x y z
#    x 1.635960 0.000000 0.000000 
#    y 0.000000 1.663140 0.000000 
#    z 0.000000 0.000000 1.622870 
# 
# From -- ./inp_files/16583.got.cif
#   From: 2010.05.17/outbox.cif.g08.bks.cpg/sg36_9_cif.got.tgz:16583.got - 2010.06.03 17:41:39.
