data_PCOD9352867
_publ_section_title
;
Structure prediction by ZEFSAII (Michael W. Deem and Ramdas Pophale) SiO2 
 PCOD9352867
Probable space group: C M C 21
;
_chemical_formula_sum "Si O2"
_cell_formula_units_Z 60
_cell_length_a 12.288144
_cell_length_b 26.994365
_cell_length_c 7.246138
_cell_angle_alpha 90.000000
_cell_angle_beta 90.000000
_cell_angle_gamma 90.000000
_cell_volume 2403.621105
_symmetry_space_group_name_H-M "C M C 21"
_symmetry_group_IT_number 36
_symmetry_cell_setting 'orthorhombic'
loop_
_space_group_symop_operation_xyz
x,y,z
-x,-y,1/2+z
x,-y,1/2+z
-x,y,z
1/2+x,1/2+y,z
1/2-x,1/2-y,1/2+z
1/2+x,1/2-y,1/2+z
1/2-x,1/2+y,z
loop_
_atom_site_type_symbol
_atom_site_label
_atom_site_fract_x
_atom_site_fract_y
_atom_site_fract_z
Si Si1 0.385867 0.727973 0.219350
Si Si2 0.621357 0.899006 0.521331
Si Si3 0.702120 0.887626 0.939484
Si Si4 0.618324 0.454892 0.839055
Si Si5 0.212586 0.703223 0.949630
Si Si6 0.500000 0.827683 0.094060
Si Si7 0.658924 0.434496 0.413966
Si Si8 0.624801 0.336501 0.168506
O O1 0.500000 0.699925 0.205068
O O2 0.283903 0.701539 0.131937
O O3 0.359142 0.748425 0.421735
O O4 0.302828 0.648503 0.492168
O O5 0.500000 0.917229 0.501971
O O6 0.653698 0.891178 0.734019
O O7 0.632937 0.843520 0.440331
O O8 0.710163 0.932132 0.421796
O O9 0.773891 0.938375 0.951196
O O10 0.598461 0.868734 0.055870
O O11 0.500000 0.439295 0.917817
O O12 0.625194 0.433732 0.630251
O O13 0.619818 0.514216 0.829963
O O14 0.408477 0.781100 0.115147
O O15 0.305204 0.701131 0.792924
O O16 0.625046 0.386003 0.301077
O O17 0.500000 0.323355 0.138108
#
# Coordination Sequence:
#
# PCOD9352867 Si02
#       8
#     8   8   8   8   8   4   8   8
#     4  10  23  41  61  88 122 157 209 265 317 373
#     4  10  23  42  66  91 128 170 213 259 316 377
#     4  11  22  39  66  92 122 175 209 257 313 377
#     4  11  21  38  63  97 132 163 211 260 311 373
#     4  11  23  39  65  91 122 162 212 257 322 385
#     4  10  22  44  64  84 132 164 214 264 322 366
#     4  10  23  40  63  98 128 169 210 252 318 373
#     4  11  21  39  62  94 129 164 206 256 319 381
#
# _framework density 24.962334999999999
#
# number of rings (size 3 to 8) (size 9 to 14) (size 15 to 20)
#    0.400    1.067    2.000    3.200    1.867    0.000 
#    1.200    5.333    0.000    0.000    0.000    0.000 
#    0.000    0.000    0.000    0.000    0.000    0.000 
#
# Total GULP energy -167094.981376 kJ/mol
# GULP energy per Si atom -5569.832713 kJ/mol
# Density = 2.490552 g / cm^3
# Si number density = 24.962335 Si / 1000 Ang^3
#
#
#
# Elastic Constant Matrix: (Units=GPa)
#
#
# Indices 1 2 3 4 5 6 
#
# 1 221.8479 27.5668 15.4370 0.0000 0.0000 0.0000
# 2 27.5668 64.0451 0.1786 0.0000 0.0000 0.0000
# 3 15.4370 0.1786 73.5235 0.0000 0.0000 0.0000
# 4 0.0000 0.0000 0.0000 37.4097 0.0000 0.0000
# 5 0.0000 0.0000 0.0000 0.0000 17.5441 0.0000
# 6 0.0000 0.0000 0.0000 0.0000 0.0000 39.7438
#
#
#
# Elastic Compliance Matrix: (Units=1/GPa)
#
#
# Indices 1 2 3 4 5 6 
#
# 1 0.004836 -0.002079 -0.001010 0.000000 0.000000 0.000000
# 2 -0.002079 0.016508 0.000396 0.000000 0.000000 0.000000
# 3 -0.001010 0.000396 0.013812 0.000000 0.000000 0.000000
# 4 0.000000 0.000000 0.000000 0.026731 0.000000 0.000000
# 5 0.000000 0.000000 0.000000 0.000000 0.056999 0.000000
# 6 0.000000 0.000000 0.000000 0.000000 0.000000 0.025161
#
#
# Mechanical properties :
#
#
# Convention : Reuss Voigt Hill
#
# Bulk Modulus (GPa) = 33.59027 49.53127 41.56077
# Shear Modulus (GPa) = 31.37614 40.02178 35.69896
#
# Velocity S-wave (km/s) = 3.54918 4.00845 3.78579
# Velocity P-wave (km/s) = 5.50283 6.42721 5.98290
#
# Compressibility (1/GPa) = 0.02977052
#
# Stress axis : x y z
#
# Youngs Moduli (GPa) = 206.77340 60.57790 72.39943
#
# Poissons Ratio (x) = 0.12593 0.07315
# Poissons Ratio (y) = 0.42985 -0.02870
# Poissons Ratio (z) = 0.20892 -0.02401
#
# Static dielectric constant tensor:
#      x y z
#    x 1.926210 0.000000 0.000000 
#    y 0.000000 1.954740 0.000000 
#    z 0.000000 0.000000 2.089950 
# 
# From -- ./inp_files/3498.got.cif
#   From: 2010.05.17/outbox.cif.g08.bks.cpg/sg36_2_cif.got.tgz:3498.got - 2010.06.03 17:41:39.
