data_PCOD9352590
_publ_section_title
;
Structure prediction by ZEFSAII (Michael W. Deem and Ramdas Pophale) SiO2 
 PCOD9352590
Probable space group: C M C 21
;
_chemical_formula_sum "Si O2"
_cell_formula_units_Z 28
_cell_length_a 18.307961
_cell_length_b 12.912503
_cell_length_c 4.840101
_cell_angle_alpha 90.000000
_cell_angle_beta 90.000000
_cell_angle_gamma 90.000000
_cell_volume 1144.207627
_symmetry_space_group_name_H-M "C M C 21"
_symmetry_group_IT_number 36
_symmetry_cell_setting 'orthorhombic'
loop_
_space_group_symop_operation_xyz
x,y,z
-x,-y,1/2+z
x,-y,1/2+z
-x,y,z
1/2+x,1/2+y,z
1/2-x,1/2-y,1/2+z
1/2+x,1/2-y,1/2+z
1/2-x,1/2+y,z
loop_
_atom_site_type_symbol
_atom_site_label
_atom_site_fract_x
_atom_site_fract_y
_atom_site_fract_z
Si Si1 0.919497 0.268975 0.708430
Si Si2 0.000000 0.429989 0.380884
Si Si3 0.855793 0.936055 0.934548
Si Si4 0.223089 0.690880 0.539571
O O1 0.932511 0.360523 0.485696
O O2 0.896737 0.163788 0.552838
O O3 0.000000 0.251937 0.836463
O O4 0.858111 0.302207 0.925158
O O5 0.000000 0.466530 0.068318
O O6 0.769886 0.910591 0.972609
O O7 0.873128 0.035660 0.121873
O O8 0.265287 0.779160 0.356997
#
# Coordination Sequence:
#
# PCOD9352590 Si02
#       4
#     8   4   8   8
#     4   9  23  45  66 101 138 182 227 297 345 412
#     4  10  24  42  64  94 128 172 226 278 344 400
#     4  11  23  40  66 100 135 180 225 274 346 420
#     4  10  21  41  64  92 134 183 230 281 336 404
#
# _framework density 24.471081000000002
#
# number of rings (size 3 to 8) (size 9 to 14) (size 15 to 20)
#    0.857    1.143    0.000    3.429    0.000   10.286 
#    0.000    0.000    0.000    0.000    0.000    0.000 
#    0.000    0.000    0.000    0.000    0.000    0.000 
#
# Total GULP energy -78313.341811 kJ/mol
# GULP energy per Si atom -5593.810129 kJ/mol
# Density = 2.441538 g / cm^3
# Si number density = 24.471081 Si / 1000 Ang^3
#
#
#
# Elastic Constant Matrix: (Units=GPa)
#
#
# Indices 1 2 3 4 5 6 
#
# 1 159.1509 33.8520 14.8610 0.0000 0.0000 0.0000
# 2 33.8520 92.2061 14.4166 0.0000 0.0000 0.0000
# 3 14.8610 14.4166 75.5665 0.0000 0.0000 0.0000
# 4 0.0000 0.0000 0.0000 39.2854 0.0000 0.0000
# 5 0.0000 0.0000 0.0000 0.0000 29.5426 0.0000
# 6 0.0000 0.0000 0.0000 0.0000 0.0000 42.1581
#
#
#
# Elastic Compliance Matrix: (Units=1/GPa)
#
#
# Indices 1 2 3 4 5 6 
#
# 1 0.006874 -0.002383 -0.000897 0.000000 0.000000 0.000000
# 2 -0.002383 0.012005 -0.001822 0.000000 0.000000 0.000000
# 3 -0.000897 -0.001822 0.013757 0.000000 0.000000 0.000000
# 4 0.000000 0.000000 0.000000 0.025455 0.000000 0.000000
# 5 0.000000 0.000000 0.000000 0.000000 0.033849 0.000000
# 6 0.000000 0.000000 0.000000 0.000000 0.000000 0.023720
#
#
# Mechanical properties :
#
#
# Convention : Reuss Voigt Hill
#
# Bulk Modulus (GPa) = 44.57890 50.35363 47.46626
# Shear Modulus (GPa) = 37.49736 39.78348 38.64042
#
# Velocity S-wave (km/s) = 3.91872 4.03641 3.97800
# Velocity P-wave (km/s) = 6.22348 6.50730 6.36697
#
# Compressibility (1/GPa) = 0.02243214
#
# Stress axis : x y z
#
# Youngs Moduli (GPa) = 145.47390 83.29773 72.68851
#
# Poissons Ratio (x) = 0.19854 0.06521
# Poissons Ratio (y) = 0.34673 0.13241
# Poissons Ratio (z) = 0.13051 0.15174
#
# Static dielectric constant tensor:
#      x y z
#    x 1.998820 0.000000 0.000000 
#    y 0.000000 1.923380 0.000000 
#    z 0.000000 0.000000 1.888310 
# 
# From -- ./inp_files/1253.got.cif
#   From: 2010.05.17/outbox.cif.g08.bks.cpg/sg36_1_cif.got.tgz:1253.got - 2010.06.03 17:41:39.
