data_PCOD9352739
_publ_section_title
;
Structure prediction by ZEFSAII (Michael W. Deem and Ramdas Pophale) SiO2 
 PCOD9352739
Probable space group: C M C 21
;
_chemical_formula_sum "Si O2"
_cell_formula_units_Z 56
_cell_length_a 28.903914
_cell_length_b 5.236165
_cell_length_c 14.582499
_cell_angle_alpha 90.000000
_cell_angle_beta 90.000000
_cell_angle_gamma 90.000000
_cell_volume 2206.997977
_symmetry_space_group_name_H-M "C M C 21"
_symmetry_group_IT_number 36
_symmetry_cell_setting 'orthorhombic'
loop_
_space_group_symop_operation_xyz
x,y,z
-x,-y,1/2+z
x,-y,1/2+z
-x,y,z
1/2+x,1/2+y,z
1/2-x,1/2-y,1/2+z
1/2+x,1/2-y,1/2+z
1/2-x,1/2+y,z
loop_
_atom_site_type_symbol
_atom_site_label
_atom_site_fract_x
_atom_site_fract_y
_atom_site_fract_z
Si Si1 0.585237 0.046863 0.314340
Si Si2 0.950177 0.165737 0.977339
Si Si3 0.767214 0.986097 0.507557
Si Si4 0.131010 0.109373 0.557755
Si Si5 0.138221 0.952114 0.766379
Si Si6 0.733607 0.836489 0.300695
Si Si7 0.950296 0.554039 0.120226
O O1 0.559718 0.100744 0.408981
O O2 0.625449 0.264635 0.303296
O O3 0.552460 0.094191 0.227795
O O4 0.602040 0.759396 0.300936
O O5 0.000000 0.056654 0.949365
O O6 0.903321 0.009853 0.982889
O O7 0.953165 0.269293 0.081320
O O8 0.765837 0.702405 0.550971
O O9 0.818037 0.108598 0.514919
O O10 0.749137 0.909235 0.405191
O O11 0.136851 0.969625 0.655778
O O12 0.099787 0.352934 0.584421
O O13 0.186435 0.822427 0.795128
O O14 0.768332 0.622062 0.258795
O O15 0.000000 0.670673 0.088931
#
# Coordination Sequence:
#
# PCOD9352739 Si02
#       7
#     8   8   8   8   8   8   8
#     4  11  25  44  72 105 141 192 236 298 362 438
#     4  11  25  43  72 107 142 189 243 297 363 442
#     4  10  25  40  66  99 135 181 230 293 350 420
#     4  11  25  44  71 103 142 192 242 297 368 431
#     4  11  25  44  70 101 140 188 242 293 364 433
#     4  10  22  40  63  95 133 178 229 293 351 414
#     4  10  23  47  72 106 152 190 242 307 367 436
#
# _framework density 25.373833999999999
#
# number of rings (size 3 to 8) (size 9 to 14) (size 15 to 20)
#    0.000    1.429    1.429    1.714   12.000    1.143 
#    0.000    1.429    0.000    0.000    0.000    0.000 
#    0.000    0.000    0.000    0.000    0.000    0.000 
#
# Total GULP energy -156109.376811 kJ/mol
# GULP energy per Si atom -5575.334886 kJ/mol
# Density = 2.531608 g / cm^3
# Si number density = 25.373834 Si / 1000 Ang^3
#
#
#
# Elastic Constant Matrix: (Units=GPa)
#
#
# Indices 1 2 3 4 5 6 
#
# 1 159.8993 15.8566 14.0294 0.0000 0.0000 0.0000
# 2 15.8566 109.7158 0.9385 0.0000 0.0000 0.0000
# 3 14.0294 0.9385 87.3448 0.0000 0.0000 0.0000
# 4 0.0000 0.0000 0.0000 37.8174 0.0000 0.0000
# 5 0.0000 0.0000 0.0000 0.0000 28.4605 0.0000
# 6 0.0000 0.0000 0.0000 0.0000 0.0000 62.9111
#
#
#
# Elastic Compliance Matrix: (Units=1/GPa)
#
#
# Indices 1 2 3 4 5 6 
#
# 1 0.006435 -0.000921 -0.001024 0.000000 0.000000 0.000000
# 2 -0.000921 0.009247 0.000049 0.000000 0.000000 0.000000
# 3 -0.001024 0.000049 0.011613 0.000000 0.000000 0.000000
# 4 0.000000 0.000000 0.000000 0.026443 0.000000 0.000000
# 5 0.000000 0.000000 0.000000 0.000000 0.035136 0.000000
# 6 0.000000 0.000000 0.000000 0.000000 0.000000 0.015895
#
#
# Mechanical properties :
#
#
# Convention : Reuss Voigt Hill
#
# Bulk Modulus (GPa) = 42.54894 46.51208 44.53051
# Shear Modulus (GPa) = 42.95656 47.58017 45.26837
#
# Velocity S-wave (km/s) = 4.11901 4.33502 4.22839
# Velocity P-wave (km/s) = 6.27908 6.58992 6.43638
#
# Compressibility (1/GPa) = 0.02350235
#
# Stress axis : x y z
#
# Youngs Moduli (GPa) = 155.39734 108.14094 86.11203
#
# Poissons Ratio (x) = 0.09963 0.08815
# Poissons Ratio (y) = 0.14316 -0.00419
# Poissons Ratio (z) = 0.15908 -0.00526
#
# Static dielectric constant tensor:
#      x y z
#    x 2.067300 0.000000 0.000000 
#    y 0.000000 2.135840 0.000000 
#    z 0.000000 0.000000 2.071630 
# 
# From -- ./inp_files/13148.got.cif
#   From: 2010.05.17/outbox.cif.g08.bks.cpg/sg36_7_cif.got.tgz:13148.got - 2010.06.03 17:41:39.
