data_PCOD9352833
_publ_section_title
;
Structure prediction by ZEFSAII (Michael W. Deem and Ramdas Pophale) SiO2 
 PCOD9352833
Probable space group: C M C 21
;
_chemical_formula_sum "Si O2"
_cell_formula_units_Z 56
_cell_length_a 7.727788
_cell_length_b 21.157315
_cell_length_c 13.918430
_cell_angle_alpha 90.000000
_cell_angle_beta 90.000000
_cell_angle_gamma 90.000000
_cell_volume 2275.652796
_symmetry_space_group_name_H-M "C M C 21"
_symmetry_group_IT_number 36
_symmetry_cell_setting 'orthorhombic'
loop_
_space_group_symop_operation_xyz
x,y,z
-x,-y,1/2+z
x,-y,1/2+z
-x,y,z
1/2+x,1/2+y,z
1/2-x,1/2-y,1/2+z
1/2+x,1/2-y,1/2+z
1/2-x,1/2+y,z
loop_
_atom_site_type_symbol
_atom_site_label
_atom_site_fract_x
_atom_site_fract_y
_atom_site_fract_z
Si Si1 0.708280 0.054729 0.850700
Si Si2 0.296194 0.607208 0.470944
Si Si3 0.801792 0.748714 0.500594
Si Si4 0.792591 0.978192 0.566470
Si Si5 0.306396 0.807236 0.678231
Si Si6 0.250467 0.572982 0.265158
Si Si7 0.207239 0.305751 0.299962
O O1 0.500000 0.044147 0.837638
O O2 0.757884 0.121198 0.804016
O O3 0.807901 0.996576 0.801553
O O4 0.748064 0.053985 0.964413
O O5 0.500000 0.599382 0.445177
O O6 0.268621 0.677722 0.507253
O O7 0.254103 0.552267 0.546919
O O8 0.190991 0.595346 0.372371
O O9 0.707834 0.801199 0.564675
O O10 0.784750 0.770241 0.391535
O O11 0.000000 0.748529 0.531882
O O12 0.693093 0.949932 0.657766
O O13 0.000000 0.970723 0.584810
O O14 0.500000 0.826043 0.707943
O O15 0.184503 0.858246 0.728774
O O16 0.267703 0.736301 0.711670
O O17 0.000000 0.303434 0.306187
#
# Coordination Sequence:
#
# PCOD9352833 Si02
#       7
#     8   8   8   8   8   8   8
#     4  10  24  44  66  98 136 178 223 276 335 400
#     4  10  22  42  67  99 140 181 225 282 346 410
#     4  12  26  44  68  98 137 180 230 285 342 407
#     4  10  23  41  66 101 134 174 223 278 340 403
#     4  12  26  43  68 100 135 179 229 280 341 409
#     4  11  23  42  72 103 136 180 229 280 338 414
#     4  11  24  44  69  99 136 176 223 279 340 405
#
# _framework density 24.608325000000001
#
# number of rings (size 3 to 8) (size 9 to 14) (size 15 to 20)
#    0.000    1.143    1.429    3.857    2.000    9.143 
#    0.000    0.000    0.000    0.000    0.000    0.000 
#    0.000    0.000    0.000    0.000    0.000    0.000 
#
# Total GULP energy -156146.063333 kJ/mol
# GULP energy per Si atom -5576.645119 kJ/mol
# Density = 2.455231 g / cm^3
# Si number density = 24.608325 Si / 1000 Ang^3
#
#
#
# Elastic Constant Matrix: (Units=GPa)
#
#
# Indices 1 2 3 4 5 6 
#
# 1 114.5468 24.9526 5.4401 0.0000 0.0000 0.0000
# 2 24.9526 177.2392 35.7224 0.0000 0.0000 0.0000
# 3 5.4401 35.7224 113.0082 0.0000 0.0000 0.0000
# 4 0.0000 0.0000 0.0000 57.2696 0.0000 0.0000
# 5 0.0000 0.0000 0.0000 0.0000 107.9787 0.0000
# 6 0.0000 0.0000 0.0000 0.0000 0.0000 381.0983
#
#
#
# Elastic Compliance Matrix: (Units=1/GPa)
#
#
# Indices 1 2 3 4 5 6 
#
# 1 0.009006 -0.001261 -0.000035 0.000000 0.000000 0.000000
# 2 -0.001261 0.006203 -0.001900 0.000000 0.000000 0.000000
# 3 -0.000035 -0.001900 0.009451 0.000000 0.000000 0.000000
# 4 0.000000 0.000000 0.000000 0.017461 0.000000 0.000000
# 5 0.000000 0.000000 0.000000 0.000000 0.009261 0.000000
# 6 0.000000 0.000000 0.000000 0.000000 0.000000 0.002624
#
#
# Mechanical properties :
#
#
# Convention : Reuss Voigt Hill
#
# Bulk Modulus (GPa) = 54.73924 59.66937 57.20431
# Shear Modulus (GPa) = 75.20193 131.84791 103.52492
#
# Velocity S-wave (km/s) = 5.53407 7.32768 6.49310
# Velocity P-wave (km/s) = 7.94525 9.79252 8.91685
#
# Compressibility (1/GPa) = 0.01826843
#
# Stress axis : x y z
#
# Youngs Moduli (GPa) = 111.03224 161.22417 105.80686
#
# Poissons Ratio (x) = 0.20329 0.00370
# Poissons Ratio (y) = 0.14000 0.20103
# Poissons Ratio (z) = 0.00388 0.30632
#
# Static dielectric constant tensor:
#      x y z
#    x 2.083260 0.000000 0.000000 
#    y 0.000000 1.913520 0.000000 
#    z 0.000000 0.000000 1.888180 
# 
# From -- ./inp_files/10646.got.cif
#   From: 2010.05.17/outbox.cif.g08.bks.cpg/sg36_6_cif.got.tgz:10646.got - 2010.06.03 17:41:39.
