data_PCOD9352334
_publ_section_title
;
Structure prediction by ZEFSAII (Michael W. Deem and Ramdas Pophale) SiO2 
 PCOD9352334
Probable space group: C M C 21
;
_chemical_formula_sum "Si O2"
_cell_formula_units_Z 48
_cell_length_a 10.783277
_cell_length_b 14.240057
_cell_length_c 14.760286
_cell_angle_alpha 90.000000
_cell_angle_beta 90.000000
_cell_angle_gamma 90.000000
_cell_volume 2266.508028
_symmetry_space_group_name_H-M "C M C 21"
_symmetry_group_IT_number 36
_symmetry_cell_setting 'orthorhombic'
loop_
_space_group_symop_operation_xyz
x,y,z
-x,-y,1/2+z
x,-y,1/2+z
-x,y,z
1/2+x,1/2+y,z
1/2-x,1/2-y,1/2+z
1/2+x,1/2-y,1/2+z
1/2-x,1/2+y,z
loop_
_atom_site_type_symbol
_atom_site_label
_atom_site_fract_x
_atom_site_fract_y
_atom_site_fract_z
Si Si1 0.642227 0.166719 0.151070
Si Si2 0.638749 0.690052 0.006386
Si Si3 0.237031 0.198026 0.346693
Si Si4 0.859735 0.551893 0.599945
Si Si5 0.359207 0.887981 0.284236
Si Si6 0.292933 0.491460 0.925079
O O1 0.500000 0.202755 0.135558
O O2 0.749500 0.197766 0.079572
O O3 0.686009 0.182790 0.254042
O O4 0.636642 0.054914 0.135176
O O5 0.500000 0.706747 0.043379
O O6 0.672306 0.761675 0.925240
O O7 0.637706 0.583322 0.964874
O O8 0.148400 0.285661 0.326706
O O9 0.163327 0.104069 0.375921
O O10 0.804242 0.610715 0.683162
O O11 0.779879 0.549399 0.510635
O O12 0.000000 0.581463 0.578395
O O13 0.500000 0.918095 0.272965
O O14 0.294136 0.960327 0.350389
#
# Coordination Sequence:
#
# PCOD9352334 Si02
#       6
#     8   8   8   8   8   8
#     4  10  21  41  67  94 128 169 216 266 319 376
#     4  10  24  43  64  95 133 168 213 264 320 386
#     4  11  23  38  65  94 125 167 216 258 320 381
#     4   9  18  34  61  89 117 155 206 256 300 359
#     4  10  21  37  59  92 126 158 208 263 308 369
#     4  10  21  39  62  86 125 165 207 257 317 375
#
# _framework density 21.177952999999999
#
# number of rings (size 3 to 8) (size 9 to 14) (size 15 to 20)
#    0.000    2.000    1.667    1.000    2.333    7.333 
#    0.000    0.000    0.000    0.000    0.000    0.000 
#    0.000    0.000    0.000    0.000    0.000    0.000 
#
# Total GULP energy -133787.152316 kJ/mol
# GULP energy per Si atom -5574.464680 kJ/mol
# Density = 2.112975 g / cm^3
# Si number density = 21.177953 Si / 1000 Ang^3
#
#
#
# Elastic Constant Matrix: (Units=GPa)
#
#
# Indices 1 2 3 4 5 6 
#
# 1 100.5020 9.4717 54.0534 0.0000 0.0000 0.0000
# 2 9.4717 93.9728 60.3699 0.0000 0.0000 0.0000
# 3 54.0534 60.3699 113.5920 0.0000 0.0000 0.0000
# 4 0.0000 0.0000 0.0000 46.9153 0.0000 0.0000
# 5 0.0000 0.0000 0.0000 0.0000 23.3312 0.0000
# 6 0.0000 0.0000 0.0000 0.0000 0.0000 -3.5382
#
#
#
# Elastic Compliance Matrix: (Units=1/GPa)
#
#
# Indices 1 2 3 4 5 6 
#
# 1 0.014537 0.004523 -0.009321 0.000000 0.000000 0.000000
# 2 0.004523 0.017565 -0.011488 0.000000 0.000000 0.000000
# 3 -0.009321 -0.011488 0.019344 0.000000 0.000000 0.000000
# 4 0.000000 0.000000 0.000000 0.021315 0.000000 0.000000
# 5 0.000000 0.000000 0.000000 0.000000 0.042861 0.000000
# 6 0.000000 0.000000 0.000000 0.000000 0.000000 -0.282626
#
#
# Mechanical properties :
#
#
# Convention : Reuss Voigt Hill
#
# Bulk Modulus (GPa) = 52.98068 61.76184 57.37126
# Shear Modulus (GPa) = -39.02001 25.61977 -6.70012
#
# Velocity S-wave (km/s) = -4.29707 3.48190 -1.78062
# Velocity P-wave (km/s) = 0.67190 6.73732 4.78763
#
# Compressibility (1/GPa) = 0.01887480
#
# Stress axis : x y z
#
# Youngs Moduli (GPa) = 68.78931 56.93028 51.69481
#
# Poissons Ratio (x) = -0.25750 0.48187
# Poissons Ratio (y) = -0.31113 0.59385
# Poissons Ratio (z) = 0.64121 0.65399
#
# Static dielectric constant tensor:
#      x y z
#    x 1.741900 0.000000 0.000000 
#    y 0.000000 1.793590 0.000000 
#    z 0.000000 0.000000 1.788700 
# 
# From -- ./inp_files/11536.got.cif
#   From: 2010.05.17/outbox.cif.g08.bks.cpg/sg36_6_cif.got.tgz:11536.got - 2010.06.03 17:41:39.
