data_PCOD9352685
_publ_section_title
;
Structure prediction by ZEFSAII (Michael W. Deem and Ramdas Pophale) SiO2 
 PCOD9352685
Probable space group: C M C 21
;
_chemical_formula_sum "Si O2"
_cell_formula_units_Z 60
_cell_length_a 26.335348
_cell_length_b 5.084885
_cell_length_c 18.468095
_cell_angle_alpha 90.000000
_cell_angle_beta 90.000000
_cell_angle_gamma 90.000000
_cell_volume 2473.103527
_symmetry_space_group_name_H-M "C M C 21"
_symmetry_group_IT_number 36
_symmetry_cell_setting 'orthorhombic'
loop_
_space_group_symop_operation_xyz
x,y,z
-x,-y,1/2+z
x,-y,1/2+z
-x,y,z
1/2+x,1/2+y,z
1/2-x,1/2-y,1/2+z
1/2+x,1/2-y,1/2+z
1/2-x,1/2+y,z
loop_
_atom_site_type_symbol
_atom_site_label
_atom_site_fract_x
_atom_site_fract_y
_atom_site_fract_z
Si Si1 0.500000 0.998994 0.668320
Si Si2 0.408575 0.326870 0.646037
Si Si3 0.777966 0.348411 0.552114
Si Si4 0.613616 0.095740 0.416447
Si Si5 0.613689 0.624638 0.509273
Si Si6 0.218777 0.631014 0.850613
Si Si7 0.413266 0.288067 0.261878
Si Si8 0.817563 0.494277 0.696426
O O1 0.454694 0.145494 0.622575
O O2 0.543965 0.869939 0.720187
O O3 0.408750 0.565197 0.588764
O O4 0.419889 0.420276 0.728943
O O5 0.353615 0.191501 0.650157
O O6 0.764364 0.641061 0.528997
O O7 0.831104 0.244151 0.524764
O O8 0.781843 0.352862 0.639144
O O9 0.618549 0.343207 0.470112
O O10 0.666835 0.975021 0.385911
O O11 0.586031 0.218202 0.345955
O O12 0.588513 0.847507 0.458352
O O13 0.236477 0.924666 0.868964
O O14 0.209720 0.626045 0.764150
O O15 0.357728 0.206492 0.232216
#
# Coordination Sequence:
#
# PCOD9352685 Si02
#       8
#     4   8   8   8   8   8   8   8
#     4  10  24  44  78 114 134 168 242 298 360 438
#     4  11  23  45  78 102 143 183 239 299 366 443
#     4  12  24  39  65  99 140 188 247 301 347 411
#     4  11  27  44  70  97 148 194 242 289 367 436
#     4  12  26  46  67 103 145 198 235 296 367 434
#     4  11  24  39  64  96 138 186 244 301 346 405
#     4  10  23  44  75 103 137 185 238 293 367 434
#     4  10  22  38  66 102 136 182 238 302 365 415
#
# _framework density 24.261016000000001
#
# number of rings (size 3 to 8) (size 9 to 14) (size 15 to 20)
#    0.000    1.067    1.333    4.400   11.200    3.200 
#    0.000    1.333    0.000    0.000    0.000    0.000 
#    0.000    0.000    0.000    0.000    0.000    0.000 
#
# Total GULP energy -167355.523876 kJ/mol
# GULP energy per Si atom -5578.517463 kJ/mol
# Density = 2.420580 g / cm^3
# Si number density = 24.261016 Si / 1000 Ang^3
#
#
#
# Elastic Constant Matrix: (Units=GPa)
#
#
# Indices 1 2 3 4 5 6 
#
# 1 51.3980 18.2148 18.9298 0.0000 0.0000 0.0000
# 2 18.2148 112.9755 27.0834 0.0000 0.0000 0.0000
# 3 18.9298 27.0834 127.2525 0.0000 0.0000 0.0000
# 4 0.0000 0.0000 0.0000 40.7823 0.0000 0.0000
# 5 0.0000 0.0000 0.0000 0.0000 27.5260 0.0000
# 6 0.0000 0.0000 0.0000 0.0000 0.0000 24.6857
#
#
#
# Elastic Compliance Matrix: (Units=1/GPa)
#
#
# Indices 1 2 3 4 5 6 
#
# 1 0.021411 -0.002833 -0.002582 0.000000 0.000000 0.000000
# 2 -0.002833 0.009702 -0.001644 0.000000 0.000000 0.000000
# 3 -0.002582 -0.001644 0.008592 0.000000 0.000000 0.000000
# 4 0.000000 0.000000 0.000000 0.024520 0.000000 0.000000
# 5 0.000000 0.000000 0.000000 0.000000 0.036329 0.000000
# 6 0.000000 0.000000 0.000000 0.000000 0.000000 0.040509
#
#
# Mechanical properties :
#
#
# Convention : Reuss Voigt Hill
#
# Bulk Modulus (GPa) = 39.08047 46.67578 42.87813
# Shear Modulus (GPa) = 30.54158 33.75867 32.15012
#
# Velocity S-wave (km/s) = 3.55191 3.73430 3.64425
# Velocity P-wave (km/s) = 5.74149 6.15419 5.95142
#
# Compressibility (1/GPa) = 0.02558823
#
# Stress axis : x y z
#
# Youngs Moduli (GPa) = 46.70500 103.06900 116.38344
#
# Poissons Ratio (x) = 0.29200 0.30051
# Poissons Ratio (y) = 0.13232 0.19128
# Poissons Ratio (z) = 0.12060 0.16940
#
# Static dielectric constant tensor:
#      x y z
#    x 1.777820 0.000000 0.000000 
#    y 0.000000 2.018080 0.000000 
#    z 0.000000 0.000000 1.995260 
# 
# From -- ./inp_files/15160.got.cif
#   From: 2010.05.17/outbox.cif.g08.bks.cpg/sg36_8_cif.got.tgz:15160.got - 2010.06.03 17:41:39.
