data_PCOD9352163
_publ_section_title
;
Structure prediction by ZEFSAII (Michael W. Deem and Ramdas Pophale) SiO2 
 PCOD9352163
Probable space group: C M C 21
;
_chemical_formula_sum "Si O2"
_cell_formula_units_Z 32
_cell_length_a 9.182849
_cell_length_b 14.589926
_cell_length_c 9.225763
_cell_angle_alpha 90.000000
_cell_angle_beta 90.000000
_cell_angle_gamma 90.000000
_cell_volume 1236.040856
_symmetry_space_group_name_H-M "C M C 21"
_symmetry_group_IT_number 36
_symmetry_cell_setting 'orthorhombic'
loop_
_space_group_symop_operation_xyz
x,y,z
-x,-y,1/2+z
x,-y,1/2+z
-x,y,z
1/2+x,1/2+y,z
1/2-x,1/2-y,1/2+z
1/2+x,1/2-y,1/2+z
1/2-x,1/2+y,z
loop_
_atom_site_type_symbol
_atom_site_label
_atom_site_fract_x
_atom_site_fract_y
_atom_site_fract_z
Si Si1 0.332976 0.067504 0.386490
Si Si2 0.796989 0.711621 0.132779
Si Si3 0.340450 0.147426 0.819906
Si Si4 0.000000 0.056095 0.415924
Si Si5 0.000000 0.121012 0.093096
O O1 0.500000 0.074136 0.452958
O O2 0.316215 0.959998 0.348250
O O3 0.169455 0.090164 0.455069
O O4 0.342908 0.131525 0.244194
O O5 0.785056 0.803860 0.226344
O O6 0.634503 0.686058 0.092527
O O7 0.858650 0.700679 0.972646
O O8 0.500000 0.154280 0.749399
O O9 0.000000 0.952651 0.468583
O O10 0.000000 0.066342 0.243771
#
# Coordination Sequence:
#
# PCOD9352163 Si02
#       5
#     8   8   8   4   4
#     4  10  23  44  71  99 136 183 234 285 347 418
#     4  11  23  45  69 103 142 186 236 295 353 427
#     4  11  24  45  70 104 144 185 237 296 355 426
#     4  10  20  42  72  96 135 177 228 286 353 407
#     4  10  20  42  68  98 135 183 234 290 349 425
#
# _framework density 25.889111
#
# number of rings (size 3 to 8) (size 9 to 14) (size 15 to 20)
#    0.000    1.500    3.750    0.750    0.000    2.000 
#   13.500    2.500    0.000    0.000    0.000    0.000 
#    0.000    0.000    0.000    0.000    0.000    0.000 
#
# Total GULP energy -89110.025366 kJ/mol
# GULP energy per Si atom -5569.376585 kJ/mol
# Density = 2.583019 g / cm^3
# Si number density = 25.889111 Si / 1000 Ang^3
#
#
#
# Elastic Constant Matrix: (Units=GPa)
#
#
# Indices 1 2 3 4 5 6 
#
# 1 221.3621 29.1733 28.5689 0.0000 0.0000 0.0000
# 2 29.1733 122.3902 74.8654 0.0000 0.0000 0.0000
# 3 28.5689 74.8654 116.3179 0.0000 0.0000 0.0000
# 4 0.0000 0.0000 0.0000 31.1001 0.0000 0.0000
# 5 0.0000 0.0000 0.0000 0.0000 -541.1031 0.0000
# 6 0.0000 0.0000 0.0000 0.0000 0.0000 2249.4600
#
#
#
# Elastic Compliance Matrix: (Units=1/GPa)
#
#
# Indices 1 2 3 4 5 6 
#
# 1 0.004700 -0.000683 -0.000715 0.000000 0.000000 0.000000
# 2 -0.000683 0.013576 -0.008570 0.000000 0.000000 0.000000
# 3 -0.000715 -0.008570 0.014288 0.000000 0.000000 0.000000
# 4 0.000000 0.000000 0.000000 0.032154 0.000000 0.000000
# 5 0.000000 0.000000 0.000000 0.000000 -0.001848 0.000000
# 6 0.000000 0.000000 0.000000 0.000000 0.000000 0.000445
#
#
# Mechanical properties :
#
#
# Convention : Reuss Voigt Hill
#
# Bulk Modulus (GPa) = 79.18544 80.58726 79.88635
# Shear Modulus (GPa) = 57.16966 369.72225 213.44595
#
# Velocity S-wave (km/s) = 4.70430 11.96328 9.08984
# Velocity P-wave (km/s) = 7.75629 14.90040 11.87818
#
# Compressibility (1/GPa) = 0.01262858
#
# Stress axis : x y z
#
# Youngs Moduli (GPa) = 212.77765 73.66207 69.98684
#
# Poissons Ratio (x) = 0.05032 0.05002
# Poissons Ratio (y) = 0.14535 0.59977
# Poissons Ratio (z) = 0.15206 0.63127
#
# Static dielectric constant tensor:
#      x y z
#    x 9.101450 0.000000 0.000000 
#    y 0.000000 1.967780 0.000000 
#    z 0.000000 0.000000 2.045520 
# 
# From -- ./inp_files/6414.got.cif
#   From: 2010.05.17/outbox.cif.g08.bks.cpg/sg36_4_cif.got.tgz:6414.got - 2010.06.03 17:41:39.
