data_PCOD9352429
_publ_section_title
;
Structure prediction by ZEFSAII (Michael W. Deem and Ramdas Pophale) SiO2 
 PCOD9352429
Probable space group: C M C 21
;
_chemical_formula_sum "Si O2"
_cell_formula_units_Z 52
_cell_length_a 20.713132
_cell_length_b 20.822006
_cell_length_c 4.840040
_cell_angle_alpha 90.000000
_cell_angle_beta 90.000000
_cell_angle_gamma 90.000000
_cell_volume 2087.455812
_symmetry_space_group_name_H-M "C M C 21"
_symmetry_group_IT_number 36
_symmetry_cell_setting 'orthorhombic'
loop_
_space_group_symop_operation_xyz
x,y,z
-x,-y,1/2+z
x,-y,1/2+z
-x,y,z
1/2+x,1/2+y,z
1/2-x,1/2-y,1/2+z
1/2+x,1/2-y,1/2+z
1/2-x,1/2+y,z
loop_
_atom_site_type_symbol
_atom_site_label
_atom_site_fract_x
_atom_site_fract_y
_atom_site_fract_z
Si Si1 0.072076 0.272414 0.163000
Si Si2 0.195468 0.042927 0.779028
Si Si3 0.652892 0.958779 0.317261
Si Si4 0.000000 0.047656 0.361742
Si Si5 0.758453 0.204114 0.380863
Si Si6 0.126516 0.340276 0.655476
Si Si7 0.382203 0.365134 0.656350
O O1 0.117892 0.285517 0.423750
O O2 0.000000 0.277183 0.271253
O O3 0.082525 0.322253 0.914767
O O4 0.085503 0.201101 0.053021
O O5 0.270876 0.058863 0.826190
O O6 0.148803 0.095600 0.904098
O O7 0.184868 0.020664 0.467496
O O8 0.614921 0.902868 0.470302
O O9 0.640791 0.022199 0.502799
O O10 0.937346 0.091797 0.300423
O O11 0.000000 0.014754 0.660907
O O12 0.747142 0.233219 0.682393
O O13 0.697608 0.161276 0.287013
O O14 0.821680 0.161262 0.336391
#
# Coordination Sequence:
#
# PCOD9352429 Si02
#       7
#     8   8   8   4   8   8   8
#     4  12  27  45  69  99 132 182 228 284 347 414
#     4  10  22  37  58  91 131 171 215 266 322 387
#     4  10  21  38  64  98 131 166 205 260 332 405
#     4  12  30  50  70 100 146 208 258 294 340 420
#     4  12  24  40  64 106 139 179 229 295 369 418
#     4  12  23  45  69  98 139 173 221 286 347 423
#     4  12  24  45  68  97 142 183 241 287 347 413
#
# _framework density 24.910706000000001
#
# number of rings (size 3 to 8) (size 9 to 14) (size 15 to 20)
#    0.000    0.615    5.385    2.308    0.000    4.923 
#    0.000    0.000    0.000    9.231    0.000    0.000 
#    0.000    0.000    0.000    0.000    0.000    0.000 
#
# Total GULP energy -145708.852543 kJ/mol
# GULP energy per Si atom -5604.186636 kJ/mol
# Density = 2.485401 g / cm^3
# Si number density = 24.910706 Si / 1000 Ang^3
#
#
#
# Elastic Constant Matrix: (Units=GPa)
#
#
# Indices 1 2 3 4 5 6 
#
# 1 93.9247 32.0485 10.8184 0.0000 0.0000 0.0000
# 2 32.0485 94.8506 5.5960 0.0000 0.0000 0.0000
# 3 10.8184 5.5960 80.6975 0.0000 0.0000 0.0000
# 4 0.0000 0.0000 0.0000 40.3764 0.0000 0.0000
# 5 0.0000 0.0000 0.0000 0.0000 21.4949 0.0000
# 6 0.0000 0.0000 0.0000 0.0000 0.0000 45.2536
#
#
#
# Elastic Compliance Matrix: (Units=1/GPa)
#
#
# Indices 1 2 3 4 5 6 
#
# 1 0.012180 -0.004035 -0.001353 0.000000 0.000000 0.000000
# 2 -0.004035 0.011923 -0.000286 0.000000 0.000000 0.000000
# 3 -0.001353 -0.000286 0.012593 0.000000 0.000000 0.000000
# 4 0.000000 0.000000 0.000000 0.024767 0.000000 0.000000
# 5 0.000000 0.000000 0.000000 0.000000 0.046523 0.000000
# 6 0.000000 0.000000 0.000000 0.000000 0.000000 0.022098
#
#
# Mechanical properties :
#
#
# Convention : Reuss Voigt Hill
#
# Bulk Modulus (GPa) = 39.45159 40.71095 40.08127
# Shear Modulus (GPa) = 33.35979 36.15897 34.75938
#
# Velocity S-wave (km/s) = 3.66344 3.81405 3.73950
# Velocity P-wave (km/s) = 5.81085 5.98115 5.89662
#
# Compressibility (1/GPa) = 0.02534752
#
# Stress axis : x y z
#
# Youngs Moduli (GPa) = 82.10430 83.86948 79.40817
#
# Poissons Ratio (x) = 0.33845 0.10744
# Poissons Ratio (y) = 0.33133 0.02270
# Poissons Ratio (z) = 0.11108 0.02397
#
# Static dielectric constant tensor:
#      x y z
#    x 1.934150 0.000000 0.000000 
#    y 0.000000 2.021230 0.000000 
#    z 0.000000 0.000000 1.894910 
# 
# From -- ./inp_files/1392.got.cif
#   From: 2010.05.17/outbox.cif.g08.bks.cpg/sg36_1_cif.got.tgz:1392.got - 2010.06.03 17:41:39.
