data_PCOD9352662
_publ_section_title
;
Structure prediction by ZEFSAII (Michael W. Deem and Ramdas Pophale) SiO2 
 PCOD9352662
Probable space group: C M C 21
;
_chemical_formula_sum "Si O2"
_cell_formula_units_Z 64
_cell_length_a 25.742084
_cell_length_b 19.515955
_cell_length_c 5.750482
_cell_angle_alpha 90.000000
_cell_angle_beta 90.000000
_cell_angle_gamma 90.000000
_cell_volume 2888.934927
_symmetry_space_group_name_H-M "C M C 21"
_symmetry_group_IT_number 36
_symmetry_cell_setting 'orthorhombic'
loop_
_space_group_symop_operation_xyz
x,y,z
-x,-y,1/2+z
x,-y,1/2+z
-x,y,z
1/2+x,1/2+y,z
1/2-x,1/2-y,1/2+z
1/2+x,1/2-y,1/2+z
1/2-x,1/2+y,z
loop_
_atom_site_type_symbol
_atom_site_label
_atom_site_fract_x
_atom_site_fract_y
_atom_site_fract_z
Si Si1 0.437175 0.033948 0.791110
Si Si2 0.617951 0.535313 0.222072
Si Si3 0.612646 0.740366 0.825075
Si Si4 0.234049 0.988824 0.191808
Si Si5 0.802829 0.262340 0.214249
Si Si6 0.300332 0.337264 0.077074
Si Si7 0.102399 0.319061 0.428136
Si Si8 0.441275 0.322491 0.712927
O O1 0.500000 0.033089 0.790808
O O2 0.417790 0.112216 0.816155
O O3 0.420791 0.002741 0.537847
O O4 0.603017 0.495856 0.465364
O O5 0.680943 0.533174 0.211224
O O6 0.594356 0.611010 0.246473
O O7 0.643884 0.686220 0.667606
O O8 0.592828 0.808823 0.700806
O O9 0.658254 0.762967 0.999469
O O10 0.566762 0.699456 0.945546
O O11 0.213367 0.912091 0.158347
O O12 0.261315 0.994455 0.444362
O O13 0.746207 0.290694 0.176236
O O14 0.799116 0.185118 0.308338
O O15 0.835573 0.308653 0.395353
O O16 0.076040 0.249070 0.332207
O O17 0.500000 0.338844 0.774283
#
# Coordination Sequence:
#
# PCOD9352662 Si02
#       8
#     8   8   8   8   8   8   8   8
#     4  10  23  44  73 102 135 183 229 278 352 442
#     4  10  23  41  61  90 129 181 229 283 339 398
#     4  10  22  39  65  95 130 172 219 286 347 395
#     4  10  23  37  62  89 127 177 223 274 331 402
#     4  10  22  37  65  99 128 172 221 286 346 407
#     4  11  21  39  65  96 131 169 229 282 339 413
#     4  10  24  42  66 101 136 180 226 291 352 414
#     4  11  25  41  66  98 136 182 235 290 339 403
#
# _framework density 22.153496000000001
#
# number of rings (size 3 to 8) (size 9 to 14) (size 15 to 20)
#    0.000    1.750    1.250    1.875   17.500    1.500 
#    0.000    1.250    0.000    0.000    0.000    0.000 
#    0.000    0.000    0.000    0.000    0.000    0.000 
#
# Total GULP energy -178296.582703 kJ/mol
# GULP energy per Si atom -5571.768209 kJ/mol
# Density = 2.210307 g / cm^3
# Si number density = 22.153496 Si / 1000 Ang^3
#
#
#
# Elastic Constant Matrix: (Units=GPa)
#
#
# Indices 1 2 3 4 5 6 
#
# 1 42.8922 12.6024 9.3528 0.0000 0.0000 0.0000
# 2 12.6024 104.7778 38.1028 0.0000 0.0000 0.0000
# 3 9.3528 38.1028 124.6975 0.0000 0.0000 0.0000
# 4 0.0000 0.0000 0.0000 35.8767 0.0000 0.0000
# 5 0.0000 0.0000 0.0000 0.0000 15.8759 0.0000
# 6 0.0000 0.0000 0.0000 0.0000 0.0000 21.2630
#
#
#
# Elastic Compliance Matrix: (Units=1/GPa)
#
#
# Indices 1 2 3 4 5 6 
#
# 1 0.024289 -0.002541 -0.001045 0.000000 0.000000 0.000000
# 2 -0.002541 0.011003 -0.003171 0.000000 0.000000 0.000000
# 3 -0.001045 -0.003171 0.009067 0.000000 0.000000 0.000000
# 4 0.000000 0.000000 0.000000 0.027873 0.000000 0.000000
# 5 0.000000 0.000000 0.000000 0.000000 0.062988 0.000000
# 6 0.000000 0.000000 0.000000 0.000000 0.000000 0.047030
#
#
# Mechanical properties :
#
#
# Convention : Reuss Voigt Hill
#
# Bulk Modulus (GPa) = 32.42259 43.60927 38.01593
# Shear Modulus (GPa) = 24.26626 28.75710 26.51168
#
# Velocity S-wave (km/s) = 3.31323 3.60680 3.46313
# Velocity P-wave (km/s) = 5.41330 6.08877 5.76095
#
# Compressibility (1/GPa) = 0.03084270
#
# Stress axis : x y z
#
# Youngs Moduli (GPa) = 41.17115 90.88441 110.29147
#
# Poissons Ratio (x) = 0.23096 0.11528
# Poissons Ratio (y) = 0.10463 0.34979
# Poissons Ratio (z) = 0.04303 0.28824
#
# Static dielectric constant tensor:
#      x y z
#    x 1.762380 0.000000 0.000000 
#    y 0.000000 1.807340 0.000000 
#    z 0.000000 0.000000 2.111390 
# 
# From -- ./inp_files/1916.got.cif
#   From: 2010.05.17/outbox.cif.g08.bks.cpg/sg36_1_cif.got.tgz:1916.got - 2010.06.03 17:41:39.
