data_PCOD9352227
_publ_section_title
;
Structure prediction by ZEFSAII (Michael W. Deem and Ramdas Pophale) SiO2 
 PCOD9352227
Probable space group: C M C 21
;
_chemical_formula_sum "Si O2"
_cell_formula_units_Z 64
_cell_length_a 32.272181
_cell_length_b 18.225267
_cell_length_c 5.239180
_cell_angle_alpha 90.000000
_cell_angle_beta 90.000000
_cell_angle_gamma 90.000000
_cell_volume 3081.523866
_symmetry_space_group_name_H-M "C M C 21"
_symmetry_group_IT_number 36
_symmetry_cell_setting 'orthorhombic'
loop_
_space_group_symop_operation_xyz
x,y,z
-x,-y,1/2+z
x,-y,1/2+z
-x,y,z
1/2+x,1/2+y,z
1/2-x,1/2-y,1/2+z
1/2+x,1/2-y,1/2+z
1/2-x,1/2+y,z
loop_
_atom_site_type_symbol
_atom_site_label
_atom_site_fract_x
_atom_site_fract_y
_atom_site_fract_z
Si Si1 0.549764 0.048716 0.076380
Si Si2 0.687797 0.223033 0.132132
Si Si3 0.951295 0.962158 0.500862
Si Si4 0.407539 0.791816 0.560465
Si Si5 0.671254 0.638322 0.998518
Si Si6 0.082143 0.805642 0.572569
Si Si7 0.726632 0.543755 0.750898
Si Si8 0.741030 0.660714 0.398184
O O1 0.500000 0.061997 0.076203
O O2 0.572676 0.127257 0.073791
O O3 0.559680 0.000420 0.327309
O O4 0.642651 0.202891 0.029350
O O5 0.680020 0.287118 0.341510
O O6 0.714754 0.160998 0.266043
O O7 0.720306 0.259801 0.937420
O O8 0.947734 0.874833 0.535205
O O9 0.000000 0.980313 0.490223
O O10 0.932810 0.992843 0.238184
O O11 0.424479 0.745216 0.319661
O O12 0.416146 0.745744 0.820489
O O13 0.626108 0.652227 0.105966
O O14 0.704689 0.625951 0.223168
O O15 0.679115 0.570000 0.807039
O O16 0.738642 0.497282 0.504731
O O17 0.745823 0.621296 0.669674
#
# Coordination Sequence:
#
# PCOD9352227 Si02
#       8
#     8   8   8   8   8   8   8   8
#     4  10  22  43  70  97 129 169 207 247 321 415
#     4  10  21  35  60  90 115 157 206 253 308 364
#     4  10  22  41  61  86 124 170 211 245 299 377
#     4  11  23  40  63  98 131 155 209 273 315 368
#     4  10  21  36  58  82 116 150 202 251 299 357
#     4  11  23  38  61  94 127 159 209 266 315 357
#     4  11  23  38  53  78 113 150 193 251 299 349
#     4  11  19  37  60  83 112 160 204 248 304 361
#
# _framework density 20.768944000000001
#
# number of rings (size 3 to 8) (size 9 to 14) (size 15 to 20)
#    0.000    1.500    3.750    1.500    0.000    2.000 
#    0.000    1.250    0.000    0.000    0.000    0.000 
#    0.000    0.000    0.000    0.000    0.000    0.000 
#
# Total GULP energy -178323.084197 kJ/mol
# GULP energy per Si atom -5572.596381 kJ/mol
# Density = 2.072167 g / cm^3
# Si number density = 20.768944 Si / 1000 Ang^3
#
#
#
# Elastic Constant Matrix: (Units=GPa)
#
#
# Indices 1 2 3 4 5 6 
#
# 1 18.8500 9.2771 9.8971 0.0000 0.0000 0.0000
# 2 9.2771 79.9431 41.2811 0.0000 0.0000 0.0000
# 3 9.8971 41.2811 109.1309 0.0000 0.0000 0.0000
# 4 0.0000 0.0000 0.0000 45.5468 0.0000 0.0000
# 5 0.0000 0.0000 0.0000 0.0000 11.8331 0.0000
# 6 0.0000 0.0000 0.0000 0.0000 0.0000 19.2228
#
#
#
# Elastic Compliance Matrix: (Units=1/GPa)
#
#
# Indices 1 2 3 4 5 6 
#
# 1 0.057220 -0.004922 -0.003327 0.000000 0.000000 0.000000
# 2 -0.004922 0.015969 -0.005594 0.000000 0.000000 0.000000
# 3 -0.003327 -0.005594 0.011581 0.000000 0.000000 0.000000
# 4 0.000000 0.000000 0.000000 0.021955 0.000000 0.000000
# 5 0.000000 0.000000 0.000000 0.000000 0.084509 0.000000
# 6 0.000000 0.000000 0.000000 0.000000 0.000000 0.052022
#
#
# Mechanical properties :
#
#
# Convention : Reuss Voigt Hill
#
# Bulk Modulus (GPa) = 17.51846 36.53716 27.02781
# Shear Modulus (GPa) = 17.24318 25.15179 21.19748
#
# Velocity S-wave (km/s) = 2.88451 3.48376 3.19820
# Velocity P-wave (km/s) = 4.42121 5.81485 5.16525
#
# Compressibility (1/GPa) = 0.05708265
#
# Stress axis : x y z
#
# Youngs Moduli (GPa) = 17.47651 62.62215 86.34699
#
# Poissons Ratio (x) = 0.30822 0.28731
# Poissons Ratio (y) = 0.08602 0.48304
# Poissons Ratio (z) = 0.05815 0.35032
#
# Static dielectric constant tensor:
#      x y z
#    x 1.753030 0.000000 0.000000 
#    y 0.000000 1.795950 0.000000 
#    z 0.000000 0.000000 1.846550 
# 
# From -- ./inp_files/1917.got.cif
#   From: 2010.05.17/outbox.cif.g08.bks.cpg/sg36_1_cif.got.tgz:1917.got - 2010.06.03 17:41:39.
