data_PCOD9352640
_publ_section_title
;
Structure prediction by ZEFSAII (Michael W. Deem and Ramdas Pophale) SiO2 
 PCOD9352640
Probable space group: C M C 21
;
_chemical_formula_sum "Si O2"
_cell_formula_units_Z 56
_cell_length_a 13.821736
_cell_length_b 21.471474
_cell_length_c 10.032032
_cell_angle_alpha 90.000000
_cell_angle_beta 90.000000
_cell_angle_gamma 90.000000
_cell_volume 2977.236686
_symmetry_space_group_name_H-M "C M C 21"
_symmetry_group_IT_number 36
_symmetry_cell_setting 'orthorhombic'
loop_
_space_group_symop_operation_xyz
x,y,z
-x,-y,1/2+z
x,-y,1/2+z
-x,y,z
1/2+x,1/2+y,z
1/2-x,1/2-y,1/2+z
1/2+x,1/2-y,1/2+z
1/2-x,1/2+y,z
loop_
_atom_site_type_symbol
_atom_site_label
_atom_site_fract_x
_atom_site_fract_y
_atom_site_fract_z
Si Si1 0.000000 0.949689 0.555351
Si Si2 0.611840 0.257590 0.057161
Si Si3 0.782639 0.922428 0.919202
Si Si4 0.385699 0.257163 0.741425
Si Si5 0.704928 0.569507 0.939569
Si Si6 0.759620 0.354872 0.178814
Si Si7 0.500000 0.570798 0.373980
Si Si8 0.278907 0.146265 0.169488
O O1 0.096175 0.920070 0.494028
O O2 0.000000 0.950245 0.717171
O O3 0.000000 0.018295 0.489489
O O4 0.500000 0.273191 0.067599
O O5 0.675648 0.307569 0.134176
O O6 0.635723 0.191525 0.124780
O O7 0.637340 0.255520 0.900028
O O8 0.718631 0.885745 0.812791
O O9 0.894536 0.898888 0.896851
O O10 0.785684 0.996892 0.900954
O O11 0.742803 0.906559 0.064209
O O12 0.500000 0.269785 0.723474
O O13 0.353921 0.188937 0.688772
O O14 0.316579 0.308556 0.672690
O O15 0.732727 0.612718 0.816674
O O16 0.768966 0.591063 0.063536
#
# Coordination Sequence:
#
# PCOD9352640 Si02
#       8
#     4   8   8   8   8   8   4   8
#     4  10  22  34  50  84 124 162 198 232 285 354
#     4  10  22  40  62  88 118 158 202 253 300 345
#     4  11  23  37  60  84 129 157 194 243 304 360
#     4  10  22  40  64  86 117 160 202 251 301 346
#     4  11  23  37  57  87 124 158 198 242 294 361
#     4  11  23  39  61  92 115 161 201 245 299 365
#     4  10  22  34  52  84 122 166 194 228 289 358
#     4  11  21  39  61  89 116 160 197 242 298 359
#
# _framework density 18.809388999999999
#
# number of rings (size 3 to 8) (size 9 to 14) (size 15 to 20)
#    0.000    1.429    4.286    0.857   10.000    0.000 
#    0.000    2.143    0.000    5.143    0.000    0.000 
#    0.000    0.000    0.000    0.000    0.000    0.000 
#
# Total GULP energy -156228.546363 kJ/mol
# GULP energy per Si atom -5579.590942 kJ/mol
# Density = 1.876658 g / cm^3
# Si number density = 18.809389 Si / 1000 Ang^3
#
#
#
# Elastic Constant Matrix: (Units=GPa)
#
#
# Indices 1 2 3 4 5 6 
#
# 1 26.6242 10.6379 8.6801 0.0000 0.0000 0.0000
# 2 10.6379 60.3434 -1.7569 0.0000 0.0000 0.0000
# 3 8.6801 -1.7569 81.5749 0.0000 0.0000 0.0000
# 4 0.0000 0.0000 0.0000 35.4260 0.0000 0.0000
# 5 0.0000 0.0000 0.0000 0.0000 24.2697 0.0000
# 6 0.0000 0.0000 0.0000 0.0000 0.0000 25.6548
#
#
#
# Elastic Compliance Matrix: (Units=1/GPa)
#
#
# Indices 1 2 3 4 5 6 
#
# 1 0.042092 -0.007555 -0.004642 0.000000 0.000000 0.000000
# 2 -0.007555 0.017938 0.001190 0.000000 0.000000 0.000000
# 3 -0.004642 0.001190 0.012778 0.000000 0.000000 0.000000
# 4 0.000000 0.000000 0.000000 0.028228 0.000000 0.000000
# 5 0.000000 0.000000 0.000000 0.000000 0.041204 0.000000
# 6 0.000000 0.000000 0.000000 0.000000 0.000000 0.038979
#
#
# Mechanical properties :
#
#
# Convention : Reuss Voigt Hill
#
# Bulk Modulus (GPa) = 19.68695 22.62939 21.15817
# Shear Modulus (GPa) = 22.71030 27.13552 24.92291
#
# Velocity S-wave (km/s) = 3.47852 3.80235 3.64404
# Velocity P-wave (km/s) = 5.15973 5.59770 5.38317
#
# Compressibility (1/GPa) = 0.05079507
#
# Stress axis : x y z
#
# Youngs Moduli (GPa) = 23.75750 55.74626 78.25830
#
# Poissons Ratio (x) = 0.42119 0.36324
# Poissons Ratio (y) = 0.17950 -0.09315
# Poissons Ratio (z) = 0.11027 -0.06636
#
# Static dielectric constant tensor:
#      x y z
#    x 1.660100 0.000000 0.000000 
#    y 0.000000 1.692140 0.000000 
#    z 0.000000 0.000000 1.639100 
# 
# From -- ./inp_files/4222.got.cif
#   From: 2010.05.17/outbox.cif.g08.bks.cpg/sg36_3_cif.got.tgz:4222.got - 2010.06.03 17:41:39.
