data_PCOD9352563
_publ_section_title
;
Structure prediction by ZEFSAII (Michael W. Deem and Ramdas Pophale) SiO2 
 PCOD9352563
Probable space group: C M C 21
;
_chemical_formula_sum "Si O2"
_cell_formula_units_Z 56
_cell_length_a 29.623175
_cell_length_b 5.551081
_cell_length_c 13.966884
_cell_angle_alpha 90.000000
_cell_angle_beta 90.000000
_cell_angle_gamma 90.000000
_cell_volume 2296.723398
_symmetry_space_group_name_H-M "C M C 21"
_symmetry_group_IT_number 36
_symmetry_cell_setting 'orthorhombic'
loop_
_space_group_symop_operation_xyz
x,y,z
-x,-y,1/2+z
x,-y,1/2+z
-x,y,z
1/2+x,1/2+y,z
1/2-x,1/2-y,1/2+z
1/2+x,1/2-y,1/2+z
1/2-x,1/2+y,z
loop_
_atom_site_type_symbol
_atom_site_label
_atom_site_fract_x
_atom_site_fract_y
_atom_site_fract_z
Si Si1 0.049202 0.995253 0.495000
Si Si2 0.272403 0.589852 0.501716
Si Si3 0.449115 0.740184 0.700211
Si Si4 0.137359 0.269456 0.437283
Si Si5 0.227040 0.868506 0.232519
Si Si6 0.368214 0.560290 0.249344
Si Si7 0.893890 0.374488 0.079774
O O1 0.069993 0.730936 0.504449
O O2 0.000000 0.008855 0.449698
O O3 0.045016 0.075269 0.605914
O O4 0.087333 0.167595 0.454673
O O5 0.248381 0.345461 0.468319
O O6 0.323909 0.584592 0.467256
O O7 0.270089 0.612284 0.616827
O O8 0.500000 0.795902 0.735892
O O9 0.414601 0.588595 0.765929
O O10 0.421710 0.966604 0.656819
O O11 0.139547 0.279828 0.323079
O O12 0.141292 0.482780 0.513998
O O13 0.249231 0.617962 0.265109
O O14 0.174298 0.885015 0.257368
O O15 0.370318 0.669959 0.142980
#
# Coordination Sequence:
#
# PCOD9352563 Si02
#       7
#     8   8   8   8   8   8   8
#     4   9  19  38  64  91 125 168 218 276 341 409
#     4  10  23  42  70  98 130 176 229 287 349 415
#     4   9  19  38  64  91 125 168 218 276 341 409
#     4  11  25  41  63  96 136 178 226 286 347 411
#     4  10  23  42  70  98 130 176 229 287 349 415
#     4  11  25  41  63  96 136 178 226 286 347 411
#     4  10  21  40  66  94 132 174 228 280 339 414
#
# _framework density 24.382562
#
# number of rings (size 3 to 8) (size 9 to 14) (size 15 to 20)
#    0.000    2.000    0.000    3.000   10.000    4.000 
#    0.000    0.000    0.000    0.000    0.000    0.000 
#    0.000    0.000    0.000    0.000    0.000    0.000 
#
# Total GULP energy -156431.587599 kJ/mol
# GULP energy per Si atom -5586.842414 kJ/mol
# Density = 2.432707 g / cm^3
# Si number density = 24.382562 Si / 1000 Ang^3
#
#
#
# Elastic Constant Matrix: (Units=GPa)
#
#
# Indices 1 2 3 4 5 6 
#
# 1 128.7144 39.0366 14.3984 0.0000 0.0000 0.0000
# 2 39.0366 90.7625 12.4707 0.0000 0.0000 0.0000
# 3 14.3984 12.4707 47.2966 0.0000 0.0000 0.0000
# 4 0.0000 0.0000 0.0000 16.8129 0.0000 0.0000
# 5 0.0000 0.0000 0.0000 0.0000 -64.1231 0.0000
# 6 0.0000 0.0000 0.0000 0.0000 0.0000 -29.8176
#
#
#
# Elastic Compliance Matrix: (Units=1/GPa)
#
#
# Indices 1 2 3 4 5 6 
#
# 1 0.009080 -0.003658 -0.001800 0.000000 0.000000 0.000000
# 2 -0.003658 0.012906 -0.002289 0.000000 0.000000 0.000000
# 3 -0.001800 -0.002289 0.022295 0.000000 0.000000 0.000000
# 4 0.000000 0.000000 0.000000 0.059478 0.000000 0.000000
# 5 0.000000 0.000000 0.000000 0.000000 -0.015595 0.000000
# 6 0.000000 0.000000 0.000000 0.000000 0.000000 -0.033537
#
#
# Mechanical properties :
#
#
# Convention : Reuss Voigt Hill
#
# Bulk Modulus (GPa) = 34.73867 44.28721 39.51294
# Shear Modulus (GPa) = 62.72341 -2.03438 30.34451
#
# Velocity S-wave (km/s) = 5.07745 -0.91442 3.53160
# Velocity P-wave (km/s) = 6.97512 4.13377 5.73325
#
# Compressibility (1/GPa) = 0.02878637
#
# Stress axis : x y z
#
# Youngs Moduli (GPa) = 110.13416 77.48590 44.85387
#
# Poissons Ratio (x) = 0.28344 0.08072
# Poissons Ratio (y) = 0.40286 0.10268
# Poissons Ratio (z) = 0.19820 0.17738
#
# Static dielectric constant tensor:
#      x y z
#    x 1.952710 0.000000 0.000000 
#    y 0.000000 1.973460 0.000000 
#    z 0.000000 0.000000 1.927910 
# 
# From -- ./inp_files/13175.got.cif
#   From: 2010.05.17/outbox.cif.g08.bks.cpg/sg36_7_cif.got.tgz:13175.got - 2010.06.03 17:41:39.
