data_PCOD9352068
_publ_section_title
;
Structure prediction by ZEFSAII (Michael W. Deem and Ramdas Pophale) SiO2 
 PCOD9352068
Probable space group: C M C 21
;
_chemical_formula_sum "Si O2"
_cell_formula_units_Z 48
_cell_length_a 8.498772
_cell_length_b 20.672328
_cell_length_c 14.450699
_cell_angle_alpha 90.000000
_cell_angle_beta 90.000000
_cell_angle_gamma 90.000000
_cell_volume 2538.834671
_symmetry_space_group_name_H-M "C M C 21"
_symmetry_group_IT_number 36
_symmetry_cell_setting 'orthorhombic'
loop_
_space_group_symop_operation_xyz
x,y,z
-x,-y,1/2+z
x,-y,1/2+z
-x,y,z
1/2+x,1/2+y,z
1/2-x,1/2-y,1/2+z
1/2+x,1/2-y,1/2+z
1/2-x,1/2+y,z
loop_
_atom_site_type_symbol
_atom_site_label
_atom_site_fract_x
_atom_site_fract_y
_atom_site_fract_z
Si Si1 0.690906 0.946681 0.125000
Si Si2 0.811596 0.390451 0.323263
Si Si3 0.308994 0.181493 0.522631
Si Si4 0.687610 0.756567 0.831859
Si Si5 0.189579 0.803198 0.645674
Si Si6 0.688493 0.426207 0.523137
O O1 0.500000 0.949113 0.124719
O O2 0.740549 0.927965 0.229821
O O3 0.743678 0.888049 0.058103
O O4 0.754587 0.012747 0.082399
O O5 0.756676 0.315587 0.321384
O O6 0.753301 0.422403 0.418722
O O7 0.000000 0.390517 0.322785
O O8 0.500000 0.179033 0.518628
O O9 0.253144 0.207890 0.424288
O O10 0.267746 0.235739 0.597341
O O11 0.500000 0.749184 0.838983
O O12 0.731996 0.800960 0.745247
O O13 0.237320 0.861605 0.578927
O O14 0.000000 0.805400 0.655828
O O15 0.500000 0.426263 0.517605
#
# Coordination Sequence:
#
# PCOD9352068 Si02
#       6
#     8   8   8   8   8   8
#     4  10  22  41  63  86 118 161 204 245 298 366
#     4  11  22  39  64  89 119 162 205 246 303 370
#     4   9  18  37  60  83 116 156 196 243 298 352
#     4  11  21  35  61  94 122 153 201 256 301 351
#     4  10  20  39  60  83 119 159 196 241 299 358
#     4  11  24  41  62  89 126 161 198 253 305 357
#
# _framework density 18.906310999999999
#
# number of rings (size 3 to 8) (size 9 to 14) (size 15 to 20)
#    0.000    1.667    3.333    1.500    0.000    4.000 
#    0.000    6.667    0.000    0.000    0.000    0.000 
#    0.000    0.000    0.000    0.000    0.000    0.000 
#
# Total GULP energy -134008.855702 kJ/mol
# GULP energy per Si atom -5583.702321 kJ/mol
# Density = 1.886328 g / cm^3
# Si number density = 18.906311 Si / 1000 Ang^3
#
#
#
# Elastic Constant Matrix: (Units=GPa)
#
#
# Indices 1 2 3 4 5 6 
#
# 1 27.4995 16.4011 24.0497 0.0000 0.0000 0.0000
# 2 16.4011 82.0108 16.2711 0.0000 0.0000 0.0000
# 3 24.0497 16.2711 122.2609 0.0000 0.0000 0.0000
# 4 0.0000 0.0000 0.0000 32.7311 0.0000 0.0000
# 5 0.0000 0.0000 0.0000 0.0000 29.1463 0.0000
# 6 0.0000 0.0000 0.0000 0.0000 0.0000 22.2094
#
#
#
# Elastic Compliance Matrix: (Units=1/GPa)
#
#
# Indices 1 2 3 4 5 6 
#
# 1 0.048576 -0.008031 -0.008486 0.000000 0.000000 0.000000
# 2 -0.008031 0.013852 -0.000264 0.000000 0.000000 0.000000
# 3 -0.008486 -0.000264 0.009884 0.000000 0.000000 0.000000
# 4 0.000000 0.000000 0.000000 0.030552 0.000000 0.000000
# 5 0.000000 0.000000 0.000000 0.000000 0.034310 0.000000
# 6 0.000000 0.000000 0.000000 0.000000 0.000000 0.045026
#
#
# Mechanical properties :
#
#
# Convention : Reuss Voigt Hill
#
# Bulk Modulus (GPa) = 25.80686 38.35722 32.08204
# Shear Modulus (GPa) = 21.86483 28.48731 25.17607
#
# Velocity S-wave (km/s) = 3.40440 3.88591 3.65310
# Velocity P-wave (km/s) = 5.39748 6.36128 5.89909
#
# Compressibility (1/GPa) = 0.03874939
#
# Stress axis : x y z
#
# Youngs Moduli (GPa) = 20.58633 72.19223 101.17675
#
# Poissons Ratio (x) = 0.57976 0.85864
# Poissons Ratio (y) = 0.16533 0.02669
# Poissons Ratio (z) = 0.17471 0.01904
#
# Static dielectric constant tensor:
#      x y z
#    x 1.651630 0.000000 0.000000 
#    y 0.000000 1.622430 0.000000 
#    z 0.000000 0.000000 1.661330 
# 
# From -- ./inp_files/6762.got.cif
#   From: 2010.05.17/outbox.cif.g08.bks.cpg/sg36_4_cif.got.tgz:6762.got - 2010.06.03 17:41:39.
