data_PCOD9352368
_publ_section_title
;
Structure prediction by ZEFSAII (Michael W. Deem and Ramdas Pophale) SiO2 
 PCOD9352368
Probable space group: C M C 21
;
_chemical_formula_sum "Si O2"
_cell_formula_units_Z 40
_cell_length_a 26.589282
_cell_length_b 8.106862
_cell_length_c 7.619535
_cell_angle_alpha 90.000000
_cell_angle_beta 90.000000
_cell_angle_gamma 90.000000
_cell_volume 1642.433742
_symmetry_space_group_name_H-M "C M C 21"
_symmetry_group_IT_number 36
_symmetry_cell_setting 'orthorhombic'
loop_
_space_group_symop_operation_xyz
x,y,z
-x,-y,1/2+z
x,-y,1/2+z
-x,y,z
1/2+x,1/2+y,z
1/2-x,1/2-y,1/2+z
1/2+x,1/2-y,1/2+z
1/2-x,1/2+y,z
loop_
_atom_site_type_symbol
_atom_site_label
_atom_site_fract_x
_atom_site_fract_y
_atom_site_fract_z
Si Si1 0.701232 0.066615 0.229160
Si Si2 0.400014 0.771034 0.839778
Si Si3 0.699912 0.728529 0.366939
Si Si4 0.599813 0.559240 0.481978
Si Si5 0.500000 0.272017 0.873345
Si Si6 0.500000 0.940923 0.731591
O O1 0.650592 0.124315 0.327204
O O2 0.751890 0.116377 0.330976
O O3 0.698039 0.869435 0.218509
O O4 0.703301 0.165527 0.046460
O O5 0.400209 0.638029 0.994284
O O6 0.400726 0.655205 0.666091
O O7 0.449036 0.884396 0.829095
O O8 0.650400 0.618277 0.384910
O O9 0.549299 0.616686 0.383518
O O10 0.500000 0.138260 0.719391
O O11 0.500000 0.156364 0.047795
#
# Coordination Sequence:
#
# PCOD9352368 Si02
#       6
#     8   8   8   8   4   4
#     4  11  23  39  59  85 115 150 190 234 282 336
#     4  10  22  38  58  84 114 147 187 231 279 333
#     4  11  23  39  59  85 115 150 190 234 282 336
#     4  10  22  38  58  84 114 147 187 231 279 333
#     4  10  21  38  58  84 114 146 185 230 278 332
#     4  10  21  38  58  84 114 146 185 230 278 332
#
# _framework density 24.354102999999999
#
# number of rings (size 3 to 8) (size 9 to 14) (size 15 to 20)
#    0.000    1.600    0.000    4.200    0.000    8.000 
#    0.000    0.000    0.000    0.000    0.000    0.000 
#    0.000    0.000    0.000    0.000    0.000    0.000 
#
# Total GULP energy -112083.018707 kJ/mol
# GULP energy per Si atom -5604.150935 kJ/mol
# Density = 2.429867 g / cm^3
# Si number density = 24.354103 Si / 1000 Ang^3
#
#
#
# Elastic Constant Matrix: (Units=GPa)
#
#
# Indices 1 2 3 4 5 6 
#
# 1 195.5335 34.2068 26.3823 0.0000 0.0000 0.0000
# 2 34.2068 67.9901 -16.5676 0.0000 0.0000 0.0000
# 3 26.3823 -16.5676 56.0722 0.0000 0.0000 0.0000
# 4 0.0000 0.0000 0.0000 38.8590 0.0000 0.0000
# 5 0.0000 0.0000 0.0000 0.0000 27.8089 0.0000
# 6 0.0000 0.0000 0.0000 0.0000 0.0000 49.5347
#
#
#
# Elastic Compliance Matrix: (Units=1/GPa)
#
#
# Indices 1 2 3 4 5 6 
#
# 1 0.006445 -0.004290 -0.004300 0.000000 0.000000 0.000000
# 2 -0.004290 0.018705 0.007545 0.000000 0.000000 0.000000
# 3 -0.004300 0.007545 0.022087 0.000000 0.000000 0.000000
# 4 0.000000 0.000000 0.000000 0.025734 0.000000 0.000000
# 5 0.000000 0.000000 0.000000 0.000000 0.035960 0.000000
# 6 0.000000 0.000000 0.000000 0.000000 0.000000 0.020188
#
#
# Mechanical properties :
#
#
# Convention : Reuss Voigt Hill
#
# Bulk Modulus (GPa) = 22.14984 45.29318 33.72151
# Shear Modulus (GPa) = 34.18626 41.61214 37.89920
#
# Velocity S-wave (km/s) = 3.75069 4.13804 3.94912
# Velocity P-wave (km/s) = 5.27935 6.43967 5.88816
#
# Compressibility (1/GPa) = 0.04514705
#
# Stress axis : x y z
#
# Youngs Moduli (GPa) = 155.15999 53.46099 45.27589
#
# Poissons Ratio (x) = 0.22937 0.19469
# Poissons Ratio (y) = 0.66569 -0.34163
# Poissons Ratio (z) = 0.66720 -0.40339
#
# Static dielectric constant tensor:
#      x y z
#    x 1.842480 0.000000 0.000000 
#    y 0.000000 1.858460 0.000000 
#    z 0.000000 0.000000 2.024780 
# 
# From -- ./inp_files/5475.got.cif
#   From: 2010.05.17/outbox.cif.g08.bks.cpg/sg36_3_cif.got.tgz:5475.got - 2010.06.03 17:41:39.
