data_PCOD9352480
_publ_section_title
;
Structure prediction by ZEFSAII (Michael W. Deem and Ramdas Pophale) SiO2 
 PCOD9352480
Probable space group: C M C 21
;
_chemical_formula_sum "Si O2"
_cell_formula_units_Z 64
_cell_length_a 16.624789
_cell_length_b 11.649859
_cell_length_c 16.539356
_cell_angle_alpha 90.000000
_cell_angle_beta 90.000000
_cell_angle_gamma 90.000000
_cell_volume 3203.283718
_symmetry_space_group_name_H-M "C M C 21"
_symmetry_group_IT_number 36
_symmetry_cell_setting 'orthorhombic'
loop_
_space_group_symop_operation_xyz
x,y,z
-x,-y,1/2+z
x,-y,1/2+z
-x,y,z
1/2+x,1/2+y,z
1/2-x,1/2-y,1/2+z
1/2+x,1/2-y,1/2+z
1/2-x,1/2+y,z
loop_
_atom_site_type_symbol
_atom_site_label
_atom_site_fract_x
_atom_site_fract_y
_atom_site_fract_z
Si Si1 0.908491 0.190683 0.791610
Si Si2 0.904095 0.599538 0.799956
Si Si3 0.356028 0.516075 0.388115
Si Si4 0.185715 0.240964 0.176286
Si Si5 0.407291 0.757248 0.453505
Si Si6 0.347283 0.668653 0.617268
Si Si7 0.293116 0.886907 0.805647
Si Si8 0.403600 0.577953 0.055134
O O1 0.887615 0.058993 0.813204
O O2 0.896287 0.209780 0.695835
O O3 0.842243 0.273762 0.831717
O O4 0.000000 0.215166 0.815804
O O5 0.874067 0.691788 0.735041
O O6 0.880238 0.648830 0.888449
O O7 0.858625 0.481561 0.782927
O O8 0.000000 0.587241 0.798168
O O9 0.402462 0.633788 0.408202
O O10 0.265688 0.557564 0.371651
O O11 0.369288 0.434223 0.464812
O O12 0.254044 0.326106 0.142024
O O13 0.235522 0.150694 0.231693
O O14 0.137778 0.177645 0.106080
O O15 0.500000 0.779141 0.474350
O O16 0.359615 0.744811 0.537007
O O17 0.379737 0.543061 0.595999
O O18 0.500000 0.589184 0.052506
#
# Coordination Sequence:
#
# PCOD9352480 Si02
#       8
#     8   8   8   8   8   8   8   8
#     4  11  22  39  63  88 121 162 205 253 301 361
#     4  11  23  40  63  89 124 162 201 249 305 366
#     4  11  22  37  61  88 124 154 201 253 304 353
#     4  11  22  40  62  92 117 160 203 251 306 361
#     4  10  21  39  62  92 122 160 204 252 306 361
#     4  10  22  37  61  90 122 154 205 252 304 359
#     4  11  23  39  60  89 121 157 204 247 302 361
#     4  11  23  39  60  90 123 157 201 253 308 362
#
# _framework density 19.979499000000001
#
# number of rings (size 3 to 8) (size 9 to 14) (size 15 to 20)
#    0.000    1.250    1.250    6.750    1.750    1.000 
#    0.000    0.000    0.000    0.000    0.000    0.000 
#    0.000    0.000    0.000    0.000    0.000    0.000 
#
# Total GULP energy -178763.685782 kJ/mol
# GULP energy per Si atom -5586.365181 kJ/mol
# Density = 1.993402 g / cm^3
# Si number density = 19.979499 Si / 1000 Ang^3
#
#
#
# Elastic Constant Matrix: (Units=GPa)
#
#
# Indices 1 2 3 4 5 6 
#
# 1 109.8596 19.8280 38.4015 0.0000 0.0000 0.0000
# 2 19.8280 49.3466 24.0950 0.0000 0.0000 0.0000
# 3 38.4015 24.0950 54.0711 0.0000 0.0000 0.0000
# 4 0.0000 0.0000 0.0000 15.2070 0.0000 0.0000
# 5 0.0000 0.0000 0.0000 0.0000 21.9654 0.0000
# 6 0.0000 0.0000 0.0000 0.0000 0.0000 26.0078
#
#
#
# Elastic Compliance Matrix: (Units=1/GPa)
#
#
# Indices 1 2 3 4 5 6 
#
# 1 0.012137 -0.000854 -0.008239 0.000000 0.000000 0.000000
# 2 -0.000854 0.025960 -0.010962 0.000000 0.000000 0.000000
# 3 -0.008239 -0.010962 0.029231 0.000000 0.000000 0.000000
# 4 0.000000 0.000000 0.000000 0.065759 0.000000 0.000000
# 5 0.000000 0.000000 0.000000 0.000000 0.045526 0.000000
# 6 0.000000 0.000000 0.000000 0.000000 0.000000 0.038450
#
#
# Mechanical properties :
#
#
# Convention : Reuss Voigt Hill
#
# Bulk Modulus (GPa) = 36.74066 41.99183 39.36624
# Shear Modulus (GPa) = 18.77969 21.36623 20.07296
#
# Velocity S-wave (km/s) = 3.06918 3.27373 3.17310
# Velocity P-wave (km/s) = 5.56677 5.94582 5.75942
#
# Compressibility (1/GPa) = 0.02721780
#
# Stress axis : x y z
#
# Youngs Moduli (GPa) = 82.39565 38.52019 34.21084
#
# Poissons Ratio (x) = 0.03288 0.28186
# Poissons Ratio (y) = 0.07033 0.37502
# Poissons Ratio (z) = 0.67886 0.42226
#
# Static dielectric constant tensor:
#      x y z
#    x 1.697270 0.000000 0.000000 
#    y 0.000000 1.697260 0.000000 
#    z 0.000000 0.000000 1.724070 
# 
# From -- ./inp_files/14726.got.cif
#   From: 2010.05.17/outbox.cif.g08.bks.cpg/sg36_8_cif.got.tgz:14726.got - 2010.06.03 17:41:39.
