data_PCOD9352910
_publ_section_title
;
Structure prediction by ZEFSAII (Michael W. Deem and Ramdas Pophale) SiO2 
 PCOD9352910
Probable space group: C M C 21
;
_chemical_formula_sum "Si O2"
_cell_formula_units_Z 40
_cell_length_a 26.499628
_cell_length_b 8.290302
_cell_length_c 7.715677
_cell_angle_alpha 90.000000
_cell_angle_beta 90.000000
_cell_angle_gamma 90.000000
_cell_volume 1695.056455
_symmetry_space_group_name_H-M "C M C 21"
_symmetry_group_IT_number 36
_symmetry_cell_setting 'orthorhombic'
loop_
_space_group_symop_operation_xyz
x,y,z
-x,-y,1/2+z
x,-y,1/2+z
-x,y,z
1/2+x,1/2+y,z
1/2-x,1/2-y,1/2+z
1/2+x,1/2-y,1/2+z
1/2-x,1/2+y,z
loop_
_atom_site_type_symbol
_atom_site_label
_atom_site_fract_x
_atom_site_fract_y
_atom_site_fract_z
Si Si1 0.400332 0.240591 0.590060
Si Si2 0.799926 0.758710 0.083041
Si Si3 0.899348 0.075574 0.457425
Si Si4 0.500000 0.258904 0.060764
Si Si5 0.500000 0.069229 0.696705
Si Si6 0.699357 0.082290 0.453467
O O1 0.402633 0.383018 0.449297
O O2 0.397530 0.336663 0.771948
O O3 0.449535 0.129725 0.601198
O O4 0.351096 0.136351 0.552334
O O5 0.800470 0.671418 0.268738
O O6 0.848513 0.870064 0.054432
O O7 0.749683 0.861086 0.052068
O O8 0.800759 0.610866 0.946756
O O9 0.949778 0.135468 0.554106
O O10 0.500000 0.154523 0.883075
O O11 0.500000 0.123374 0.207106
#
# Coordination Sequence:
#
# PCOD9352910 Si02
#       6
#     8   8   8   4   4   8
#     4  11  23  41  63  92 125 163 206 253 305 363
#     4  12  25  43  65  92 124 162 204 253 306 364
#     4  11  23  41  63  92 125 163 206 253 305 363
#     4  10  23  40  62  90 124 162 205 252 305 362
#     4  10  23  40  62  90 124 162 205 252 305 362
#     4  12  25  43  65  92 124 162 204 253 306 364
#
# _framework density 23.598033000000001
#
# number of rings (size 3 to 8) (size 9 to 14) (size 15 to 20)
#    0.000    0.800    0.000    7.800    0.000    6.400 
#    0.000    0.000    0.000    0.000    0.000    0.000 
#    0.000    0.000    0.000    0.000    0.000    0.000 
#
# Total GULP energy -112159.705090 kJ/mol
# GULP energy per Si atom -5607.985254 kJ/mol
# Density = 2.354432 g / cm^3
# Si number density = 23.598033 Si / 1000 Ang^3
#
#
#
# Elastic Constant Matrix: (Units=GPa)
#
#
# Indices 1 2 3 4 5 6 
#
# 1 183.9114 28.0358 19.8036 0.0000 0.0000 0.0000
# 2 28.0358 71.6941 -28.9591 0.0000 0.0000 0.0000
# 3 19.8036 -28.9591 71.1273 0.0000 0.0000 0.0000
# 4 0.0000 0.0000 0.0000 39.3118 0.0000 0.0000
# 5 0.0000 0.0000 0.0000 0.0000 21.3706 0.0000
# 6 0.0000 0.0000 0.0000 0.0000 0.0000 44.4574
#
#
#
# Elastic Compliance Matrix: (Units=1/GPa)
#
#
# Indices 1 2 3 4 5 6 
#
# 1 0.006384 -0.003847 -0.003344 0.000000 0.000000 0.000000
# 2 -0.003847 0.019012 0.008812 0.000000 0.000000 0.000000
# 3 -0.003344 0.008812 0.018578 0.000000 0.000000 0.000000
# 4 0.000000 0.000000 0.000000 0.025438 0.000000 0.000000
# 5 0.000000 0.000000 0.000000 0.000000 0.046793 0.000000
# 6 0.000000 0.000000 0.000000 0.000000 0.000000 0.022493
#
#
# Mechanical properties :
#
#
# Convention : Reuss Voigt Hill
#
# Bulk Modulus (GPa) = 21.17957 40.49929 30.83943
# Shear Modulus (GPa) = 33.06996 41.55145 37.31070
#
# Velocity S-wave (km/s) = 3.74757 4.20074 3.98061
# Velocity P-wave (km/s) = 5.26501 6.38183 5.85013
#
# Compressibility (1/GPa) = 0.04721530
#
# Stress axis : x y z
#
# Youngs Moduli (GPa) = 156.64400 52.59898 53.82747
#
# Poissons Ratio (x) = 0.20235 0.17998
# Poissons Ratio (y) = 0.60261 -0.47431
# Poissons Ratio (z) = 0.52378 -0.46348
#
# Static dielectric constant tensor:
#      x y z
#    x 1.813730 0.000000 0.000000 
#    y 0.000000 1.820750 0.000000 
#    z 0.000000 0.000000 1.956040 
# 
# From -- ./inp_files/5486.got.cif
#   From: 2010.05.17/outbox.cif.g08.bks.cpg/sg36_3_cif.got.tgz:5486.got - 2010.06.03 17:41:39.
