data_PCOD9352293
_publ_section_title
;
Structure prediction by ZEFSAII (Michael W. Deem and Ramdas Pophale) SiO2 
 PCOD9352293
Probable space group: C M C 21
;
_chemical_formula_sum "Si O2"
_cell_formula_units_Z 64
_cell_length_a 17.543238
_cell_length_b 14.213761
_cell_length_c 14.213822
_cell_angle_alpha 90.000000
_cell_angle_beta 90.000000
_cell_angle_gamma 90.000000
_cell_volume 3544.293158
_symmetry_space_group_name_H-M "C M C 21"
_symmetry_group_IT_number 36
_symmetry_cell_setting 'orthorhombic'
loop_
_space_group_symop_operation_xyz
x,y,z
-x,-y,1/2+z
x,-y,1/2+z
-x,y,z
1/2+x,1/2+y,z
1/2-x,1/2-y,1/2+z
1/2+x,1/2-y,1/2+z
1/2-x,1/2+y,z
loop_
_atom_site_type_symbol
_atom_site_label
_atom_site_fract_x
_atom_site_fract_y
_atom_site_fract_z
Si Si1 0.089083 0.245593 0.956380
Si Si2 0.361732 0.744831 0.649710
Si Si3 0.361985 0.102221 0.307878
Si Si4 0.911842 0.236166 0.437486
Si Si5 0.320152 0.601298 0.307698
Si Si6 0.910899 0.091117 0.796256
Si Si7 0.911759 0.610087 0.779913
Si Si8 0.679570 0.755524 0.148818
O O1 0.105107 0.339303 0.895590
O O2 0.105094 0.158710 0.885698
O O3 0.000000 0.242211 0.982660
O O4 0.141648 0.242559 0.047649
O O5 0.378540 0.834973 0.715351
O O6 0.395683 0.753672 0.546343
O O7 0.394747 0.655113 0.705062
O O8 0.270430 0.734633 0.642670
O O9 0.270663 0.095522 0.318225
O O10 0.395552 0.998758 0.297696
O O11 0.857328 0.156061 0.395429
O O12 0.898615 0.329256 0.374674
O O13 0.000000 0.208143 0.424105
O O14 0.358115 0.499908 0.297566
O O15 0.336833 0.666329 0.216554
O O16 0.000000 0.064649 0.798713
O O17 0.857403 0.654827 0.700989
O O18 0.000000 0.623722 0.752243
#
# Coordination Sequence:
#
# PCOD9352293 Si02
#       8
#     8   8   8   8   8   8   8   8
#     4  10  21  37  57  81 109 143 182 225 273 323
#     4  10  21  37  57  81 109 143 182 225 273 323
#     4  10  21  37  57  81 111 145 182 225 271 323
#     4  10  21  37  57  81 109 143 182 225 273 323
#     4  10  21  37  57  81 111 145 182 225 271 323
#     4  10  21  37  57  81 111 145 182 225 271 323
#     4  10  21  37  57  81 111 145 182 225 271 323
#     4  10  21  37  57  81 109 143 182 225 273 323
#
# _framework density 18.057198
#
# number of rings (size 3 to 8) (size 9 to 14) (size 15 to 20)
#    0.000    2.000    0.000    3.000    0.000    8.000 
#    0.000    5.000    0.000    0.000    0.000    0.000 
#    0.000    0.000    0.000    0.000    0.000    0.000 
#
# Total GULP energy -178760.983866 kJ/mol
# GULP energy per Si atom -5586.280746 kJ/mol
# Density = 1.801610 g / cm^3
# Si number density = 18.057198 Si / 1000 Ang^3
#
#
#
# Elastic Constant Matrix: (Units=GPa)
#
#
# Indices 1 2 3 4 5 6 
#
# 1 25.8678 3.1101 4.0805 0.0000 0.0000 0.0000
# 2 3.1101 69.3788 -16.5554 0.0000 0.0000 0.0000
# 3 4.0805 -16.5554 68.9455 0.0000 0.0000 0.0000
# 4 0.0000 0.0000 0.0000 6.2008 0.0000 0.0000
# 5 0.0000 0.0000 0.0000 0.0000 36.0938 0.0000
# 6 0.0000 0.0000 0.0000 0.0000 0.0000 29.0465
#
#
#
# Elastic Compliance Matrix: (Units=1/GPa)
#
#
# Indices 1 2 3 4 5 6 
#
# 1 0.039416 -0.002465 -0.002925 0.000000 0.000000 0.000000
# 2 -0.002465 0.015444 0.003854 0.000000 0.000000 0.000000
# 3 -0.002925 0.003854 0.015603 0.000000 0.000000 0.000000
# 4 0.000000 0.000000 0.000000 0.161270 0.000000 0.000000
# 5 0.000000 0.000000 0.000000 0.000000 0.027706 0.000000
# 6 0.000000 0.000000 0.000000 0.000000 0.000000 0.034428
#
#
# Mechanical properties :
#
#
# Convention : Reuss Voigt Hill
#
# Bulk Modulus (GPa) = 14.83853 16.16250 15.50051
# Shear Modulus (GPa) = 15.65435 25.83869 20.74652
#
# Velocity S-wave (km/s) = 2.94756 3.78687 3.39327
# Velocity P-wave (km/s) = 4.45191 5.30007 4.89440
#
# Compressibility (1/GPa) = 0.06739213
#
# Stress axis : x y z
#
# Youngs Moduli (GPa) = 25.37051 64.75079 64.09100
#
# Poissons Ratio (x) = 0.15960 0.18744
# Poissons Ratio (y) = 0.06253 -0.24703
# Poissons Ratio (z) = 0.07420 -0.24957
#
# Static dielectric constant tensor:
#      x y z
#    x 1.610760 0.000000 0.000000 
#    y 0.000000 1.586730 0.000000 
#    z 0.000000 0.000000 1.590410 
# 
# From -- ./inp_files/12654.got.cif
#   From: 2010.05.17/outbox.cif.g08.bks.cpg/sg36_7_cif.got.tgz:12654.got - 2010.06.03 17:41:39.
