data_PCOD9352788
_publ_section_title
;
Structure prediction by ZEFSAII (Michael W. Deem and Ramdas Pophale) SiO2 
 PCOD9352788
Probable space group: C M C 21
;
_chemical_formula_sum "Si O2"
_cell_formula_units_Z 64
_cell_length_a 29.921217
_cell_length_b 11.079156
_cell_length_c 7.887390
_cell_angle_alpha 90.000000
_cell_angle_beta 90.000000
_cell_angle_gamma 90.000000
_cell_volume 2614.684226
_symmetry_space_group_name_H-M "C M C 21"
_symmetry_group_IT_number 36
_symmetry_cell_setting 'orthorhombic'
loop_
_space_group_symop_operation_xyz
x,y,z
-x,-y,1/2+z
x,-y,1/2+z
-x,y,z
1/2+x,1/2+y,z
1/2-x,1/2-y,1/2+z
1/2+x,1/2-y,1/2+z
1/2-x,1/2+y,z
loop_
_atom_site_type_symbol
_atom_site_label
_atom_site_fract_x
_atom_site_fract_y
_atom_site_fract_z
Si Si1 0.898660 0.916789 0.343680
Si Si2 0.448376 0.094822 0.685755
Si Si3 0.706859 0.156168 0.275516
Si Si4 0.755892 0.087008 0.764375
Si Si5 0.340381 0.585921 0.535664
Si Si6 0.551267 0.359746 0.672910
Si Si7 0.175296 0.325492 0.393091
Si Si8 0.886488 0.549731 0.390159
O O1 0.876375 0.864502 0.173636
O O2 0.929688 0.850564 0.479843
O O3 0.857489 0.963697 0.455657
O O4 0.923704 0.036704 0.276526
O O5 0.500000 0.078542 0.627231
O O6 0.447708 0.229469 0.763821
O O7 0.431974 0.977339 0.786963
O O8 0.406665 0.102839 0.558561
O O9 0.723240 0.286842 0.339724
O O10 0.739996 0.046574 0.328008
O O11 0.655990 0.125330 0.327858
O O12 0.704132 0.158868 0.068421
O O13 0.793738 0.062392 0.626963
O O14 0.705445 0.136843 0.732958
O O15 0.337049 0.686708 0.391832
O O16 0.500000 0.396979 0.657384
O O17 0.134730 0.416810 0.413633
#
# Coordination Sequence:
#
# PCOD9352788 Si02
#       8
#     8   8   8   8   8   8   8   8
#     4  10  22  41  64  95 132 171 216 280 337 410
#     4  11  24  41  66  97 129 169 224 276 340 411
#     4  10  23  42  63  96 130 174 222 271 331 397
#     4  10  24  39  63  92 132 172 222 273 327 393
#     4  10  23  39  62  95 130 171 224 268 335 397
#     4  10  22  41  66  97 130 170 220 278 348 416
#     4  10  22  42  63  93 130 174 221 270 325 403
#     4  11  22  43  66  91 133 171 216 274 339 395
#
# _framework density 24.477143000000002
#
# number of rings (size 3 to 8) (size 9 to 14) (size 15 to 20)
#    0.000    1.750    1.250    1.500    7.000    3.000 
#    2.250    0.000    0.000    6.000    0.000    0.000 
#    0.000    0.000    0.000    0.000    0.000    0.000 
#
# Total GULP energy -178363.202994 kJ/mol
# GULP energy per Si atom -5573.850094 kJ/mol
# Density = 2.442143 g / cm^3
# Si number density = 24.477143 Si / 1000 Ang^3
#
#
#
# Elastic Constant Matrix: (Units=GPa)
#
#
# Indices 1 2 3 4 5 6 
#
# 1 145.4341 41.8744 22.3768 0.0000 0.0000 0.0000
# 2 41.8744 71.4774 2.1650 0.0000 0.0000 0.0000
# 3 22.3768 2.1650 43.4219 0.0000 0.0000 0.0000
# 4 0.0000 0.0000 0.0000 18.1839 0.0000 0.0000
# 5 0.0000 0.0000 0.0000 0.0000 43.8052 0.0000
# 6 0.0000 0.0000 0.0000 0.0000 0.0000 41.2107
#
#
#
# Elastic Compliance Matrix: (Units=1/GPa)
#
#
# Indices 1 2 3 4 5 6 
#
# 1 0.009040 -0.005162 -0.004401 0.000000 0.000000 0.000000
# 2 -0.005162 0.016960 0.001815 0.000000 0.000000 0.000000
# 3 -0.004401 0.001815 0.025207 0.000000 0.000000 0.000000
# 4 0.000000 0.000000 0.000000 0.054994 0.000000 0.000000
# 5 0.000000 0.000000 0.000000 0.000000 0.022828 0.000000
# 6 0.000000 0.000000 0.000000 0.000000 0.000000 0.024266
#
#
# Mechanical properties :
#
#
# Convention : Reuss Voigt Hill
#
# Bulk Modulus (GPa) = 28.00382 43.68510 35.84446
# Shear Modulus (GPa) = 27.67100 33.56779 30.61940
#
# Velocity S-wave (km/s) = 3.36591 3.70725 3.54070
# Velocity P-wave (km/s) = 5.15475 6.01756 5.60279
#
# Compressibility (1/GPa) = 0.03570941
#
# Stress axis : x y z
#
# Youngs Moduli (GPa) = 110.62553 58.96289 39.67097
#
# Poissons Ratio (x) = 0.30439 0.17459
# Poissons Ratio (y) = 0.57109 -0.07199
# Poissons Ratio (z) = 0.48686 -0.10700
#
# Static dielectric constant tensor:
#      x y z
#    x 1.910240 0.000000 0.000000 
#    y 0.000000 2.004430 0.000000 
#    z 0.000000 0.000000 2.059780 
# 
# From -- ./inp_files/6076.got.cif
#   From: 2010.05.17/outbox.cif.g08.bks.cpg/sg36_4_cif.got.tgz:6076.got - 2010.06.03 17:41:39.
