data_PCOD9352574
_publ_section_title
;
Structure prediction by ZEFSAII (Michael W. Deem and Ramdas Pophale) SiO2 
 PCOD9352574
Probable space group: C M C 21
;
_chemical_formula_sum "Si O2"
_cell_formula_units_Z 52
_cell_length_a 7.601663
_cell_length_b 19.871889
_cell_length_c 15.669555
_cell_angle_alpha 90.000000
_cell_angle_beta 90.000000
_cell_angle_gamma 90.000000
_cell_volume 2367.033629
_symmetry_space_group_name_H-M "C M C 21"
_symmetry_group_IT_number 36
_symmetry_cell_setting 'orthorhombic'
loop_
_space_group_symop_operation_xyz
x,y,z
-x,-y,1/2+z
x,-y,1/2+z
-x,y,z
1/2+x,1/2+y,z
1/2-x,1/2-y,1/2+z
1/2+x,1/2-y,1/2+z
1/2-x,1/2+y,z
loop_
_atom_site_type_symbol
_atom_site_label
_atom_site_fract_x
_atom_site_fract_y
_atom_site_fract_z
Si Si1 0.799527 0.918734 0.152190
Si Si2 0.500000 0.927156 0.288634
Si Si3 0.194227 0.082376 0.910395
Si Si4 0.287754 0.210052 0.176503
Si Si5 0.712335 0.308538 0.025217
Si Si6 0.291014 0.768861 0.361088
Si Si7 0.711637 0.068010 0.108718
O O1 0.655163 0.901602 0.222289
O O2 0.748573 0.881501 0.063886
O O3 0.000000 0.897395 0.174589
O O4 0.792499 0.998563 0.140217
O O5 0.654817 0.951768 0.355193
O O6 0.200053 0.160845 0.882820
O O7 0.000000 0.054352 0.895820
O O8 0.240618 0.079485 0.010224
O O9 0.500000 0.210101 0.172980
O O10 0.226347 0.255444 0.096967
O O11 0.235743 0.241029 0.266723
O O12 0.230182 0.133416 0.161581
O O13 0.500000 0.304315 0.021749
O O14 0.768844 0.285499 0.931638
O O15 0.500000 0.785077 0.370764
O O16 0.500000 0.061318 0.117463
#
# Coordination Sequence:
#
# PCOD9352574 Si02
#       7
#     8   4   8   8   8   8   8
#     4  11  24  45  70  99 139 185 232 283 357 428
#     4  12  24  44  68 100 134 178 230 298 332 414
#     4  12  24  42  70 102 136 181 235 287 346 424
#     4  10  21  40  68  96 134 178 225 288 345 407
#     4   9  20  41  66  93 132 178 223 286 343 405
#     4  11  21  40  65 100 139 173 227 293 355 418
#     4  11  22  46  70  96 142 188 231 287 354 423
#
# _framework density 21.968425
#
# number of rings (size 3 to 8) (size 9 to 14) (size 15 to 20)
#    0.000    1.231    3.846    2.308    0.000    2.462 
#    5.538    0.000    0.000    0.000    0.000    0.000 
#    0.000    0.000    0.000    0.000    0.000    0.000 
#
# Total GULP energy -144862.537485 kJ/mol
# GULP energy per Si atom -5571.636057 kJ/mol
# Density = 2.191842 g / cm^3
# Si number density = 21.968425 Si / 1000 Ang^3
#
#
#
# Elastic Constant Matrix: (Units=GPa)
#
#
# Indices 1 2 3 4 5 6 
#
# 1 113.8469 -2.2970 4.8827 0.0000 0.0000 0.0000
# 2 -2.2970 74.8159 -2.7900 0.0000 0.0000 0.0000
# 3 4.8827 -2.7900 91.1689 0.0000 0.0000 0.0000
# 4 0.0000 0.0000 0.0000 8.0810 0.0000 0.0000
# 5 0.0000 0.0000 0.0000 0.0000 35.2667 0.0000
# 6 0.0000 0.0000 0.0000 0.0000 0.0000 19.0386
#
#
#
# Elastic Compliance Matrix: (Units=1/GPa)
#
#
# Indices 1 2 3 4 5 6 
#
# 1 0.008809 0.000253 -0.000464 0.000000 0.000000 0.000000
# 2 0.000253 0.013389 0.000396 0.000000 0.000000 0.000000
# 3 -0.000464 0.000396 0.011006 0.000000 0.000000 0.000000
# 4 0.000000 0.000000 0.000000 0.123746 0.000000 0.000000
# 5 0.000000 0.000000 0.000000 0.000000 0.028355 0.000000
# 6 0.000000 0.000000 0.000000 0.000000 0.000000 0.052525
#
#
# Mechanical properties :
#
#
# Convention : Reuss Voigt Hill
#
# Bulk Modulus (GPa) = 29.78527 31.04701 30.41614
# Shear Modulus (GPa) = 20.10858 31.14636 25.62747
#
# Velocity S-wave (km/s) = 3.02874 3.76942 3.41920
# Velocity P-wave (km/s) = 5.08121 5.75395 5.42801
#
# Compressibility (1/GPa) = 0.03357364
#
# Stress axis : x y z
#
# Youngs Moduli (GPa) = 113.52367 74.68995 90.86261
#
# Poissons Ratio (x) = -0.01891 0.04216
# Poissons Ratio (y) = -0.02874 -0.03600
# Poissons Ratio (z) = 0.05268 -0.02959
#
# Static dielectric constant tensor:
#      x y z
#    x 1.826450 0.000000 0.000000 
#    y 0.000000 1.827400 0.000000 
#    z 0.000000 0.000000 1.806460 
# 
# From -- ./inp_files/10507.got.cif
#   From: 2010.05.17/outbox.cif.g08.bks.cpg/sg36_6_cif.got.tgz:10507.got - 2010.06.03 17:41:39.
