data_PCOD9352185
_publ_section_title
;
Structure prediction by ZEFSAII (Michael W. Deem and Ramdas Pophale) SiO2 
 PCOD9352185
Probable space group: C M C 21
;
_chemical_formula_sum "Si O2"
_cell_formula_units_Z 48
_cell_length_a 17.376472
_cell_length_b 36.948774
_cell_length_c 4.950940
_cell_angle_alpha 90.000000
_cell_angle_beta 90.000000
_cell_angle_gamma 90.000000
_cell_volume 3178.698234
_symmetry_space_group_name_H-M "C M C 21"
_symmetry_group_IT_number 36
_symmetry_cell_setting 'orthorhombic'
loop_
_space_group_symop_operation_xyz
x,y,z
-x,-y,1/2+z
x,-y,1/2+z
-x,y,z
1/2+x,1/2+y,z
1/2-x,1/2-y,1/2+z
1/2+x,1/2-y,1/2+z
1/2-x,1/2+y,z
loop_
_atom_site_type_symbol
_atom_site_label
_atom_site_fract_x
_atom_site_fract_y
_atom_site_fract_z
Si Si1 0.371372 0.356117 0.485180
Si Si2 0.839906 0.725102 0.608046
Si Si3 0.500000 0.249189 0.824753
Si Si4 0.748020 0.200152 0.101221
Si Si5 0.588964 0.598755 0.500177
Si Si6 0.406617 0.521807 0.268959
Si Si7 0.000000 0.199202 0.836876
O O1 0.296928 0.336310 0.608883
O O2 0.411115 0.374300 0.744134
O O3 0.424855 0.326162 0.332978
O O4 0.362277 0.385910 0.250462
O O5 0.924871 0.727062 0.731694
O O6 0.807452 0.766184 0.625088
O O7 0.819952 0.709299 0.313647
O O8 0.787469 0.701988 0.806105
O O9 0.500000 0.284024 0.633037
O O10 0.500000 0.267381 0.123538
O O11 0.500000 0.594736 0.597390
O O12 0.617594 0.560387 0.385521
O O13 0.382936 0.510412 0.970446
O O14 0.500000 0.523318 0.266481
#
# Coordination Sequence:
#
# PCOD9352185 Si02
#       7
#     8   8   4   8   8   8   4
#     4  12  21  32  45  64  94 116 144 188 237 286
#     4  10  21  34  47  64  81 111 145 182 224 277
#     4  12  22  34  52  66  82 109 154 192 228 281
#     4  10  21  33  46  62  88 111 139 179 233 277
#     4  11  20  30  44  66  87 115 153 189 227 271
#     4   9  17  29  43  58  82 113 147 188 226 253
#     4  12  22  30  46  70  86 115 142 188 244 271
#
# _framework density 15.100519999999999
#
# number of rings (size 3 to 8) (size 9 to 14) (size 15 to 20)
#    0.000    1.333    3.333    4.000    4.667    2.667 
#    0.000    0.000    0.000    0.000    0.000    0.000 
#    0.000    0.000    0.000    0.000    0.000    0.000 
#
# Total GULP energy -133750.517497 kJ/mol
# GULP energy per Si atom -5572.938229 kJ/mol
# Density = 1.506615 g / cm^3
# Si number density = 15.100520 Si / 1000 Ang^3
#
#
#
# Elastic Constant Matrix: (Units=GPa)
#
#
# Indices 1 2 3 4 5 6 
#
# 1 38.6119 10.9259 -7.6765 0.0000 0.0000 0.0000
# 2 10.9259 38.4905 -0.7776 0.0000 0.0000 0.0000
# 3 -7.6765 -0.7776 56.2039 0.0000 0.0000 0.0000
# 4 0.0000 0.0000 0.0000 20.8362 0.0000 0.0000
# 5 0.0000 0.0000 0.0000 0.0000 8.1426 0.0000
# 6 0.0000 0.0000 0.0000 0.0000 0.0000 7.5917
#
#
#
# Elastic Compliance Matrix: (Units=1/GPa)
#
#
# Indices 1 2 3 4 5 6 
#
# 1 0.028968 -0.008145 0.003844 0.000000 0.000000 0.000000
# 2 -0.008145 0.028278 -0.000721 0.000000 0.000000 0.000000
# 3 0.003844 -0.000721 0.018307 0.000000 0.000000 0.000000
# 4 0.000000 0.000000 0.000000 0.047993 0.000000 0.000000
# 5 0.000000 0.000000 0.000000 0.000000 0.122811 0.000000
# 6 0.000000 0.000000 0.000000 0.000000 0.000000 0.131723
#
#
# Mechanical properties :
#
#
# Convention : Reuss Voigt Hill
#
# Bulk Modulus (GPa) = 15.26532 15.36110 15.31321
# Shear Modulus (GPa) = 12.19627 16.03640 14.11634
#
# Velocity S-wave (km/s) = 2.84504 3.26233 3.06081
# Velocity P-wave (km/s) = 4.57421 4.93812 4.75965
#
# Compressibility (1/GPa) = 0.06550797
#
# Stress axis : x y z
#
# Youngs Moduli (GPa) = 34.52111 35.36325 54.62273
#
# Poissons Ratio (x) = 0.28804 -0.20996
# Poissons Ratio (y) = 0.28118 0.03940
# Poissons Ratio (z) = -0.13269 0.02551
#
# Static dielectric constant tensor:
#      x y z
#    x 1.515740 0.000000 0.000000 
#    y 0.000000 1.538610 0.000000 
#    z 0.000000 0.000000 1.522990 
# 
# From -- ./inp_files/1156.got.cif
#   From: 2010.05.17/outbox.cif.g08.bks.cpg/sg36_1_cif.got.tgz:1156.got - 2010.06.03 17:41:39.
