data_PCOD9352605
_publ_section_title
;
Structure prediction by ZEFSAII (Michael W. Deem and Ramdas Pophale) SiO2 
 PCOD9352605
Probable space group: C M C 21
;
_chemical_formula_sum "Si O2"
_cell_formula_units_Z 64
_cell_length_a 16.445802
_cell_length_b 10.798461
_cell_length_c 13.934126
_cell_angle_alpha 90.000000
_cell_angle_beta 90.000000
_cell_angle_gamma 90.000000
_cell_volume 2474.552400
_symmetry_space_group_name_H-M "C M C 21"
_symmetry_group_IT_number 36
_symmetry_cell_setting 'orthorhombic'
loop_
_space_group_symop_operation_xyz
x,y,z
-x,-y,1/2+z
x,-y,1/2+z
-x,y,z
1/2+x,1/2+y,z
1/2-x,1/2-y,1/2+z
1/2+x,1/2-y,1/2+z
1/2-x,1/2+y,z
loop_
_atom_site_type_symbol
_atom_site_label
_atom_site_fract_x
_atom_site_fract_y
_atom_site_fract_z
Si Si1 0.598481 0.280299 0.156990
Si Si2 0.661921 0.638056 0.101630
Si Si3 0.905855 0.079319 0.487639
Si Si4 0.322772 0.220365 0.409195
Si Si5 0.405705 0.439644 0.318508
Si Si6 0.407768 0.026343 0.933768
Si Si7 0.663977 0.797918 0.286388
Si Si8 0.665546 0.969818 0.642304
O O1 0.500000 0.276292 0.159232
O O2 0.628387 0.309633 0.049928
O O3 0.627428 0.399266 0.216907
O O4 0.634770 0.154457 0.195088
O O5 0.598074 0.545014 0.052376
O O6 0.745023 0.560963 0.105729
O O7 0.641816 0.691195 0.207650
O O8 0.680391 0.745782 0.022976
O O9 0.865878 0.041157 0.387392
O O10 0.000000 0.108246 0.471103
O O11 0.396230 0.308796 0.373395
O O12 0.254080 0.764817 0.345626
O O13 0.343352 0.076817 0.400498
O O14 0.500000 0.471367 0.306588
O O15 0.500000 0.984905 0.916876
O O16 0.394601 0.151138 0.871227
O O17 0.392827 0.028998 0.048661
O O18 0.667916 0.914787 0.213056
#
# Coordination Sequence:
#
# PCOD9352605 Si02
#       8
#     8   8   8   8   8   8   8   8
#     4  10  21  41  66  97 140 189 243 305 379 461
#     4  11  24  44  72 101 146 199 252 325 390 469
#     4   9  21  40  64  97 137 187 249 313 379 455
#     4  11  23  46  71 105 147 203 255 319 390 469
#     4   9  18  36  64  97 131 182 244 304 374 451
#     4  12  27  49  78 118 163 207 263 330 405 492
#     4  12  26  48  75 111 152 205 260 327 398 480
#     4  12  26  46  74 108 154 202 260 319 403 477
#
# _framework density 25.863264000000001
#
# number of rings (size 3 to 8) (size 9 to 14) (size 15 to 20)
#    0.000    1.250    2.500    3.000    3.500    3.000 
#    2.250    0.000    0.000    0.000    0.000    0.000 
#    0.000    0.000    0.000    0.000    0.000    0.000 
#
# Total GULP energy -178871.054512 kJ/mol
# GULP energy per Si atom -5589.720453 kJ/mol
# Density = 2.580440 g / cm^3
# Si number density = 25.863264 Si / 1000 Ang^3
#
#
#
# Elastic Constant Matrix: (Units=GPa)
#
#
# Indices 1 2 3 4 5 6 
#
# 1 82.4517 16.9686 14.1602 0.0000 0.0000 0.0000
# 2 16.9686 83.1027 43.3545 0.0000 0.0000 0.0000
# 3 14.1602 43.3545 178.7399 0.0000 0.0000 0.0000
# 4 0.0000 0.0000 0.0000 65.3611 0.0000 0.0000
# 5 0.0000 0.0000 0.0000 0.0000 22.7526 0.0000
# 6 0.0000 0.0000 0.0000 0.0000 0.0000 32.6061
#
#
#
# Elastic Compliance Matrix: (Units=1/GPa)
#
#
# Indices 1 2 3 4 5 6 
#
# 1 0.012689 -0.002366 -0.000431 0.000000 0.000000 0.000000
# 2 -0.002366 0.014218 -0.003261 0.000000 0.000000 0.000000
# 3 -0.000431 -0.003261 0.006420 0.000000 0.000000 0.000000
# 4 0.000000 0.000000 0.000000 0.015300 0.000000 0.000000
# 5 0.000000 0.000000 0.000000 0.000000 0.043951 0.000000
# 6 0.000000 0.000000 0.000000 0.000000 0.000000 0.030669
#
#
# Mechanical properties :
#
#
# Convention : Reuss Voigt Hill
#
# Bulk Modulus (GPa) = 47.14771 54.80677 50.97724
# Shear Modulus (GPa) = 35.10404 42.13135 38.61770
#
# Velocity S-wave (km/s) = 3.68814 4.04047 3.86832
# Velocity P-wave (km/s) = 6.03372 6.55776 6.30119
#
# Compressibility (1/GPa) = 0.02120994
#
# Stress axis : x y z
#
# Youngs Moduli (GPa) = 78.80641 70.33467 155.76536
#
# Poissons Ratio (x) = 0.16641 0.06720
# Poissons Ratio (y) = 0.18645 0.50798
# Poissons Ratio (z) = 0.03400 0.22937
#
# Static dielectric constant tensor:
#      x y z
#    x 1.992990 0.000000 0.000000 
#    y 0.000000 2.026250 0.000000 
#    z 0.000000 0.000000 2.153600 
# 
# From -- ./inp_files/12657.got.cif
#   From: 2010.05.17/outbox.cif.g08.bks.cpg/sg36_7_cif.got.tgz:12657.got - 2010.06.03 17:41:39.
