data_PCOD9352448
_publ_section_title
;
Structure prediction by ZEFSAII (Michael W. Deem and Ramdas Pophale) SiO2 
 PCOD9352448
Probable space group: C M C 21
;
_chemical_formula_sum "Si O2"
_cell_formula_units_Z 64
_cell_length_a 7.828726
_cell_length_b 21.793152
_cell_length_c 14.397231
_cell_angle_alpha 90.000000
_cell_angle_beta 90.000000
_cell_angle_gamma 90.000000
_cell_volume 2456.349240
_symmetry_space_group_name_H-M "C M C 21"
_symmetry_group_IT_number 36
_symmetry_cell_setting 'orthorhombic'
loop_
_space_group_symop_operation_xyz
x,y,z
-x,-y,1/2+z
x,-y,1/2+z
-x,y,z
1/2+x,1/2+y,z
1/2-x,1/2-y,1/2+z
1/2+x,1/2-y,1/2+z
1/2-x,1/2+y,z
loop_
_atom_site_type_symbol
_atom_site_label
_atom_site_fract_x
_atom_site_fract_y
_atom_site_fract_z
Si Si1 0.699394 0.042061 0.589830
Si Si2 0.298439 0.777929 0.054041
Si Si3 0.305000 0.649226 0.378843
Si Si4 0.193523 0.236178 0.766127
Si Si5 0.296924 0.643785 0.026333
Si Si6 0.291546 0.103320 0.762524
Si Si7 0.697101 0.024522 0.919333
Si Si8 0.204718 0.925157 0.709476
O O1 0.500000 0.055065 0.573343
O O2 0.778471 0.023132 0.491502
O O3 0.710435 0.981984 0.656178
O O4 0.769789 0.094250 0.656829
O O5 0.500000 0.776237 0.073663
O O6 0.270318 0.831437 0.978420
O O7 0.247768 0.713405 0.005888
O O8 0.215053 0.773063 0.155479
O O9 0.500000 0.632892 0.395641
O O10 0.300219 0.710307 0.314073
O O11 0.230238 0.596267 0.310725
O O12 0.234506 0.167954 0.802243
O O13 0.000000 0.252458 0.789239
O O14 0.500000 0.635836 0.007777
O O15 0.200071 0.589732 0.973995
O O16 0.271160 0.630584 0.136139
O O17 0.500000 0.101915 0.762191
O O18 0.223739 0.046173 0.822968
O O19 0.500000 0.007827 0.903768
O O20 0.000000 0.935719 0.714186
#
# Coordination Sequence:
#
# PCOD9352448 Si02
#       8
#     8   8   8   8   8   8   8   8
#     4   9  19  36  58  84 112 146 195 248 294 353
#     4  11  22  38  58  86 121 159 199 242 299 362
#     4  11  22  39  60  87 123 160 198 244 300 363
#     4  12  25  40  60  88 122 161 205 250 299 361
#     4   9  17  32  54  79 109 145 185 232 284 339
#     4  10  21  39  59  81 117 157 195 246 304 356
#     4   9  18  33  56  84 110 145 193 241 292 345
#     4   9  18  35  57  79 110 147 184 235 292 343
#
# _framework density 26.054925000000001
#
# number of rings (size 3 to 8) (size 9 to 14) (size 15 to 20)
#    0.000    2.000    1.250    2.625    0.000    5.000 
#    2.250    0.000    0.000    0.000    0.000    0.000 
#    0.000    0.000    0.000    0.000    0.000    0.000 
#
# Total GULP energy -178945.993314 kJ/mol
# GULP energy per Si atom -5592.062291 kJ/mol
# Density = 2.599562 g / cm^3
# Si number density = 26.054925 Si / 1000 Ang^3
#
#
#
# Elastic Constant Matrix: (Units=GPa)
#
#
# Indices 1 2 3 4 5 6 
#
# 1 59.1277 6.9500 7.9963 0.0000 0.0000 0.0000
# 2 6.9500 86.2680 18.4625 0.0000 0.0000 0.0000
# 3 7.9963 18.4625 148.8455 0.0000 0.0000 0.0000
# 4 0.0000 0.0000 0.0000 57.0385 0.0000 0.0000
# 5 0.0000 0.0000 0.0000 0.0000 25.0231 0.0000
# 6 0.0000 0.0000 0.0000 0.0000 0.0000 23.3724
#
#
#
# Elastic Compliance Matrix: (Units=1/GPa)
#
#
# Indices 1 2 3 4 5 6 
#
# 1 0.017160 -0.001217 -0.000771 0.000000 0.000000 0.000000
# 2 -0.001217 0.011994 -0.001422 0.000000 0.000000 0.000000
# 3 -0.000771 -0.001422 0.006936 0.000000 0.000000 0.000000
# 4 0.000000 0.000000 0.000000 0.017532 0.000000 0.000000
# 5 0.000000 0.000000 0.000000 0.000000 0.039963 0.000000
# 6 0.000000 0.000000 0.000000 0.000000 0.000000 0.042786
#
#
# Mechanical properties :
#
#
# Convention : Reuss Voigt Hill
#
# Bulk Modulus (GPa) = 34.16579 40.11762 37.14170
# Shear Modulus (GPa) = 32.69070 38.47563 35.58316
#
# Velocity S-wave (km/s) = 3.54599 3.84697 3.69954
# Velocity P-wave (km/s) = 5.46872 5.92984 5.70394
#
# Compressibility (1/GPa) = 0.02926905
#
# Stress axis : x y z
#
# Youngs Moduli (GPa) = 58.27540 83.37319 144.17091
#
# Poissons Ratio (x) = 0.10151 0.11113
# Poissons Ratio (y) = 0.07095 0.20506
# Poissons Ratio (z) = 0.04492 0.11858
#
# Static dielectric constant tensor:
#      x y z
#    x 1.920320 0.000000 0.000000 
#    y 0.000000 2.073780 0.000000 
#    z 0.000000 0.000000 2.117210 
# 
# From -- ./inp_files/10892.got.cif
#   From: 2010.05.17/outbox.cif.g08.bks.cpg/sg36_6_cif.got.tgz:10892.got - 2010.06.03 17:41:39.
