data_PCOD9352660
_publ_section_title
;
Structure prediction by ZEFSAII (Michael W. Deem and Ramdas Pophale) SiO2 
 PCOD9352660
Probable space group: C M C 21
;
_chemical_formula_sum "Si O2"
_cell_formula_units_Z 52
_cell_length_a 7.373760
_cell_length_b 14.673249
_cell_length_c 19.754554
_cell_angle_alpha 90.000000
_cell_angle_beta 90.000000
_cell_angle_gamma 90.000000
_cell_volume 2137.383806
_symmetry_space_group_name_H-M "C M C 21"
_symmetry_group_IT_number 36
_symmetry_cell_setting 'orthorhombic'
loop_
_space_group_symop_operation_xyz
x,y,z
-x,-y,1/2+z
x,-y,1/2+z
-x,y,z
1/2+x,1/2+y,z
1/2-x,1/2-y,1/2+z
1/2+x,1/2-y,1/2+z
1/2-x,1/2+y,z
loop_
_atom_site_type_symbol
_atom_site_label
_atom_site_fract_x
_atom_site_fract_y
_atom_site_fract_z
Si Si1 0.719146 0.678628 0.324970
Si Si2 0.707714 0.415272 0.088279
Si Si3 0.219959 0.730155 0.687472
Si Si4 0.711315 0.811257 0.433863
Si Si5 0.715937 0.499148 0.887962
Si Si6 0.291826 0.620371 0.081974
Si Si7 0.500000 0.095447 0.489635
O O1 0.500000 0.687780 0.326827
O O2 0.782543 0.733352 0.260009
O O3 0.757072 0.571075 0.327094
O O4 0.790452 0.724040 0.394810
O O5 0.500000 0.415153 0.064445
O O6 0.715885 0.367559 0.161217
O O7 0.840732 0.360801 0.038988
O O8 0.785407 0.518398 0.088478
O O9 0.000000 0.727864 0.688514
O O10 0.284957 0.803947 0.631879
O O11 0.500000 0.795124 0.446976
O O12 0.735438 0.895233 0.381542
O O13 0.788226 0.846107 0.504633
O O14 0.500000 0.492933 0.902376
O O15 0.840732 0.461034 0.947918
O O16 0.500000 0.608578 0.103262
#
# Coordination Sequence:
#
# PCOD9352660 Si02
#       7
#     8   8   8   8   8   8   4
#     4   9  23  42  64  90 130 174 212 257 317 378
#     4  11  23  41  64  97 129 163 210 263 320 379
#     4  10  22  44  64  90 129 174 213 259 315 376
#     4  11  21  38  62  94 127 163 207 263 321 374
#     4  11  22  41  66  95 128 166 211 261 316 379
#     4  10  22  37  62  92 124 162 210 261 317 373
#     4  12  22  40  66  98 130 160 206 266 328 368
#
# _framework density 24.328810000000001
#
# number of rings (size 3 to 8) (size 9 to 14) (size 15 to 20)
#    0.000    1.538    3.077    0.923    2.154    1.846 
#    2.769    1.538    0.000    0.000    0.000    0.000 
#    0.000    0.000    0.000    0.000    0.000    0.000 
#
# Total GULP energy -144866.995167 kJ/mol
# GULP energy per Si atom -5571.807506 kJ/mol
# Density = 2.427344 g / cm^3
# Si number density = 24.328810 Si / 1000 Ang^3
#
#
#
# Elastic Constant Matrix: (Units=GPa)
#
#
# Indices 1 2 3 4 5 6 
#
# 1 136.9805 -20.6884 -14.5025 0.0000 0.0000 0.0000
# 2 -20.6884 120.2942 23.6708 0.0000 0.0000 0.0000
# 3 -14.5025 23.6708 66.2376 0.0000 0.0000 0.0000
# 4 0.0000 0.0000 0.0000 28.6335 0.0000 0.0000
# 5 0.0000 0.0000 0.0000 0.0000 12.2992 0.0000
# 6 0.0000 0.0000 0.0000 0.0000 0.0000 45.6750
#
#
#
# Elastic Compliance Matrix: (Units=1/GPa)
#
#
# Indices 1 2 3 4 5 6 
#
# 1 0.007596 0.001053 0.001287 0.000000 0.000000 0.000000
# 2 0.001053 0.009088 -0.003017 0.000000 0.000000 0.000000
# 3 0.001287 -0.003017 0.016457 0.000000 0.000000 0.000000
# 4 0.000000 0.000000 0.000000 0.034924 0.000000 0.000000
# 5 0.000000 0.000000 0.000000 0.000000 0.081306 0.000000
# 6 0.000000 0.000000 0.000000 0.000000 0.000000 0.021894
#
#
# Mechanical properties :
#
#
# Convention : Reuss Voigt Hill
#
# Bulk Modulus (GPa) = 31.46047 33.38579 32.42313
# Shear Modulus (GPa) = 27.29047 39.65702 33.47374
#
# Velocity S-wave (km/s) = 3.35286 4.04176 3.71332
# Velocity P-wave (km/s) = 5.28662 5.96101 5.63391
#
# Compressibility (1/GPa) = 0.03178592
#
# Stress axis : x y z
#
# Youngs Moduli (GPa) = 131.65539 110.03831 60.76418
#
# Poissons Ratio (x) = -0.11588 -0.07818
# Poissons Ratio (y) = -0.13865 0.18333
# Poissons Ratio (z) = -0.16940 0.33199
#
# Static dielectric constant tensor:
#      x y z
#    x 1.926740 0.000000 0.000000 
#    y 0.000000 2.012200 0.000000 
#    z 0.000000 0.000000 1.975650 
# 
# From -- ./inp_files/16468.got.cif
#   From: 2010.05.17/outbox.cif.g08.bks.cpg/sg36_9_cif.got.tgz:16468.got - 2010.06.03 17:41:39.
