data_PCOD9352998
_publ_section_title
;
Structure prediction by ZEFSAII (Michael W. Deem and Ramdas Pophale) SiO2 
 PCOD9352998
Probable space group: C M C 21
;
_chemical_formula_sum "Si O2"
_cell_formula_units_Z 24
_cell_length_a 9.080965
_cell_length_b 13.080039
_cell_length_c 8.568950
_cell_angle_alpha 90.000000
_cell_angle_beta 90.000000
_cell_angle_gamma 90.000000
_cell_volume 1017.814537
_symmetry_space_group_name_H-M "C M C 21"
_symmetry_group_IT_number 36
_symmetry_cell_setting 'orthorhombic'
loop_
_space_group_symop_operation_xyz
x,y,z
-x,-y,1/2+z
x,-y,1/2+z
-x,y,z
1/2+x,1/2+y,z
1/2-x,1/2-y,1/2+z
1/2+x,1/2-y,1/2+z
1/2-x,1/2+y,z
loop_
_atom_site_type_symbol
_atom_site_label
_atom_site_fract_x
_atom_site_fract_y
_atom_site_fract_z
Si Si1 0.000000 0.881399 0.837981
Si Si2 0.244280 0.750000 0.010441
Si Si3 0.500000 0.610459 0.963662
Si Si4 0.500000 0.118601 0.182901
Si Si5 0.500000 0.889541 0.057219
O O1 0.859864 0.820710 0.905286
O O2 0.000000 0.888848 0.651935
O O3 0.000000 0.996680 0.901473
O O4 0.354934 0.674157 0.918307
O O5 0.354934 0.825843 0.102575
O O6 0.140136 0.679290 0.115595
O O7 0.500000 0.111152 0.368947
O O8 0.500000 0.003321 0.119408
#
# Coordination Sequence:
#
# PCOD9352998 Si02
#       5
#     4   8   4   4   4
#     4  11  24  42  67  97 129 169 215 267 324 382
#     4  10  24  42  62  94 132 170 212 258 320 386
#     4  11  24  42  67  97 129 169 215 267 324 382
#     4  11  24  42  67  97 129 169 215 267 324 382
#     4  11  24  42  67  97 129 169 215 267 324 382
#
# _framework density 23.579934999999999
#
# number of rings (size 3 to 8) (size 9 to 14) (size 15 to 20)
#    0.000    1.333    0.000    4.000    0.000   16.000 
#    0.000    0.000    0.000    0.000    0.000    0.000 
#    0.000    0.000    0.000    0.000    0.000    0.000 
#
# Total GULP energy -67292.792077 kJ/mol
# GULP energy per Si atom -5607.732673 kJ/mol
# Density = 2.352627 g / cm^3
# Si number density = 23.579935 Si / 1000 Ang^3
#
#
#
# Elastic Constant Matrix: (Units=GPa)
#
#
# Indices 1 2 3 4 5 6 
#
# 1 200.9640 106.5803 38.8315 0.0000 0.0000 0.0000
# 2 106.5803 260.9405 78.5598 0.0000 0.0000 0.0000
# 3 38.8315 78.5598 67.9293 0.0000 0.0000 0.0000
# 4 0.0000 0.0000 0.0000 44.4253 0.0000 0.0000
# 5 0.0000 0.0000 0.0000 0.0000 32.2198 0.0000
# 6 0.0000 0.0000 0.0000 0.0000 0.0000 110.5648
#
#
#
# Elastic Compliance Matrix: (Units=1/GPa)
#
#
# Indices 1 2 3 4 5 6 
#
# 1 0.006394 -0.002318 -0.000974 0.000000 0.000000 0.000000
# 2 -0.002318 0.006720 -0.006446 0.000000 0.000000 0.000000
# 3 -0.000974 -0.006446 0.022733 0.000000 0.000000 0.000000
# 4 0.000000 0.000000 0.000000 0.022510 0.000000 0.000000
# 5 0.000000 0.000000 0.000000 0.000000 0.031037 0.000000
# 6 0.000000 0.000000 0.000000 0.000000 0.000000 0.009044
#
#
# Mechanical properties :
#
#
# Convention : Reuss Voigt Hill
#
# Bulk Modulus (GPa) = 61.08835 108.64189 84.86512
# Shear Modulus (GPa) = 40.52812 57.83279 49.18046
#
# Velocity S-wave (km/s) = 4.15028 4.95777 4.57189
# Velocity P-wave (km/s) = 6.99497 8.88519 7.99613
#
# Compressibility (1/GPa) = 0.01636973
#
# Stress axis : x y z
#
# Youngs Moduli (GPa) = 156.40437 148.81065 43.98886
#
# Poissons Ratio (x) = 0.34499 0.04284
# Poissons Ratio (y) = 0.36259 0.28357
# Poissons Ratio (z) = 0.15231 0.95928
#
# Static dielectric constant tensor:
#      x y z
#    x 1.909440 0.000000 0.000000 
#    y 0.000000 1.837670 0.000000 
#    z 0.000000 0.000000 1.867050 
# 
# From -- ./inp_files/2166.got.cif
#   From: 2010.05.17/outbox.cif.g08.bks.cpg/sg36_2_cif.got.tgz:2166.got - 2010.06.03 17:41:39.
