data_PCOD9352489
_publ_section_title
;
Structure prediction by ZEFSAII (Michael W. Deem and Ramdas Pophale) SiO2 
 PCOD9352489
Probable space group: C M C 21
;
_chemical_formula_sum "Si O2"
_cell_formula_units_Z 48
_cell_length_a 8.545484
_cell_length_b 14.533516
_cell_length_c 17.670430
_cell_angle_alpha 90.000000
_cell_angle_beta 90.000000
_cell_angle_gamma 90.000000
_cell_volume 2194.595460
_symmetry_space_group_name_H-M "C M C 21"
_symmetry_group_IT_number 36
_symmetry_cell_setting 'orthorhombic'
loop_
_space_group_symop_operation_xyz
x,y,z
-x,-y,1/2+z
x,-y,1/2+z
-x,y,z
1/2+x,1/2+y,z
1/2-x,1/2-y,1/2+z
1/2+x,1/2-y,1/2+z
1/2-x,1/2+y,z
loop_
_atom_site_type_symbol
_atom_site_label
_atom_site_fract_x
_atom_site_fract_y
_atom_site_fract_z
Si Si1 0.816875 0.560948 0.596790
Si Si2 0.180976 0.888318 0.525383
Si Si3 0.685465 0.812409 0.233365
Si Si4 0.816505 0.544977 0.869669
Si Si5 0.320151 0.698681 0.487590
Si Si6 0.183880 0.335879 0.829582
O O1 0.730659 0.464619 0.586125
O O2 0.756082 0.628893 0.662076
O O3 0.791149 0.619872 0.520732
O O4 0.000000 0.543543 0.610066
O O5 0.281482 0.795450 0.526588
O O6 0.000000 0.863769 0.533105
O O7 0.213248 0.933452 0.442891
O O8 0.500000 0.796083 0.222595
O O9 0.767334 0.716710 0.253574
O O10 0.707039 0.879134 0.305326
O O11 0.787027 0.444950 0.833397
O O12 0.000000 0.548038 0.893506
O O13 0.500000 0.672587 0.499275
O O14 0.282842 0.706278 0.398861
O O15 0.000000 0.320220 0.843415
#
# Coordination Sequence:
#
# PCOD9352489 Si02
#       6
#     8   8   8   8   8   8
#     4  11  24  43  64  93 132 170 209 261 316 375
#     4  12  24  39  64  96 125 165 213 262 315 375
#     4  10  23  42  64  91 128 169 208 256 319 377
#     4  10  21  39  63  91 126 165 205 256 312 375
#     4  12  24  40  64  92 126 168 215 263 313 373
#     4  11  22  37  63  95 127 163 210 260 309 375
#
# _framework density 21.871911999999998
#
# number of rings (size 3 to 8) (size 9 to 14) (size 15 to 20)
#    0.000    1.000    3.333    4.000    0.000    3.333 
#    0.000    1.667    0.000    0.000    0.000    0.000 
#    0.000    0.000    0.000    0.000    0.000    0.000 
#
# Total GULP energy -134287.903781 kJ/mol
# GULP energy per Si atom -5595.329324 kJ/mol
# Density = 2.182213 g / cm^3
# Si number density = 21.871912 Si / 1000 Ang^3
#
#
#
# Elastic Constant Matrix: (Units=GPa)
#
#
# Indices 1 2 3 4 5 6 
#
# 1 44.3918 -3.5092 -5.9025 0.0000 0.0000 0.0000
# 2 -3.5092 67.6423 -18.9189 0.0000 0.0000 0.0000
# 3 -5.9025 -18.9189 15.8895 0.0000 0.0000 0.0000
# 4 0.0000 0.0000 0.0000 7.3417 0.0000 0.0000
# 5 0.0000 0.0000 0.0000 0.0000 22.8793 0.0000
# 6 0.0000 0.0000 0.0000 0.0000 0.0000 20.6739
#
#
#
# Elastic Compliance Matrix: (Units=1/GPa)
#
#
# Indices 1 2 3 4 5 6 
#
# 1 0.025165 0.005877 0.016346 0.000000 0.000000 0.000000
# 2 0.005877 0.023537 0.030208 0.000000 0.000000 0.000000
# 3 0.016346 0.030208 0.104974 0.000000 0.000000 0.000000
# 4 0.000000 0.000000 0.000000 0.136207 0.000000 0.000000
# 5 0.000000 0.000000 0.000000 0.000000 0.043708 0.000000
# 6 0.000000 0.000000 0.000000 0.000000 0.000000 0.048370
#
#
# Mechanical properties :
#
#
# Convention : Reuss Voigt Hill
#
# Bulk Modulus (GPa) = 3.86791 7.91806 5.89298
# Shear Modulus (GPa) = 13.76355 20.59593 17.17974
#
# Velocity S-wave (km/s) = 2.51127 3.07198 2.80567
# Velocity P-wave (km/s) = 3.19075 4.02626 3.63261
#
# Compressibility (1/GPa) = 0.25853762
#
# Stress axis : x y z
#
# Youngs Moduli (GPa) = 39.73833 42.48547 9.52619
#
# Poissons Ratio (x) = -0.24970 -0.15571
# Poissons Ratio (y) = -0.23355 -0.28777
# Poissons Ratio (z) = -0.64955 -1.28340
#
# Static dielectric constant tensor:
#      x y z
#    x 1.741760 0.000000 0.000000 
#    y 0.000000 1.799150 0.000000 
#    z 0.000000 0.000000 1.820530 
# 
# From -- ./inp_files/13474.got.cif
#   From: 2010.05.17/outbox.cif.g08.bks.cpg/sg36_7_cif.got.tgz:13474.got - 2010.06.03 17:41:39.
