data_PCOD9352694
_publ_section_title
;
Structure prediction by ZEFSAII (Michael W. Deem and Ramdas Pophale) SiO2 
 PCOD9352694
Probable space group: C M C 21
;
_chemical_formula_sum "Si O2"
_cell_formula_units_Z 56
_cell_length_a 31.507908
_cell_length_b 5.231641
_cell_length_c 13.586589
_cell_angle_alpha 90.000000
_cell_angle_beta 90.000000
_cell_angle_gamma 90.000000
_cell_volume 2239.587018
_symmetry_space_group_name_H-M "C M C 21"
_symmetry_group_IT_number 36
_symmetry_cell_setting 'orthorhombic'
loop_
_space_group_symop_operation_xyz
x,y,z
-x,-y,1/2+z
x,-y,1/2+z
-x,y,z
1/2+x,1/2+y,z
1/2-x,1/2-y,1/2+z
1/2+x,1/2-y,1/2+z
1/2-x,1/2+y,z
loop_
_atom_site_type_symbol
_atom_site_label
_atom_site_fract_x
_atom_site_fract_y
_atom_site_fract_z
Si Si1 0.228639 0.155977 0.434710
Si Si2 0.138958 0.855404 0.848906
Si Si3 0.760542 0.583399 0.658894
Si Si4 0.952828 0.625275 0.524210
Si Si5 0.652083 0.144661 0.220645
Si Si6 0.924541 0.120248 0.620780
Si Si7 0.548001 0.450567 0.344793
O O1 0.252676 0.397315 0.388942
O O2 0.245947 0.134700 0.546768
O O3 0.178085 0.188646 0.424197
O O4 0.150936 0.127204 0.799727
O O5 0.089704 0.892281 0.879339
O O6 0.138238 0.616352 0.774379
O O7 0.728991 0.365023 0.699449
O O8 0.803176 0.420760 0.673173
O O9 0.948063 0.334400 0.556472
O O10 0.949547 0.690082 0.408809
O O11 0.000000 0.709947 0.555472
O O12 0.923039 0.834753 0.577470
O O13 0.620907 0.250913 0.137777
O O14 0.945242 0.100589 0.729342
O O15 0.500000 0.555496 0.360022
#
# Coordination Sequence:
#
# PCOD9352694 Si02
#       7
#     8   8   8   8   8   8   8
#     4  10  22  39  62  92 127 170 214 268 337 406
#     4  11  24  42  66  99 134 176 229 285 347 418
#     4  10  22  39  61  89 124 167 212 263 332 407
#     4  11  24  41  68 102 134 180 236 287 349 424
#     4  11  24  41  64  95 129 172 225 283 347 417
#     4  11  24  44  69  99 140 183 231 295 357 416
#     4  10  24  46  72 104 145 190 239 297 357 418
#
# _framework density 25.004608999999999
#
# number of rings (size 3 to 8) (size 9 to 14) (size 15 to 20)
#    0.000    1.429    0.000    4.714    0.000   11.429 
#    0.000    7.857    0.000    0.000    0.000    0.000 
#    0.000    0.000    0.000    0.000    0.000    0.000 
#
# Total GULP energy -156406.141446 kJ/mol
# GULP energy per Si atom -5585.933623 kJ/mol
# Density = 2.494770 g / cm^3
# Si number density = 25.004609 Si / 1000 Ang^3
#
#
#
# Elastic Constant Matrix: (Units=GPa)
#
#
# Indices 1 2 3 4 5 6 
#
# 1 66.6233 7.9602 3.8957 0.0000 0.0000 0.0000
# 2 7.9602 163.2480 25.0587 0.0000 0.0000 0.0000
# 3 3.8957 25.0587 93.2070 0.0000 0.0000 0.0000
# 4 0.0000 0.0000 0.0000 31.7041 0.0000 0.0000
# 5 0.0000 0.0000 0.0000 0.0000 41.7409 0.0000
# 6 0.0000 0.0000 0.0000 0.0000 0.0000 26.9018
#
#
#
# Elastic Compliance Matrix: (Units=1/GPa)
#
#
# Indices 1 2 3 4 5 6 
#
# 1 0.015116 -0.000668 -0.000452 0.000000 0.000000 0.000000
# 2 -0.000668 0.006419 -0.001698 0.000000 0.000000 0.000000
# 3 -0.000452 -0.001698 0.011204 0.000000 0.000000 0.000000
# 4 0.000000 0.000000 0.000000 0.031542 0.000000 0.000000
# 5 0.000000 0.000000 0.000000 0.000000 0.023957 0.000000
# 6 0.000000 0.000000 0.000000 0.000000 0.000000 0.037172
#
#
# Mechanical properties :
#
#
# Convention : Reuss Voigt Hill
#
# Bulk Modulus (GPa) = 36.89563 44.10083 40.49823
# Shear Modulus (GPa) = 35.69387 39.14696 37.42042
#
# Velocity S-wave (km/s) = 3.78232 3.96105 3.87271
# Velocity P-wave (km/s) = 5.81912 6.21250 6.01902
#
# Compressibility (1/GPa) = 0.02710348
#
# Stress axis : x y z
#
# Youngs Moduli (GPa) = 66.15516 155.79194 89.25256
#
# Poissons Ratio (x) = 0.10401 0.04037
# Poissons Ratio (y) = 0.04417 0.15153
# Poissons Ratio (z) = 0.02992 0.26450
#
# Static dielectric constant tensor:
#      x y z
#    x 2.052360 0.000000 0.000000 
#    y 0.000000 2.367380 0.000000 
#    z 0.000000 0.000000 2.174350 
# 
# From -- ./inp_files/13164.got.cif
#   From: 2010.05.17/outbox.cif.g08.bks.cpg/sg36_7_cif.got.tgz:13164.got - 2010.06.03 17:41:39.
