data_PCOD9352291
_publ_section_title
;
Structure prediction by ZEFSAII (Michael W. Deem and Ramdas Pophale) SiO2 
 PCOD9352291
Probable space group: C M C 21
;
_chemical_formula_sum "Si O2"
_cell_formula_units_Z 64
_cell_length_a 7.655689
_cell_length_b 30.253297
_cell_length_c 12.797814
_cell_angle_alpha 90.000000
_cell_angle_beta 90.000000
_cell_angle_gamma 90.000000
_cell_volume 2964.099564
_symmetry_space_group_name_H-M "C M C 21"
_symmetry_group_IT_number 36
_symmetry_cell_setting 'orthorhombic'
loop_
_space_group_symop_operation_xyz
x,y,z
-x,-y,1/2+z
x,-y,1/2+z
-x,y,z
1/2+x,1/2+y,z
1/2-x,1/2-y,1/2+z
1/2+x,1/2-y,1/2+z
1/2-x,1/2+y,z
loop_
_atom_site_type_symbol
_atom_site_label
_atom_site_fract_x
_atom_site_fract_y
_atom_site_fract_z
Si Si1 0.801935 0.670305 0.059800
Si Si2 0.211366 0.918834 0.661615
Si Si3 0.707976 0.473670 0.467091
Si Si4 0.710200 0.318444 0.188977
Si Si5 0.210783 0.724765 0.251853
Si Si6 0.212335 0.068395 0.400464
Si Si7 0.793974 0.383079 0.364197
Si Si8 0.289930 0.333899 0.956204
O O1 0.801942 0.626666 0.131674
O O2 0.721645 0.705358 0.140582
O O3 0.000000 0.685411 0.035414
O O4 0.719351 0.651093 0.952659
O O5 0.269340 0.954514 0.577233
O O6 0.250219 0.932428 0.777963
O O7 0.000000 0.912339 0.652562
O O8 0.500000 0.478850 0.473896
O O9 0.780198 0.522210 0.445355
O O10 0.735594 0.433324 0.385572
O O11 0.500000 0.316830 0.186030
O O12 0.770556 0.275575 0.254183
O O13 0.757863 0.362735 0.251339
O O14 0.772735 0.316744 0.069045
O O15 0.253058 0.696124 0.354482
O O16 0.000000 0.723726 0.244772
O O17 0.275167 0.115704 0.442303
O O18 0.000000 0.068968 0.412183
O O19 0.000000 0.383533 0.382742
O O20 0.500000 0.335831 0.961508
#
# Coordination Sequence:
#
# PCOD9352291 Si02
#       8
#     8   8   8   8   8   8   8   8
#     4   9  18  33  54  77 105 141 178 225 277 325
#     4   9  16  29  50  77 105 136 183 231 269 321
#     4   9  18  32  53  79 111 147 184 230 282 331
#     4  10  23  39  57  82 116 153 188 228 283 341
#     4  10  21  37  56  81 111 145 185 228 279 338
#     4   9  17  31  53  82 109 141 186 232 280 333
#     4  10  21  37  57  81 112 147 189 231 276 332
#     4  10  21  38  60  85 113 146 189 235 282 335
#
# _framework density 21.591719000000001
#
# number of rings (size 3 to 8) (size 9 to 14) (size 15 to 20)
#    0.000    2.500    1.250    0.375    1.750    2.500 
#    0.000    5.000    0.000    3.000    0.000    0.000 
#    0.000    0.000    0.000    0.000    0.000    0.000 
#
# Total GULP energy -178421.564953 kJ/mol
# GULP energy per Si atom -5575.673905 kJ/mol
# Density = 2.154257 g / cm^3
# Si number density = 21.591719 Si / 1000 Ang^3
#
#
#
# Elastic Constant Matrix: (Units=GPa)
#
#
# Indices 1 2 3 4 5 6 
#
# 1 34.6222 -0.9391 0.0497 0.0000 0.0000 0.0000
# 2 -0.9391 134.5313 54.9468 0.0000 0.0000 0.0000
# 3 0.0497 54.9468 61.6598 0.0000 0.0000 0.0000
# 4 0.0000 0.0000 0.0000 21.8204 0.0000 0.0000
# 5 0.0000 0.0000 0.0000 0.0000 -2.6720 0.0000
# 6 0.0000 0.0000 0.0000 0.0000 0.0000 15.1858
#
#
#
# Elastic Compliance Matrix: (Units=1/GPa)
#
#
# Indices 1 2 3 4 5 6 
#
# 1 0.028893 0.000332 -0.000319 0.000000 0.000000 0.000000
# 2 0.000332 0.011691 -0.010418 0.000000 0.000000 0.000000
# 3 -0.000319 -0.010418 0.025502 0.000000 0.000000 0.000000
# 4 0.000000 0.000000 0.000000 0.045829 0.000000 0.000000
# 5 0.000000 0.000000 0.000000 0.000000 -0.374247 0.000000
# 6 0.000000 0.000000 0.000000 0.000000 0.000000 0.065851
#
#
# Mechanical properties :
#
#
# Convention : Reuss Voigt Hill
#
# Bulk Modulus (GPa) = 22.08725 37.65866 29.87296
# Shear Modulus (GPa) = -31.13725 18.65056 -6.24334
#
# Velocity S-wave (km/s) = -3.80161 2.94221 -1.70230
# Velocity P-wave (km/s) = 3.00299 5.38714 3.16254
#
# Compressibility (1/GPa) = 0.04527498
#
# Stress axis : x y z
#
# Youngs Moduli (GPa) = 34.61085 85.53875 39.21240
#
# Poissons Ratio (x) = -0.02840 0.01251
# Poissons Ratio (y) = -0.01149 0.40852
# Poissons Ratio (z) = 0.01105 0.89115
#
# Static dielectric constant tensor:
#      x y z
#    x 1.815750 0.000000 0.000000 
#    y 0.000000 1.797850 0.000000 
#    z 0.000000 0.000000 1.784160 
# 
# From -- ./inp_files/7266.got.cif
#   From: 2010.05.17/outbox.cif.g08.bks.cpg/sg36_4_cif.got.tgz:7266.got - 2010.06.03 17:41:39.
