data_PCOD9352126
_publ_section_title
;
Structure prediction by ZEFSAII (Michael W. Deem and Ramdas Pophale) SiO2 
 PCOD9352126
Probable space group: C M C 21
;
_chemical_formula_sum "Si O2"
_cell_formula_units_Z 64
_cell_length_a 8.745396
_cell_length_b 24.419372
_cell_length_c 15.546008
_cell_angle_alpha 90.000000
_cell_angle_beta 90.000000
_cell_angle_gamma 90.000000
_cell_volume 3319.960046
_symmetry_space_group_name_H-M "C M C 21"
_symmetry_group_IT_number 36
_symmetry_cell_setting 'orthorhombic'
loop_
_space_group_symop_operation_xyz
x,y,z
-x,-y,1/2+z
x,-y,1/2+z
-x,y,z
1/2+x,1/2+y,z
1/2-x,1/2-y,1/2+z
1/2+x,1/2-y,1/2+z
1/2-x,1/2+y,z
loop_
_atom_site_type_symbol
_atom_site_label
_atom_site_fract_x
_atom_site_fract_y
_atom_site_fract_z
Si Si1 0.180676 0.731480 0.490440
Si Si2 0.181426 0.729848 0.818656
Si Si3 0.682594 0.001751 0.820293
Si Si4 0.183412 0.928422 0.667073
Si Si5 0.176192 0.377004 0.097901
Si Si6 0.813985 0.802064 0.654827
Si Si7 0.177268 0.882116 0.275514
Si Si8 0.319221 0.002864 0.518181
O O1 0.276177 0.738014 0.404503
O O2 0.195070 0.670863 0.529177
O O3 0.230771 0.773867 0.565008
O O4 0.000000 0.741082 0.472572
O O5 0.234313 0.764114 0.734955
O O6 0.262013 0.671044 0.824397
O O7 0.000000 0.721771 0.810968
O O8 0.500000 0.995025 0.816850
O O9 0.728401 0.063271 0.795010
O O10 0.754031 0.960356 0.750762
O O11 0.734109 0.994769 0.919306
O O12 0.235544 0.865030 0.664268
O O13 0.000000 0.929288 0.670460
O O14 0.236892 0.960305 0.581305
O O15 0.291772 0.369371 0.175668
O O16 0.196326 0.436743 0.058046
O O17 0.000000 0.372574 0.130839
O O18 0.000000 0.801921 0.655743
O O19 0.000000 0.891905 0.293172
O O20 0.500000 0.989095 0.517389
#
# Coordination Sequence:
#
# PCOD9352126 Si02
#       8
#     8   8   8   8   8   8   8   8
#     4  10  21  40  64  91 122 161 204 252 309 366
#     4  11  23  42  64  90 124 166 206 252 308 366
#     4  11  24  42  63  90 125 165 208 254 311 372
#     4  11  23  40  62  91 125 164 206 253 306 364
#     4  10  20  40  67  89 121 160 201 257 316 366
#     4   9  21  41  61  85 125 166 198 244 310 364
#     4  12  24  40  64  93 121 158 209 262 313 367
#     4  10  23  41  63  91 121 162 208 254 309 369
#
# _framework density 19.277341
#
# number of rings (size 3 to 8) (size 9 to 14) (size 15 to 20)
#    0.000    1.500    2.500    2.250    3.500    1.500 
#    0.000    2.500    0.000    0.000    0.000    0.000 
#    0.000    0.000    0.000    0.000    0.000    0.000 
#
# Total GULP energy -178795.171823 kJ/mol
# GULP energy per Si atom -5587.349119 kJ/mol
# Density = 1.923346 g / cm^3
# Si number density = 19.277341 Si / 1000 Ang^3
#
#
#
# Elastic Constant Matrix: (Units=GPa)
#
#
# Indices 1 2 3 4 5 6 
#
# 1 24.6510 9.3379 15.7551 0.0000 0.0000 0.0000
# 2 9.3379 80.8968 0.2415 0.0000 0.0000 0.0000
# 3 15.7551 0.2415 72.2025 0.0000 0.0000 0.0000
# 4 0.0000 0.0000 0.0000 19.9631 0.0000 0.0000
# 5 0.0000 0.0000 0.0000 0.0000 30.3013 0.0000
# 6 0.0000 0.0000 0.0000 0.0000 0.0000 19.1655
#
#
#
# Elastic Compliance Matrix: (Units=1/GPa)
#
#
# Indices 1 2 3 4 5 6 
#
# 1 0.049634 -0.005697 -0.010811 0.000000 0.000000 0.000000
# 2 -0.005697 0.013015 0.001200 0.000000 0.000000 0.000000
# 3 -0.010811 0.001200 0.016205 0.000000 0.000000 0.000000
# 4 0.000000 0.000000 0.000000 0.050092 0.000000 0.000000
# 5 0.000000 0.000000 0.000000 0.000000 0.033002 0.000000
# 6 0.000000 0.000000 0.000000 0.000000 0.000000 0.052177
#
#
# Mechanical properties :
#
#
# Convention : Reuss Voigt Hill
#
# Bulk Modulus (GPa) = 20.73099 25.37991 23.05545
# Shear Modulus (GPa) = 19.17010 24.04704 21.60857
#
# Velocity S-wave (km/s) = 3.15689 3.53572 3.35166
# Velocity P-wave (km/s) = 4.90565 5.46468 5.19269
#
# Compressibility (1/GPa) = 0.04823696
#
# Stress axis : x y z
#
# Youngs Moduli (GPa) = 20.14739 76.83172 61.70908
#
# Poissons Ratio (x) = 0.43771 0.66717
# Poissons Ratio (y) = 0.11478 -0.07403
# Poissons Ratio (z) = 0.21782 -0.09217
#
# Static dielectric constant tensor:
#      x y z
#    x 1.667320 0.000000 0.000000 
#    y 0.000000 1.660930 0.000000 
#    z 0.000000 0.000000 1.671620 
# 
# From -- ./inp_files/11096.got.cif
#   From: 2010.05.17/outbox.cif.g08.bks.cpg/sg36_6_cif.got.tgz:11096.got - 2010.06.03 17:41:39.
