data_PCOD9352125
_publ_section_title
;
Structure prediction by ZEFSAII (Michael W. Deem and Ramdas Pophale) SiO2 
 PCOD9352125
Probable space group: C M C 21
;
_chemical_formula_sum "Si O2"
_cell_formula_units_Z 56
_cell_length_a 10.689355
_cell_length_b 14.547286
_cell_length_c 17.562859
_cell_angle_alpha 90.000000
_cell_angle_beta 90.000000
_cell_angle_gamma 90.000000
_cell_volume 2731.043970
_symmetry_space_group_name_H-M "C M C 21"
_symmetry_group_IT_number 36
_symmetry_cell_setting 'orthorhombic'
loop_
_space_group_symop_operation_xyz
x,y,z
-x,-y,1/2+z
x,-y,1/2+z
-x,y,z
1/2+x,1/2+y,z
1/2-x,1/2-y,1/2+z
1/2+x,1/2-y,1/2+z
1/2-x,1/2+y,z
loop_
_atom_site_type_symbol
_atom_site_label
_atom_site_fract_x
_atom_site_fract_y
_atom_site_fract_z
Si Si1 0.644039 0.355796 0.819410
Si Si2 0.645932 0.096362 0.708618
Si Si3 0.639929 0.109610 0.197036
Si Si4 0.354068 0.403638 0.985023
Si Si5 0.139929 0.890390 0.496604
Si Si6 0.355961 0.144204 0.874230
Si Si7 0.250000 0.745883 0.596820
O O1 0.500000 0.378934 0.796689
O O2 0.747066 0.368779 0.754656
O O3 0.680305 0.410836 0.896059
O O4 0.643681 0.250000 0.846819
O O5 0.500000 0.121738 0.707660
O O6 0.680306 0.089164 0.797582
O O7 0.714788 0.177213 0.664812
O O8 0.658611 0.995958 0.671911
O O9 0.500000 0.113990 0.231920
O O10 0.647621 0.183536 0.129406
O O11 0.500000 0.378263 0.985982
O O12 0.341389 0.504042 0.021728
O O13 0.285211 0.322787 0.028828
O O14 0.252934 0.868779 0.438984
O O15 0.147621 0.816464 0.564234
O O16 0.000000 0.886010 0.461720
O O17 0.500000 0.121066 0.896951
#
# Coordination Sequence:
#
# PCOD9352125 Si02
#       7
#     8   8   8   8   8   8   8
#     4  10  20  40  67  88 120 167 203 244 308 375
#     4  10  22  41  61  87 123 163 204 247 307 371
#     4  11  24  40  64  95 122 154 207 264 298 349
#     4  10  22  41  61  87 123 163 204 247 307 371
#     4  11  24  40  64  95 122 154 207 264 298 349
#     4  10  20  40  67  88 120 167 203 244 308 375
#     4  12  22  40  60  88 126 168 198 244 310 372
#
# _framework density 20.50498
#
# number of rings (size 3 to 8) (size 9 to 14) (size 15 to 20)
#    0.000    1.429    2.857    2.571    0.000    1.714 
#    0.000    2.857    0.000    0.000    0.000    0.000 
#    0.000    0.000    0.000    0.000    0.000    0.000 
#
# Total GULP energy -156218.293918 kJ/mol
# GULP energy per Si atom -5579.224783 kJ/mol
# Density = 2.045831 g / cm^3
# Si number density = 20.504980 Si / 1000 Ang^3
#
#
#
# Elastic Constant Matrix: (Units=GPa)
#
#
# Indices 1 2 3 4 5 6 
#
# 1 103.5999 30.4734 50.9667 0.0000 0.0000 0.0000
# 2 30.4734 117.1741 17.8866 0.0000 0.0000 0.0000
# 3 50.9667 17.8866 49.5322 0.0000 0.0000 0.0000
# 4 0.0000 0.0000 0.0000 24.6794 0.0000 0.0000
# 5 0.0000 0.0000 0.0000 0.0000 26.4830 0.0000
# 6 0.0000 0.0000 0.0000 0.0000 0.0000 23.8487
#
#
#
# Elastic Compliance Matrix: (Units=1/GPa)
#
#
# Indices 1 2 3 4 5 6 
#
# 1 0.020064 -0.002187 -0.019855 0.000000 0.000000 0.000000
# 2 -0.002187 0.009271 -0.001097 0.000000 0.000000 0.000000
# 3 -0.019855 -0.001097 0.041015 0.000000 0.000000 0.000000
# 4 0.000000 0.000000 0.000000 0.040520 0.000000 0.000000
# 5 0.000000 0.000000 0.000000 0.000000 0.037760 0.000000
# 6 0.000000 0.000000 0.000000 0.000000 0.000000 0.041931
#
#
# Mechanical properties :
#
#
# Convention : Reuss Voigt Hill
#
# Bulk Modulus (GPa) = 41.54422 52.10661 46.82542
# Shear Modulus (GPa) = 20.41968 26.40086 23.41027
#
# Velocity S-wave (km/s) = 3.15912 3.59212 3.38255
# Velocity P-wave (km/s) = 5.79752 6.53232 6.17586
#
# Compressibility (1/GPa) = 0.02407074
#
# Stress axis : x y z
#
# Youngs Moduli (GPa) = 49.84163 107.86788 24.38134
#
# Poissons Ratio (x) = 0.23592 0.48409
# Poissons Ratio (y) = 0.10901 0.02675
# Poissons Ratio (z) = 0.98960 0.11836
#
# Static dielectric constant tensor:
#      x y z
#    x 1.728340 0.000000 0.000000 
#    y 0.000000 1.738720 0.000000 
#    z 0.000000 0.000000 1.808430 
# 
# From -- ./inp_files/11597.got.cif
#   From: 2010.05.17/outbox.cif.g08.bks.cpg/sg36_6_cif.got.tgz:11597.got - 2010.06.03 17:41:39.
