data_PCOD9352913
_publ_section_title
;
Structure prediction by ZEFSAII (Michael W. Deem and Ramdas Pophale) SiO2 
 PCOD9352913
Probable space group: C M C 21
;
_chemical_formula_sum "Si O2"
_cell_formula_units_Z 56
_cell_length_a 9.957597
_cell_length_b 19.875642
_cell_length_c 13.201189
_cell_angle_alpha 90.000000
_cell_angle_beta 90.000000
_cell_angle_gamma 90.000000
_cell_volume 2612.695277
_symmetry_space_group_name_H-M "C M C 21"
_symmetry_group_IT_number 36
_symmetry_cell_setting 'orthorhombic'
loop_
_space_group_symop_operation_xyz
x,y,z
-x,-y,1/2+z
x,-y,1/2+z
-x,y,z
1/2+x,1/2+y,z
1/2-x,1/2-y,1/2+z
1/2+x,1/2-y,1/2+z
1/2-x,1/2+y,z
loop_
_atom_site_type_symbol
_atom_site_label
_atom_site_fract_x
_atom_site_fract_y
_atom_site_fract_z
Si Si1 0.352515 0.952010 0.043370
Si Si2 0.848600 0.852388 0.370983
Si Si3 0.755890 0.323779 0.151225
Si Si4 0.844983 0.428228 0.697472
Si Si5 0.159258 0.988416 0.873136
Si Si6 0.153041 0.239196 0.446200
Si Si7 0.851401 0.185008 0.225920
O O1 0.500000 0.945502 0.993420
O O2 0.335399 0.890935 0.121762
O O3 0.348875 0.022545 0.101949
O O4 0.227917 0.951965 0.967800
O O5 0.832525 0.839016 0.250425
O O6 0.823691 0.931331 0.387277
O O7 0.749651 0.802578 0.429170
O O8 0.000000 0.836764 0.402794
O O9 0.845774 0.260505 0.183946
O O10 0.680434 0.299476 0.050169
O O11 0.748274 0.464746 0.778492
O O12 0.768569 0.358248 0.679030
O O13 0.000000 0.418397 0.730753
O O14 0.000000 0.974889 0.862391
O O15 0.171280 0.191686 0.347121
O O16 0.000000 0.262893 0.443567
O O17 0.000000 0.156191 0.206961
#
# Coordination Sequence:
#
# PCOD9352913 Si02
#       7
#     8   8   8   8   8   8   8
#     4  11  25  43  67  99 130 173 222 274 333 396
#     4  10  23  42  65  97 135 175 220 275 337 396
#     4  11  22  43  70  98 130 175 226 277 329 397
#     4  11  24  43  67  97 132 172 216 272 331 392
#     4  11  24  43  67  98 134 175 221 276 335 400
#     4  10  23  40  64  94 127 169 220 272 329 393
#     4  10  23  42  64  95 132 171 215 270 328 392
#
# _framework density 21.433803999999999
#
# number of rings (size 3 to 8) (size 9 to 14) (size 15 to 20)
#    0.000    1.429    1.429    2.571    2.000    9.143 
#    0.000    0.000    0.000    0.000    0.000    0.000 
#    0.000    0.000    0.000    0.000    0.000    0.000 
#
# Total GULP energy -156512.270728 kJ/mol
# GULP energy per Si atom -5589.723955 kJ/mol
# Density = 2.138502 g / cm^3
# Si number density = 21.433804 Si / 1000 Ang^3
#
#
#
# Elastic Constant Matrix: (Units=GPa)
#
#
# Indices 1 2 3 4 5 6 
#
# 1 147.5430 56.3299 19.7256 0.0000 0.0000 0.0000
# 2 56.3299 97.7720 16.3030 0.0000 0.0000 0.0000
# 3 19.7256 16.3030 66.8611 0.0000 0.0000 0.0000
# 4 0.0000 0.0000 0.0000 30.3794 0.0000 0.0000
# 5 0.0000 0.0000 0.0000 0.0000 14.5901 0.0000
# 6 0.0000 0.0000 0.0000 0.0000 0.0000 23.8223
#
#
#
# Elastic Compliance Matrix: (Units=1/GPa)
#
#
# Indices 1 2 3 4 5 6 
#
# 1 0.008816 -0.004843 -0.001420 0.000000 0.000000 0.000000
# 2 -0.004843 0.013321 -0.001819 0.000000 0.000000 0.000000
# 3 -0.001420 -0.001819 0.015819 0.000000 0.000000 0.000000
# 4 0.000000 0.000000 0.000000 0.032917 0.000000 0.000000
# 5 0.000000 0.000000 0.000000 0.000000 0.068540 0.000000
# 6 0.000000 0.000000 0.000000 0.000000 0.000000 0.041978
#
#
# Mechanical properties :
#
#
# Convention : Reuss Voigt Hill
#
# Bulk Modulus (GPa) = 45.88842 55.21034 50.54938
# Shear Modulus (GPa) = 24.41172 28.41286 26.41229
#
# Velocity S-wave (km/s) = 3.37847 3.64484 3.51418
# Velocity P-wave (km/s) = 6.05596 6.59755 6.33254
#
# Compressibility (1/GPa) = 0.02179199
#
# Stress axis : x y z
#
# Youngs Moduli (GPa) = 113.42480 75.06794 63.21501
#
# Poissons Ratio (x) = 0.36353 0.08978
# Poissons Ratio (y) = 0.54927 0.11502
# Poissons Ratio (z) = 0.16109 0.13658
#
# Static dielectric constant tensor:
#      x y z
#    x 1.748610 0.000000 0.000000 
#    y 0.000000 1.774980 0.000000 
#    z 0.000000 0.000000 1.785580 
# 
# From -- ./inp_files/10639.got.cif
#   From: 2010.05.17/outbox.cif.g08.bks.cpg/sg36_6_cif.got.tgz:10639.got - 2010.06.03 17:41:39.
