data_PCOD9352671
_publ_section_title
;
Structure prediction by ZEFSAII (Michael W. Deem and Ramdas Pophale) SiO2 
 PCOD9352671
Probable space group: C M C 21
;
_chemical_formula_sum "Si O2"
_cell_formula_units_Z 40
_cell_length_a 5.733815
_cell_length_b 29.175639
_cell_length_c 9.027828
_cell_angle_alpha 90.000000
_cell_angle_beta 90.000000
_cell_angle_gamma 90.000000
_cell_volume 1510.244731
_symmetry_space_group_name_H-M "C M C 21"
_symmetry_group_IT_number 36
_symmetry_cell_setting 'orthorhombic'
loop_
_space_group_symop_operation_xyz
x,y,z
-x,-y,1/2+z
x,-y,1/2+z
-x,y,z
1/2+x,1/2+y,z
1/2-x,1/2-y,1/2+z
1/2+x,1/2-y,1/2+z
1/2-x,1/2+y,z
loop_
_atom_site_type_symbol
_atom_site_label
_atom_site_fract_x
_atom_site_fract_y
_atom_site_fract_z
Si Si1 0.751462 0.164616 0.696820
Si Si2 0.000000 0.522063 0.723272
Si Si3 0.253167 0.577110 0.496778
Si Si4 0.250233 0.748483 0.988148
Si Si5 0.000000 0.431369 0.542318
Si Si6 0.748601 0.848117 0.656633
O O1 0.500000 0.157333 0.773819
O O2 0.757096 0.127896 0.564211
O O3 0.749510 0.214007 0.618834
O O4 0.000000 0.158824 0.777538
O O5 0.778445 0.545337 0.641538
O O6 0.000000 0.470566 0.665916
O O7 0.000000 0.539916 0.890346
O O8 0.500000 0.566248 0.421903
O O9 0.000000 0.571308 0.422883
O O10 0.500000 0.754388 0.908589
O O11 0.250132 0.697756 0.057870
O O12 0.000000 0.754662 0.908363
O O13 0.212916 0.395318 0.564831
O O14 0.500000 0.845677 0.742648
O O15 0.000000 0.849615 0.734451
#
# Coordination Sequence:
#
# PCOD9352671 Si02
#       6
#     8   4   8   8   4   8
#     4   8  12  20  38  66 100 130 170 205 260 319
#     4  10  22  38  58  82 112 150 196 246 297 348
#     4   8  16  30  48  74 108 138 179 225 280 332
#     4   8  12  20  38  66 100 130 170 205 260 319
#     4  10  22  38  58  82 112 150 196 246 297 348
#     4   8  16  30  48  74 108 138 179 225 280 332
#
# _framework density 26.485771
#
# number of rings (size 3 to 8) (size 9 to 14) (size 15 to 20)
#    1.200    2.400    0.000    0.000    0.000    1.600 
#    0.000    0.000    0.000    0.000    0.000    2.800 
#    0.000    0.000    0.000    0.000    0.000    0.000 
#
# Total GULP energy -111449.823972 kJ/mol
# GULP energy per Si atom -5572.491199 kJ/mol
# Density = 2.642549 g / cm^3
# Si number density = 26.485771 Si / 1000 Ang^3
#
#
#
# Elastic Constant Matrix: (Units=GPa)
#
#
# Indices 1 2 3 4 5 6 
#
# 1 332.9134 20.1965 34.7865 0.0000 0.0000 0.0000
# 2 20.1965 187.2530 71.5450 0.0000 0.0000 0.0000
# 3 34.7865 71.5450 81.0417 0.0000 0.0000 0.0000
# 4 0.0000 0.0000 0.0000 37.7199 0.0000 0.0000
# 5 0.0000 0.0000 0.0000 0.0000 -16.8255 0.0000
# 6 0.0000 0.0000 0.0000 0.0000 0.0000 67.7244
#
#
#
# Elastic Compliance Matrix: (Units=1/GPa)
#
#
# Indices 1 2 3 4 5 6 
#
# 1 0.003154 0.000267 -0.001590 0.000000 0.000000 0.000000
# 2 0.000267 0.008081 -0.007249 0.000000 0.000000 0.000000
# 3 -0.001590 -0.007249 0.019421 0.000000 0.000000 0.000000
# 4 0.000000 0.000000 0.000000 0.026511 0.000000 0.000000
# 5 0.000000 0.000000 0.000000 0.000000 -0.059434 0.000000
# 6 0.000000 0.000000 0.000000 0.000000 0.000000 0.014766
#
#
# Mechanical properties :
#
#
# Convention : Reuss Voigt Hill
#
# Bulk Modulus (GPa) = 74.00065 94.91821 84.45943
# Shear Modulus (GPa) = 146.42870 49.36910 97.89890
#
# Velocity S-wave (km/s) = 7.44351 4.32207 6.08630
# Velocity P-wave (km/s) = 10.09331 7.79887 9.01935
#
# Compressibility (1/GPa) = 0.01351340
#
# Stress axis : x y z
#
# Youngs Moduli (GPa) = 317.09087 123.74422 51.49043
#
# Poissons Ratio (x) = -0.03306 0.08185
# Poissons Ratio (y) = -0.08472 0.37325
# Poissons Ratio (z) = 0.50404 0.89701
#
# Static dielectric constant tensor:
#      x y z
#    x 2.158110 0.000000 0.000000 
#    y 0.000000 2.037690 0.000000 
#    z 0.000000 0.000000 1.984270 
# 
# From -- ./inp_files/6269.got.cif
#   From: 2010.05.17/outbox.cif.g08.bks.cpg/sg36_4_cif.got.tgz:6269.got - 2010.06.03 17:41:39.
