data_PCOD9352656
_publ_section_title
;
Structure prediction by ZEFSAII (Michael W. Deem and Ramdas Pophale) SiO2 
 PCOD9352656
Probable space group: C M C 21
;
_chemical_formula_sum "Si O2"
_cell_formula_units_Z 56
_cell_length_a 14.026277
_cell_length_b 31.826455
_cell_length_c 5.597881
_cell_angle_alpha 90.000000
_cell_angle_beta 90.000000
_cell_angle_gamma 90.000000
_cell_volume 2498.931437
_symmetry_space_group_name_H-M "C M C 21"
_symmetry_group_IT_number 36
_symmetry_cell_setting 'orthorhombic'
loop_
_space_group_symop_operation_xyz
x,y,z
-x,-y,1/2+z
x,-y,1/2+z
-x,y,z
1/2+x,1/2+y,z
1/2-x,1/2-y,1/2+z
1/2+x,1/2-y,1/2+z
1/2-x,1/2+y,z
loop_
_atom_site_type_symbol
_atom_site_label
_atom_site_fract_x
_atom_site_fract_y
_atom_site_fract_z
Si Si1 0.889715 0.015203 0.756950
Si Si2 0.672333 0.339814 0.266142
Si Si3 0.385069 0.977416 0.570352
Si Si4 0.218712 0.609217 0.135234
Si Si5 0.101427 0.904469 0.946066
Si Si6 0.895229 0.228292 0.101107
Si Si7 0.790359 0.300660 0.885583
O O1 0.894795 0.062419 0.661835
O O2 0.000000 0.000621 0.787539
O O3 0.848356 0.991276 0.522469
O O4 0.731075 0.376562 0.392442
O O5 0.609604 0.358417 0.055361
O O6 0.609133 0.314403 0.448905
O O7 0.753568 0.311531 0.149648
O O8 0.500000 0.979276 0.568653
O O9 0.354283 0.928612 0.596493
O O10 0.354023 0.997244 0.312501
O O11 0.304487 0.590740 0.293638
O O12 0.187820 0.654307 0.256454
O O13 0.000000 0.909109 0.817372
O O14 0.874195 0.267311 0.922535
O O15 0.801439 0.221499 0.263743
O O16 0.000000 0.233316 0.213414
#
# Coordination Sequence:
#
# PCOD9352656 Si02
#       7
#     8   8   8   8   8   8   8
#     4   9  19  34  51  74 112 159 205 255 306 361
#     4  10  22  40  61  89 130 170 214 281 329 407
#     4  10  24  47  76 106 139 181 236 298 363 433
#     4  10  24  40  66  96 133 176 223 284 351 408
#     4  10  22  37  57  89 128 172 219 263 321 397
#     4  11  22  40  68  93 126 178 224 277 350 418
#     4  10  22  42  61  95 136 168 227 288 334 428
#
# _framework density 22.409579999999998
#
# number of rings (size 3 to 8) (size 9 to 14) (size 15 to 20)
#    0.000    2.000    1.429    0.429    6.000    8.000 
#    0.000    0.714    0.000    0.000    0.000    0.000 
#    0.000    0.000    0.000    0.000    0.000    0.000 
#
# Total GULP energy -156186.324091 kJ/mol
# GULP energy per Si atom -5578.083003 kJ/mol
# Density = 2.235857 g / cm^3
# Si number density = 22.409580 Si / 1000 Ang^3
#
#
#
# Elastic Constant Matrix: (Units=GPa)
#
#
# Indices 1 2 3 4 5 6 
#
# 1 51.7535 27.9311 21.5077 0.0000 0.0000 0.0000
# 2 27.9311 111.1307 29.1926 0.0000 0.0000 0.0000
# 3 21.5077 29.1926 96.9290 0.0000 0.0000 0.0000
# 4 0.0000 0.0000 0.0000 43.3912 0.0000 0.0000
# 5 0.0000 0.0000 0.0000 0.0000 17.7054 0.0000
# 6 0.0000 0.0000 0.0000 0.0000 0.0000 22.6384
#
#
#
# Elastic Compliance Matrix: (Units=1/GPa)
#
#
# Indices 1 2 3 4 5 6 
#
# 1 0.023538 -0.004934 -0.003737 0.000000 0.000000 0.000000
# 2 -0.004934 0.010806 -0.002160 0.000000 0.000000 0.000000
# 3 -0.003737 -0.002160 0.011796 0.000000 0.000000 0.000000
# 4 0.000000 0.000000 0.000000 0.023046 0.000000 0.000000
# 5 0.000000 0.000000 0.000000 0.000000 0.056480 0.000000
# 6 0.000000 0.000000 0.000000 0.000000 0.000000 0.044173
#
#
# Mechanical properties :
#
#
# Convention : Reuss Voigt Hill
#
# Bulk Modulus (GPa) = 40.85127 46.34180 43.59653
# Shear Modulus (GPa) = 25.04248 28.82580 26.93414
#
# Velocity S-wave (km/s) = 3.34651 3.59042 3.47061
# Velocity P-wave (km/s) = 5.76204 6.15731 5.96295
#
# Compressibility (1/GPa) = 0.02447905
#
# Stress axis : x y z
#
# Youngs Moduli (GPa) = 42.48378 92.54206 84.77149
#
# Poissons Ratio (x) = 0.45664 0.31678
# Poissons Ratio (y) = 0.20963 0.18307
# Poissons Ratio (z) = 0.15876 0.19985
#
# Static dielectric constant tensor:
#      x y z
#    x 1.867320 0.000000 0.000000 
#    y 0.000000 1.887460 0.000000 
#    z 0.000000 0.000000 1.873800 
# 
# From -- ./inp_files/933.got.cif
#   From: 2010.05.17/outbox.cif.g08.bks.cpg/sg36_1_cif.got.tgz:933.got - 2010.06.03 17:41:39.
