data_PCOD9352757
_publ_section_title
;
Structure prediction by ZEFSAII (Michael W. Deem and Ramdas Pophale) SiO2 
 PCOD9352757
Probable space group: C M C 21
;
_chemical_formula_sum "Si O2"
_cell_formula_units_Z 56
_cell_length_a 30.225661
_cell_length_b 5.525650
_cell_length_c 12.871851
_cell_angle_alpha 90.000000
_cell_angle_beta 90.000000
_cell_angle_gamma 90.000000
_cell_volume 2149.810520
_symmetry_space_group_name_H-M "C M C 21"
_symmetry_group_IT_number 36
_symmetry_cell_setting 'orthorhombic'
loop_
_space_group_symop_operation_xyz
x,y,z
-x,-y,1/2+z
x,-y,1/2+z
-x,y,z
1/2+x,1/2+y,z
1/2-x,1/2-y,1/2+z
1/2+x,1/2-y,1/2+z
1/2-x,1/2+y,z
loop_
_atom_site_type_symbol
_atom_site_label
_atom_site_fract_x
_atom_site_fract_y
_atom_site_fract_z
Si Si1 0.373185 0.124363 0.303020
Si Si2 0.076474 0.932805 0.463092
Si Si3 0.000000 0.673333 0.213863
Si Si4 0.500000 0.671449 0.344692
Si Si5 0.255200 0.638479 0.626612
Si Si6 0.276267 0.884021 0.903192
Si Si7 0.081623 0.418181 0.131526
Si Si8 0.145999 0.220014 0.580800
O O1 0.410156 0.238840 0.376035
O O2 0.325127 0.089028 0.353749
O O3 0.365347 0.304134 0.203896
O O4 0.394753 0.891152 0.243991
O O5 0.060347 0.798153 0.567851
O O6 0.121518 0.053996 0.499899
O O7 0.042353 0.122188 0.416695
O O8 0.000000 0.435707 0.291778
O O9 0.955706 0.622138 0.147783
O O10 0.000000 0.938066 0.265835
O O11 0.251973 0.387444 0.685711
O O12 0.221510 0.628317 0.530266
O O13 0.303058 0.662936 0.575901
O O14 0.252643 0.625824 0.881209
O O15 0.122834 0.519677 0.064162
#
# Coordination Sequence:
#
# PCOD9352757 Si02
#       8
#     8   8   4   4   8   8   8   8
#     4  10  25  47  70 116 148 204 268 324 395 469
#     4  12  25  49  78 111 153 213 257 330 401 479
#     4  12  27  55  78 116 161 193 267 317 392 470
#     4  12  29  49  86 116 153 213 249 321 406 476
#     4  10  22  41  68 103 147 201 251 322 381 456
#     4  10  22  40  67 103 144 200 248 319 380 457
#     4  10  27  47  77 109 158 201 263 328 392 479
#     4  10  26  45  72 112 152 201 268 323 394 469
#
# _framework density 26.048807
#
# number of rings (size 3 to 8) (size 9 to 14) (size 15 to 20)
#    0.857    0.571    1.429    2.143   12.000    2.857 
#    0.000    0.000    0.000    0.000    0.000    0.000 
#    0.000    0.000    0.000    0.000    0.000    0.000 
#
# Total GULP energy -156447.858206 kJ/mol
# GULP energy per Si atom -5587.423507 kJ/mol
# Density = 2.598952 g / cm^3
# Si number density = 26.048807 Si / 1000 Ang^3
#
#
#
# Elastic Constant Matrix: (Units=GPa)
#
#
# Indices 1 2 3 4 5 6 
#
# 1 103.6284 15.3759 10.3766 0.0000 0.0000 0.0000
# 2 15.3759 149.1958 44.6917 0.0000 0.0000 0.0000
# 3 10.3766 44.6917 99.9375 0.0000 0.0000 0.0000
# 4 0.0000 0.0000 0.0000 51.0511 0.0000 0.0000
# 5 0.0000 0.0000 0.0000 0.0000 9.4681 0.0000
# 6 0.0000 0.0000 0.0000 0.0000 0.0000 14.1654
#
#
#
# Elastic Compliance Matrix: (Units=1/GPa)
#
#
# Indices 1 2 3 4 5 6 
#
# 1 0.009837 -0.000817 -0.000656 0.000000 0.000000 0.000000
# 2 -0.000817 0.007807 -0.003407 0.000000 0.000000 0.000000
# 3 -0.000656 -0.003407 0.011598 0.000000 0.000000 0.000000
# 4 0.000000 0.000000 0.000000 0.019588 0.000000 0.000000
# 5 0.000000 0.000000 0.000000 0.000000 0.105618 0.000000
# 6 0.000000 0.000000 0.000000 0.000000 0.000000 0.070595
#
#
# Mechanical properties :
#
#
# Convention : Reuss Voigt Hill
#
# Bulk Modulus (GPa) = 51.32832 54.85001 53.08916
# Shear Modulus (GPa) = 20.72141 33.75807 27.23974
#
# Velocity S-wave (km/s) = 2.82349 3.60384 3.23727
# Velocity P-wave (km/s) = 5.51153 6.19833 5.86499
#
# Compressibility (1/GPa) = 0.01948242
#
# Stress axis : x y z
#
# Youngs Moduli (GPa) = 101.65903 128.08598 86.22379
#
# Poissons Ratio (x) = 0.10469 0.05655
# Poissons Ratio (y) = 0.08309 0.29372
# Poissons Ratio (z) = 0.06667 0.43633
#
# Static dielectric constant tensor:
#      x y z
#    x 2.026300 0.000000 0.000000 
#    y 0.000000 2.113370 0.000000 
#    z 0.000000 0.000000 2.097470 
# 
# From -- ./inp_files/13202.got.cif
#   From: 2010.05.17/outbox.cif.g08.bks.cpg/sg36_7_cif.got.tgz:13202.got - 2010.06.03 17:41:39.
