data_PCOD9352852
_publ_section_title
;
Structure prediction by ZEFSAII (Michael W. Deem and Ramdas Pophale) SiO2 
 PCOD9352852
Probable space group: C M C 21
;
_chemical_formula_sum "Si O2"
_cell_formula_units_Z 32
_cell_length_a 18.270283
_cell_length_b 14.143690
_cell_length_c 5.223786
_cell_angle_alpha 90.000000
_cell_angle_beta 90.000000
_cell_angle_gamma 90.000000
_cell_volume 1349.874460
_symmetry_space_group_name_H-M "C M C 21"
_symmetry_group_IT_number 36
_symmetry_cell_setting 'orthorhombic'
loop_
_space_group_symop_operation_xyz
x,y,z
-x,-y,1/2+z
x,-y,1/2+z
-x,y,z
1/2+x,1/2+y,z
1/2-x,1/2-y,1/2+z
1/2+x,1/2-y,1/2+z
1/2-x,1/2+y,z
loop_
_atom_site_type_symbol
_atom_site_label
_atom_site_fract_x
_atom_site_fract_y
_atom_site_fract_z
Si Si1 0.086393 0.240097 0.455830
Si Si2 0.719067 0.299593 0.278990
Si Si3 0.659088 0.061794 0.835465
Si Si4 0.088412 0.944736 0.660833
O O1 0.134811 0.212413 0.701738
O O2 0.109103 0.344975 0.371078
O O3 0.107497 0.161277 0.244709
O O4 0.000000 0.233061 0.506256
O O5 0.741088 0.232035 0.513607
O O6 0.757991 0.398087 0.346709
O O7 0.646276 0.009241 0.569288
O O8 0.000000 0.947119 0.651762
O O9 0.112776 0.988846 0.394861
#
# Coordination Sequence:
#
# PCOD9352852 Si02
#       4
#     8   8   8   8
#     4  10  23  43  70 104 142 183 237 308 370 427
#     4  10  22  43  66  92 132 183 239 293 350 422
#     4  11  24  43  68  99 139 190 237 281 348 438
#     4   9  19  35  56  87 126 166 211 270 345 413
#
# _framework density 23.705909999999999
#
# number of rings (size 3 to 8) (size 9 to 14) (size 15 to 20)
#    0.000    2.000    0.000    3.000    0.000    9.000 
#    0.000   17.500    0.000    0.000    0.000    0.000 
#    0.000    0.000    0.000    0.000    0.000    0.000 
#
# Total GULP energy -89570.631206 kJ/mol
# GULP energy per Si atom -5598.164450 kJ/mol
# Density = 2.365195 g / cm^3
# Si number density = 23.705910 Si / 1000 Ang^3
#
#
#
# Elastic Constant Matrix: (Units=GPa)
#
#
# Indices 1 2 3 4 5 6 
#
# 1 138.0169 43.2998 22.0079 0.0000 0.0000 0.0000
# 2 43.2998 129.2436 35.3079 0.0000 0.0000 0.0000
# 3 22.0079 35.3079 118.9918 0.0000 0.0000 0.0000
# 4 0.0000 0.0000 0.0000 41.8649 0.0000 0.0000
# 5 0.0000 0.0000 0.0000 0.0000 20.8900 0.0000
# 6 0.0000 0.0000 0.0000 0.0000 0.0000 43.2254
#
#
#
# Elastic Compliance Matrix: (Units=1/GPa)
#
#
# Indices 1 2 3 4 5 6 
#
# 1 0.008159 -0.002526 -0.000760 0.000000 0.000000 0.000000
# 2 -0.002526 0.009202 -0.002263 0.000000 0.000000 0.000000
# 3 -0.000760 -0.002263 0.009216 0.000000 0.000000 0.000000
# 4 0.000000 0.000000 0.000000 0.023886 0.000000 0.000000
# 5 0.000000 0.000000 0.000000 0.000000 0.047870 0.000000
# 6 0.000000 0.000000 0.000000 0.000000 0.000000 0.023135
#
#
# Mechanical properties :
#
#
# Convention : Reuss Voigt Hill
#
# Bulk Modulus (GPa) = 64.60189 65.27595 64.93892
# Shear Modulus (GPa) = 36.30425 40.23852 38.27138
#
# Velocity S-wave (km/s) = 3.91761 4.12443 4.02235
# Velocity P-wave (km/s) = 6.91188 7.09061 7.00181
#
# Compressibility (1/GPa) = 0.01547942
#
# Stress axis : x y z
#
# Youngs Moduli (GPa) = 122.56284 108.67330 108.50725
#
# Poissons Ratio (x) = 0.27451 0.08241
# Poissons Ratio (y) = 0.30959 0.24558
# Poissons Ratio (z) = 0.09309 0.24595
#
# Static dielectric constant tensor:
#      x y z
#    x 1.956370 0.000000 0.000000 
#    y 0.000000 1.904480 0.000000 
#    z 0.000000 0.000000 1.892660 
# 
# From -- ./inp_files/1008.got.cif
#   From: 2010.05.17/outbox.cif.g08.bks.cpg/sg36_1_cif.got.tgz:1008.got - 2010.06.03 17:41:39.
