data_PCOD9352569
_publ_section_title
;
Structure prediction by ZEFSAII (Michael W. Deem and Ramdas Pophale) SiO2 
 PCOD9352569
Probable space group: C M C 21
;
_chemical_formula_sum "Si O2"
_cell_formula_units_Z 40
_cell_length_a 12.969775
_cell_length_b 13.112873
_cell_length_c 8.848962
_cell_angle_alpha 90.000000
_cell_angle_beta 90.000000
_cell_angle_gamma 90.000000
_cell_volume 1504.951926
_symmetry_space_group_name_H-M "C M C 21"
_symmetry_group_IT_number 36
_symmetry_cell_setting 'orthorhombic'
loop_
_space_group_symop_operation_xyz
x,y,z
-x,-y,1/2+z
x,-y,1/2+z
-x,y,z
1/2+x,1/2+y,z
1/2-x,1/2-y,1/2+z
1/2+x,1/2-y,1/2+z
1/2-x,1/2+y,z
loop_
_atom_site_type_symbol
_atom_site_label
_atom_site_fract_x
_atom_site_fract_y
_atom_site_fract_z
Si Si1 0.733650 0.000001 0.971530
Si Si2 0.875557 0.702050 0.891817
Si Si3 0.881764 0.968295 0.721532
Si Si4 0.624444 0.202044 0.551254
Si Si5 0.381497 0.284584 0.221537
O O1 0.662785 0.084851 0.896105
O O2 0.813535 0.941293 0.864039
O O3 0.813554 0.058701 0.079001
O O4 0.662788 0.915154 0.046973
O O5 0.846818 0.740017 0.721534
O O6 0.000000 0.707600 0.894451
O O7 0.842386 0.748797 0.055924
O O8 0.882093 0.092494 0.721536
O O9 0.000000 0.934325 0.721545
O O10 0.500000 0.207590 0.548620
O O11 0.657613 0.248793 0.387148
O O12 0.500000 0.248391 0.221535
#
# Coordination Sequence:
#
# PCOD9352569 Si02
#       5
#     8   8   8   8   8
#     4  12  22  42  62  96 128 164 216 262 320 380
#     4  10  21  40  67 101 132 160 203 265 334 396
#     4  11  25  44  63  87 127 177 224 267 308 366
#     4  10  21  40  67 101 132 160 203 265 334 396
#     4   9  21  42  64  91 131 171 209 263 321 378
#
# _framework density 26.578921000000001
#
# number of rings (size 3 to 8) (size 9 to 14) (size 15 to 20)
#    0.000    1.600    2.000    2.400    0.000    1.600 
#    3.600    0.000    0.000    0.000    0.000    0.000 
#    0.000    0.000    0.000    0.000    0.000    0.000 
#
# Total GULP energy -111896.061170 kJ/mol
# GULP energy per Si atom -5594.803059 kJ/mol
# Density = 2.651843 g / cm^3
# Si number density = 26.578921 Si / 1000 Ang^3
#
#
#
# Elastic Constant Matrix: (Units=GPa)
#
#
# Indices 1 2 3 4 5 6 
#
# 1 100.9549 35.2508 111.4154 0.0000 0.0000 0.0000
# 2 35.2508 107.4303 72.3037 0.0000 0.0000 0.0000
# 3 111.4154 72.3037 280.8433 0.0000 0.0000 0.0000
# 4 0.0000 0.0000 0.0000 55.9699 0.0000 0.0000
# 5 0.0000 0.0000 0.0000 0.0000 57.3763 0.0000
# 6 0.0000 0.0000 0.0000 0.0000 0.0000 29.1488
#
#
#
# Elastic Compliance Matrix: (Units=1/GPa)
#
#
# Indices 1 2 3 4 5 6 
#
# 1 0.017772 -0.001314 -0.006712 0.000000 0.000000 0.000000
# 2 -0.001314 0.011356 -0.002402 0.000000 0.000000 0.000000
# 3 -0.006712 -0.002402 0.006842 0.000000 0.000000 0.000000
# 4 0.000000 0.000000 0.000000 0.017867 0.000000 0.000000
# 5 0.000000 0.000000 0.000000 0.000000 0.017429 0.000000
# 6 0.000000 0.000000 0.000000 0.000000 0.000000 0.034307
#
#
# Mechanical properties :
#
#
# Convention : Reuss Voigt Hill
#
# Bulk Modulus (GPa) = 66.16733 103.01868 84.59301
# Shear Modulus (GPa) = 38.03226 46.51623 42.27425
#
# Velocity S-wave (km/s) = 3.78685 4.18798 3.99246
# Velocity P-wave (km/s) = 6.63845 7.88855 7.29035
#
# Compressibility (1/GPa) = 0.01511320
#
# Stress axis : x y z
#
# Youngs Moduli (GPa) = 56.26903 88.05576 146.15566
#
# Poissons Ratio (x) = 0.11570 0.98101
# Poissons Ratio (y) = 0.07394 0.35113
# Poissons Ratio (z) = 0.37768 0.21155
#
# Static dielectric constant tensor:
#      x y z
#    x 2.045410 0.000000 0.000000 
#    y 0.000000 2.021290 0.000000 
#    z 0.000000 0.000000 2.179050 
# 
# From -- ./inp_files/3819.got.cif
#   From: 2010.05.17/outbox.cif.g08.bks.cpg/sg36_2_cif.got.tgz:3819.got - 2010.06.03 17:41:39.
