data_PCOD9352020
_publ_section_title
;
Structure prediction by ZEFSAII (Michael W. Deem and Ramdas Pophale) SiO2 
 PCOD9352020
Probable space group: C M C 21
;
_chemical_formula_sum "Si O2"
_cell_formula_units_Z 56
_cell_length_a 35.497185
_cell_length_b 5.008826
_cell_length_c 14.704415
_cell_angle_alpha 90.000000
_cell_angle_beta 90.000000
_cell_angle_gamma 90.000000
_cell_volume 2614.433564
_symmetry_space_group_name_H-M "C M C 21"
_symmetry_group_IT_number 36
_symmetry_cell_setting 'orthorhombic'
loop_
_space_group_symop_operation_xyz
x,y,z
-x,-y,1/2+z
x,-y,1/2+z
-x,y,z
1/2+x,1/2+y,z
1/2-x,1/2-y,1/2+z
1/2+x,1/2-y,1/2+z
1/2-x,1/2+y,z
loop_
_atom_site_type_symbol
_atom_site_label
_atom_site_fract_x
_atom_site_fract_y
_atom_site_fract_z
Si Si1 0.000000 0.545919 0.736011
Si Si2 0.920085 0.075808 0.112892
Si Si3 0.920200 0.420046 0.737181
Si Si4 0.146312 0.153961 0.490536
Si Si5 0.146523 0.650619 0.374603
Si Si6 0.273217 0.238805 0.074811
Si Si7 0.227115 0.279531 0.794422
Si Si8 0.000000 0.957669 0.109135
O O1 0.039737 0.490774 0.783602
O O2 0.000000 0.342926 0.648397
O O3 0.000000 0.842746 0.696140
O O4 0.922717 0.878143 0.199031
O O5 0.884782 0.968265 0.057210
O O6 0.960243 0.028560 0.062286
O O7 0.916455 0.372926 0.152844
O O8 0.884400 0.430722 0.801191
O O9 0.139556 0.457239 0.459981
O O10 0.187727 0.158489 0.534483
O O11 0.144371 0.958750 0.403885
O O12 0.188474 0.617204 0.336216
O O13 0.240003 0.443421 0.047959
O O14 0.276682 0.229036 0.184649
O O15 0.260309 0.483188 0.820959
#
# Coordination Sequence:
#
# PCOD9352020 Si02
#       8
#     4   8   8   8   8   8   8   4
#     4   8  16  32  58  86 106 140 194 240 274 322
#     4  10  20  38  62  84 112 151 195 236 278 335
#     4  10  20  38  62  84 112 151 195 236 278 335
#     4  12  25  38  56  87 122 152 186 232 293 349
#     4  12  25  38  56  87 122 152 186 232 293 349
#     4  10  22  40  61  82 107 146 195 238 279 333
#     4  10  22  40  61  82 107 146 195 238 279 333
#     4   8  16  32  58  86 106 140 194 240 274 322
#
# _framework density 21.419553000000001
#
# number of rings (size 3 to 8) (size 9 to 14) (size 15 to 20)
#    0.000    1.714    0.000    4.286    0.000    6.857 
#    0.000    1.429    0.000    0.000    0.000    0.000 
#    0.000    0.000    0.000    0.000    0.000    0.000 
#
# Total GULP energy -156386.859436 kJ/mol
# GULP energy per Si atom -5585.244980 kJ/mol
# Density = 2.137080 g / cm^3
# Si number density = 21.419553 Si / 1000 Ang^3
#
#
#
# Elastic Constant Matrix: (Units=GPa)
#
#
# Indices 1 2 3 4 5 6 
#
# 1 146.7187 5.8430 33.0127 0.0000 0.0000 0.0000
# 2 5.8430 96.6260 4.7624 0.0000 0.0000 0.0000
# 3 33.0127 4.7624 29.0831 0.0000 0.0000 0.0000
# 4 0.0000 0.0000 0.0000 24.5344 0.0000 0.0000
# 5 0.0000 0.0000 0.0000 0.0000 -31.4605 0.0000
# 6 0.0000 0.0000 0.0000 0.0000 0.0000 35.1736
#
#
#
# Elastic Compliance Matrix: (Units=1/GPa)
#
#
# Indices 1 2 3 4 5 6 
#
# 1 0.009154 -0.000042 -0.010384 0.000000 0.000000 0.000000
# 2 -0.000042 0.010434 -0.001661 0.000000 0.000000 0.000000
# 3 -0.010384 -0.001661 0.046443 0.000000 0.000000 0.000000
# 4 0.000000 0.000000 0.000000 0.040759 0.000000 0.000000
# 5 0.000000 0.000000 0.000000 0.000000 -0.031786 0.000000
# 6 0.000000 0.000000 0.000000 0.000000 0.000000 0.028430
#
#
# Mechanical properties :
#
#
# Convention : Reuss Voigt Hill
#
# Bulk Modulus (GPa) = 23.89083 39.96269 31.92676
# Shear Modulus (GPa) = 35.32067 20.90348 28.11207
#
# Velocity S-wave (km/s) = 4.06518 3.12734 3.62670
# Velocity P-wave (km/s) = 5.76301 5.63364 5.69869
#
# Compressibility (1/GPa) = 0.04185706
#
# Stress axis : x y z
#
# Youngs Moduli (GPa) = 109.24337 95.84443 21.53170
#
# Poissons Ratio (x) = 0.00400 0.22358
# Poissons Ratio (y) = 0.00456 0.03577
# Poissons Ratio (z) = 1.13437 0.15921
#
# Static dielectric constant tensor:
#      x y z
#    x 1.813900 0.000000 0.000000 
#    y 0.000000 1.742050 0.000000 
#    z 0.000000 0.000000 1.770160 
# 
# From -- ./inp_files/13183.got.cif
#   From: 2010.05.17/outbox.cif.g08.bks.cpg/sg36_7_cif.got.tgz:13183.got - 2010.06.03 17:41:39.
