data_PCOD9352580
_publ_section_title
;
Structure prediction by ZEFSAII (Michael W. Deem and Ramdas Pophale) SiO2 
 PCOD9352580
Probable space group: C M C 21
;
_chemical_formula_sum "Si O2"
_cell_formula_units_Z 56
_cell_length_a 29.651688
_cell_length_b 5.691375
_cell_length_c 13.655655
_cell_angle_alpha 90.000000
_cell_angle_beta 90.000000
_cell_angle_gamma 90.000000
_cell_volume 2304.512986
_symmetry_space_group_name_H-M "C M C 21"
_symmetry_group_IT_number 36
_symmetry_cell_setting 'orthorhombic'
loop_
_space_group_symop_operation_xyz
x,y,z
-x,-y,1/2+z
x,-y,1/2+z
-x,y,z
1/2+x,1/2+y,z
1/2-x,1/2-y,1/2+z
1/2+x,1/2-y,1/2+z
1/2-x,1/2+y,z
loop_
_atom_site_type_symbol
_atom_site_label
_atom_site_fract_x
_atom_site_fract_y
_atom_site_fract_z
Si Si1 0.633021 0.419089 0.158940
Si Si2 0.910814 0.375746 0.814178
Si Si3 0.635130 0.766274 0.457745
Si Si4 0.765168 0.670158 0.900531
Si Si5 0.449783 0.258316 0.688930
Si Si6 0.546879 0.491301 0.903876
Si Si7 0.264762 0.561646 0.675208
O O1 0.622272 0.309159 0.264035
O O2 0.591968 0.602777 0.140787
O O3 0.683220 0.520137 0.165984
O O4 0.636041 0.220514 0.074888
O O5 0.882431 0.529112 0.888390
O O6 0.933582 0.501341 0.720861
O O7 0.949731 0.264780 0.880250
O O8 0.685004 0.722933 0.417603
O O9 0.594950 0.578426 0.445480
O O10 0.764107 0.396418 0.938471
O O11 0.751629 0.616752 0.786885
O O12 0.500000 0.262041 0.643438
O O13 0.454321 0.375782 0.796270
O O14 0.500000 0.424879 0.955076
O O15 0.238839 0.330770 0.633953
#
# Coordination Sequence:
#
# PCOD9352580 Si02
#       7
#     8   8   8   8   8   8   8
#     4  11  25  41  65 102 140 182 236 297 361 430
#     4  10  21  40  70  94 140 184 236 290 349 430
#     4  11  25  41  65 102 140 182 236 297 361 430
#     4  10  23  41  68  96 133 182 237 297 365 432
#     4   9  20  39  65  95 131 177 228 286 351 422
#     4   9  20  39  65  95 131 177 228 286 351 422
#     4  10  23  41  68  96 133 182 237 297 365 432
#
# _framework density 24.300146999999999
#
# number of rings (size 3 to 8) (size 9 to 14) (size 15 to 20)
#    0.000    2.000    0.000    2.143   16.000    4.000 
#    0.000    0.000    0.000    0.000    0.000    0.000 
#    0.000    0.000    0.000    0.000    0.000    0.000 
#
# Total GULP energy -155869.966834 kJ/mol
# GULP energy per Si atom -5566.784530 kJ/mol
# Density = 2.424484 g / cm^3
# Si number density = 24.300147 Si / 1000 Ang^3
#
#
#
# Elastic Constant Matrix: (Units=GPa)
#
#
# Indices 1 2 3 4 5 6 
#
# 1 193.8989 29.3171 18.3660 0.0000 0.0000 0.0000
# 2 29.3171 87.3592 0.2697 0.0000 0.0000 0.0000
# 3 18.3660 0.2697 52.9865 0.0000 0.0000 0.0000
# 4 0.0000 0.0000 0.0000 20.6104 0.0000 0.0000
# 5 0.0000 0.0000 0.0000 0.0000 -53.4401 0.0000
# 6 0.0000 0.0000 0.0000 0.0000 0.0000 6.3433
#
#
#
# Elastic Compliance Matrix: (Units=1/GPa)
#
#
# Indices 1 2 3 4 5 6 
#
# 1 0.005626 -0.001882 -0.001940 0.000000 0.000000 0.000000
# 2 -0.001882 0.012077 0.000591 0.000000 0.000000 0.000000
# 3 -0.001940 0.000591 0.019542 0.000000 0.000000 0.000000
# 4 0.000000 0.000000 0.000000 0.048519 0.000000 0.000000
# 5 0.000000 0.000000 0.000000 0.000000 -0.018713 0.000000
# 6 0.000000 0.000000 0.000000 0.000000 0.000000 0.157647
#
#
# Mechanical properties :
#
#
# Convention : Reuss Voigt Hill
#
# Bulk Modulus (GPa) = 32.48680 47.79447 40.14064
# Shear Modulus (GPa) = 20.71062 13.78883 17.24972
#
# Velocity S-wave (km/s) = 2.92256 2.38468 2.66721
# Velocity P-wave (km/s) = 4.97860 5.22430 5.10293
#
# Compressibility (1/GPa) = 0.03078173
#
# Stress axis : x y z
#
# Youngs Moduli (GPa) = 177.75686 82.80391 51.17106
#
# Poissons Ratio (x) = 0.15583 0.09929
# Poissons Ratio (y) = 0.33453 -0.03023
# Poissons Ratio (z) = 0.34491 -0.04892
#
# Static dielectric constant tensor:
#      x y z
#    x 1.966110 0.000000 0.000000 
#    y 0.000000 2.132940 0.000000 
#    z 0.000000 0.000000 1.971990 
# 
# From -- ./inp_files/13173.got.cif
#   From: 2010.05.17/outbox.cif.g08.bks.cpg/sg36_7_cif.got.tgz:13173.got - 2010.06.03 17:41:39.
