data_PCOD9352328
_publ_section_title
;
Structure prediction by ZEFSAII (Michael W. Deem and Ramdas Pophale) SiO2 
 PCOD9352328
Probable space group: C M C 21
;
_chemical_formula_sum "Si O2"
_cell_formula_units_Z 48
_cell_length_a 20.537659
_cell_length_b 13.963877
_cell_length_c 7.372598
_cell_angle_alpha 90.000000
_cell_angle_beta 90.000000
_cell_angle_gamma 90.000000
_cell_volume 2114.353055
_symmetry_space_group_name_H-M "C M C 21"
_symmetry_group_IT_number 36
_symmetry_cell_setting 'orthorhombic'
loop_
_space_group_symop_operation_xyz
x,y,z
-x,-y,1/2+z
x,-y,1/2+z
-x,y,z
1/2+x,1/2+y,z
1/2-x,1/2-y,1/2+z
1/2+x,1/2-y,1/2+z
1/2-x,1/2+y,z
loop_
_atom_site_type_symbol
_atom_site_label
_atom_site_fract_x
_atom_site_fract_y
_atom_site_fract_z
Si Si1 0.243076 0.451572 0.898880
Si Si2 0.808117 0.348846 0.449031
Si Si3 0.849937 0.947250 0.147491
Si Si4 0.925790 0.215545 0.537949
Si Si5 0.074567 0.141799 0.121271
Si Si6 0.314802 0.218078 0.534046
O O1 0.201807 0.538191 0.986864
O O2 0.293100 0.510060 0.772786
O O3 0.301168 0.396984 0.005763
O O4 0.194508 0.362602 0.878988
O O5 0.873626 0.300681 0.524154
O O6 0.742121 0.296899 0.515852
O O7 0.810505 0.332688 0.230779
O O8 0.890051 0.040386 0.085965
O O9 0.901666 0.864510 0.181872
O O10 0.925150 0.162306 0.339685
O O11 0.000000 0.245679 0.571925
O O12 0.117598 0.225856 0.036242
O O13 0.000000 0.139276 0.062750
#
# Coordination Sequence:
#
# PCOD9352328 Si02
#       6
#     8   8   8   8   8   8
#     4  12  22  35  59  90 117 154 201 253 306 361
#     4  11  21  37  59  86 119 156 204 257 303 369
#     4  12  20  38  59  89 122 152 201 256 311 370
#     4  10  21  38  60  87 120 161 203 250 315 375
#     4  10  21  37  59  87 122 160 199 253 314 374
#     4  11  22  37  60  87 117 157 206 253 308 369
#
# _framework density 22.701979000000001
#
# number of rings (size 3 to 8) (size 9 to 14) (size 15 to 20)
#    0.000    1.000    6.667    1.500    0.000    0.000 
#    0.000    0.833    0.000    0.000    0.000    0.000 
#    0.000    0.000    0.000    0.000    0.000    0.000 
#
# Total GULP energy -133885.887251 kJ/mol
# GULP energy per Si atom -5578.578635 kJ/mol
# Density = 2.265031 g / cm^3
# Si number density = 22.701979 Si / 1000 Ang^3
#
#
#
# Elastic Constant Matrix: (Units=GPa)
#
#
# Indices 1 2 3 4 5 6 
#
# 1 197.2062 92.1729 34.5112 0.0000 0.0000 0.0000
# 2 92.1729 147.7883 17.3517 0.0000 0.0000 0.0000
# 3 34.5112 17.3517 45.0129 0.0000 0.0000 0.0000
# 4 0.0000 0.0000 0.0000 27.4567 0.0000 0.0000
# 5 0.0000 0.0000 0.0000 0.0000 30.4588 0.0000
# 6 0.0000 0.0000 0.0000 0.0000 0.0000 37.3931
#
#
#
# Elastic Compliance Matrix: (Units=1/GPa)
#
#
# Indices 1 2 3 4 5 6 
#
# 1 0.007895 -0.004413 -0.004352 0.000000 0.000000 0.000000
# 2 -0.004413 0.009554 -0.000299 0.000000 0.000000 0.000000
# 3 -0.004352 -0.000299 0.025668 0.000000 0.000000 0.000000
# 4 0.000000 0.000000 0.000000 0.036421 0.000000 0.000000
# 5 0.000000 0.000000 0.000000 0.000000 0.032831 0.000000
# 6 0.000000 0.000000 0.000000 0.000000 0.000000 0.026743
#
#
# Mechanical properties :
#
#
# Convention : Reuss Voigt Hill
#
# Bulk Modulus (GPa) = 40.01913 75.34211 57.68062
# Shear Modulus (GPa) = 30.19868 35.45983 32.82925
#
# Velocity S-wave (km/s) = 3.65118 3.95647 3.80688
# Velocity P-wave (km/s) = 5.95324 7.35738 6.69224
#
# Compressibility (1/GPa) = 0.02498805
#
# Stress axis : x y z
#
# Youngs Moduli (GPa) = 126.66154 104.66906 38.95918
#
# Poissons Ratio (x) = 0.46191 0.16955
# Poissons Ratio (y) = 0.55896 0.01167
# Poissons Ratio (z) = 0.55123 0.03134
#
# Static dielectric constant tensor:
#      x y z
#    x 1.778960 0.000000 0.000000 
#    y 0.000000 1.861680 0.000000 
#    z 0.000000 0.000000 2.236080 
# 
# From -- ./inp_files/4651.got.cif
#   From: 2010.05.17/outbox.cif.g08.bks.cpg/sg36_3_cif.got.tgz:4651.got - 2010.06.03 17:41:39.
