data_PCOD9352771
_publ_section_title
;
Structure prediction by ZEFSAII (Michael W. Deem and Ramdas Pophale) SiO2 
 PCOD9352771
Probable space group: C M C 21
;
_chemical_formula_sum "Si O2"
_cell_formula_units_Z 64
_cell_length_a 22.843297
_cell_length_b 11.935488
_cell_length_c 12.027436
_cell_angle_alpha 90.000000
_cell_angle_beta 90.000000
_cell_angle_gamma 90.000000
_cell_volume 3279.231080
_symmetry_space_group_name_H-M "C M C 21"
_symmetry_group_IT_number 36
_symmetry_cell_setting 'orthorhombic'
loop_
_space_group_symop_operation_xyz
x,y,z
-x,-y,1/2+z
x,-y,1/2+z
-x,y,z
1/2+x,1/2+y,z
1/2-x,1/2-y,1/2+z
1/2+x,1/2-y,1/2+z
1/2-x,1/2+y,z
loop_
_atom_site_type_symbol
_atom_site_label
_atom_site_fract_x
_atom_site_fract_y
_atom_site_fract_z
Si Si1 0.653507 0.701111 0.835890
Si Si2 0.664719 0.040129 0.873539
Si Si3 0.933614 0.486340 0.192593
Si Si4 0.706389 0.536441 0.321038
Si Si5 0.432682 0.240321 0.142707
Si Si6 0.742119 0.275716 0.675959
Si Si7 0.853220 0.352497 0.051212
Si Si8 0.831275 0.230073 0.482679
O O1 0.662915 0.567982 0.830107
O O2 0.598443 0.734233 0.759993
O O3 0.712627 0.750095 0.776754
O O4 0.646654 0.755515 0.957467
O O5 0.613238 0.003064 0.791355
O O6 0.657521 0.170993 0.896299
O O7 0.728616 0.013127 0.827601
O O8 0.661653 0.966138 0.985252
O O9 0.931358 0.605290 0.128583
O O10 0.912542 0.384084 0.115334
O O11 0.000000 0.471371 0.232583
O O12 0.707100 0.612632 0.210032
O O13 0.693540 0.621636 0.421724
O O14 0.500000 0.276423 0.138803
O O15 0.390393 0.293332 0.050506
O O16 0.695463 0.181471 0.641536
O O17 0.784276 0.281002 0.569193
#
# Coordination Sequence:
#
# PCOD9352771 Si02
#       8
#     8   8   8   8   8   8   8   8
#     4  11  24  40  61  92 128 169 213 263 326 398
#     4  12  22  39  61  94 133 161 207 270 332 390
#     4  11  24  40  64  94 128 166 212 270 331 390
#     4  12  23  39  61  91 132 173 207 260 328 402
#     4  10  22  41  62  86 117 161 214 267 317 383
#     4  11  22  38  59  95 129 165 208 261 320 392
#     4  12  22  39  63  95 129 168 210 269 336 390
#     4  11  23  38  61  93 122 165 211 260 326 389
#
# _framework density 19.516770000000001
#
# number of rings (size 3 to 8) (size 9 to 14) (size 15 to 20)
#    0.000    0.750    5.000    3.750    1.750    3.500 
#    0.000    0.625    0.000    3.750    0.000    0.000 
#    0.000    0.000    0.000    0.000    0.000    0.000 
#
# Total GULP energy -178788.849774 kJ/mol
# GULP energy per Si atom -5587.151555 kJ/mol
# Density = 1.947235 g / cm^3
# Si number density = 19.516770 Si / 1000 Ang^3
#
#
#
# Elastic Constant Matrix: (Units=GPa)
#
#
# Indices 1 2 3 4 5 6 
#
# 1 131.5593 29.2294 44.7041 0.0000 0.0000 0.0000
# 2 29.2294 88.5425 32.3936 0.0000 0.0000 0.0000
# 3 44.7041 32.3936 73.8261 0.0000 0.0000 0.0000
# 4 0.0000 0.0000 0.0000 32.8147 0.0000 0.0000
# 5 0.0000 0.0000 0.0000 0.0000 16.6829 0.0000
# 6 0.0000 0.0000 0.0000 0.0000 0.0000 24.5041
#
#
#
# Elastic Compliance Matrix: (Units=1/GPa)
#
#
# Indices 1 2 3 4 5 6 
#
# 1 0.009686 -0.001253 -0.005315 0.000000 0.000000 0.000000
# 2 -0.001253 0.013616 -0.005216 0.000000 0.000000 0.000000
# 3 -0.005315 -0.005216 0.019052 0.000000 0.000000 0.000000
# 4 0.000000 0.000000 0.000000 0.030474 0.000000 0.000000
# 5 0.000000 0.000000 0.000000 0.000000 0.059941 0.000000
# 6 0.000000 0.000000 0.000000 0.000000 0.000000 0.040810
#
#
# Mechanical properties :
#
#
# Convention : Reuss Voigt Hill
#
# Bulk Modulus (GPa) = 53.23032 56.28688 54.75860
# Shear Modulus (GPa) = 24.58106 27.30707 25.94406
#
# Velocity S-wave (km/s) = 3.55277 3.74459 3.64994
# Velocity P-wave (km/s) = 6.64552 6.89919 6.77354
#
# Compressibility (1/GPa) = 0.01878629
#
# Stress axis : x y z
#
# Youngs Moduli (GPa) = 103.24605 73.44417 52.48667
#
# Poissons Ratio (x) = 0.09201 0.27898
# Poissons Ratio (y) = 0.12935 0.27376
# Poissons Ratio (z) = 0.54878 0.38307
#
# Static dielectric constant tensor:
#      x y z
#    x 1.659540 0.000000 0.000000 
#    y 0.000000 1.700650 0.000000 
#    z 0.000000 0.000000 1.727660 
# 
# From -- ./inp_files/9510.got.cif
#   From: 2010.05.17/outbox.cif.g08.bks.cpg/sg36_5_cif.got.tgz:9510.got - 2010.06.03 17:41:39.
