data_PCOD9352726
_publ_section_title
;
Structure prediction by ZEFSAII (Michael W. Deem and Ramdas Pophale) SiO2 
 PCOD9352726
Probable space group: C M C 21
;
_chemical_formula_sum "Si O2"
_cell_formula_units_Z 48
_cell_length_a 9.536211
_cell_length_b 20.854913
_cell_length_c 11.563645
_cell_angle_alpha 90.000000
_cell_angle_beta 90.000000
_cell_angle_gamma 90.000000
_cell_volume 2299.741301
_symmetry_space_group_name_H-M "C M C 21"
_symmetry_group_IT_number 36
_symmetry_cell_setting 'orthorhombic'
loop_
_space_group_symop_operation_xyz
x,y,z
-x,-y,1/2+z
x,-y,1/2+z
-x,y,z
1/2+x,1/2+y,z
1/2-x,1/2-y,1/2+z
1/2+x,1/2-y,1/2+z
1/2-x,1/2+y,z
loop_
_atom_site_type_symbol
_atom_site_label
_atom_site_fract_x
_atom_site_fract_y
_atom_site_fract_z
Si Si1 0.653405 0.548060 0.985600
Si Si2 0.336581 0.262948 0.941075
Si Si3 0.659875 0.583159 0.724357
Si Si4 0.844109 0.091850 0.381491
Si Si5 0.336072 0.044499 0.183674
Si Si6 0.829747 0.229470 0.701843
O O1 0.500000 0.558256 0.039680
O O2 0.654596 0.582350 0.863222
O O3 0.669869 0.472125 0.957985
O O4 0.778914 0.571367 0.063889
O O5 0.500000 0.242450 0.924367
O O6 0.338111 0.340749 0.944228
O O7 0.247330 0.248468 0.823260
O O8 0.292325 0.241827 0.072929
O O9 0.500000 0.570869 0.683485
O O10 0.761811 0.524869 0.694487
O O11 0.702725 0.653815 0.689599
O O12 0.725086 0.087332 0.285836
O O13 0.000000 0.086200 0.327561
O O14 0.500000 0.038822 0.188988
O O15 0.000000 0.236843 0.714755
#
# Coordination Sequence:
#
# PCOD9352726 Si02
#       6
#     8   8   8   8   8   8
#     4   9  17  32  55  79 105 144 191 231 272 333
#     4  10  22  40  62  87 115 151 196 244 292 343
#     4   9  19  37  58  77 104 148 195 232 272 333
#     4   9  19  37  58  77 104 147 194 232 271 333
#     4  11  21  31  50  83 118 145 175 228 291 342
#     4  10  22  41  63  87 116 151 195 245 292 342
#
# _framework density 20.871911999999998
#
# number of rings (size 3 to 8) (size 9 to 14) (size 15 to 20)
#    0.000    2.333    0.000    3.500    0.000    8.667 
#    0.000    6.667    0.000    0.000    0.000    0.000 
#    0.000    0.000    0.000    0.000    0.000    0.000 
#
# Total GULP energy -133752.567825 kJ/mol
# GULP energy per Si atom -5573.023659 kJ/mol
# Density = 2.082441 g / cm^3
# Si number density = 20.871912 Si / 1000 Ang^3
#
#
#
# Elastic Constant Matrix: (Units=GPa)
#
#
# Indices 1 2 3 4 5 6 
#
# 1 70.9623 0.9346 43.9640 0.0000 0.0000 0.0000
# 2 0.9346 38.9417 16.4730 0.0000 0.0000 0.0000
# 3 43.9640 16.4730 147.0644 0.0000 0.0000 0.0000
# 4 0.0000 0.0000 0.0000 -7.2806 0.0000 0.0000
# 5 0.0000 0.0000 0.0000 0.0000 10.9885 0.0000
# 6 0.0000 0.0000 0.0000 0.0000 0.0000 5.6619
#
#
#
# Elastic Compliance Matrix: (Units=1/GPa)
#
#
# Indices 1 2 3 4 5 6 
#
# 1 0.017425 0.001874 -0.005419 0.000000 0.000000 0.000000
# 2 0.001874 0.027158 -0.003602 0.000000 0.000000 0.000000
# 3 -0.005419 -0.003602 0.008823 0.000000 0.000000 0.000000
# 4 0.000000 0.000000 0.000000 -0.137351 0.000000 0.000000
# 5 0.000000 0.000000 0.000000 0.000000 0.091004 0.000000
# 6 0.000000 0.000000 0.000000 0.000000 0.000000 0.176619
#
#
# Mechanical properties :
#
#
# Convention : Reuss Voigt Hill
#
# Bulk Modulus (GPa) = 25.56770 42.19015 33.87892
# Shear Modulus (GPa) = 23.69567 14.91375 19.30471
#
# Velocity S-wave (km/s) = 3.37306 2.67598 3.04454
# Velocity P-wave (km/s) = 5.23894 5.45945 5.35033
#
# Compressibility (1/GPa) = 0.03911185
#
# Stress axis : x y z
#
# Youngs Moduli (GPa) = 57.39037 36.82116 113.33782
#
# Poissons Ratio (x) = -0.06901 0.61416
# Poissons Ratio (y) = -0.10756 0.40828
# Poissons Ratio (z) = 0.31099 0.13264
#
# Static dielectric constant tensor:
#      x y z
#    x 1.719830 0.000000 0.000000 
#    y 0.000000 1.750870 0.000000 
#    z 0.000000 0.000000 1.861220 
# 
# From -- ./inp_files/6709.got.cif
#   From: 2010.05.17/outbox.cif.g08.bks.cpg/sg36_4_cif.got.tgz:6709.got - 2010.06.03 17:41:39.
