data_PCOD9352298
_publ_section_title
;
Structure prediction by ZEFSAII (Michael W. Deem and Ramdas Pophale) SiO2 
 PCOD9352298
Probable space group: C M C 21
;
_chemical_formula_sum "Si O2"
_cell_formula_units_Z 64
_cell_length_a 30.167490
_cell_length_b 13.823116
_cell_length_c 8.824453
_cell_angle_alpha 90.000000
_cell_angle_beta 90.000000
_cell_angle_gamma 90.000000
_cell_volume 3679.873795
_symmetry_space_group_name_H-M "C M C 21"
_symmetry_group_IT_number 36
_symmetry_cell_setting 'orthorhombic'
loop_
_space_group_symop_operation_xyz
x,y,z
-x,-y,1/2+z
x,-y,1/2+z
-x,y,z
1/2+x,1/2+y,z
1/2-x,1/2-y,1/2+z
1/2+x,1/2-y,1/2+z
1/2-x,1/2+y,z
loop_
_atom_site_type_symbol
_atom_site_label
_atom_site_fract_x
_atom_site_fract_y
_atom_site_fract_z
Si Si1 0.134447 0.117525 0.434930
Si Si2 0.049778 0.137532 0.889036
Si Si3 0.193211 0.609120 0.187882
Si Si4 0.217106 0.415402 0.338419
Si Si5 0.551269 0.563660 0.230444
Si Si6 0.315206 0.419183 0.438732
Si Si7 0.712644 0.700872 0.234067
Si Si8 0.372179 0.275910 0.241474
O O1 0.092326 0.107543 0.323649
O O2 0.176990 0.168551 0.358754
O O3 0.119386 0.181959 0.575317
O O4 0.153855 0.010967 0.477639
O O5 0.084728 0.218400 0.845602
O O6 0.000000 0.174888 0.885683
O O7 0.053834 0.050428 0.767492
O O8 0.057066 0.090012 0.054237
O O9 0.192481 0.501677 0.254012
O O10 0.237550 0.660955 0.253234
O O11 0.151612 0.673637 0.232978
O O12 0.198234 0.605639 0.005894
O O13 0.267911 0.448794 0.368377
O O14 0.215900 0.316934 0.241006
O O15 0.500000 0.591918 0.273128
O O16 0.304835 0.350296 0.581189
O O17 0.339380 0.354201 0.315582
#
# Coordination Sequence:
#
# PCOD9352298 Si02
#       8
#     8   8   8   8   8   8   8   8
#     4  12  22  37  56  88 119 156 200 235 290 347
#     4  10  21  37  57  84 118 154 191 236 293 356
#     4  11  25  39  59  83 113 157 200 249 292 339
#     4  11  24  41  58  79 115 159 202 248 290 335
#     4  10  21  37  57  84 119 158 192 232 291 359
#     4  11  23  34  58  82 116 162 194 242 284 342
#     4  11  23  39  56  82 119 157 202 240 289 346
#     4  12  23  36  56  88 117 151 202 236 291 352
#
# _framework density 17.391901000000001
#
# number of rings (size 3 to 8) (size 9 to 14) (size 15 to 20)
#    0.000    1.000    5.000    2.250    3.500    1.500 
#    0.000    0.000    0.000    0.000    0.000    1.750 
#    0.000    0.000    0.000    0.000    0.000    0.000 
#
# Total GULP energy -178723.957634 kJ/mol
# GULP energy per Si atom -5585.123676 kJ/mol
# Density = 1.735232 g / cm^3
# Si number density = 17.391901 Si / 1000 Ang^3
#
#
#
# Elastic Constant Matrix: (Units=GPa)
#
#
# Indices 1 2 3 4 5 6 
#
# 1 106.1398 46.2678 43.8620 0.0000 0.0000 0.0000
# 2 46.2678 116.5517 29.7677 0.0000 0.0000 0.0000
# 3 43.8620 29.7677 56.3335 0.0000 0.0000 0.0000
# 4 0.0000 0.0000 0.0000 8.9431 0.0000 0.0000
# 5 0.0000 0.0000 0.0000 0.0000 26.4709 0.0000
# 6 0.0000 0.0000 0.0000 0.0000 0.0000 27.4686
#
#
#
# Elastic Compliance Matrix: (Units=1/GPa)
#
#
# Indices 1 2 3 4 5 6 
#
# 1 0.014992 -0.003434 -0.009859 0.000000 0.000000 0.000000
# 2 -0.003434 0.010705 -0.002983 0.000000 0.000000 0.000000
# 3 -0.009859 -0.002983 0.027004 0.000000 0.000000 0.000000
# 4 0.000000 0.000000 0.000000 0.111818 0.000000 0.000000
# 5 0.000000 0.000000 0.000000 0.000000 0.037777 0.000000
# 6 0.000000 0.000000 0.000000 0.000000 0.000000 0.036405
#
#
# Mechanical properties :
#
#
# Convention : Reuss Voigt Hill
#
# Bulk Modulus (GPa) = 49.62796 57.64666 53.63731
# Shear Modulus (GPa) = 17.98757 23.18503 20.58630
#
# Velocity S-wave (km/s) = 3.21946 3.65512 3.44419
# Velocity P-wave (km/s) = 6.51283 7.14359 6.83549
#
# Compressibility (1/GPa) = 0.02014993
#
# Stress axis : x y z
#
# Youngs Moduli (GPa) = 66.70024 93.41568 37.03141
#
# Poissons Ratio (x) = 0.32075 0.36509
# Poissons Ratio (y) = 0.22902 0.11047
# Poissons Ratio (z) = 0.65759 0.27868
#
# Static dielectric constant tensor:
#      x y z
#    x 1.613160 0.000000 0.000000 
#    y 0.000000 1.572740 0.000000 
#    z 0.000000 0.000000 1.625180 
# 
# From -- ./inp_files/6081.got.cif
#   From: 2010.05.17/outbox.cif.g08.bks.cpg/sg36_4_cif.got.tgz:6081.got - 2010.06.03 17:41:39.
