data_PCOD9352638
_publ_section_title
;
Structure prediction by ZEFSAII (Michael W. Deem and Ramdas Pophale) SiO2 
 PCOD9352638
Probable space group: C M C 21
;
_chemical_formula_sum "Si O2"
_cell_formula_units_Z 40
_cell_length_a 27.495616
_cell_length_b 5.261621
_cell_length_c 10.085303
_cell_angle_alpha 90.000000
_cell_angle_beta 90.000000
_cell_angle_gamma 90.000000
_cell_volume 1459.056019
_symmetry_space_group_name_H-M "C M C 21"
_symmetry_group_IT_number 36
_symmetry_cell_setting 'orthorhombic'
loop_
_space_group_symop_operation_xyz
x,y,z
-x,-y,1/2+z
x,-y,1/2+z
-x,y,z
1/2+x,1/2+y,z
1/2-x,1/2-y,1/2+z
1/2+x,1/2-y,1/2+z
1/2-x,1/2+y,z
loop_
_atom_site_type_symbol
_atom_site_label
_atom_site_fract_x
_atom_site_fract_y
_atom_site_fract_z
Si Si1 0.105919 0.990712 0.950790
Si Si2 0.000000 0.908777 0.069361
Si Si3 0.821017 0.769951 0.647164
Si Si4 0.234991 0.103881 0.808785
Si Si5 0.099411 0.485878 0.783725
Si Si6 0.500000 0.203448 0.782942
O O1 0.098289 0.208199 0.841622
O O2 0.108658 0.705328 0.894166
O O3 0.055669 0.003959 0.035645
O O4 0.154240 0.076249 0.029912
O O5 0.000000 0.010542 0.224320
O O6 0.000000 0.700891 0.944263
O O7 0.767464 0.655814 0.675588
O O8 0.858262 0.544997 0.679907
O O9 0.814978 0.984413 0.762821
O O10 0.235819 0.374650 0.879264
O O11 0.046505 0.553578 0.729047
#
# Coordination Sequence:
#
# PCOD9352638 Si02
#       6
#     8   4   8   8   8   4
#     4  11  25  40  66  97 128 172 222 266 334 403
#     4  10  21  46  67 106 138 182 220 282 330 400
#     4  10  22  43  64  88 134 167 216 276 338 388
#     4   8  20  36  64  86 122 168 212 272 334 382
#     4  11  25  40  66  97 128 172 222 266 334 403
#     4  10  21  46  67 106 138 182 220 282 330 400
#
# _framework density 27.414985000000001
#
# number of rings (size 3 to 8) (size 9 to 14) (size 15 to 20)
#    1.200    0.800    2.000    0.600    5.600    0.000 
#    3.600    8.000    0.000    0.000    0.000    0.000 
#    0.000    0.000    0.000    0.000    0.000    0.000 
#
# Total GULP energy -111405.769797 kJ/mol
# GULP energy per Si atom -5570.288490 kJ/mol
# Density = 2.735259 g / cm^3
# Si number density = 27.414985 Si / 1000 Ang^3
#
#
#
# Elastic Constant Matrix: (Units=GPa)
#
#
# Indices 1 2 3 4 5 6 
#
# 1 102.6233 -2.1556 3.9620 0.0000 0.0000 0.0000
# 2 -2.1556 118.2857 6.2134 0.0000 0.0000 0.0000
# 3 3.9620 6.2134 67.0519 0.0000 0.0000 0.0000
# 4 0.0000 0.0000 0.0000 16.8246 0.0000 0.0000
# 5 0.0000 0.0000 0.0000 0.0000 975.3144 0.0000
# 6 0.0000 0.0000 0.0000 0.0000 0.0000 32.3923
#
#
#
# Elastic Compliance Matrix: (Units=1/GPa)
#
#
# Indices 1 2 3 4 5 6 
#
# 1 0.009772 0.000209 -0.000597 0.000000 0.000000 0.000000
# 2 0.000209 0.008500 -0.000800 0.000000 0.000000 0.000000
# 3 -0.000597 -0.000800 0.015023 0.000000 0.000000 0.000000
# 4 0.000000 0.000000 0.000000 0.059437 0.000000 0.000000
# 5 0.000000 0.000000 0.000000 0.000000 0.001025 0.000000
# 6 0.000000 0.000000 0.000000 0.000000 0.000000 0.030872
#
#
# Mechanical properties :
#
#
# Convention : Reuss Voigt Hill
#
# Bulk Modulus (GPa) = 32.34137 33.77785 33.05961
# Shear Modulus (GPa) = 36.41389 223.56899 129.99144
#
# Velocity S-wave (km/s) = 3.64847 9.04030 6.89341
# Velocity P-wave (km/s) = 5.43792 11.01440 8.68585
#
# Compressibility (1/GPa) = 0.03092015
#
# Stress axis : x y z
#
# Youngs Moduli (GPa) = 102.33514 117.64780 66.56363
#
# Poissons Ratio (x) = -0.02464 0.03973
# Poissons Ratio (y) = -0.02143 0.05325
# Poissons Ratio (z) = 0.06107 0.09412
#
# Static dielectric constant tensor:
#      x y z
#    x 1.298560 0.000000 0.000000 
#    y 0.000000 2.290310 0.000000 
#    z 0.000000 0.000000 2.227000 
# 
# From -- ./inp_files/9687.got.cif
#   From: 2010.05.17/outbox.cif.g08.bks.cpg/sg36_5_cif.got.tgz:9687.got - 2010.06.03 17:41:39.
