data_PCOD9352405
_publ_section_title
;
Structure prediction by ZEFSAII (Michael W. Deem and Ramdas Pophale) SiO2 
 PCOD9352405
Probable space group: C M C 21
;
_chemical_formula_sum "Si O2"
_cell_formula_units_Z 64
_cell_length_a 20.062282
_cell_length_b 18.192828
_cell_length_c 9.072594
_cell_angle_alpha 90.000000
_cell_angle_beta 90.000000
_cell_angle_gamma 90.000000
_cell_volume 3311.402870
_symmetry_space_group_name_H-M "C M C 21"
_symmetry_group_IT_number 36
_symmetry_cell_setting 'orthorhombic'
loop_
_space_group_symop_operation_xyz
x,y,z
-x,-y,1/2+z
x,-y,1/2+z
-x,y,z
1/2+x,1/2+y,z
1/2-x,1/2-y,1/2+z
1/2+x,1/2-y,1/2+z
1/2-x,1/2+y,z
loop_
_atom_site_type_symbol
_atom_site_label
_atom_site_fract_x
_atom_site_fract_y
_atom_site_fract_z
Si Si1 0.209896 0.672435 0.219780
Si Si2 0.926248 0.394281 0.802704
Si Si3 0.075115 0.483656 0.511795
Si Si4 0.280926 0.931049 0.440827
Si Si5 0.801982 0.083977 0.426138
Si Si6 0.303335 0.340540 0.227355
Si Si7 0.925521 0.896913 0.386817
Si Si8 0.075001 0.952181 0.719925
O O1 0.132533 0.658698 0.257384
O O2 0.251336 0.642441 0.356743
O O3 0.218395 0.758128 0.191825
O O4 0.230227 0.619700 0.084239
O O5 0.918960 0.431602 0.962592
O O6 0.921843 0.461497 0.683493
O O7 0.000000 0.361988 0.788948
O O8 0.140340 0.447255 0.440634
O O9 0.000000 0.460729 0.462872
O O10 0.256534 0.885620 0.301189
O O11 0.237582 0.006338 0.443155
O O12 0.823638 0.115426 0.582189
O O13 0.864812 0.078407 0.317372
O O14 0.365202 0.344176 0.341828
O O15 0.914070 0.934601 0.547273
O O16 0.000000 0.863790 0.389403
O O17 0.925971 0.962420 0.266579
O O18 0.000000 0.924060 0.756494
#
# Coordination Sequence:
#
# PCOD9352405 Si02
#       8
#     8   8   8   8   8   8   8   8
#     4  11  24  40  57  88 127 161 203 256 310 367
#     4   9  18  34  57  84 113 147 190 243 298 352
#     4   9  18  33  58  87 112 142 189 248 293 341
#     4  11  22  39  61  87 119 157 210 254 299 367
#     4  12  23  38  64  90 119 165 211 254 302 368
#     4  12  25  38  59  89 126 167 200 254 314 362
#     4  10  21  38  61  91 124 159 203 254 312 371
#     4  10  21  38  63  94 122 154 206 265 306 358
#
# _framework density 19.327157
#
# number of rings (size 3 to 8) (size 9 to 14) (size 15 to 20)
#    0.000    1.500    2.500    3.000    1.750    2.000 
#    0.000    0.000    0.000    2.250    0.000    0.000 
#    0.000    0.000    0.000    0.000    0.000    0.000 
#
# Total GULP energy -178491.666301 kJ/mol
# GULP energy per Si atom -5577.864572 kJ/mol
# Density = 1.928317 g / cm^3
# Si number density = 19.327157 Si / 1000 Ang^3
#
#
#
# Elastic Constant Matrix: (Units=GPa)
#
#
# Indices 1 2 3 4 5 6 
#
# 1 106.2202 35.6738 44.3725 0.0000 0.0000 0.0000
# 2 35.6738 86.1050 30.5464 0.0000 0.0000 0.0000
# 3 44.3725 30.5464 79.6459 0.0000 0.0000 0.0000
# 4 0.0000 0.0000 0.0000 15.5991 0.0000 0.0000
# 5 0.0000 0.0000 0.0000 0.0000 -41.1753 0.0000
# 6 0.0000 0.0000 0.0000 0.0000 0.0000 9.9005
#
#
#
# Elastic Compliance Matrix: (Units=1/GPa)
#
#
# Indices 1 2 3 4 5 6 
#
# 1 0.013017 -0.003265 -0.006000 0.000000 0.000000 0.000000
# 2 -0.003265 0.014261 -0.003651 0.000000 0.000000 0.000000
# 3 -0.006000 -0.003651 0.017299 0.000000 0.000000 0.000000
# 4 0.000000 0.000000 0.000000 0.064106 0.000000 0.000000
# 5 0.000000 0.000000 0.000000 0.000000 -0.024286 0.000000
# 6 0.000000 0.000000 0.000000 0.000000 0.000000 0.101005
#
#
# Mechanical properties :
#
#
# Convention : Reuss Voigt Hill
#
# Bulk Modulus (GPa) = 53.34442 54.79519 54.06980
# Shear Modulus (GPa) = 22.99040 7.62342 15.30691
#
# Velocity S-wave (km/s) = 3.45271 1.98821 2.81728
# Velocity P-wave (km/s) = 6.59967 5.80375 6.21447
#
# Compressibility (1/GPa) = 0.01874610
#
# Stress axis : x y z
#
# Youngs Moduli (GPa) = 76.82069 70.11922 57.80798
#
# Poissons Ratio (x) = 0.22891 0.34686
# Poissons Ratio (y) = 0.25078 0.21105
# Poissons Ratio (z) = 0.46094 0.25600
#
# Static dielectric constant tensor:
#      x y z
#    x 1.711980 0.000000 0.000000 
#    y 0.000000 1.649680 0.000000 
#    z 0.000000 0.000000 1.716520 
# 
# From -- ./inp_files/5315.got.cif
#   From: 2010.05.17/outbox.cif.g08.bks.cpg/sg36_3_cif.got.tgz:5315.got - 2010.06.03 17:41:39.
