data_PCOD9352425
_publ_section_title
;
Structure prediction by ZEFSAII (Michael W. Deem and Ramdas Pophale) SiO2 
 PCOD9352425
Probable space group: C M C 21
;
_chemical_formula_sum "Si O2"
_cell_formula_units_Z 64
_cell_length_a 12.537461
_cell_length_b 13.711241
_cell_length_c 16.277176
_cell_angle_alpha 90.000000
_cell_angle_beta 90.000000
_cell_angle_gamma 90.000000
_cell_volume 2798.114093
_symmetry_space_group_name_H-M "C M C 21"
_symmetry_group_IT_number 36
_symmetry_cell_setting 'orthorhombic'
loop_
_space_group_symop_operation_xyz
x,y,z
-x,-y,1/2+z
x,-y,1/2+z
-x,y,z
1/2+x,1/2+y,z
1/2-x,1/2-y,1/2+z
1/2+x,1/2-y,1/2+z
1/2-x,1/2+y,z
loop_
_atom_site_type_symbol
_atom_site_label
_atom_site_fract_x
_atom_site_fract_y
_atom_site_fract_z
Si Si1 0.289077 0.296041 0.134480
Si Si2 0.618332 0.588774 0.779099
Si Si3 0.727786 0.978828 0.474493
Si Si4 0.623676 0.682084 0.056951
Si Si5 0.376383 0.327082 0.961887
Si Si6 0.681785 0.039749 0.303077
Si Si7 0.384627 0.964983 0.130417
Si Si8 0.320913 0.758293 0.892911
O O1 0.359928 0.329719 0.209640
O O2 0.202006 0.209528 0.132569
O O3 0.210325 0.388286 0.129953
O O4 0.361652 0.286545 0.054068
O O5 0.500000 0.550482 0.772919
O O6 0.698761 0.497888 0.779843
O O7 0.633917 0.658107 0.857625
O O8 0.814841 0.904879 0.511600
O O9 0.639148 0.978747 0.546196
O O10 0.803443 0.075064 0.461513
O O11 0.667337 0.974661 0.386385
O O12 0.500000 0.663937 0.076096
O O13 0.632825 0.766520 0.985847
O O14 0.500000 0.341835 0.942010
O O15 0.307745 0.256399 0.903266
O O16 0.621297 0.020595 0.217614
O O17 0.658660 0.149024 0.334799
O O18 0.500000 0.916389 0.125909
#
# Coordination Sequence:
#
# PCOD9352425 Si02
#       8
#     8   8   8   8   8   8   8   8
#     4   9  21  37  60  89 125 155 218 271 313 401
#     4  11  22  41  68  92 126 176 218 266 332 393
#     4  10  21  38  63  95 128 166 229 278 319 410
#     4  11  21  38  65  94 129 173 218 272 337 395
#     4   9  18  37  60  84 120 163 202 264 331 374
#     4  10  23  41  63  97 135 164 223 285 318 395
#     4  10  22  41  63  88 128 177 214 269 344 395
#     4  10  22  37  60  95 127 162 218 269 316 401
#
# _framework density 22.872547999999998
#
# number of rings (size 3 to 8) (size 9 to 14) (size 15 to 20)
#    0.000    2.000    1.250    2.250    1.750    3.500 
#    0.000    8.125    0.000    0.000    0.000    0.000 
#    0.000    0.000    0.000    0.000    0.000    0.000 
#
# Total GULP energy -178163.011505 kJ/mol
# GULP energy per Si atom -5567.594110 kJ/mol
# Density = 2.282049 g / cm^3
# Si number density = 22.872548 Si / 1000 Ang^3
#
#
#
# Elastic Constant Matrix: (Units=GPa)
#
#
# Indices 1 2 3 4 5 6 
#
# 1 86.1365 -5.3956 18.0076 0.0000 0.0000 0.0000
# 2 -5.3956 33.6074 -25.4927 0.0000 0.0000 0.0000
# 3 18.0076 -25.4927 64.6676 0.0000 0.0000 0.0000
# 4 0.0000 0.0000 0.0000 22.4596 0.0000 0.0000
# 5 0.0000 0.0000 0.0000 0.0000 7.4989 0.0000
# 6 0.0000 0.0000 0.0000 0.0000 0.0000 16.6031
#
#
#
# Elastic Compliance Matrix: (Units=1/GPa)
#
#
# Indices 1 2 3 4 5 6 
#
# 1 0.012346 -0.000893 -0.003790 0.000000 0.000000 0.000000
# 2 -0.000893 0.042513 0.017008 0.000000 0.000000 0.000000
# 3 -0.003790 0.017008 0.023224 0.000000 0.000000 0.000000
# 4 0.000000 0.000000 0.000000 0.044524 0.000000 0.000000
# 5 0.000000 0.000000 0.000000 0.000000 0.133353 0.000000
# 6 0.000000 0.000000 0.000000 0.000000 0.000000 0.060230
#
#
# Mechanical properties :
#
#
# Convention : Reuss Voigt Hill
#
# Bulk Modulus (GPa) = 9.73396 17.62780 13.68088
# Shear Modulus (GPa) = 15.34761 22.46511 18.90636
#
# Velocity S-wave (km/s) = 2.59319 3.13739 2.87818
# Velocity P-wave (km/s) = 3.63746 4.56596 4.12790
#
# Compressibility (1/GPa) = 0.10273314
#
# Stress axis : x y z
#
# Youngs Moduli (GPa) = 80.99885 23.52219 43.05966
#
# Poissons Ratio (x) = 0.02100 0.16318
# Poissons Ratio (y) = 0.07230 -0.73234
# Poissons Ratio (z) = 0.30696 -0.40006
#
# Static dielectric constant tensor:
#      x y z
#    x 1.832330 0.000000 0.000000 
#    y 0.000000 1.993660 0.000000 
#    z 0.000000 0.000000 1.978780 
# 
# From -- ./inp_files/14390.got.cif
#   From: 2010.05.17/outbox.cif.g08.bks.cpg/sg36_8_cif.got.tgz:14390.got - 2010.06.03 17:41:39.
