data_PCOD9352808
_publ_section_title
;
Structure prediction by ZEFSAII (Michael W. Deem and Ramdas Pophale) SiO2 
 PCOD9352808
Probable space group: C M C 21
;
_chemical_formula_sum "Si O2"
_cell_formula_units_Z 40
_cell_length_a 22.797983
_cell_length_b 8.739602
_cell_length_c 9.154956
_cell_angle_alpha 90.000000
_cell_angle_beta 90.000000
_cell_angle_gamma 90.000000
_cell_volume 1824.081935
_symmetry_space_group_name_H-M "C M C 21"
_symmetry_group_IT_number 36
_symmetry_cell_setting 'orthorhombic'
loop_
_space_group_symop_operation_xyz
x,y,z
-x,-y,1/2+z
x,-y,1/2+z
-x,y,z
1/2+x,1/2+y,z
1/2-x,1/2-y,1/2+z
1/2+x,1/2-y,1/2+z
1/2-x,1/2+y,z
loop_
_atom_site_type_symbol
_atom_site_label
_atom_site_fract_x
_atom_site_fract_y
_atom_site_fract_z
Si Si1 0.500000 0.484667 0.018070
Si Si2 0.706474 0.334317 0.597457
Si Si3 0.372641 0.627993 0.591980
Si Si4 0.187371 0.668078 0.311132
Si Si5 0.125224 0.350237 0.320443
Si Si6 0.500000 0.269912 0.736077
O O1 0.560209 0.423623 0.087634
O O2 0.500000 0.661679 0.071434
O O3 0.500000 0.413914 0.853154
O O4 0.670135 0.486341 0.560146
O O5 0.764195 0.372348 0.689606
O O6 0.718877 0.237202 0.452655
O O7 0.665213 0.230824 0.699171
O O8 0.353301 0.699042 0.745024
O O9 0.367002 0.757133 0.469536
O O10 0.147673 0.521584 0.342680
O O11 0.058150 0.327546 0.269337
#
# Coordination Sequence:
#
# PCOD9352808 Si02
#       6
#     4   8   8   8   8   4
#     4  10  22  41  71 101 135 176 228 274 326 409
#     4  12  25  45  70  95 135 184 229 277 336 413
#     4  11  24  44  69 101 133 180 228 271 336 410
#     4  12  27  44  69 100 137 178 227 287 344 395
#     4  11  24  44  68 103 140 176 224 283 342 398
#     4  10  22  43  71 101 141 176 222 280 334 409
#
# _framework density 21.928839
#
# number of rings (size 3 to 8) (size 9 to 14) (size 15 to 20)
#    0.000    0.800    2.000    4.800    2.800    5.600 
#    0.000    6.000    0.000    0.000    0.000    0.000 
#    0.000    0.000    0.000    0.000    0.000    0.000 
#
# Total GULP energy -111990.726503 kJ/mol
# GULP energy per Si atom -5599.536325 kJ/mol
# Density = 2.187893 g / cm^3
# Si number density = 21.928839 Si / 1000 Ang^3
#
#
#
# Elastic Constant Matrix: (Units=GPa)
#
#
# Indices 1 2 3 4 5 6 
#
# 1 124.5076 49.9295 31.9193 0.0000 0.0000 0.0000
# 2 49.9295 124.5047 33.8634 0.0000 0.0000 0.0000
# 3 31.9193 33.8634 80.3021 0.0000 0.0000 0.0000
# 4 0.0000 0.0000 0.0000 34.0382 0.0000 0.0000
# 5 0.0000 0.0000 0.0000 0.0000 147.1152 0.0000
# 6 0.0000 0.0000 0.0000 0.0000 0.0000 15.0934
#
#
#
# Elastic Compliance Matrix: (Units=1/GPa)
#
#
# Indices 1 2 3 4 5 6 
#
# 1 0.010025 -0.003317 -0.002586 0.000000 0.000000 0.000000
# 2 -0.003317 0.010170 -0.002970 0.000000 0.000000 0.000000
# 3 -0.002586 -0.002970 0.014733 0.000000 0.000000 0.000000
# 4 0.000000 0.000000 0.000000 0.029379 0.000000 0.000000
# 5 0.000000 0.000000 0.000000 0.000000 0.006797 0.000000
# 6 0.000000 0.000000 0.000000 0.000000 0.000000 0.066254
#
#
# Mechanical properties :
#
#
# Convention : Reuss Voigt Hill
#
# Bulk Modulus (GPa) = 58.20091 62.30431 60.25261
# Shear Modulus (GPa) = 31.08844 53.48952 42.28898
#
# Velocity S-wave (km/s) = 3.76932 4.94422 4.39619
# Velocity P-wave (km/s) = 6.74849 7.81456 7.30101
#
# Compressibility (1/GPa) = 0.01718186
#
# Stress axis : x y z
#
# Youngs Moduli (GPa) = 99.75376 98.33035 67.87286
#
# Poissons Ratio (x) = 0.32614 0.17552
# Poissons Ratio (y) = 0.33086 0.20160
# Poissons Ratio (z) = 0.25796 0.29206
#
# Static dielectric constant tensor:
#      x y z
#    x 1.728600 0.000000 0.000000 
#    y 0.000000 1.783590 0.000000 
#    z 0.000000 0.000000 1.816410 
# 
# From -- ./inp_files/5477.got.cif
#   From: 2010.05.17/outbox.cif.g08.bks.cpg/sg36_3_cif.got.tgz:5477.got - 2010.06.03 17:41:39.
