data_PCOD9352870
_publ_section_title
;
Structure prediction by ZEFSAII (Michael W. Deem and Ramdas Pophale) SiO2 
 PCOD9352870
Probable space group: C M C 21
;
_chemical_formula_sum "Si O2"
_cell_formula_units_Z 40
_cell_length_a 27.611432
_cell_length_b 5.860048
_cell_length_c 9.112506
_cell_angle_alpha 90.000000
_cell_angle_beta 90.000000
_cell_angle_gamma 90.000000
_cell_volume 1474.442808
_symmetry_space_group_name_H-M "C M C 21"
_symmetry_group_IT_number 36
_symmetry_cell_setting 'orthorhombic'
loop_
_space_group_symop_operation_xyz
x,y,z
-x,-y,1/2+z
x,-y,1/2+z
-x,y,z
1/2+x,1/2+y,z
1/2-x,1/2-y,1/2+z
1/2+x,1/2-y,1/2+z
1/2-x,1/2+y,z
loop_
_atom_site_type_symbol
_atom_site_label
_atom_site_fract_x
_atom_site_fract_y
_atom_site_fract_z
Si Si1 0.744232 0.336041 0.159630
Si Si2 0.500000 0.196333 0.511123
Si Si3 0.360944 0.446748 0.196544
Si Si4 0.158661 0.689840 0.489898
Si Si5 0.500000 0.430336 0.801263
Si Si6 0.580495 0.165473 0.984618
O O1 0.750349 0.586461 0.234268
O O2 0.687992 0.348340 0.119741
O O3 0.784884 0.338403 0.032172
O O4 0.500000 0.394590 0.629462
O O5 0.500000 0.310633 0.352745
O O6 0.454057 0.039432 0.531328
O O7 0.361905 0.706831 0.142848
O O8 0.352912 0.378411 0.364815
O O9 0.405408 0.318719 0.123307
O O10 0.129733 0.466561 0.439154
O O11 0.548187 0.309506 0.869781
#
# Coordination Sequence:
#
# PCOD9352870 Si02
#       6
#     8   4   8   8   4   8
#     4  10  22  44  68 104 144 198 248 308 366 438
#     4  11  26  46  73 105 143 185 239 305 378 454
#     4  11  25  45  70 104 145 193 248 308 373 445
#     4  11  25  45  70 104 145 193 248 308 373 445
#     4  11  26  46  73 105 143 185 239 305 378 454
#     4  11  24  46  72 104 142 192 244 303 372 452
#
# _framework density 27.128890999999999
#
# number of rings (size 3 to 8) (size 9 to 14) (size 15 to 20)
#    0.000    1.200    2.000    2.400    0.000   17.600 
#    0.000    0.000    0.000    0.000    0.000    0.000 
#    0.000    0.000    0.000    0.000    0.000    0.000 
#
# Total GULP energy -111923.157690 kJ/mol
# GULP energy per Si atom -5596.157884 kJ/mol
# Density = 2.706714 g / cm^3
# Si number density = 27.128891 Si / 1000 Ang^3
#
#
#
# Elastic Constant Matrix: (Units=GPa)
#
#
# Indices 1 2 3 4 5 6 
#
# 1 119.8827 30.7049 31.5955 0.0000 0.0000 0.0000
# 2 30.7049 134.6843 34.3977 0.0000 0.0000 0.0000
# 3 31.5955 34.3977 108.5694 0.0000 0.0000 0.0000
# 4 0.0000 0.0000 0.0000 36.4902 0.0000 0.0000
# 5 0.0000 0.0000 0.0000 0.0000 17.7977 0.0000
# 6 0.0000 0.0000 0.0000 0.0000 0.0000 64.9020
#
#
#
# Elastic Compliance Matrix: (Units=1/GPa)
#
#
# Indices 1 2 3 4 5 6 
#
# 1 0.009326 -0.001559 -0.002220 0.000000 0.000000 0.000000
# 2 -0.001559 0.008339 -0.002188 0.000000 0.000000 0.000000
# 3 -0.002220 -0.002188 0.010550 0.000000 0.000000 0.000000
# 4 0.000000 0.000000 0.000000 0.027405 0.000000 0.000000
# 5 0.000000 0.000000 0.000000 0.000000 0.056187 0.000000
# 6 0.000000 0.000000 0.000000 0.000000 0.000000 0.015408
#
#
# Mechanical properties :
#
#
# Convention : Reuss Voigt Hill
#
# Bulk Modulus (GPa) = 61.42441 61.83695 61.63068
# Shear Modulus (GPa) = 34.58385 41.60053 38.09219
#
# Velocity S-wave (km/s) = 3.57430 3.92016 3.75122
# Velocity P-wave (km/s) = 6.30278 6.58282 6.44432
#
# Compressibility (1/GPa) = 0.01628017
#
# Stress axis : x y z
#
# Youngs Moduli (GPa) = 107.22815 119.91705 94.78592
#
# Poissons Ratio (x) = 0.18696 0.21043
# Poissons Ratio (y) = 0.16718 0.20742
# Poissons Ratio (z) = 0.23805 0.26242
#
# Static dielectric constant tensor:
#      x y z
#    x 2.150590 0.000000 0.000000 
#    y 0.000000 2.127580 0.000000 
#    z 0.000000 0.000000 2.049520 
# 
# From -- ./inp_files/9574.got.cif
#   From: 2010.05.17/outbox.cif.g08.bks.cpg/sg36_5_cif.got.tgz:9574.got - 2010.06.03 17:41:39.
