data_PCOD9352700
_publ_section_title
;
Structure prediction by ZEFSAII (Michael W. Deem and Ramdas Pophale) SiO2 
 PCOD9352700
Probable space group: C M C 21
;
_chemical_formula_sum "Si O2"
_cell_formula_units_Z 64
_cell_length_a 24.007133
_cell_length_b 9.523330
_cell_length_c 14.183897
_cell_angle_alpha 90.000000
_cell_angle_beta 90.000000
_cell_angle_gamma 90.000000
_cell_volume 3242.833874
_symmetry_space_group_name_H-M "C M C 21"
_symmetry_group_IT_number 36
_symmetry_cell_setting 'orthorhombic'
loop_
_space_group_symop_operation_xyz
x,y,z
-x,-y,1/2+z
x,-y,1/2+z
-x,y,z
1/2+x,1/2+y,z
1/2-x,1/2-y,1/2+z
1/2+x,1/2-y,1/2+z
1/2-x,1/2+y,z
loop_
_atom_site_type_symbol
_atom_site_label
_atom_site_fract_x
_atom_site_fract_y
_atom_site_fract_z
Si Si1 0.175220 0.148802 0.910710
Si Si2 0.436877 0.152597 0.255358
Si Si3 0.125917 0.436881 0.125711
Si Si4 0.766061 0.140313 0.393449
Si Si5 0.800143 0.678597 0.053775
Si Si6 0.806843 0.832211 0.681117
Si Si7 0.637780 0.383695 0.196149
Si Si8 0.064488 0.261492 0.971983
O O1 0.205274 0.300068 0.920728
O O2 0.163356 0.137185 0.799713
O O3 0.116167 0.150694 0.964976
O O4 0.214968 0.013617 0.927099
O O5 0.500000 0.118223 0.232922
O O6 0.420571 0.303045 0.208571
O O7 0.431527 0.165378 0.368532
O O8 0.398899 0.034759 0.207790
O O9 0.164276 0.539193 0.063911
O O10 0.164161 0.317005 0.170653
O O11 0.080421 0.364220 0.057831
O O12 0.802121 0.254907 0.450288
O O13 0.776260 0.151735 0.281911
O O14 0.739158 0.653971 0.099323
O O15 0.827006 0.796863 0.121013
O O16 0.853781 0.953091 0.674976
O O17 0.000000 0.211467 0.980890
#
# Coordination Sequence:
#
# PCOD9352700 Si02
#       8
#     8   8   8   8   8   8   8   8
#     4  10  22  39  61  92 120 169 196 259 313 376
#     4   9  20  41  66  86 115 161 209 259 310 362
#     4  11  24  37  65  89 126 160 214 257 314 370
#     4  11  25  36  63  90 134 160 209 252 323 379
#     4  11  23  37  56  88 124 165 197 247 307 378
#     4  11  23  39  57  94 129 164 196 261 311 385
#     4   9  20  39  57  83 122 153 203 239 310 369
#     4  10  22  42  67  92 123 164 217 260 306 375
#
# _framework density 19.735825999999999
#
# number of rings (size 3 to 8) (size 9 to 14) (size 15 to 20)
#    0.000    1.750    1.250    1.875   10.500    0.000 
#    0.000    1.250    0.000    2.250    0.000    0.000 
#    0.000    0.000    0.000    0.000    0.000    0.000 
#
# Total GULP energy -178481.572783 kJ/mol
# GULP energy per Si atom -5577.549149 kJ/mol
# Density = 1.969091 g / cm^3
# Si number density = 19.735826 Si / 1000 Ang^3
#
#
#
# Elastic Constant Matrix: (Units=GPa)
#
#
# Indices 1 2 3 4 5 6 
#
# 1 89.3290 29.4317 3.4564 0.0000 0.0000 0.0000
# 2 29.4317 90.0713 9.2550 0.0000 0.0000 0.0000
# 3 3.4564 9.2550 77.7983 0.0000 0.0000 0.0000
# 4 0.0000 0.0000 0.0000 25.7791 0.0000 0.0000
# 5 0.0000 0.0000 0.0000 0.0000 21.5936 0.0000
# 6 0.0000 0.0000 0.0000 0.0000 0.0000 14.2442
#
#
#
# Elastic Compliance Matrix: (Units=1/GPa)
#
#
# Indices 1 2 3 4 5 6 
#
# 1 0.012546 -0.004092 -0.000071 0.000000 0.000000 0.000000
# 2 -0.004092 0.012574 -0.001314 0.000000 0.000000 0.000000
# 3 -0.000071 -0.001314 0.013013 0.000000 0.000000 0.000000
# 4 0.000000 0.000000 0.000000 0.038791 0.000000 0.000000
# 5 0.000000 0.000000 0.000000 0.000000 0.046310 0.000000
# 6 0.000000 0.000000 0.000000 0.000000 0.000000 0.070204
#
#
# Mechanical properties :
#
#
# Convention : Reuss Voigt Hill
#
# Bulk Modulus (GPa) = 36.79218 37.94277 37.36748
# Shear Modulus (GPa) = 23.42449 26.66041 25.04245
#
# Velocity S-wave (km/s) = 3.44888 3.67940 3.56600
# Velocity P-wave (km/s) = 5.87729 6.10882 5.99417
#
# Compressibility (1/GPa) = 0.02717969
#
# Stress axis : x y z
#
# Youngs Moduli (GPa) = 79.70939 79.52612 76.84504
#
# Poissons Ratio (x) = 0.32543 0.00542
# Poissons Ratio (y) = 0.32618 0.10098
# Poissons Ratio (z) = 0.00563 0.10450
#
# Static dielectric constant tensor:
#      x y z
#    x 1.731500 0.000000 0.000000 
#    y 0.000000 1.691730 0.000000 
#    z 0.000000 0.000000 1.700150 
# 
# From -- ./inp_files/12976.got.cif
#   From: 2010.05.17/outbox.cif.g08.bks.cpg/sg36_7_cif.got.tgz:12976.got - 2010.06.03 17:41:39.
