data_PCOD9352914
_publ_section_title
;
Structure prediction by ZEFSAII (Michael W. Deem and Ramdas Pophale) SiO2 
 PCOD9352914
Probable space group: C M C 21
;
_chemical_formula_sum "Si O2"
_cell_formula_units_Z 64
_cell_length_a 24.551695
_cell_length_b 14.531777
_cell_length_c 8.523644
_cell_angle_alpha 90.000000
_cell_angle_beta 90.000000
_cell_angle_gamma 90.000000
_cell_volume 3041.063633
_symmetry_space_group_name_H-M "C M C 21"
_symmetry_group_IT_number 36
_symmetry_cell_setting 'orthorhombic'
loop_
_space_group_symop_operation_xyz
x,y,z
-x,-y,1/2+z
x,-y,1/2+z
-x,y,z
1/2+x,1/2+y,z
1/2-x,1/2-y,1/2+z
1/2+x,1/2-y,1/2+z
1/2-x,1/2+y,z
loop_
_atom_site_type_symbol
_atom_site_label
_atom_site_fract_x
_atom_site_fract_y
_atom_site_fract_z
Si Si1 0.938537 0.752165 0.801570
Si Si2 0.719793 0.448934 0.778238
Si Si3 0.827498 0.566204 0.080842
Si Si4 0.161581 0.630820 0.718273
Si Si5 0.275436 0.360420 0.122770
Si Si6 0.563824 0.390279 0.325843
Si Si7 0.600716 0.566405 0.158236
Si Si8 0.884681 0.739835 0.140138
O O1 0.892287 0.692181 0.714715
O O2 0.935966 0.856143 0.738959
O O3 0.000000 0.716737 0.785075
O O4 0.919322 0.751808 0.981823
O O5 0.769412 0.418767 0.666021
O O6 0.717230 0.559630 0.753605
O O7 0.661112 0.416890 0.720865
O O8 0.727729 0.412670 0.954736
O O9 0.841894 0.460061 0.110795
O O10 0.870444 0.633768 0.163585
O O11 0.829181 0.595253 0.898004
O O12 0.216598 0.682753 0.662788
O O13 0.326539 0.292452 0.121645
O O14 0.500000 0.394845 0.359827
O O15 0.579409 0.464315 0.193731
O O16 0.598150 0.420614 0.474416
O O17 0.582070 0.289647 0.275014
#
# Coordination Sequence:
#
# PCOD9352914 Si02
#       8
#     8   8   8   8   8   8   8   8
#     4  11  24  46  66  91 129 171 222 269 319 389
#     4  11  21  38  60  94 130 169 203 256 317 390
#     4  10  23  40  65  91 131 160 208 273 332 383
#     4  10  23  42  66  94 125 169 214 267 333 378
#     4  11  21  37  62  93 132 169 210 257 322 389
#     4  12  25  41  61  90 130 174 217 264 312 380
#     4  12  24  40  62  93 126 172 216 254 322 386
#     4  11  24  40  64  96 125 170 215 266 329 379
#
# _framework density 21.045269000000001
#
# number of rings (size 3 to 8) (size 9 to 14) (size 15 to 20)
#    0.000    1.000    2.500    6.000    3.500    2.000 
#    0.000    3.125    0.000    0.000    0.000    0.000 
#    0.000    0.000    0.000    0.000    0.000    0.000 
#
# Total GULP energy -178977.119328 kJ/mol
# GULP energy per Si atom -5593.034979 kJ/mol
# Density = 2.099737 g / cm^3
# Si number density = 21.045269 Si / 1000 Ang^3
#
#
#
# Elastic Constant Matrix: (Units=GPa)
#
#
# Indices 1 2 3 4 5 6 
#
# 1 128.3797 21.3957 20.2689 0.0000 0.0000 0.0000
# 2 21.3957 32.9202 -13.7584 0.0000 0.0000 0.0000
# 3 20.2689 -13.7584 28.4423 0.0000 0.0000 0.0000
# 4 0.0000 0.0000 0.0000 10.1882 0.0000 0.0000
# 5 0.0000 0.0000 0.0000 0.0000 3.8352 0.0000
# 6 0.0000 0.0000 0.0000 0.0000 0.0000 34.5935
#
#
#
# Elastic Compliance Matrix: (Units=1/GPa)
#
#
# Indices 1 2 3 4 5 6 
#
# 1 0.013009 -0.015453 -0.016745 0.000000 0.000000 0.000000
# 2 -0.015453 0.056430 0.038309 0.000000 0.000000 0.000000
# 3 -0.016745 0.038309 0.065623 0.000000 0.000000 0.000000
# 4 0.000000 0.000000 0.000000 0.098153 0.000000 0.000000
# 5 0.000000 0.000000 0.000000 0.000000 0.260740 0.000000
# 6 0.000000 0.000000 0.000000 0.000000 0.000000 0.028907
#
#
# Mechanical properties :
#
#
# Convention : Reuss Voigt Hill
#
# Bulk Modulus (GPa) = 6.78960 27.28384 17.03672
# Shear Modulus (GPa) = 8.93279 20.51245 14.72262
#
# Velocity S-wave (km/s) = 2.06247 3.12538 2.64781
# Velocity P-wave (km/s) = 2.98411 5.10064 4.17860
#
# Compressibility (1/GPa) = 0.14728416
#
# Stress axis : x y z
#
# Youngs Moduli (GPa) = 76.87233 17.72095 15.23846
#
# Poissons Ratio (x) = 0.27384 0.25517
# Poissons Ratio (y) = 1.18791 -0.58377
# Poissons Ratio (z) = 1.28726 -0.67888
#
# Static dielectric constant tensor:
#      x y z
#    x 1.762400 0.000000 0.000000 
#    y 0.000000 1.767630 0.000000 
#    z 0.000000 0.000000 1.780320 
# 
# From -- ./inp_files/5663.got.cif
#   From: 2010.05.17/outbox.cif.g08.bks.cpg/sg36_3_cif.got.tgz:5663.got - 2010.06.03 17:41:39.
