data_PCOD9353797
_publ_section_title
;
Structure prediction by ZEFSAII (Michael W. Deem and Ramdas Pophale) SiO2 
 PCOD9353797
Probable space group: C C C 2
;
_chemical_formula_sum "Si O2"
_cell_formula_units_Z 48
_cell_length_a 8.832406
_cell_length_b 29.477641
_cell_length_c 8.577799
_cell_angle_alpha 90.000000
_cell_angle_beta 90.000000
_cell_angle_gamma 90.000000
_cell_volume 2233.302823
_symmetry_space_group_name_H-M "C C C 2"
_symmetry_group_IT_number 37
_symmetry_cell_setting 'orthorhombic'
loop_
_space_group_symop_operation_xyz
x,y,z
-x,-y,z
-x,y,1/2+z
x,-y,1/2+z
1/2+x,1/2+y,z
1/2-x,1/2-y,z
1/2-x,1/2+y,1/2+z
1/2+x,1/2-y,1/2+z
loop_
_atom_site_type_symbol
_atom_site_label
_atom_site_fract_x
_atom_site_fract_y
_atom_site_fract_z
Si Si1 0.400979 0.565181 0.514310
Si Si2 0.657145 0.370626 0.978787
Si Si3 0.529643 0.312851 0.256874
Si Si4 0.750000 0.750000 0.303316
Si Si5 0.909451 0.664162 0.318066
Si Si6 0.000000 0.000000 0.258917
Si Si7 0.281108 0.841517 0.469758
O O1 0.572245 0.584680 0.530885
O O2 0.401801 0.533415 0.364848
O O3 0.387388 0.531617 0.659031
O O4 0.295637 0.609103 0.492241
O O5 0.616788 0.332271 0.107400
O O6 0.572396 0.354258 0.821123
O O7 0.827774 0.374435 0.920918
O O8 0.402914 0.273925 0.229742
O O9 0.653269 0.307894 0.396145
O O10 0.834330 0.709515 0.392529
O O11 0.085617 0.659771 0.343572
O O12 0.857382 0.668697 0.137746
#
# Coordination Sequence:
#
# PCOD9353797 Si02
#       7
#     8   8   8   4   8   4   8
#     4  10  19  36  61  88 118 148 198 246 301 375
#     4  10  19  37  60  85 117 159 199 240 298 371
#     4  10  20  36  60  85 119 163 201 251 303 346
#     4  10  22  38  58  90 124 152 212 262 296 354
#     4  11  24  38  60  88 119 166 208 251 307 354
#     4  10  20  32  62  96 114 146 190 258 314 348
#     4  11  23  41  61  86 120 167 207 246 308 382
#
# _framework density 21.492830999999999
#
# number of rings (size 3 to 8) (size 9 to 14) (size 15 to 20)
#    0.000    1.667    0.000    8.000    0.000    4.667 
#    0.000    0.000    0.000   18.000    0.000    0.000 
#    0.000    0.000    0.000    0.000    0.000    0.000 
#
# Total GULP energy -133601.417911 kJ/mol
# GULP energy per Si atom -5566.725746 kJ/mol
# Density = 2.144391 g / cm^3
# Si number density = 21.492831 Si / 1000 Ang^3
#
#
#
# Elastic Constant Matrix: (Units=GPa)
#
#
# Indices 1 2 3 4 5 6 
#
# 1 133.3183 28.4467 44.4764 0.0000 0.0000 0.0000
# 2 28.4467 82.7193 34.7548 0.0000 0.0000 0.0000
# 3 44.4764 34.7548 116.7264 0.0000 0.0000 0.0000
# 4 0.0000 0.0000 0.0000 18.4527 0.0000 0.0000
# 5 0.0000 0.0000 0.0000 0.0000 22.9553 0.0000
# 6 0.0000 0.0000 0.0000 0.0000 0.0000 19.3342
#
#
#
# Elastic Compliance Matrix: (Units=1/GPa)
#
#
# Indices 1 2 3 4 5 6 
#
# 1 0.008836 -0.001856 -0.002814 0.000000 0.000000 0.000000
# 2 -0.001856 0.014208 -0.003523 0.000000 0.000000 0.000000
# 3 -0.002814 -0.003523 0.010688 0.000000 0.000000 0.000000
# 4 0.000000 0.000000 0.000000 0.054193 0.000000 0.000000
# 5 0.000000 0.000000 0.000000 0.000000 0.043563 0.000000
# 6 0.000000 0.000000 0.000000 0.000000 0.000000 0.051722
#
#
# Mechanical properties :
#
#
# Convention : Reuss Voigt Hill
#
# Bulk Modulus (GPa) = 57.65311 60.90220 59.27766
# Shear Modulus (GPa) = 24.34546 27.15417 25.74982
#
# Velocity S-wave (km/s) = 3.36925 3.55830 3.46506
# Velocity P-wave (km/s) = 6.48216 6.72901 6.60674
#
# Compressibility (1/GPa) = 0.01734512
#
# Stress axis : x y z
#
# Youngs Moduli (GPa) = 113.17725 70.38479 93.56105
#
# Poissons Ratio (x) = 0.13065 0.26328
# Poissons Ratio (y) = 0.21008 0.32961
# Poissons Ratio (z) = 0.31848 0.24796
#
# Static dielectric constant tensor:
#      x y z
#    x 1.836090 0.000000 0.000000 
#    y 0.000000 1.825620 0.000000 
#    z 0.000000 0.000000 1.885520 
# 
# From -- ./inp_files/2435.got.cif
#   From: 2010.05.17/outbox.cif.g08.bks.cpg/sg37_2_cif.got.tgz:2435.got - 2010.06.03 17:53:42.
