data_PCOD9353290
_publ_section_title
;
Structure prediction by ZEFSAII (Michael W. Deem and Ramdas Pophale) SiO2 
 PCOD9353290
Probable space group: C M C 21
;
_chemical_formula_sum "Si O2"
_cell_formula_units_Z 64
_cell_length_a 12.642382
_cell_length_b 12.336433
_cell_length_c 18.291296
_cell_angle_alpha 90.000000
_cell_angle_beta 90.000000
_cell_angle_gamma 90.000000
_cell_volume 2852.745250
_symmetry_space_group_name_H-M "C M C 21"
_symmetry_group_IT_number 36
_symmetry_cell_setting 'orthorhombic'
loop_
_space_group_symop_operation_xyz
x,y,z
-x,-y,1/2+z
x,-y,1/2+z
-x,y,z
1/2+x,1/2+y,z
1/2-x,1/2-y,1/2+z
1/2+x,1/2-y,1/2+z
1/2-x,1/2+y,z
loop_
_atom_site_type_symbol
_atom_site_label
_atom_site_fract_x
_atom_site_fract_y
_atom_site_fract_z
Si Si1 0.172996 0.093697 0.998150
Si Si2 0.615135 0.265650 0.113056
Si Si3 0.884865 0.234351 0.783771
Si Si4 0.677253 0.171744 0.520812
Si Si5 0.172996 0.906303 0.898676
Si Si6 0.322747 0.828256 0.376014
Si Si7 0.175212 0.480481 0.614035
Si Si8 0.175212 0.480482 0.782791
O O1 0.280489 0.124502 0.952544
O O2 0.122137 0.000000 0.948413
O O3 0.122795 0.211991 0.009496
O O4 0.211874 0.044561 0.074751
O O5 0.500000 0.304022 0.086506
O O6 0.627002 0.296363 0.198413
O O7 0.714975 0.303673 0.066644
O O8 0.617369 0.134773 0.111158
O O9 0.785025 0.196328 0.830182
O O10 0.882631 0.365228 0.785668
O O11 0.000000 0.195979 0.810321
O O12 0.719512 0.124501 0.444282
O O13 0.624132 0.076825 0.566999
O O14 0.122794 0.788010 0.887330
O O15 0.211874 0.955439 0.822075
O O16 0.375867 0.923174 0.329827
O O17 0.185375 0.511759 0.698413
#
# Coordination Sequence:
#
# PCOD9353290 Si02
#       8
#     8   8   8   8   8   8   8   8
#     4   8  15  26  42  62  87 114 148 189 225 259
#     4   9  17  28  43  68  99 123 148 191 240 277
#     4   9  17  28  43  68  99 123 148 191 240 277
#     4   9  15  26  45  64  88 121 157 186 221 272
#     4   8  15  26  42  62  87 114 148 189 225 259
#     4   9  15  26  45  64  88 121 157 186 221 272
#     4   9  16  26  43  67  91 118 155 194 231 275
#     4   9  16  26  43  67  91 118 155 194 231 275
#
# _framework density 22.434529999999999
#
# number of rings (size 3 to 8) (size 9 to 14) (size 15 to 20)
#    0.000    3.250    0.000    0.750    0.000    1.000 
#    0.000    0.000    0.000   81.750    0.000    8.750 
#    0.000   38.000    0.000    0.000    0.000    0.000 
#
# Total GULP energy -178338.315297 kJ/mol
# GULP energy per Si atom -5573.072353 kJ/mol
# Density = 2.238347 g / cm^3
# Si number density = 22.434530 Si / 1000 Ang^3
#
#
#
# Elastic Constant Matrix: (Units=GPa)
#
#
# Indices 1 2 3 4 5 6 
#
# 1 78.1036 -4.8220 6.2844 0.0000 0.0000 0.0000
# 2 -4.8220 124.4453 5.7436 0.0000 0.0000 0.0000
# 3 6.2844 5.7436 103.7163 0.0000 0.0000 0.0000
# 4 0.0000 0.0000 0.0000 47.2303 0.0000 0.0000
# 5 0.0000 0.0000 0.0000 0.0000 -3.8685 0.0000
# 6 0.0000 0.0000 0.0000 0.0000 0.0000 -3.5470
#
#
#
# Elastic Compliance Matrix: (Units=1/GPa)
#
#
# Indices 1 2 3 4 5 6 
#
# 1 0.012902 0.000537 -0.000812 0.000000 0.000000 0.000000
# 2 0.000537 0.008079 -0.000480 0.000000 0.000000 0.000000
# 3 -0.000812 -0.000480 0.009717 0.000000 0.000000 0.000000
# 4 0.000000 0.000000 0.000000 0.021173 0.000000 0.000000
# 5 0.000000 0.000000 0.000000 0.000000 -0.258498 0.000000
# 6 0.000000 0.000000 0.000000 0.000000 0.000000 -0.281925
#
#
# Mechanical properties :
#
#
# Convention : Reuss Voigt Hill
#
# Bulk Modulus (GPa) = 34.25844 35.63081 34.94462
# Shear Modulus (GPa) = -10.47527 27.90024 8.71248
#
# Velocity S-wave (km/s) = -2.16319 3.53034 1.97280
# Velocity P-wave (km/s) = 3.01071 5.70389 4.56063
#
# Compressibility (1/GPa) = 0.02918989
#
# Stress axis : x y z
#
# Youngs Moduli (GPa) = 77.50752 123.78333 102.90785
#
# Poissons Ratio (x) = -0.06652 0.08351
# Poissons Ratio (y) = -0.04165 0.04939
# Poissons Ratio (z) = 0.06290 0.05941
#
# Static dielectric constant tensor:
#      x y z
#    x 1.819680 0.000000 0.000000 
#    y 0.000000 1.920470 0.000000 
#    z 0.000000 0.000000 1.828920 
# 
# From -- ./inp_files/16252.got.cif
#   From: 2010.05.17/outbox.cif.g08.bks.cpg/sg36_9_cif.got.tgz:16252.got - 2010.06.03 17:41:39.
