data_PCOD9353457
_publ_section_title
;
Structure prediction by ZEFSAII (Michael W. Deem and Ramdas Pophale) SiO2 
 PCOD9353457
Probable space group: C C C 2
;
_chemical_formula_sum "Si O2"
_cell_formula_units_Z 64
_cell_length_a 16.274660
_cell_length_b 9.343622
_cell_length_c 18.637597
_cell_angle_alpha 90.000000
_cell_angle_beta 90.000000
_cell_angle_gamma 90.000000
_cell_volume 2834.112605
_symmetry_space_group_name_H-M "C C C 2"
_symmetry_group_IT_number 37
_symmetry_cell_setting 'orthorhombic'
loop_
_space_group_symop_operation_xyz
x,y,z
-x,-y,z
-x,y,1/2+z
x,-y,1/2+z
1/2+x,1/2+y,z
1/2-x,1/2-y,z
1/2-x,1/2+y,1/2+z
1/2+x,1/2-y,1/2+z
loop_
_atom_site_type_symbol
_atom_site_label
_atom_site_fract_x
_atom_site_fract_y
_atom_site_fract_z
Si Si1 0.433551 0.874568 0.844920
Si Si2 0.767084 0.415004 0.909981
Si Si3 0.975208 0.330495 0.999490
Si Si4 0.724675 0.014723 0.576298
Si Si5 0.979041 0.165987 0.257064
Si Si6 0.362925 0.695818 0.535748
Si Si7 0.417805 0.108974 0.644228
Si Si8 0.330737 0.665785 0.367335
O O1 0.347949 0.949875 0.863304
O O2 0.450826 0.791767 0.919761
O O3 0.441899 0.759011 0.782432
O O4 0.500000 0.000000 0.831147
O O5 0.750000 0.250000 0.904611
O O6 0.693223 0.500892 0.874914
O O7 0.778535 0.453154 0.994018
O O8 0.040851 0.221268 0.032214
O O9 0.000000 0.500000 0.991601
O O10 0.910753 0.338423 0.062267
O O11 0.674194 0.162267 0.570153
O O12 0.820888 0.063352 0.576739
O O13 0.677108 0.948359 0.645714
O O14 0.938907 0.258031 0.193581
O O15 0.912115 0.181054 0.321149
O O16 0.000000 0.000000 0.243595
O O17 0.341222 0.707633 0.451006
O O18 0.500000 0.000000 0.648487
O O19 0.250000 0.750000 0.340181
#
# Coordination Sequence:
#
# PCOD9353457 Si02
#       8
#     8   8   8   8   8   8   8   8
#     4  11  20  38  71 100 122 169 232 278 328 398
#     4  11  21  35  61 104 138 160 209 288 339 387
#     4  10  17  32  64  99 126 159 219 288 329 397
#     4  10  18  34  63  94 130 164 213 272 345 407
#     4  12  27  44  59  91 139 182 220 273 344 410
#     4  10  16  33  66 105 123 154 217 290 340 386
#     4  11  22  41  65  91 127 178 229 276 325 411
#     4  11  21  39  67  94 129 173 217 278 342 401
#
# _framework density 22.582024000000001
#
# number of rings (size 3 to 8) (size 9 to 14) (size 15 to 20)
#    0.000    1.250    7.500    2.625    0.000    0.000 
#    0.000    5.000    0.000    1.500    0.000    0.000 
#    0.000    0.000    0.000    0.000    0.000    0.000 
#
# Total GULP energy -178136.870206 kJ/mol
# GULP energy per Si atom -5566.777194 kJ/mol
# Density = 2.253063 g / cm^3
# Si number density = 22.582024 Si / 1000 Ang^3
#
#
#
# Elastic Constant Matrix: (Units=GPa)
#
#
# Indices 1 2 3 4 5 6 
#
# 1 39.5867 -4.0056 -10.6979 0.0000 0.0000 0.0000
# 2 -4.0056 85.8561 23.3891 0.0000 0.0000 0.0000
# 3 -10.6979 23.3891 50.8397 0.0000 0.0000 0.0000
# 4 0.0000 0.0000 0.0000 -37.2151 0.0000 0.0000
# 5 0.0000 0.0000 0.0000 0.0000 77.2667 0.0000
# 6 0.0000 0.0000 0.0000 0.0000 0.0000 26.8129
#
#
#
# Elastic Compliance Matrix: (Units=1/GPa)
#
#
# Indices 1 2 3 4 5 6 
#
# 1 0.026792 -0.000327 0.005788 0.000000 0.000000 0.000000
# 2 -0.000327 0.013320 -0.006197 0.000000 0.000000 0.000000
# 3 0.005788 -0.006197 0.023739 0.000000 0.000000 0.000000
# 4 0.000000 0.000000 0.000000 -0.026871 0.000000 0.000000
# 5 0.000000 0.000000 0.000000 0.000000 0.012942 0.000000
# 6 0.000000 0.000000 0.000000 0.000000 0.000000 0.037295
#
#
# Mechanical properties :
#
#
# Convention : Reuss Voigt Hill
#
# Bulk Modulus (GPa) = 16.03086 21.51709 18.77397
# Shear Modulus (GPa) = 45.66955 24.54606 35.10780
#
# Velocity S-wave (km/s) = 4.50197 3.30050 3.94722
# Velocity P-wave (km/s) = 5.84278 4.90648 5.39498
#
# Compressibility (1/GPa) = 0.06237969
#
# Stress axis : x y z
#
# Youngs Moduli (GPa) = 37.32442 75.07336 42.12566
#
# Poissons Ratio (x) = 0.02453 -0.24383
# Poissons Ratio (y) = 0.01220 0.26105
# Poissons Ratio (z) = -0.21604 0.46522
#
# Static dielectric constant tensor:
#      x y z
#    x 1.712790 0.000000 0.000000 
#    y 0.000000 1.902270 0.000000 
#    z 0.000000 0.000000 1.831000 
# 
# From -- ./inp_files/17338.got.cif
#   From: 2010.05.17/outbox.cif.g08.bks.cpg/sg37_9_cif.got.tgz:17338.got - 2010.06.03 17:53:42.
