data_PCOD9353037
_publ_section_title
;
Structure prediction by ZEFSAII (Michael W. Deem and Ramdas Pophale) SiO2 
 PCOD9353037
Probable space group: C M C 21
;
_chemical_formula_sum "Si O2"
_cell_formula_units_Z 48
_cell_length_a 21.116267
_cell_length_b 9.032280
_cell_length_c 11.832163
_cell_angle_alpha 90.000000
_cell_angle_beta 90.000000
_cell_angle_gamma 90.000000
_cell_volume 2256.725212
_symmetry_space_group_name_H-M "C M C 21"
_symmetry_group_IT_number 36
_symmetry_cell_setting 'orthorhombic'
loop_
_space_group_symop_operation_xyz
x,y,z
-x,-y,1/2+z
x,-y,1/2+z
-x,y,z
1/2+x,1/2+y,z
1/2-x,1/2-y,1/2+z
1/2+x,1/2-y,1/2+z
1/2-x,1/2+y,z
loop_
_atom_site_type_symbol
_atom_site_label
_atom_site_fract_x
_atom_site_fract_y
_atom_site_fract_z
Si Si1 0.341833 0.413814 0.880550
Si Si2 0.929200 0.389668 0.745130
Si Si3 0.923768 0.189998 0.961582
Si Si4 0.116247 0.698228 0.706654
Si Si5 0.320823 0.218303 0.088842
Si Si6 0.750058 0.968293 0.206815
O O1 0.381220 0.544079 0.940486
O O2 0.383445 0.347629 0.778522
O O3 0.275963 0.468877 0.824821
O O4 0.327670 0.276363 0.963028
O O5 0.909580 0.303150 0.858375
O O6 0.925226 0.566243 0.758784
O O7 0.883869 0.349931 0.641470
O O8 0.000000 0.343264 0.718288
O O9 0.000000 0.160604 0.961903
O O10 0.904331 0.265553 0.079507
O O11 0.187216 0.630796 0.713791
O O12 0.266713 0.098793 0.118613
O O13 0.304596 0.364599 0.159543
#
# Coordination Sequence:
#
# PCOD9353037 Si02
#       6
#     8   8   8   8   8   8
#     4  12  26  45  69 109 142 189 241 299 374 427
#     4  10  24  47  73 102 139 187 248 304 363 432
#     4  11  26  48  75 103 143 193 250 305 360 441
#     4  11  26  45  70 105 147 191 237 299 367 434
#     4  11  25  42  70 102 140 186 235 296 356 438
#     4  11  24  43  67 105 142 188 233 291 362 438
#
# _framework density 21.269759000000001
#
# number of rings (size 3 to 8) (size 9 to 14) (size 15 to 20)
#    0.000    1.000    3.333    1.500    7.000    3.333 
#    0.000    0.000    0.000    0.000    0.000    0.000 
#    0.000    0.000    0.000    0.000    0.000    0.000 
#
# Total GULP energy -134142.568953 kJ/mol
# GULP energy per Si atom -5589.273706 kJ/mol
# Density = 2.122135 g / cm^3
# Si number density = 21.269759 Si / 1000 Ang^3
#
#
#
# Elastic Constant Matrix: (Units=GPa)
#
#
# Indices 1 2 3 4 5 6 
#
# 1 74.8072 22.9141 21.0990 0.0000 0.0000 0.0000
# 2 22.9141 104.8166 24.8489 0.0000 0.0000 0.0000
# 3 21.0990 24.8489 63.2138 0.0000 0.0000 0.0000
# 4 0.0000 0.0000 0.0000 49.7390 0.0000 0.0000
# 5 0.0000 0.0000 0.0000 0.0000 24.7548 0.0000
# 6 0.0000 0.0000 0.0000 0.0000 0.0000 28.9419
#
#
#
# Elastic Compliance Matrix: (Units=1/GPa)
#
#
# Indices 1 2 3 4 5 6 
#
# 1 0.015263 -0.002348 -0.004172 0.000000 0.000000 0.000000
# 2 -0.002348 0.010882 -0.003494 0.000000 0.000000 0.000000
# 3 -0.004172 -0.003494 0.018585 0.000000 0.000000 0.000000
# 4 0.000000 0.000000 0.000000 0.020105 0.000000 0.000000
# 5 0.000000 0.000000 0.000000 0.000000 0.040396 0.000000
# 6 0.000000 0.000000 0.000000 0.000000 0.000000 0.034552
#
#
# Mechanical properties :
#
#
# Convention : Reuss Voigt Hill
#
# Bulk Modulus (GPa) = 40.47961 42.28463 41.38212
# Shear Modulus (GPa) = 29.75388 32.28551 31.01970
#
# Velocity S-wave (km/s) = 3.74422 3.90026 3.82304
# Velocity P-wave (km/s) = 6.14533 6.34082 6.24384
#
# Compressibility (1/GPa) = 0.02470380
#
# Stress axis : x y z
#
# Youngs Moduli (GPa) = 65.51608 91.89441 53.80631
#
# Poissons Ratio (x) = 0.21575 0.22446
# Poissons Ratio (y) = 0.15382 0.18800
# Poissons Ratio (z) = 0.27331 0.32108
#
# Static dielectric constant tensor:
#      x y z
#    x 1.787260 0.000000 0.000000 
#    y 0.000000 1.786230 0.000000 
#    z 0.000000 0.000000 1.771610 
# 
# From -- ./inp_files/9431.got.cif
#   From: 2010.05.17/outbox.cif.g08.bks.cpg/sg36_5_cif.got.tgz:9431.got - 2010.06.03 17:41:39.
