data_PCOD9353953
_publ_section_title
;
Structure prediction by ZEFSAII (Michael W. Deem and Ramdas Pophale) SiO2 
 PCOD9353953
Probable space group: C C C 2
;
_chemical_formula_sum "Si O2"
_cell_formula_units_Z 52
_cell_length_a 6.618882
_cell_length_b 18.683393
_cell_length_c 24.442314
_cell_angle_alpha 90.000000
_cell_angle_beta 90.000000
_cell_angle_gamma 90.000000
_cell_volume 3022.614120
_symmetry_space_group_name_H-M "C C C 2"
_symmetry_group_IT_number 37
_symmetry_cell_setting 'orthorhombic'
loop_
_space_group_symop_operation_xyz
x,y,z
-x,-y,z
-x,y,1/2+z
x,-y,1/2+z
1/2+x,1/2+y,z
1/2-x,1/2-y,z
1/2-x,1/2+y,1/2+z
1/2+x,1/2-y,1/2+z
loop_
_atom_site_type_symbol
_atom_site_label
_atom_site_fract_x
_atom_site_fract_y
_atom_site_fract_z
Si Si1 0.368695 0.927750 0.253290
Si Si2 0.669675 0.826394 0.450556
Si Si3 0.351315 0.827058 0.545623
Si Si4 0.000000 0.000000 0.195580
Si Si5 0.939766 0.921744 0.969612
Si Si6 0.113041 0.422865 0.877019
Si Si7 0.113025 0.575657 0.650203
O O1 0.148964 0.950486 0.231456
O O2 0.353751 0.898420 0.314461
O O3 0.497135 0.892498 0.203856
O O4 0.500000 0.000000 0.260252
O O5 0.750000 0.750000 0.431330
O O6 0.545307 0.816607 0.506763
O O7 0.523458 0.864641 0.407598
O O8 0.858552 0.877487 0.460153
O O9 0.250000 0.750000 0.555275
O O10 0.200499 0.878104 0.511274
O O11 0.399939 0.869039 0.601025
O O12 0.843321 0.949187 0.162812
O O13 0.815986 0.930159 0.912885
O O14 0.000000 0.000000 0.990701
O O15 0.000000 0.500000 0.878918
O O16 0.000000 0.500000 0.637334
#
# Coordination Sequence:
#
# PCOD9353953 Si02
#       7
#     8   8   8   4   8   8   8
#     4   8  17  33  54  85 116 143 184 237 281 330
#     4  11  23  41  55  81 121 154 185 231 295 339
#     4  11  24  39  56  83 117 154 192 236 286 349
#     4   8  16  32  54  82 112 144 184 232 286 332
#     4  11  23  35  59  89 113 153 195 232 283 338
#     4  10  20  34  59  89 117 145 194 236 274 346
#     4   9  20  35  57  83 114 145 193 236 280 333
#
# _framework density 17.203651000000001
#
# number of rings (size 3 to 8) (size 9 to 14) (size 15 to 20)
#    0.000    2.462    3.077    0.000    4.308    2.462 
#    0.000    0.769    0.000    1.846    0.000    0.000 
#    0.000    0.000    0.000    0.000    0.000    0.000 
#
# Total GULP energy -144867.663110 kJ/mol
# GULP energy per Si atom -5571.833197 kJ/mol
# Density = 1.716450 g / cm^3
# Si number density = 17.203651 Si / 1000 Ang^3
#
#
#
# Elastic Constant Matrix: (Units=GPa)
#
#
# Indices 1 2 3 4 5 6 
#
# 1 99.8704 29.5994 31.5244 0.0000 0.0000 0.0000
# 2 29.5994 97.1423 36.1034 0.0000 0.0000 0.0000
# 3 31.5244 36.1034 131.2735 0.0000 0.0000 0.0000
# 4 0.0000 0.0000 0.0000 -27.0111 0.0000 0.0000
# 5 0.0000 0.0000 0.0000 0.0000 3.2809 0.0000
# 6 0.0000 0.0000 0.0000 0.0000 0.0000 27.7719
#
#
#
# Elastic Compliance Matrix: (Units=1/GPa)
#
#
# Indices 1 2 3 4 5 6 
#
# 1 0.011458 -0.002750 -0.001995 0.000000 0.000000 0.000000
# 2 -0.002750 0.012126 -0.002675 0.000000 0.000000 0.000000
# 3 -0.001995 -0.002675 0.008832 0.000000 0.000000 0.000000
# 4 0.000000 0.000000 0.000000 -0.037022 0.000000 0.000000
# 5 0.000000 0.000000 0.000000 0.000000 0.304797 0.000000
# 6 0.000000 0.000000 0.000000 0.000000 0.000000 0.036008
#
#
# Mechanical properties :
#
#
# Convention : Reuss Voigt Hill
#
# Bulk Modulus (GPa) = 56.89227 58.08227 57.48727
# Shear Modulus (GPa) = 14.00963 16.21228 15.11096
#
# Velocity S-wave (km/s) = 2.85676 3.07314 2.96692
# Velocity P-wave (km/s) = 6.63499 6.81375 6.72496
#
# Compressibility (1/GPa) = 0.01757708
#
# Stress axis : x y z
#
# Youngs Moduli (GPa) = 87.27743 82.46712 113.21912
#
# Poissons Ratio (x) = 0.22675 0.22590
# Poissons Ratio (y) = 0.23998 0.30282
# Poissons Ratio (z) = 0.17414 0.22057
#
# Static dielectric constant tensor:
#      x y z
#    x 1.593500 0.000000 0.000000 
#    y 0.000000 1.554040 0.000000 
#    z 0.000000 0.000000 1.610310 
# 
# From -- ./inp_files/19489.got.cif
#   From: 2010.05.17/outbox.cif.g08.bks.cpg/sg37_10_cif.got.tgz:19489.got - 2010.06.03 17:53:42.
