data_PCOD9353541
_publ_section_title
;
Structure prediction by ZEFSAII (Michael W. Deem and Ramdas Pophale) SiO2 
 PCOD9353541
Probable space group: C C C 2
;
_chemical_formula_sum "Si O2"
_cell_formula_units_Z 64
_cell_length_a 16.275872
_cell_length_b 8.813357
_cell_length_c 24.651935
_cell_angle_alpha 90.000000
_cell_angle_beta 90.000000
_cell_angle_gamma 90.000000
_cell_volume 3536.198552
_symmetry_space_group_name_H-M "C C C 2"
_symmetry_group_IT_number 37
_symmetry_cell_setting 'orthorhombic'
loop_
_space_group_symop_operation_xyz
x,y,z
-x,-y,z
-x,y,1/2+z
x,-y,1/2+z
1/2+x,1/2+y,z
1/2-x,1/2-y,z
1/2-x,1/2+y,1/2+z
1/2+x,1/2-y,1/2+z
loop_
_atom_site_type_symbol
_atom_site_label
_atom_site_fract_x
_atom_site_fract_y
_atom_site_fract_z
Si Si1 0.579196 0.887821 0.532880
Si Si2 0.656088 0.301629 0.813061
Si Si3 0.993370 0.183591 0.737608
Si Si4 0.659100 0.186996 0.554099
Si Si5 0.156866 0.706993 0.429652
Si Si6 0.416901 0.899608 0.909717
Si Si7 0.504127 0.317641 0.615469
Si Si8 0.580142 0.605007 0.837017
O O1 0.581064 0.831223 0.470646
O O2 0.562493 0.755499 0.575227
O O3 0.500000 0.000000 0.534937
O O4 0.651761 0.003065 0.550639
O O5 0.750000 0.250000 0.807163
O O6 0.596298 0.274838 0.761225
O O7 0.611042 0.214807 0.863103
O O8 0.650414 0.482617 0.823655
O O9 0.008714 0.239684 0.677188
O O10 0.058535 0.213526 0.785921
O O11 0.000000 0.000000 0.733190
O O12 0.750000 0.250000 0.564950
O O13 0.635150 0.233514 0.492419
O O14 0.592504 0.257620 0.594626
O O15 0.250000 0.750000 0.421341
O O16 0.150121 0.531114 0.415444
O O17 0.099720 0.801159 0.389898
O O18 0.500000 0.000000 0.900033
O O19 0.500000 0.500000 0.613551
O O20 0.500000 0.500000 0.845773
#
# Coordination Sequence:
#
# PCOD9353541 Si02
#       8
#     8   8   8   8   8   8   8   8
#     4   8  17  33  51  72 102 133 165 207 250 300
#     4  10  19  31  50  77 102 127 162 205 247 289
#     4   8  18  34  50  68  97 131 163 203 250 290
#     4   9  19  34  52  75 105 135 161 198 259 312
#     4  10  19  32  50  74 104 134 159 193 247 307
#     4  10  18  31  49  73 103 131 161 201 245 295
#     4  10  19  34  55  73  93 131 178 216 249 293
#     4   9  18  33  51  70  99 132 164 201 242 292
#
# _framework density 18.098531999999999
#
# number of rings (size 3 to 8) (size 9 to 14) (size 15 to 20)
#    0.000    3.000    0.000    3.000    0.000    2.000 
#    0.000    6.875    0.000    6.000    0.000    1.750 
#    0.000    0.000    0.000    0.000    0.000    0.000 
#
# Total GULP energy -178151.814371 kJ/mol
# GULP energy per Si atom -5567.244199 kJ/mol
# Density = 1.805734 g / cm^3
# Si number density = 18.098532 Si / 1000 Ang^3
#
#
#
# Elastic Constant Matrix: (Units=GPa)
#
#
# Indices 1 2 3 4 5 6 
#
# 1 82.0575 32.3589 46.7073 0.0000 0.0000 0.0000
# 2 32.3589 41.0640 44.9888 0.0000 0.0000 0.0000
# 3 46.7073 44.9888 136.6265 0.0000 0.0000 0.0000
# 4 0.0000 0.0000 0.0000 43.8611 0.0000 0.0000
# 5 0.0000 0.0000 0.0000 0.0000 -13.3312 0.0000
# 6 0.0000 0.0000 0.0000 0.0000 0.0000 28.7412
#
#
#
# Elastic Compliance Matrix: (Units=1/GPa)
#
#
# Indices 1 2 3 4 5 6 
#
# 1 0.018146 -0.011737 -0.002339 0.000000 0.000000 0.000000
# 2 -0.011737 0.045687 -0.011032 0.000000 0.000000 0.000000
# 3 -0.002339 -0.011032 0.011751 0.000000 0.000000 0.000000
# 4 0.000000 0.000000 0.000000 0.022799 0.000000 0.000000
# 5 0.000000 0.000000 0.000000 0.000000 -0.075012 0.000000
# 6 0.000000 0.000000 0.000000 0.000000 0.000000 0.034793
#
#
# Mechanical properties :
#
#
# Convention : Reuss Voigt Hill
#
# Bulk Modulus (GPa) = 39.41687 56.42865 47.92276
# Shear Modulus (GPa) = 42.79479 20.90042 31.84761
#
# Velocity S-wave (km/s) = 4.86793 3.40194 4.19940
# Velocity P-wave (km/s) = 7.30904 6.83207 7.07458
#
# Compressibility (1/GPa) = 0.02536985
#
# Stress axis : x y z
#
# Youngs Moduli (GPa) = 55.10777 21.88792 85.09771
#
# Poissons Ratio (x) = 0.25691 0.19901
# Poissons Ratio (y) = 0.64682 0.93876
# Poissons Ratio (z) = 0.12887 0.24146
#
# Static dielectric constant tensor:
#      x y z
#    x 1.665540 0.000000 0.000000 
#    y 0.000000 1.641770 0.000000 
#    z 0.000000 0.000000 1.656980 
# 
# From -- ./inp_files/18995.got.cif
#   From: 2010.05.17/outbox.cif.g08.bks.cpg/sg37_10_cif.got.tgz:18995.got - 2010.06.03 17:53:42.
