data_PCOD9353805
_publ_section_title
;
Structure prediction by ZEFSAII (Michael W. Deem and Ramdas Pophale) SiO2 
 PCOD9353805
Probable space group: C C C 2
;
_chemical_formula_sum "Si O2"
_cell_formula_units_Z 48
_cell_length_a 20.261914
_cell_length_b 5.141055
_cell_length_c 23.516642
_cell_angle_alpha 90.000000
_cell_angle_beta 90.000000
_cell_angle_gamma 90.000000
_cell_volume 2449.672493
_symmetry_space_group_name_H-M "C C C 2"
_symmetry_group_IT_number 37
_symmetry_cell_setting 'orthorhombic'
loop_
_space_group_symop_operation_xyz
x,y,z
-x,-y,z
-x,y,1/2+z
x,-y,1/2+z
1/2+x,1/2+y,z
1/2-x,1/2-y,z
1/2-x,1/2+y,1/2+z
1/2+x,1/2-y,1/2+z
loop_
_atom_site_type_symbol
_atom_site_label
_atom_site_fract_x
_atom_site_fract_y
_atom_site_fract_z
Si Si1 0.138714 0.360779 0.884540
Si Si2 0.673801 0.721667 0.765468
Si Si3 0.183986 0.866191 0.941962
Si Si4 0.954621 0.258996 0.611494
Si Si5 0.567099 0.349813 0.485726
Si Si6 0.173366 0.278378 0.189483
O O1 0.128406 0.293160 0.819081
O O2 0.164118 0.649179 0.895794
O O3 0.079721 0.322237 0.929769
O O4 0.187647 0.136827 0.908421
O O5 0.750000 0.750000 0.785253
O O6 0.665376 0.436698 0.739297
O O7 0.665813 0.935537 0.716235
O O8 0.250000 0.750000 0.968892
O O9 0.126366 0.936876 0.986104
O O10 0.935701 0.298106 0.545151
O O11 0.886022 0.235444 0.645453
O O12 0.000000 0.500000 0.630850
O O13 0.000000 0.000000 0.615535
O O14 0.500000 0.500000 0.478418
O O15 0.250000 0.250000 0.168610
#
# Coordination Sequence:
#
# PCOD9353805 Si02
#       6
#     8   8   8   8   8   8
#     4  10  21  35  62  89 123 155 200 240 301 368
#     4  10  19  36  63  91 125 158 195 251 311 365
#     4  10  20  35  57  89 120 152 196 245 292 360
#     4  11  24  44  67  85 122 169 208 251 314 371
#     4   9  24  39  61  85 123 162 201 245 304 367
#     4  10  22  41  64  94 119 156 211 259 303 355
#
# _framework density 19.594456000000001
#
# number of rings (size 3 to 8) (size 9 to 14) (size 15 to 20)
#    1.000    1.000    0.000    3.500    4.667    1.333 
#    3.000    3.333    3.667    0.000    0.000    0.000 
#    0.000    0.000    0.000    0.000    0.000    0.000 
#
# Total GULP energy -133652.865566 kJ/mol
# GULP energy per Si atom -5568.869399 kJ/mol
# Density = 1.954986 g / cm^3
# Si number density = 19.594456 Si / 1000 Ang^3
#
#
#
# Elastic Constant Matrix: (Units=GPa)
#
#
# Indices 1 2 3 4 5 6 
#
# 1 98.5622 3.7354 43.1169 0.0000 0.0000 0.0000
# 2 3.7354 67.6087 -9.7828 0.0000 0.0000 0.0000
# 3 43.1169 -9.7828 69.5490 0.0000 0.0000 0.0000
# 4 0.0000 0.0000 0.0000 25.0616 0.0000 0.0000
# 5 0.0000 0.0000 0.0000 0.0000 17.2519 0.0000
# 6 0.0000 0.0000 0.0000 0.0000 0.0000 26.5814
#
#
#
# Elastic Compliance Matrix: (Units=1/GPa)
#
#
# Indices 1 2 3 4 5 6 
#
# 1 0.014208 -0.002102 -0.009104 0.000000 0.000000 0.000000
# 2 -0.002102 0.015409 0.003471 0.000000 0.000000 0.000000
# 3 -0.009104 0.003471 0.020511 0.000000 0.000000 0.000000
# 4 0.000000 0.000000 0.000000 0.039902 0.000000 0.000000
# 5 0.000000 0.000000 0.000000 0.000000 0.057965 0.000000
# 6 0.000000 0.000000 0.000000 0.000000 0.000000 0.037620
#
#
# Mechanical properties :
#
#
# Convention : Reuss Voigt Hill
#
# Bulk Modulus (GPa) = 28.85416 34.42877 31.64147
# Shear Modulus (GPa) = 23.51408 27.02234 25.26821
#
# Velocity S-wave (km/s) = 3.46791 3.71763 3.59494
# Velocity P-wave (km/s) = 5.54913 6.00304 5.78054
#
# Compressibility (1/GPa) = 0.03465704
#
# Stress axis : x y z
#
# Youngs Moduli (GPa) = 70.38172 64.89554 48.75509
#
# Poissons Ratio (x) = 0.13643 0.44387
# Poissons Ratio (y) = 0.14797 -0.16922
# Poissons Ratio (z) = 0.64076 -0.22524
#
# Static dielectric constant tensor:
#      x y z
#    x 1.724590 0.000000 0.000000 
#    y 0.000000 1.674380 0.000000 
#    z 0.000000 0.000000 1.686930 
# 
# From -- ./inp_files/18964.got.cif
#   From: 2010.05.17/outbox.cif.g08.bks.cpg/sg37_10_cif.got.tgz:18964.got - 2010.06.03 17:53:42.
