data_PCOD9353748
_publ_section_title
;
Structure prediction by ZEFSAII (Michael W. Deem and Ramdas Pophale) SiO2 
 PCOD9353748
Probable space group: C C C 2
;
_chemical_formula_sum "Si O2"
_cell_formula_units_Z 56
_cell_length_a 4.942182
_cell_length_b 27.310717
_cell_length_c 22.035516
_cell_angle_alpha 90.000000
_cell_angle_beta 90.000000
_cell_angle_gamma 90.000000
_cell_volume 2974.233503
_symmetry_space_group_name_H-M "C C C 2"
_symmetry_group_IT_number 37
_symmetry_cell_setting 'orthorhombic'
loop_
_space_group_symop_operation_xyz
x,y,z
-x,-y,z
-x,y,1/2+z
x,-y,1/2+z
1/2+x,1/2+y,z
1/2-x,1/2-y,z
1/2-x,1/2+y,1/2+z
1/2+x,1/2-y,1/2+z
loop_
_atom_site_type_symbol
_atom_site_label
_atom_site_fract_x
_atom_site_fract_y
_atom_site_fract_z
Si Si1 0.190106 0.650748 0.299310
Si Si2 0.998779 0.942797 0.667423
Si Si3 0.702109 0.307593 0.732068
Si Si4 0.004451 0.284371 0.410460
Si Si5 0.000642 0.557199 0.749730
Si Si6 0.713138 0.807363 0.541349
Si Si7 0.196612 0.850585 0.602029
O O1 0.484044 0.669597 0.278750
O O2 0.093293 0.677823 0.359798
O O3 0.123329 0.593049 0.300169
O O4 0.989830 0.668288 0.245926
O O5 0.696909 0.933722 0.691812
O O6 0.196683 0.933998 0.725372
O O7 0.115895 0.906306 0.617280
O O8 0.000000 0.000000 0.650270
O O9 0.750000 0.250000 0.738772
O O10 0.621515 0.321355 0.663711
O O11 0.750000 0.250000 0.425410
O O12 0.250000 0.250000 0.387175
O O13 0.110339 0.308197 0.472350
O O14 0.000000 0.500000 0.766506
O O15 0.750000 0.750000 0.558235
O O16 0.499781 0.836032 0.583565
O O17 0.003684 0.831586 0.548994
#
# Coordination Sequence:
#
# PCOD9353748 Si02
#       7
#     8   8   8   8   8   8   8
#     4  12  21  37  56  82 114 146 185 232 280 336
#     4  10  20  36  56  81 112 145 182 223 278 345
#     4  12  23  33  52  85 118 146 174 227 294 341
#     4  11  23  40  58  78 109 153 197 227 262 324
#     4  10  19  35  56  81 112 145 182 224 277 344
#     4  11  23  38  56  79 110 153 196 227 266 329
#     4  12  21  37  57  82 114 146 184 232 280 337
#
# _framework density 18.828379000000002
#
# number of rings (size 3 to 8) (size 9 to 14) (size 15 to 20)
#    0.000    0.857    2.857    7.286    0.000    0.000 
#    0.000    0.000    0.000    1.714    0.000    0.000 
#    0.000    0.000    0.000    0.000    0.000    0.000 
#
# Total GULP energy -156364.475794 kJ/mol
# GULP energy per Si atom -5584.445564 kJ/mol
# Density = 1.878552 g / cm^3
# Si number density = 18.828379 Si / 1000 Ang^3
#
#
#
# Elastic Constant Matrix: (Units=GPa)
#
#
# Indices 1 2 3 4 5 6 
#
# 1 76.4986 9.6050 -4.6310 0.0000 0.0000 0.0000
# 2 9.6050 111.6677 21.4287 0.0000 0.0000 0.0000
# 3 -4.6310 21.4287 62.9211 0.0000 0.0000 0.0000
# 4 0.0000 0.0000 0.0000 13.7263 0.0000 0.0000
# 5 0.0000 0.0000 0.0000 0.0000 27.3993 0.0000
# 6 0.0000 0.0000 0.0000 0.0000 0.0000 33.1771
#
#
#
# Elastic Compliance Matrix: (Units=1/GPa)
#
#
# Indices 1 2 3 4 5 6 
#
# 1 0.013341 -0.001429 0.001469 0.000000 0.000000 0.000000
# 2 -0.001429 0.009734 -0.003420 0.000000 0.000000 0.000000
# 3 0.001469 -0.003420 0.017166 0.000000 0.000000 0.000000
# 4 0.000000 0.000000 0.000000 0.072853 0.000000 0.000000
# 5 0.000000 0.000000 0.000000 0.000000 0.036497 0.000000
# 6 0.000000 0.000000 0.000000 0.000000 0.000000 0.030141
#
#
# Mechanical properties :
#
#
# Convention : Reuss Voigt Hill
#
# Bulk Modulus (GPa) = 29.86975 33.76587 31.81781
# Shear Modulus (GPa) = 25.29673 29.83950 27.56811
#
# Velocity S-wave (km/s) = 3.66941 3.98529 3.83061
# Velocity P-wave (km/s) = 5.81820 6.25693 6.04155
#
# Compressibility (1/GPa) = 0.03347869
#
# Stress axis : x y z
#
# Youngs Moduli (GPa) = 74.95965 102.72796 58.25508
#
# Poissons Ratio (x) = 0.14683 -0.08556
# Poissons Ratio (y) = 0.10714 0.19926
# Poissons Ratio (z) = -0.11009 0.35137
#
# Static dielectric constant tensor:
#      x y z
#    x 1.663630 0.000000 0.000000 
#    y 0.000000 1.761320 0.000000 
#    z 0.000000 0.000000 1.636160 
# 
# From -- ./inp_files/15997.got.cif
#   From: 2010.05.17/outbox.cif.g08.bks.cpg/sg37_8_cif.got.tgz:15997.got - 2010.06.03 17:53:42.
