data_PCOD9353505
_publ_section_title
;
Structure prediction by ZEFSAII (Michael W. Deem and Ramdas Pophale) SiO2 
 PCOD9353505
Probable space group: C C C 2
;
_chemical_formula_sum "Si O2"
_cell_formula_units_Z 64
_cell_length_a 8.983077
_cell_length_b 14.734460
_cell_length_c 22.076915
_cell_angle_alpha 90.000000
_cell_angle_beta 90.000000
_cell_angle_gamma 90.000000
_cell_volume 2922.117882
_symmetry_space_group_name_H-M "C C C 2"
_symmetry_group_IT_number 37
_symmetry_cell_setting 'orthorhombic'
loop_
_space_group_symop_operation_xyz
x,y,z
-x,-y,z
-x,y,1/2+z
x,-y,1/2+z
1/2+x,1/2+y,z
1/2-x,1/2-y,z
1/2-x,1/2+y,1/2+z
1/2+x,1/2-y,1/2+z
loop_
_atom_site_type_symbol
_atom_site_label
_atom_site_fract_x
_atom_site_fract_y
_atom_site_fract_z
Si Si1 0.891621 0.702239 0.164330
Si Si2 0.918937 0.094936 0.356589
Si Si3 0.179881 0.511137 0.677672
Si Si4 0.926545 0.761775 0.960612
Si Si5 0.178089 0.509463 0.038560
Si Si6 0.132651 0.168036 0.728282
Si Si7 0.374425 0.072281 0.916666
Si Si8 0.383076 0.199091 0.565604
O O1 0.750000 0.750000 0.134756
O O2 0.817193 0.617052 0.200663
O O3 0.997709 0.780764 0.192462
O O4 0.000417 0.661359 0.113444
O O5 0.957780 0.160157 0.412644
O O6 0.940914 0.138938 0.291578
O O7 0.741840 0.080527 0.363234
O O8 0.000000 0.000000 0.361551
O O9 0.229364 0.515507 0.606175
O O10 0.277681 0.424379 0.703584
O O11 0.000000 0.500000 0.684301
O O12 0.750000 0.750000 0.974063
O O13 0.957024 0.666119 0.928349
O O14 0.025014 0.762063 0.020448
O O15 0.197276 0.616905 0.031241
O O16 0.000000 0.500000 0.037886
O O17 0.218785 0.454657 0.978190
O O18 0.250000 0.250000 0.738315
O O19 0.500000 0.000000 0.904681
O O20 0.250000 0.250000 0.598829
#
# Coordination Sequence:
#
# PCOD9353505 Si02
#       8
#     8   8   8   8   8   8   8   8
#     4  12  26  43  69 108 142 180 227 289 360 422
#     4  11  28  46  64  92 142 174 227 298 345 387
#     4  11  21  42  74 103 137 181 230 287 350 420
#     4  10  21  41  64  94 132 179 219 273 340 407
#     4  10  17  35  64  98 134 165 219 278 330 414
#     4  12  25  49  73  99 134 190 242 289 343 428
#     4  10  19  40  70  95 128 179 227 271 333 421
#     4  12  22  37  67 104 141 176 221 282 343 427
#
# _framework density 21.901921999999999
#
# number of rings (size 3 to 8) (size 9 to 14) (size 15 to 20)
#    0.000    1.000    6.250    2.625    3.500    1.500 
#    2.250    0.625    0.000    0.000    0.000    0.000 
#    0.000    0.000    0.000    0.000    0.000    0.000 
#
# Total GULP energy -178143.127101 kJ/mol
# GULP energy per Si atom -5566.972722 kJ/mol
# Density = 2.185207 g / cm^3
# Si number density = 21.901922 Si / 1000 Ang^3
#
#
#
# Elastic Constant Matrix: (Units=GPa)
#
#
# Indices 1 2 3 4 5 6 
#
# 1 50.7502 40.3427 12.4551 0.0000 0.0000 0.0000
# 2 40.3427 131.5112 33.2650 0.0000 0.0000 0.0000
# 3 12.4551 33.2650 75.5124 0.0000 0.0000 0.0000
# 4 0.0000 0.0000 0.0000 3.0159 0.0000 0.0000
# 5 0.0000 0.0000 0.0000 0.0000 3.7064 0.0000
# 6 0.0000 0.0000 0.0000 0.0000 0.0000 25.8737
#
#
#
# Elastic Compliance Matrix: (Units=1/GPa)
#
#
# Indices 1 2 3 4 5 6 
#
# 1 0.026110 -0.007788 -0.000876 0.000000 0.000000 0.000000
# 2 -0.007788 0.010880 -0.003509 0.000000 0.000000 0.000000
# 3 -0.000876 -0.003509 0.014933 0.000000 0.000000 0.000000
# 4 0.000000 0.000000 0.000000 0.331576 0.000000 0.000000
# 5 0.000000 0.000000 0.000000 0.000000 0.269801 0.000000
# 6 0.000000 0.000000 0.000000 0.000000 0.000000 0.038649
#
#
# Mechanical properties :
#
#
# Convention : Reuss Voigt Hill
#
# Bulk Modulus (GPa) = 36.25978 47.76658 42.01318
# Shear Modulus (GPa) = 6.89191 17.96660 12.42926
#
# Velocity S-wave (km/s) = 1.77582 2.86723 2.38480
# Velocity P-wave (km/s) = 4.56028 5.72870 5.17756
#
# Compressibility (1/GPa) = 0.02757876
#
# Stress axis : x y z
#
# Youngs Moduli (GPa) = 38.29913 91.90771 66.96616
#
# Poissons Ratio (x) = 0.71579 0.05865
# Poissons Ratio (y) = 0.29828 0.23495
# Poissons Ratio (z) = 0.03354 0.32246
#
# Static dielectric constant tensor:
#      x y z
#    x 1.866750 0.000000 0.000000 
#    y 0.000000 1.949180 0.000000 
#    z 0.000000 0.000000 1.805100 
# 
# From -- ./inp_files/18514.got.cif
#   From: 2010.05.17/outbox.cif.g08.bks.cpg/sg37_10_cif.got.tgz:18514.got - 2010.06.03 17:53:42.
