data_PCOD9353864
_publ_section_title
;
Structure prediction by ZEFSAII (Michael W. Deem and Ramdas Pophale) SiO2 
 PCOD9353864
Probable space group: C C C 2
;
_chemical_formula_sum "Si O2"
_cell_formula_units_Z 64
_cell_length_a 11.456242
_cell_length_b 25.945466
_cell_length_c 8.091512
_cell_angle_alpha 90.000000
_cell_angle_beta 90.000000
_cell_angle_gamma 90.000000
_cell_volume 2405.101100
_symmetry_space_group_name_H-M "C C C 2"
_symmetry_group_IT_number 37
_symmetry_cell_setting 'orthorhombic'
loop_
_space_group_symop_operation_xyz
x,y,z
-x,-y,z
-x,y,1/2+z
x,-y,1/2+z
1/2+x,1/2+y,z
1/2-x,1/2-y,z
1/2-x,1/2+y,1/2+z
1/2+x,1/2-y,1/2+z
loop_
_atom_site_type_symbol
_atom_site_label
_atom_site_fract_x
_atom_site_fract_y
_atom_site_fract_z
Si Si1 0.867354 0.221202 0.848020
Si Si2 0.721388 0.048448 0.396838
Si Si3 0.902974 0.624366 0.080814
Si Si4 0.843021 0.895951 0.347861
Si Si5 0.369323 0.939709 0.025124
Si Si6 0.577041 0.409241 0.226355
Si Si7 0.706899 0.696224 0.714090
Si Si8 0.951070 0.692321 0.787063
O O1 0.750000 0.250000 0.793016
O O2 0.857141 0.162945 0.789297
O O3 0.983508 0.252936 0.801175
O O4 0.856892 0.214553 0.047062
O O5 0.711232 0.092131 0.538098
O O6 0.853481 0.048286 0.332303
O O7 0.660880 0.997896 0.469629
O O8 0.662549 0.063452 0.220324
O O9 0.001137 0.582823 0.023358
O O10 0.901813 0.673780 0.960806
O O11 0.949088 0.651863 0.242064
O O12 0.711648 0.911006 0.390286
O O13 0.892926 0.904887 0.534129
O O14 0.941448 0.922270 0.239449
O O15 0.631742 0.351927 0.284383
O O16 0.750000 0.750000 0.805003
O O17 0.840707 0.679617 0.666756
#
# Coordination Sequence:
#
# PCOD9353864 Si02
#       8
#     8   8   8   8   8   8   8   8
#     4  10  21  40  66 100 137 187 238 285 355 434
#     4  11  25  44  69  98 138 183 236 295 370 433
#     4  12  23  43  67 102 144 179 234 293 365 435
#     4  10  22  42  67  92 138 180 232 293 351 420
#     4  11  25  45  68 101 137 189 233 302 368 433
#     4  10  21  43  63  97 132 179 233 291 353 423
#     4  10  19  39  67  94 141 187 232 289 354 422
#     4  12  23  40  72 105 141 192 234 295 365 434
#
# _framework density 26.610106999999999
#
# number of rings (size 3 to 8) (size 9 to 14) (size 15 to 20)
#    0.000    1.250    2.500    4.875    1.750    3.500 
#    2.250    3.125    0.000    0.000    0.000    0.000 
#    0.000    0.000    0.000    0.000    0.000    0.000 
#
# Total GULP energy -178483.551009 kJ/mol
# GULP energy per Si atom -5577.610969 kJ/mol
# Density = 2.654954 g / cm^3
# Si number density = 26.610107 Si / 1000 Ang^3
#
#
#
# Elastic Constant Matrix: (Units=GPa)
#
#
# Indices 1 2 3 4 5 6 
#
# 1 84.8554 -2.3431 -8.2113 0.0000 0.0000 0.0000
# 2 -2.3431 93.0856 -5.8376 0.0000 0.0000 0.0000
# 3 -8.2113 -5.8376 54.2807 0.0000 0.0000 0.0000
# 4 0.0000 0.0000 0.0000 31.7664 0.0000 0.0000
# 5 0.0000 0.0000 0.0000 0.0000 28.9157 0.0000
# 6 0.0000 0.0000 0.0000 0.0000 0.0000 39.2800
#
#
#
# Elastic Compliance Matrix: (Units=1/GPa)
#
#
# Indices 1 2 3 4 5 6 
#
# 1 0.011976 0.000418 0.001857 0.000000 0.000000 0.000000
# 2 0.000418 0.010830 0.001228 0.000000 0.000000 0.000000
# 3 0.001857 0.001228 0.018836 0.000000 0.000000 0.000000
# 4 0.000000 0.000000 0.000000 0.031480 0.000000 0.000000
# 5 0.000000 0.000000 0.000000 0.000000 0.034583 0.000000
# 6 0.000000 0.000000 0.000000 0.000000 0.000000 0.025458
#
#
# Mechanical properties :
#
#
# Convention : Reuss Voigt Hill
#
# Bulk Modulus (GPa) = 20.55631 22.15973 21.35802
# Shear Modulus (GPa) = 35.11874 36.56665 35.84269
#
# Velocity S-wave (km/s) = 3.63678 3.71099 3.67407
# Velocity P-wave (km/s) = 5.03753 5.16794 5.10315
#
# Compressibility (1/GPa) = 0.04864687
#
# Stress axis : x y z
#
# Youngs Moduli (GPa) = 83.50063 92.33328 53.09072
#
# Poissons Ratio (x) = -0.03858 -0.09857
# Poissons Ratio (y) = -0.03489 -0.06519
# Poissons Ratio (z) = -0.15503 -0.11338
#
# Static dielectric constant tensor:
#      x y z
#    x 2.281140 0.000000 0.000000 
#    y 0.000000 2.247350 0.000000 
#    z 0.000000 0.000000 2.169990 
# 
# From -- ./inp_files/3137.got.cif
#   From: 2010.05.17/outbox.cif.g08.bks.cpg/sg37_2_cif.got.tgz:3137.got - 2010.06.03 17:53:42.
