data_PCOD9353927
_publ_section_title
;
Structure prediction by ZEFSAII (Michael W. Deem and Ramdas Pophale) SiO2 
 PCOD9353927
Probable space group: C C C 2
;
_chemical_formula_sum "Si O2"
_cell_formula_units_Z 56
_cell_length_a 20.959040
_cell_length_b 16.124111
_cell_length_c 8.987296
_cell_angle_alpha 90.000000
_cell_angle_beta 90.000000
_cell_angle_gamma 90.000000
_cell_volume 3037.219722
_symmetry_space_group_name_H-M "C C C 2"
_symmetry_group_IT_number 37
_symmetry_cell_setting 'orthorhombic'
loop_
_space_group_symop_operation_xyz
x,y,z
-x,-y,z
-x,y,1/2+z
x,-y,1/2+z
1/2+x,1/2+y,z
1/2-x,1/2-y,z
1/2-x,1/2+y,1/2+z
1/2+x,1/2-y,1/2+z
loop_
_atom_site_type_symbol
_atom_site_label
_atom_site_fract_x
_atom_site_fract_y
_atom_site_fract_z
Si Si1 0.626162 0.252973 0.698340
Si Si2 0.542094 0.381278 0.571222
Si Si3 0.500000 0.500000 0.325643
Si Si4 0.049922 0.268486 0.496025
Si Si5 0.881544 0.501863 0.781473
Si Si6 0.067833 0.390032 0.041762
Si Si7 0.250000 0.750000 0.899461
Si Si8 0.167970 0.619369 0.040176
O O1 0.604794 0.326731 0.591611
O O2 0.570081 0.242841 0.823273
O O3 0.623995 0.171451 0.596924
O O4 0.689726 0.265702 0.792171
O O5 0.542749 0.443563 0.433151
O O6 0.535531 0.436631 0.717846
O O7 0.481596 0.317768 0.552348
O O8 0.113156 0.310134 0.567159
O O9 0.995214 0.336479 0.520872
O O10 0.931467 0.458076 0.671286
O O11 0.833775 0.553755 0.674775
O O12 0.915847 0.565878 0.889298
O O13 0.851160 0.432845 0.891423
O O14 0.230995 0.671287 0.000813
#
# Coordination Sequence:
#
# PCOD9353927 Si02
#       8
#     8   8   4   8   8   8   4   8
#     4  10  20  39  58  86 110 164 196 243 284 356
#     4  10  20  35  57  81 119 146 196 236 304 348
#     4  10  20  34  56  84 120 148 176 262 304 342
#     4  10  20  33  56  86 116 155 190 228 287 366
#     4  10  21  36  55  91 121 151 187 242 291 347
#     4  10  21  34  56  85 124 150 188 233 298 344
#     4  10  20  42  62  78 114 166 202 240 284 352
#     4  10  22  37  61  79 119 155 195 235 292 338
#
# _framework density 18.437913999999999
#
# number of rings (size 3 to 8) (size 9 to 14) (size 15 to 20)
#    0.000    2.000    4.286    0.000    4.000    3.429 
#    0.000    2.143    0.000    0.000    0.000    0.000 
#    0.000    0.000    0.000    0.000    0.000    0.000 
#
# Total GULP energy -156072.354128 kJ/mol
# GULP energy per Si atom -5574.012647 kJ/mol
# Density = 1.839595 g / cm^3
# Si number density = 18.437914 Si / 1000 Ang^3
#
#
#
# Elastic Constant Matrix: (Units=GPa)
#
#
# Indices 1 2 3 4 5 6 
#
# 1 69.4401 39.5676 29.4950 0.0000 0.0000 0.0000
# 2 39.5676 118.1449 54.0620 0.0000 0.0000 0.0000
# 3 29.4950 54.0620 108.3594 0.0000 0.0000 0.0000
# 4 0.0000 0.0000 0.0000 33.9970 0.0000 0.0000
# 5 0.0000 0.0000 0.0000 0.0000 18.1250 0.0000
# 6 0.0000 0.0000 0.0000 0.0000 0.0000 25.6847
#
#
#
# Elastic Compliance Matrix: (Units=1/GPa)
#
#
# Indices 1 2 3 4 5 6 
#
# 1 0.018302 -0.004989 -0.002493 0.000000 0.000000 0.000000
# 2 -0.004989 0.012328 -0.004793 0.000000 0.000000 0.000000
# 3 -0.002493 -0.004793 0.012298 0.000000 0.000000 0.000000
# 4 0.000000 0.000000 0.000000 0.029414 0.000000 0.000000
# 5 0.000000 0.000000 0.000000 0.000000 0.055172 0.000000
# 6 0.000000 0.000000 0.000000 0.000000 0.000000 0.038934
#
#
# Mechanical properties :
#
#
# Convention : Reuss Voigt Hill
#
# Bulk Modulus (GPa) = 54.40721 60.24374 57.32548
# Shear Modulus (GPa) = 25.36465 27.08266 26.22365
#
# Velocity S-wave (km/s) = 3.71304 3.83672 3.77539
# Velocity P-wave (km/s) = 6.92493 7.23685 7.08261
#
# Compressibility (1/GPa) = 0.01837992
#
# Stress axis : x y z
#
# Youngs Moduli (GPa) = 54.63735 81.11537 81.31251
#
# Poissons Ratio (x) = 0.40468 0.20270
# Poissons Ratio (y) = 0.27258 0.38971
# Poissons Ratio (z) = 0.13620 0.38876
#
# Static dielectric constant tensor:
#      x y z
#    x 1.624010 0.000000 0.000000 
#    y 0.000000 1.690850 0.000000 
#    z 0.000000 0.000000 1.649790 
# 
# From -- ./inp_files/4140.got.cif
#   From: 2010.05.17/outbox.cif.g08.bks.cpg/sg37_3_cif.got.tgz:4140.got - 2010.06.03 17:53:42.
