data_PCOD9353347
_publ_section_title
;
Structure prediction by ZEFSAII (Michael W. Deem and Ramdas Pophale) SiO2 
 PCOD9353347
Probable space group: C M C 21
;
_chemical_formula_sum "Si O2"
_cell_formula_units_Z 32
_cell_length_a 9.000000
_cell_length_b 15.000000
_cell_length_c 24.000000
_cell_angle_alpha 90.000000
_cell_angle_beta 90.000000
_cell_angle_gamma 90.000000
_cell_volume 3240.000000
_symmetry_space_group_name_H-M "C M C 21"
_symmetry_group_IT_number 36
_symmetry_cell_setting 'orthorhombic'
loop_
_space_group_symop_operation_xyz
x,y,z
-x,-y,1/2+z
x,-y,1/2+z
-x,y,z
1/2+x,1/2+y,z
1/2-x,1/2-y,1/2+z
1/2+x,1/2-y,1/2+z
1/2-x,1/2+y,z
loop_
_atom_site_type_symbol
_atom_site_label
_atom_site_fract_x
_atom_site_fract_y
_atom_site_fract_z
Si Si1 0.323652 0.656760 0.621790
Si Si2 0.179301 0.103091 0.299435
Si Si3 0.679699 0.682372 0.181108
Si Si4 0.822790 0.067031 0.859919
Si Si5 0.175969 0.258212 0.381683
Si Si6 0.824542 0.494146 0.474188
Si Si7 0.321030 0.963623 0.600063
Si Si8 0.324835 0.681245 0.495494
O O1 0.500000 0.646355 0.632298
O O2 0.246895 0.721482 0.665994
O O3 0.246566 0.560109 0.616907
O O4 0.307321 0.702774 0.560472
O O5 0.228649 0.147384 0.242023
O O6 0.213227 0.164950 0.352485
O O7 0.000000 0.099065 0.295592
O O8 0.232675 0.004363 0.314496
O O9 0.500000 0.685265 0.178616
O O10 0.743878 0.611721 0.136849
O O11 0.763200 0.165255 0.850403
O O12 0.000000 0.065167 0.860553
O O13 0.763204 0.040359 0.920887
O O14 0.208225 0.253143 0.447730
O O15 0.000000 0.273607 0.375537
O O16 0.790664 0.449777 0.534082
O O17 0.777504 0.596603 0.483118
O O18 0.000000 0.485109 0.463933
O O19 0.500000 0.963587 0.607278
O O20 0.500000 0.656605 0.487608
#
# Coordination Sequence:
#
# PCOD9353347 Si02
#       8
#     8   8   8   8   8   8   8   8
#     4  10  21  38  60  90 122 157 197 243 297 354
#     4   9  21  42  62  81 117 158 197 243 294 348
#     4  11  23  40  63  89 118 159 204 247 294 352
#     4  11  22  38  59  87 118 154 196 242 295 351
#     4  10  20  38  60  85 116 155 192 236 295 353
#     4  10  20  35  58  87 121 154 193 242 293 349
#     4  10  22  40  60  87 122 160 200 246 296 351
#     4   9  18  35  60  84 118 157 189 233 296 354
#
# _framework density 9.8765429999999999
#
# number of rings (size 3 to 8) (size 9 to 14) (size 15 to 20)
#    0.000    2.000    1.250    1.875    1.750    3.500 
#    0.000    6.250    0.000    0.000    0.000    0.000 
#    0.000    0.000    0.000    0.000    0.000    0.000 
#
# Total GULP energy -178646.578769 kJ/mol
# GULP energy per Si atom -5582.705587 kJ/mol
# Density = 0.985406 g / cm^3
# Si number density = 9.876543 Si / 1000 Ang^3
#
#
#
# Elastic Constant Matrix: (Units=GPa)
#
#
# Indices 1 2 3 4 5 6 
#
# 1 42.6041 2.2256 4.8661 0.0000 0.0000 0.0000
# 2 2.2256 31.4786 -16.1499 0.0000 0.0000 0.0000
# 3 4.8661 -16.1499 25.7227 0.0000 0.0000 0.0000
# 4 0.0000 0.0000 0.0000 23.7051 0.0000 0.0000
# 5 0.0000 0.0000 0.0000 0.0000 23.1656 0.0000
# 6 0.0000 0.0000 0.0000 0.0000 0.0000 32.9327
#
#
#
# Elastic Compliance Matrix: (Units=1/GPa)
#
#
# Indices 1 2 3 4 5 6 
#
# 1 0.024767 -0.006129 -0.008533 0.000000 0.000000 0.000000
# 2 -0.006129 0.048380 0.031534 0.000000 0.000000 0.000000
# 3 -0.008533 0.031534 0.060289 0.000000 0.000000 0.000000
# 4 0.000000 0.000000 0.000000 0.042185 0.000000 0.000000
# 5 0.000000 0.000000 0.000000 0.000000 0.043167 0.000000
# 6 0.000000 0.000000 0.000000 0.000000 0.000000 0.030365
#
#
# Mechanical properties :
#
#
# Convention : Reuss Voigt Hill
#
# Bulk Modulus (GPa) = 5.98160 9.07655 7.52907
# Shear Modulus (GPa) = 18.44097 23.21824 20.82961
#
# Velocity S-wave (km/s) = 3.05876 3.43216 3.25083
# Velocity P-wave (km/s) = 3.93820 4.50681 4.23207
#
# Compressibility (1/GPa) = 0.16717935
#
# Stress axis : x y z
#
# Youngs Moduli (GPa) = 40.37671 20.66991 16.58672
#
# Poissons Ratio (x) = 0.12669 0.14154
# Poissons Ratio (y) = 0.24747 -0.52305
# Poissons Ratio (z) = 0.34455 -0.65181
#
# Static dielectric constant tensor:
#      x y z
#    x 1.657440 0.000000 0.000000 
#    y 0.000000 1.708870 0.000000 
#    z 0.000000 0.000000 1.700030 
# 
# From -- ./inp_files/16567.got.cif
#   From: 2010.05.17/outbox.ucp.g08.bks.cvg/sg36_9_cif.got.tgz:16567.got - 2010.06.11 10:37:26.
