data_PCOD9353125
_publ_section_title
;
Structure prediction by ZEFSAII (Michael W. Deem and Ramdas Pophale) SiO2 
 PCOD9353125
Probable space group: C M C 21
;
_chemical_formula_sum "Si O2"
_cell_formula_units_Z 64
_cell_length_a 8.885130
_cell_length_b 25.656346
_cell_length_c 15.798761
_cell_angle_alpha 90.000000
_cell_angle_beta 90.000000
_cell_angle_gamma 90.000000
_cell_volume 3601.485076
_symmetry_space_group_name_H-M "C M C 21"
_symmetry_group_IT_number 36
_symmetry_cell_setting 'orthorhombic'
loop_
_space_group_symop_operation_xyz
x,y,z
-x,-y,1/2+z
x,-y,1/2+z
-x,y,z
1/2+x,1/2+y,z
1/2-x,1/2-y,1/2+z
1/2+x,1/2-y,1/2+z
1/2-x,1/2+y,z
loop_
_atom_site_type_symbol
_atom_site_label
_atom_site_fract_x
_atom_site_fract_y
_atom_site_fract_z
Si Si1 0.675961 0.489651 0.653770
Si Si2 0.680485 0.726993 0.182366
Si Si3 0.823813 0.634156 0.922760
Si Si4 0.175988 0.925974 0.284034
Si Si5 0.323376 0.879105 0.623435
Si Si6 0.680445 0.259130 0.360703
Si Si7 0.817244 0.698320 0.526898
Si Si8 0.819288 0.406672 0.113887
O O1 0.500000 0.484089 0.633088
O O2 0.687646 0.515454 0.747442
O O3 0.759581 0.435399 0.647744
O O4 0.750011 0.536023 0.597534
O O5 0.500000 0.729249 0.185672
O O6 0.735238 0.668292 0.166157
O O7 0.747830 0.746738 0.270431
O O8 0.730936 0.762754 0.102533
O O9 0.759716 0.585521 0.870365
O O10 0.731766 0.684068 0.891404
O O11 0.000000 0.641437 0.904005
O O12 0.805710 0.626956 0.022462
O O13 0.255816 0.893651 0.207995
O O14 0.000000 0.912528 0.289438
O O15 0.500000 0.875429 0.644180
O O16 0.500000 0.256961 0.354224
O O17 0.730918 0.219494 0.435477
O O18 0.772668 0.639478 0.551058
O O19 0.000000 0.699231 0.526871
O O20 0.000000 0.409856 0.116800
#
# Coordination Sequence:
#
# PCOD9353125 Si02
#       8
#     8   8   8   8   8   8   8   8
#     4   9  20  37  57  85 114 150 196 241 296 357
#     4  11  22  39  60  87 121 160 197 245 304 359
#     4  11  22  36  57  88 119 152 201 252 299 357
#     4   9  19  34  55  85 113 148 194 242 294 349
#     4  11  23  39  60  87 119 160 204 248 303 363
#     4  11  22  38  58  86 120 159 202 246 299 365
#     4   9  19  35  57  84 117 154 193 235 295 356
#     4   9  16  32  58  84 113 151 193 241 290 348
#
# _framework density 17.770447000000001
#
# number of rings (size 3 to 8) (size 9 to 14) (size 15 to 20)
#    0.750    1.250    1.250    3.000    0.000    2.500 
#    0.000    5.000    0.000    1.500    0.000    0.000 
#    0.000    0.000    0.000    0.000    0.000    0.000 
#
# Total GULP energy -178384.225624 kJ/mol
# GULP energy per Si atom -5574.507051 kJ/mol
# Density = 1.773000 g / cm^3
# Si number density = 17.770447 Si / 1000 Ang^3
#
#
#
# Elastic Constant Matrix: (Units=GPa)
#
#
# Indices 1 2 3 4 5 6 
#
# 1 72.2182 15.5642 22.6889 0.0000 0.0000 0.0000
# 2 15.5642 65.6751 -6.0648 0.0000 0.0000 0.0000
# 3 22.6889 -6.0648 37.7149 0.0000 0.0000 0.0000
# 4 0.0000 0.0000 0.0000 14.6916 0.0000 0.0000
# 5 0.0000 0.0000 0.0000 0.0000 25.2472 0.0000
# 6 0.0000 0.0000 0.0000 0.0000 0.0000 29.8717
#
#
#
# Elastic Compliance Matrix: (Units=1/GPa)
#
#
# Indices 1 2 3 4 5 6 
#
# 1 0.018917 -0.005617 -0.012283 0.000000 0.000000 0.000000
# 2 -0.005617 0.017124 0.006133 0.000000 0.000000 0.000000
# 3 -0.012283 0.006133 0.034890 0.000000 0.000000 0.000000
# 4 0.000000 0.000000 0.000000 0.068066 0.000000 0.000000
# 5 0.000000 0.000000 0.000000 0.000000 0.039608 0.000000
# 6 0.000000 0.000000 0.000000 0.000000 0.000000 0.033477
#
#
# Mechanical properties :
#
#
# Convention : Reuss Voigt Hill
#
# Bulk Modulus (GPa) = 21.09894 26.66498 23.88196
# Shear Modulus (GPa) = 19.88734 23.52340 21.70537
#
# Velocity S-wave (km/s) = 3.34896 3.64227 3.49869
# Velocity P-wave (km/s) = 5.18198 5.72066 5.45797
#
# Compressibility (1/GPa) = 0.04739574
#
# Stress axis : x y z
#
# Youngs Moduli (GPa) = 52.86353 58.39737 28.66115
#
# Poissons Ratio (x) = 0.32804 0.35205
# Poissons Ratio (y) = 0.29695 -0.17578
# Poissons Ratio (z) = 0.64934 -0.35815
#
# Static dielectric constant tensor:
#      x y z
#    x 1.597580 0.000000 0.000000 
#    y 0.000000 1.608540 0.000000 
#    z 0.000000 0.000000 1.601500 
# 
# From -- ./inp_files/11112.got.cif
#   From: 2010.05.17/outbox.cif.g08.bks.cpg/sg36_6_cif.got.tgz:11112.got - 2010.06.03 17:41:39.
