data_PCOD9353616
_publ_section_title
;
Structure prediction by ZEFSAII (Michael W. Deem and Ramdas Pophale) SiO2 
 PCOD9353616
Probable space group: C C C 2
;
_chemical_formula_sum "Si O2"
_cell_formula_units_Z 52
_cell_length_a 29.536785
_cell_length_b 11.310097
_cell_length_c 8.969175
_cell_angle_alpha 90.000000
_cell_angle_beta 90.000000
_cell_angle_gamma 90.000000
_cell_volume 2996.277611
_symmetry_space_group_name_H-M "C C C 2"
_symmetry_group_IT_number 37
_symmetry_cell_setting 'orthorhombic'
loop_
_space_group_symop_operation_xyz
x,y,z
-x,-y,z
-x,y,1/2+z
x,-y,1/2+z
1/2+x,1/2+y,z
1/2-x,1/2-y,z
1/2-x,1/2+y,1/2+z
1/2+x,1/2-y,1/2+z
loop_
_atom_site_type_symbol
_atom_site_label
_atom_site_fract_x
_atom_site_fract_y
_atom_site_fract_z
Si Si1 0.297287 0.602831 0.891740
Si Si2 0.307682 0.864357 0.813558
Si Si3 0.391391 0.834977 0.299951
Si Si4 0.840371 0.110049 0.213309
Si Si5 0.442896 0.618246 0.217952
Si Si6 0.500000 0.500000 0.972331
Si Si7 0.640042 0.984798 0.058945
O O1 0.315470 0.723714 0.816896
O O2 0.243914 0.606727 0.857484
O O3 0.319189 0.484256 0.825943
O O4 0.309941 0.612879 0.065695
O O5 0.321624 0.918149 0.654928
O O6 0.338036 0.926784 0.939191
O O7 0.349218 0.742080 0.278522
O O8 0.434244 0.753743 0.262761
O O9 0.388537 0.891382 0.462782
O O10 0.387085 0.937269 0.177770
O O11 0.892370 0.072488 0.176800
O O12 0.476531 0.594520 0.081865
O O13 0.462356 0.553488 0.362985
#
# Coordination Sequence:
#
# PCOD9353616 Si02
#       7
#     8   8   8   8   8   4   8
#     4  11  21  34  52  78 117 141 190 243 280 327
#     4  10  21  34  52  76 109 154 189 231 291 311
#     4   9  21  36  60  80 107 146 200 224 283 330
#     4  10  21  36  54  84 109 143 189 233 277 343
#     4   9  20  34  57  90 109 153 172 227 289 342
#     4  10  18  36  60  86 130 130 172 232 292 352
#     4  10  19  39  54  75 109 153 197 234 263 337
#
# _framework density 17.354866999999999
#
# number of rings (size 3 to 8) (size 9 to 14) (size 15 to 20)
#    0.923    1.231    1.538    1.846    2.154    0.000 
#    0.000    4.615    0.000    2.769    0.000    0.000 
#    0.000    0.000    0.000    0.000    0.000    0.000 
#
# Total GULP energy -144759.928319 kJ/mol
# GULP energy per Si atom -5567.689551 kJ/mol
# Density = 1.731537 g / cm^3
# Si number density = 17.354867 Si / 1000 Ang^3
#
#
#
# Elastic Constant Matrix: (Units=GPa)
#
#
# Indices 1 2 3 4 5 6 
#
# 1 43.1070 15.7869 23.4305 0.0000 0.0000 0.0000
# 2 15.7869 93.4434 44.6032 0.0000 0.0000 0.0000
# 3 23.4305 44.6032 91.2100 0.0000 0.0000 0.0000
# 4 0.0000 0.0000 0.0000 30.3999 0.0000 0.0000
# 5 0.0000 0.0000 0.0000 0.0000 11.4611 0.0000
# 6 0.0000 0.0000 0.0000 0.0000 0.0000 15.2707
#
#
#
# Elastic Compliance Matrix: (Units=1/GPa)
#
#
# Indices 1 2 3 4 5 6 
#
# 1 0.027154 -0.001641 -0.006173 0.000000 0.000000 0.000000
# 2 -0.001641 0.014059 -0.006454 0.000000 0.000000 0.000000
# 3 -0.006173 -0.006454 0.015705 0.000000 0.000000 0.000000
# 4 0.000000 0.000000 0.000000 0.032895 0.000000 0.000000
# 5 0.000000 0.000000 0.000000 0.000000 0.087252 0.000000
# 6 0.000000 0.000000 0.000000 0.000000 0.000000 0.065485
#
#
# Mechanical properties :
#
#
# Convention : Reuss Voigt Hill
#
# Bulk Modulus (GPa) = 35.23156 43.93349 39.58253
# Shear Modulus (GPa) = 17.82226 21.02231 19.42229
#
# Velocity S-wave (km/s) = 3.20805 3.48418 3.34896
# Velocity P-wave (km/s) = 5.83669 6.44638 6.14909
#
# Compressibility (1/GPa) = 0.02838364
#
# Stress axis : x y z
#
# Youngs Moduli (GPa) = 36.82640 71.12638 63.67206
#
# Poissons Ratio (x) = 0.11672 0.39305
# Poissons Ratio (y) = 0.06043 0.41092
# Poissons Ratio (z) = 0.22733 0.45903
#
# Static dielectric constant tensor:
#      x y z
#    x 1.581170 0.000000 0.000000 
#    y 0.000000 1.599830 0.000000 
#    z 0.000000 0.000000 1.571190 
# 
# From -- ./inp_files/4981.got.cif
#   From: 2010.05.17/outbox.cif.g08.bks.cpg/sg37_3_cif.got.tgz:4981.got - 2010.06.03 17:53:42.
