data_PCOD9353719
_publ_section_title
;
Structure prediction by ZEFSAII (Michael W. Deem and Ramdas Pophale) SiO2 
 PCOD9353719
Probable space group: C C C 2
;
_chemical_formula_sum "Si O2"
_cell_formula_units_Z 64
_cell_length_a 8.760914
_cell_length_b 16.802030
_cell_length_c 23.862012
_cell_angle_alpha 90.000000
_cell_angle_beta 90.000000
_cell_angle_gamma 90.000000
_cell_volume 3512.515366
_symmetry_space_group_name_H-M "C C C 2"
_symmetry_group_IT_number 37
_symmetry_cell_setting 'orthorhombic'
loop_
_space_group_symop_operation_xyz
x,y,z
-x,-y,z
-x,y,1/2+z
x,-y,1/2+z
1/2+x,1/2+y,z
1/2-x,1/2-y,z
1/2-x,1/2+y,1/2+z
1/2+x,1/2-y,1/2+z
loop_
_atom_site_type_symbol
_atom_site_label
_atom_site_fract_x
_atom_site_fract_y
_atom_site_fract_z
Si Si1 0.324553 0.985319 0.902570
Si Si2 0.175388 0.508056 0.269971
Si Si3 0.157371 0.393517 0.590860
Si Si4 0.402323 0.579744 0.688345
Si Si5 0.701499 0.339051 0.972610
Si Si6 0.603073 0.577981 0.980025
Si Si7 0.806868 0.585220 0.086335
Si Si8 0.206163 0.160836 0.710068
O O1 0.315581 0.989622 0.835672
O O2 0.275442 0.901828 0.929663
O O3 0.500000 0.000000 0.919732
O O4 0.207472 0.049348 0.928610
O O5 0.287635 0.449801 0.236347
O O6 0.226922 0.596689 0.253458
O O7 0.000000 0.500000 0.251012
O O8 0.240657 0.360583 0.535486
O O9 0.177203 0.489133 0.591436
O O10 0.226917 0.359175 0.648146
O O11 0.975789 0.378618 0.587838
O O12 0.500000 0.500000 0.671690
O O13 0.300803 0.610037 0.637320
O O14 0.525790 0.643957 0.707233
O O15 0.750000 0.250000 0.959776
O O16 0.520336 0.354052 0.969158
O O17 0.500000 0.500000 0.996319
O O18 0.717431 0.600626 0.029280
O O19 0.250000 0.250000 0.724805
#
# Coordination Sequence:
#
# PCOD9353719 Si02
#       8
#     8   8   8   8   8   8   8   8
#     4  10  21  40  62  84 110 150 201 245 283 348
#     4  10  21  40  62  84 110 150 201 245 283 348
#     4  11  20  33  58  85 124 152 192 238 295 346
#     4  10  19  33  58  83 113 151 197 236 280 351
#     4  11  23  38  57  88 124 153 186 244 300 344
#     4  10  19  33  58  83 113 151 197 236 280 351
#     4  11  18  32  58  88 110 157 204 238 271 352
#     4  11  23  38  57  88 124 153 186 244 300 344
#
# _framework density 18.220559999999999
#
# number of rings (size 3 to 8) (size 9 to 14) (size 15 to 20)
#    0.000    1.500    5.000    3.000    0.000    4.500 
#    0.000   11.250    0.000    0.000    0.000    0.000 
#    0.000    0.000    0.000    0.000    0.000    0.000 
#
# Total GULP energy -178709.821101 kJ/mol
# GULP energy per Si atom -5584.681909 kJ/mol
# Density = 1.817909 g / cm^3
# Si number density = 18.220560 Si / 1000 Ang^3
#
#
#
# Elastic Constant Matrix: (Units=GPa)
#
#
# Indices 1 2 3 4 5 6 
#
# 1 113.5610 -5.8267 4.7276 0.0000 0.0000 0.0000
# 2 -5.8267 32.4806 -9.2533 0.0000 0.0000 0.0000
# 3 4.7276 -9.2533 41.5641 0.0000 0.0000 0.0000
# 4 0.0000 0.0000 0.0000 1.2926 0.0000 0.0000
# 5 0.0000 0.0000 0.0000 0.0000 58.9382 0.0000
# 6 0.0000 0.0000 0.0000 0.0000 0.0000 24.1238
#
#
#
# Elastic Compliance Matrix: (Units=1/GPa)
#
#
# Indices 1 2 3 4 5 6 
#
# 1 0.008907 0.001398 -0.000702 0.000000 0.000000 0.000000
# 2 0.001398 0.033092 0.007208 0.000000 0.000000 0.000000
# 3 -0.000702 0.007208 0.025744 0.000000 0.000000 0.000000
# 4 0.000000 0.000000 0.000000 0.773632 0.000000 0.000000
# 5 0.000000 0.000000 0.000000 0.000000 0.016967 0.000000
# 6 0.000000 0.000000 0.000000 0.000000 0.000000 0.041453
#
#
# Mechanical properties :
#
#
# Convention : Reuss Voigt Hill
#
# Bulk Modulus (GPa) = 11.96880 18.54457 15.25668
# Shear Modulus (GPa) = 5.48344 30.06813 17.77579
#
# Velocity S-wave (km/s) = 1.73667 4.06671 3.12683
# Velocity P-wave (km/s) = 3.25645 5.67898 4.62900
#
# Compressibility (1/GPa) = 0.08355055
#
# Stress axis : x y z
#
# Youngs Moduli (GPa) = 112.27405 30.21894 38.84434
#
# Poissons Ratio (x) = -0.04224 0.02726
# Poissons Ratio (y) = -0.15694 -0.28000
# Poissons Ratio (z) = 0.07880 -0.21782
#
# Static dielectric constant tensor:
#      x y z
#    x 1.636320 0.000000 0.000000 
#    y 0.000000 1.611560 0.000000 
#    z 0.000000 0.000000 1.609540 
# 
# From -- ./inp_files/18532.got.cif
#   From: 2010.05.17/outbox.cif.g08.bks.cpg/sg37_10_cif.got.tgz:18532.got - 2010.06.03 17:53:42.
