data_PCOD9353378
_publ_section_title
;
Structure prediction by ZEFSAII (Michael W. Deem and Ramdas Pophale) SiO2 
 PCOD9353378
Probable space group: C M C 21
;
_chemical_formula_sum "Si O2"
_cell_formula_units_Z 32
_cell_length_a 30.000000
_cell_length_b 12.000000
_cell_length_c 9.000000
_cell_angle_alpha 90.000000
_cell_angle_beta 90.000000
_cell_angle_gamma 90.000000
_cell_volume 3240.000000
_symmetry_space_group_name_H-M "C M C 21"
_symmetry_group_IT_number 36
_symmetry_cell_setting 'orthorhombic'
loop_
_space_group_symop_operation_xyz
x,y,z
-x,-y,1/2+z
x,-y,1/2+z
-x,y,z
1/2+x,1/2+y,z
1/2-x,1/2-y,1/2+z
1/2+x,1/2-y,1/2+z
1/2-x,1/2+y,z
loop_
_atom_site_type_symbol
_atom_site_label
_atom_site_fract_x
_atom_site_fract_y
_atom_site_fract_z
Si Si1 0.204097 0.792534 0.154400
Si Si2 0.199213 0.245380 0.014631
Si Si3 0.626691 0.915529 0.122839
Si Si4 0.950950 0.190679 0.377304
Si Si5 0.595622 0.528590 0.930250
Si Si6 0.659269 0.523635 0.174608
Si Si7 0.552025 0.250737 0.528349
Si Si8 0.871192 0.346416 0.474035
O O1 0.201386 0.769406 0.334134
O O2 0.193112 0.923950 0.141558
O O3 0.252296 0.764353 0.086453
O O4 0.168625 0.724897 0.051338
O O5 0.168360 0.351949 0.048139
O O6 0.177550 0.140364 0.107433
O O7 0.583066 0.857925 0.047554
O O8 0.632523 0.890250 0.300902
O O9 0.624497 0.044956 0.078654
O O10 0.948397 0.208748 0.200013
O O11 0.913422 0.263453 0.459741
O O12 0.000000 0.223615 0.428950
O O13 0.942176 0.060353 0.398394
O O14 0.641181 0.493386 0.842266
O O15 0.611808 0.506704 0.096456
O O16 0.577320 0.655288 0.928495
O O17 0.500000 0.234292 0.483871
#
# Coordination Sequence:
#
# PCOD9353378 Si02
#       8
#     8   8   8   8   8   8   8   8
#     4  12  27  44  69  99 134 175 227 279 340 409
#     4  12  27  45  69 100 133 175 227 278 339 412
#     4  11  23  44  66  93 131 179 226 278 336 400
#     4  10  21  38  64  98 132 174 223 276 336 402
#     4  12  20  41  67  97 135 175 216 272 342 402
#     4  12  24  42  71  96 136 174 217 277 343 400
#     4  10  21  39  65  97 133 174 222 276 335 401
#     4  11  24  43  68  92 132 178 225 280 336 400
#
# _framework density 9.8765429999999999
#
# number of rings (size 3 to 8) (size 9 to 14) (size 15 to 20)
#    0.000    0.750    5.000    2.625    3.500    0.500 
#    0.000    0.000    0.000    0.000    0.000    0.000 
#    0.000    0.000    0.000    0.000    0.000    0.000 
#
# Total GULP energy -178461.102156 kJ/mol
# GULP energy per Si atom -5576.909442 kJ/mol
# Density = 0.985406 g / cm^3
# Si number density = 9.876543 Si / 1000 Ang^3
#
#
#
# Elastic Constant Matrix: (Units=GPa)
#
#
# Indices 1 2 3 4 5 6 
#
# 1 132.0799 37.9094 35.3098 0.0000 0.0000 0.0000
# 2 37.9094 99.7593 20.9604 0.0000 0.0000 0.0000
# 3 35.3098 20.9604 79.1181 0.0000 0.0000 0.0000
# 4 0.0000 0.0000 0.0000 35.6860 0.0000 0.0000
# 5 0.0000 0.0000 0.0000 0.0000 29.3995 0.0000
# 6 0.0000 0.0000 0.0000 0.0000 0.0000 23.0600
#
#
#
# Elastic Compliance Matrix: (Units=1/GPa)
#
#
# Indices 1 2 3 4 5 6 
#
# 1 0.009288 -0.002815 -0.003399 0.000000 0.000000 0.000000
# 2 -0.002815 0.011468 -0.001782 0.000000 0.000000 0.000000
# 3 -0.003399 -0.001782 0.014628 0.000000 0.000000 0.000000
# 4 0.000000 0.000000 0.000000 0.028022 0.000000 0.000000
# 5 0.000000 0.000000 0.000000 0.000000 0.034014 0.000000
# 6 0.000000 0.000000 0.000000 0.000000 0.000000 0.043365
#
#
# Mechanical properties :
#
#
# Convention : Reuss Voigt Hill
#
# Bulk Modulus (GPa) = 51.56778 55.47963 53.52371
# Shear Modulus (GPa) = 30.62919 32.08096 31.35507
#
# Velocity S-wave (km/s) = 3.94204 4.03438 3.98848
# Velocity P-wave (km/s) = 6.84708 7.06040 6.95455
#
# Compressibility (1/GPa) = 0.01939195
#
# Stress axis : x y z
#
# Youngs Moduli (GPa) = 107.66610 87.19662 68.35987
#
# Poissons Ratio (x) = 0.24548 0.23238
# Poissons Ratio (y) = 0.30311 0.12180
# Poissons Ratio (z) = 0.36599 0.15537
#
# Static dielectric constant tensor:
#      x y z
#    x 1.705780 0.000000 0.000000 
#    y 0.000000 1.687460 0.000000 
#    z 0.000000 0.000000 1.704540 
# 
# From -- ./inp_files/6100.got.cif
#   From: 2010.05.17/outbox.ucp.g08.bks.cvg/sg36_4_cif.got.tgz:6100.got - 2010.06.11 10:37:26.
