data_PCOD9353766
_publ_section_title
;
Structure prediction by ZEFSAII (Michael W. Deem and Ramdas Pophale) SiO2 
 PCOD9353766
Probable space group: C C C 2
;
_chemical_formula_sum "Si O2"
_cell_formula_units_Z 40
_cell_length_a 8.418206
_cell_length_b 12.205969
_cell_length_c 15.216714
_cell_angle_alpha 90.000000
_cell_angle_beta 90.000000
_cell_angle_gamma 90.000000
_cell_volume 1563.553297
_symmetry_space_group_name_H-M "C C C 2"
_symmetry_group_IT_number 37
_symmetry_cell_setting 'orthorhombic'
loop_
_space_group_symop_operation_xyz
x,y,z
-x,-y,z
-x,y,1/2+z
x,-y,1/2+z
1/2+x,1/2+y,z
1/2-x,1/2-y,z
1/2-x,1/2+y,1/2+z
1/2+x,1/2-y,1/2+z
loop_
_atom_site_type_symbol
_atom_site_label
_atom_site_fract_x
_atom_site_fract_y
_atom_site_fract_z
Si Si1 0.865737 0.925620 0.285520
Si Si2 0.929017 0.707510 0.776364
Si Si3 0.378502 0.411961 0.085674
Si Si4 0.973545 0.659585 0.089784
Si Si5 0.867023 0.644671 0.421727
O O1 0.844003 0.958530 0.184615
O O2 0.719334 0.930403 0.350230
O O3 0.940552 0.805300 0.275344
O O4 0.000000 0.000000 0.326460
O O5 0.750000 0.750000 0.766475
O O6 0.978011 0.637310 0.690828
O O7 0.963875 0.663779 0.873821
O O8 0.500000 0.500000 0.044029
O O9 0.199231 0.382029 0.059969
O O10 0.466624 0.293315 0.083861
O O11 0.100976 0.614116 0.021377
O O12 0.750000 0.750000 0.426306
#
# Coordination Sequence:
#
# PCOD9353766 Si02
#       5
#     8   8   8   8   8
#     4   9  18  38  65  90 123 171 227 291 343 404
#     4  10  20  35  60  93 127 171 223 270 340 423
#     4   9  18  35  64  98 133 178 234 289 347 420
#     4  10  19  35  63  95 133 181 226 281 358 419
#     4  10  20  36  62  91 128 176 225 278 341 423
#
# _framework density 25.582753
#
# number of rings (size 3 to 8) (size 9 to 14) (size 15 to 20)
#    0.000    2.400    2.000    0.600    2.800    0.000 
#    0.000    5.000    8.800    8.400    0.000    0.000 
#    0.000    0.000    0.000    0.000    0.000    0.000 
#
# Total GULP energy -111657.945723 kJ/mol
# GULP energy per Si atom -5582.897286 kJ/mol
# Density = 2.552453 g / cm^3
# Si number density = 25.582753 Si / 1000 Ang^3
#
#
#
# Elastic Constant Matrix: (Units=GPa)
#
#
# Indices 1 2 3 4 5 6 
#
# 1 115.4612 20.4377 36.5875 0.0000 0.0000 0.0000
# 2 20.4377 87.1164 13.8648 0.0000 0.0000 0.0000
# 3 36.5875 13.8648 146.1150 0.0000 0.0000 0.0000
# 4 0.0000 0.0000 0.0000 -1.0585 0.0000 0.0000
# 5 0.0000 0.0000 0.0000 0.0000 45.3274 0.0000
# 6 0.0000 0.0000 0.0000 0.0000 0.0000 39.9508
#
#
#
# Elastic Compliance Matrix: (Units=1/GPa)
#
#
# Indices 1 2 3 4 5 6 
#
# 1 0.009714 -0.001921 -0.002250 0.000000 0.000000 0.000000
# 2 -0.001921 0.012035 -0.000661 0.000000 0.000000 0.000000
# 3 -0.002250 -0.000661 0.007470 0.000000 0.000000 0.000000
# 4 0.000000 0.000000 0.000000 -0.944775 0.000000 0.000000
# 5 0.000000 0.000000 0.000000 0.000000 0.022062 0.000000
# 6 0.000000 0.000000 0.000000 0.000000 0.000000 0.025031
#
#
# Mechanical properties :
#
#
# Convention : Reuss Voigt Hill
#
# Bulk Modulus (GPa) = 51.13809 54.49694 52.81752
# Shear Modulus (GPa) = -5.86661 35.36413 14.74876
#
# Velocity S-wave (km/s) = -1.51597 3.72202 2.40367
# Velocity P-wave (km/s) = 4.11928 6.31029 5.32861
#
# Compressibility (1/GPa) = 0.01955490
#
# Stress axis : x y z
#
# Youngs Moduli (GPa) = 102.94486 83.09296 133.86730
#
# Poissons Ratio (x) = 0.15960 0.30122
# Poissons Ratio (y) = 0.19774 0.08849
# Poissons Ratio (z) = 0.23164 0.05492
#
# Static dielectric constant tensor:
#      x y z
#    x 1.973700 0.000000 0.000000 
#    y 0.000000 2.087510 0.000000 
#    z 0.000000 0.000000 1.988300 
# 
# From -- ./inp_files/10348.got.cif
#   From: 2010.05.17/outbox.cif.g08.bks.cpg/sg37_6_cif.got.tgz:10348.got - 2010.06.03 17:53:42.
