data_PCOD9353447
_publ_section_title
;
Structure prediction by ZEFSAII (Michael W. Deem and Ramdas Pophale) SiO2 
 PCOD9353447
Probable space group: C C C 2
;
_chemical_formula_sum "Si O2"
_cell_formula_units_Z 64
_cell_length_a 13.151475
_cell_length_b 14.131139
_cell_length_c 17.654795
_cell_angle_alpha 90.000000
_cell_angle_beta 90.000000
_cell_angle_gamma 90.000000
_cell_volume 3281.061049
_symmetry_space_group_name_H-M "C C C 2"
_symmetry_group_IT_number 37
_symmetry_cell_setting 'orthorhombic'
loop_
_space_group_symop_operation_xyz
x,y,z
-x,-y,z
-x,y,1/2+z
x,-y,1/2+z
1/2+x,1/2+y,z
1/2-x,1/2-y,z
1/2-x,1/2+y,1/2+z
1/2+x,1/2-y,1/2+z
loop_
_atom_site_type_symbol
_atom_site_label
_atom_site_fract_x
_atom_site_fract_y
_atom_site_fract_z
Si Si1 0.611052 0.452524 0.688800
Si Si2 0.068754 0.212508 0.513127
Si Si3 0.573168 0.913569 0.715562
Si Si4 0.982917 0.212736 0.185346
Si Si5 0.688072 0.524042 0.530344
Si Si6 0.405898 0.067308 0.533900
Si Si7 0.700645 0.611748 0.771067
Si Si8 0.563110 0.587158 0.905655
O O1 0.500000 0.500000 0.676739
O O2 0.577969 0.348637 0.711872
O O3 0.670364 0.476265 0.611913
O O4 0.673144 0.503468 0.753420
O O5 0.011523 0.208138 0.594225
O O6 0.158547 0.135662 0.527656
O O7 0.090395 0.324162 0.504832
O O8 0.006649 0.167948 0.443161
O O9 0.508804 0.817903 0.715041
O O10 0.601104 0.928803 0.626327
O O11 0.678715 0.886362 0.758305
O O12 0.500000 0.000000 0.740390
O O13 0.872447 0.171007 0.212721
O O14 0.803810 0.518074 0.506037
O O15 0.615717 0.467929 0.474346
O O16 0.500000 0.000000 0.514498
O O17 0.648863 0.631184 0.851560
O O18 0.500000 0.500000 0.866795
#
# Coordination Sequence:
#
# PCOD9353447 Si02
#       8
#     8   8   8   8   8   8   8   8
#     4  10  16  30  57  87 112 140 192 247 295 344
#     4  10  18  34  60  86 115 149 195 247 291 345
#     4  10  21  37  57  82 116 155 203 246 282 343
#     4  10  18  33  60  86 111 147 196 245 287 346
#     4  11  17  34  59  86 113 154 195 239 294 359
#     4  10  21  36  56  85 119 157 204 244 283 345
#     4  11  20  35  59  89 115 150 192 243 302 355
#     4  10  21  35  58  91 123 144 185 253 312 355
#
# _framework density 19.505884999999999
#
# number of rings (size 3 to 8) (size 9 to 14) (size 15 to 20)
#    0.000    1.750    5.000    2.250    0.000    2.000 
#    0.000    5.625    0.000    3.000    0.000    0.000 
#    0.000    0.000    0.000    0.000    0.000    0.000 
#
# Total GULP energy -178182.746919 kJ/mol
# GULP energy per Si atom -5568.210841 kJ/mol
# Density = 1.946149 g / cm^3
# Si number density = 19.505885 Si / 1000 Ang^3
#
#
#
# Elastic Constant Matrix: (Units=GPa)
#
#
# Indices 1 2 3 4 5 6 
#
# 1 85.7950 42.8813 14.0642 0.0000 0.0000 0.0000
# 2 42.8813 95.3355 9.7294 0.0000 0.0000 0.0000
# 3 14.0642 9.7294 44.0678 0.0000 0.0000 0.0000
# 4 0.0000 0.0000 0.0000 5.0673 0.0000 0.0000
# 5 0.0000 0.0000 0.0000 0.0000 10.5287 0.0000
# 6 0.0000 0.0000 0.0000 0.0000 0.0000 22.9094
#
#
#
# Elastic Compliance Matrix: (Units=1/GPa)
#
#
# Indices 1 2 3 4 5 6 
#
# 1 0.015545 -0.006635 -0.003496 0.000000 0.000000 0.000000
# 2 -0.006635 0.013563 -0.000877 0.000000 0.000000 0.000000
# 3 -0.003496 -0.000877 0.024002 0.000000 0.000000 0.000000
# 4 0.000000 0.000000 0.000000 0.197344 0.000000 0.000000
# 5 0.000000 0.000000 0.000000 0.000000 0.094979 0.000000
# 6 0.000000 0.000000 0.000000 0.000000 0.000000 0.043650
#
#
# Mechanical properties :
#
#
# Convention : Reuss Voigt Hill
#
# Bulk Modulus (GPa) = 32.16128 39.83867 35.99997
# Shear Modulus (GPa) = 11.86340 18.26932 15.06636
#
# Velocity S-wave (km/s) = 2.46884 3.06372 2.78222
# Velocity P-wave (km/s) = 4.96494 5.74312 5.36815
#
# Compressibility (1/GPa) = 0.03109329
#
# Stress axis : x y z
#
# Youngs Moduli (GPa) = 64.32835 73.72840 41.66364
#
# Poissons Ratio (x) = 0.48921 0.14567
# Poissons Ratio (y) = 0.42684 0.03653
# Poissons Ratio (z) = 0.22491 0.06465
#
# Static dielectric constant tensor:
#      x y z
#    x 1.677510 0.000000 0.000000 
#    y 0.000000 1.747570 0.000000 
#    z 0.000000 0.000000 1.709040 
# 
# From -- ./inp_files/15081.got.cif
#   From: 2010.05.17/outbox.cif.g08.bks.cpg/sg37_8_cif.got.tgz:15081.got - 2010.06.03 17:53:42.
