data_PCOD9353184
_publ_section_title
;
Structure prediction by ZEFSAII (Michael W. Deem and Ramdas Pophale) SiO2 
 PCOD9353184
Probable space group: C M C 21
;
_chemical_formula_sum "Si O2"
_cell_formula_units_Z 48
_cell_length_a 17.956255
_cell_length_b 8.958410
_cell_length_c 14.647214
_cell_angle_alpha 90.000000
_cell_angle_beta 90.000000
_cell_angle_gamma 90.000000
_cell_volume 2356.143438
_symmetry_space_group_name_H-M "C M C 21"
_symmetry_group_IT_number 36
_symmetry_cell_setting 'orthorhombic'
loop_
_space_group_symop_operation_xyz
x,y,z
-x,-y,1/2+z
x,-y,1/2+z
-x,y,z
1/2+x,1/2+y,z
1/2-x,1/2-y,1/2+z
1/2+x,1/2-y,1/2+z
1/2-x,1/2+y,z
loop_
_atom_site_type_symbol
_atom_site_label
_atom_site_fract_x
_atom_site_fract_y
_atom_site_fract_z
Si Si1 0.170371 0.830381 0.404480
Si Si2 0.176629 0.334484 0.286321
Si Si3 0.642572 0.804218 0.578190
Si Si4 0.413774 0.367797 0.912546
Si Si5 0.915709 0.627496 0.276406
Si Si6 0.787766 0.369698 0.077925
O O1 0.245640 0.828372 0.342435
O O2 0.105693 0.762811 0.341384
O O3 0.183259 0.727848 0.493110
O O4 0.140863 0.993056 0.431414
O O5 0.120983 0.210218 0.323865
O O6 0.141140 0.496438 0.301816
O O7 0.183036 0.320220 0.177384
O O8 0.593865 0.756540 0.492074
O O9 0.597941 0.828056 0.671329
O O10 0.701067 0.669456 0.588020
O O11 0.688856 0.958136 0.562779
O O12 0.500000 0.410837 0.903235
O O13 0.000000 0.577326 0.289226
#
# Coordination Sequence:
#
# PCOD9353184 Si02
#       6
#     8   8   8   8   8   8
#     4  12  24  43  69  99 131 176 220 277 323 393
#     4  11  24  43  69  96 130 177 225 272 324 391
#     4  11  23  42  68  97 133 172 221 274 329 385
#     4  12  26  43  66 100 139 176 217 272 335 392
#     4  11  24  44  67  97 134 176 220 270 333 391
#     4  11  24  41  71 101 128 171 229 279 317 392
#
# _framework density 20.372274999999998
#
# number of rings (size 3 to 8) (size 9 to 14) (size 15 to 20)
#    0.000    0.667    3.333    4.500    2.333    1.333 
#    0.000   10.833    0.000    0.000    0.000    0.000 
#    0.000    0.000    0.000    0.000    0.000    0.000 
#
# Total GULP energy -134145.278554 kJ/mol
# GULP energy per Si atom -5589.386606 kJ/mol
# Density = 2.032591 g / cm^3
# Si number density = 20.372275 Si / 1000 Ang^3
#
#
#
# Elastic Constant Matrix: (Units=GPa)
#
#
# Indices 1 2 3 4 5 6 
#
# 1 80.8090 4.4744 29.7625 0.0000 0.0000 0.0000
# 2 4.4744 54.0040 45.4909 0.0000 0.0000 0.0000
# 3 29.7625 45.4909 111.1379 0.0000 0.0000 0.0000
# 4 0.0000 0.0000 0.0000 33.4368 0.0000 0.0000
# 5 0.0000 0.0000 0.0000 0.0000 18.4501 0.0000
# 6 0.0000 0.0000 0.0000 0.0000 0.0000 15.4499
#
#
#
# Elastic Compliance Matrix: (Units=1/GPa)
#
#
# Indices 1 2 3 4 5 6 
#
# 1 0.014053 0.003061 -0.005016 0.000000 0.000000 0.000000
# 2 0.003061 0.028929 -0.012661 0.000000 0.000000 0.000000
# 3 -0.005016 -0.012661 0.015524 0.000000 0.000000 0.000000
# 4 0.000000 0.000000 0.000000 0.029907 0.000000 0.000000
# 5 0.000000 0.000000 0.000000 0.000000 0.054200 0.000000
# 6 0.000000 0.000000 0.000000 0.000000 0.000000 0.064725
#
#
# Mechanical properties :
#
#
# Convention : Reuss Voigt Hill
#
# Bulk Modulus (GPa) = 34.16098 45.04516 39.60307
# Shear Modulus (GPa) = 20.29818 24.54888 22.42353
#
# Velocity S-wave (km/s) = 3.15995 3.47510 3.32126
# Velocity P-wave (km/s) = 5.48803 6.18553 5.84719
#
# Compressibility (1/GPa) = 0.02927317
#
# Stress axis : x y z
#
# Youngs Moduli (GPa) = 71.15947 34.56794 64.41824
#
# Poissons Ratio (x) = -0.10582 0.32315
# Poissons Ratio (y) = -0.21784 0.81559
# Poissons Ratio (z) = 0.35697 0.43766
#
# Static dielectric constant tensor:
#      x y z
#    x 1.711640 0.000000 0.000000 
#    y 0.000000 1.726370 0.000000 
#    z 0.000000 0.000000 1.740460 
# 
# From -- ./inp_files/12504.got.cif
#   From: 2010.05.17/outbox.cif.g08.bks.cpg/sg36_7_cif.got.tgz:12504.got - 2010.06.03 17:41:39.
