data_PCOD9353388
_publ_section_title
;
Structure prediction by ZEFSAII (Michael W. Deem and Ramdas Pophale) SiO2 
 PCOD9353388
Probable space group: C M C 21
;
_chemical_formula_sum "Si O2"
_cell_formula_units_Z 24
_cell_length_a 18.000000
_cell_length_b 15.000000
_cell_length_c 9.000000
_cell_angle_alpha 90.000000
_cell_angle_beta 90.000000
_cell_angle_gamma 90.000000
_cell_volume 2430.000000
_symmetry_space_group_name_H-M "C M C 21"
_symmetry_group_IT_number 36
_symmetry_cell_setting 'orthorhombic'
loop_
_space_group_symop_operation_xyz
x,y,z
-x,-y,1/2+z
x,-y,1/2+z
-x,y,z
1/2+x,1/2+y,z
1/2-x,1/2-y,1/2+z
1/2+x,1/2-y,1/2+z
1/2-x,1/2+y,z
loop_
_atom_site_type_symbol
_atom_site_label
_atom_site_fract_x
_atom_site_fract_y
_atom_site_fract_z
Si Si1 0.177552 0.607455 0.171710
Si Si2 0.912009 0.074017 0.391940
Si Si3 0.912419 0.281343 0.435256
Si Si4 0.584735 0.076133 0.679864
Si Si5 0.148347 0.097688 0.066751
Si Si6 0.910761 0.286209 0.918297
O O1 0.141942 0.507291 0.195954
O O2 0.265357 0.603295 0.126240
O O3 0.150522 0.677381 0.299779
O O4 0.135002 0.654170 0.037165
O O5 0.890468 0.176281 0.440619
O O6 0.899383 0.078526 0.214989
O O7 0.000000 0.061909 0.424599
O O8 0.866807 0.989931 0.462028
O O9 0.904340 0.335157 0.281075
O O10 0.000000 0.283449 0.473932
O O11 0.500000 0.042296 0.707912
O O12 0.587009 0.125477 0.522080
O O13 0.119686 0.191769 0.990570
O O14 0.000000 0.271862 0.874846
#
# Coordination Sequence:
#
# PCOD9353388 Si02
#       6
#     8   8   8   8   8   8
#     4  12  27  40  69 105 147 176 232 294 366 421
#     4  11  25  50  73  98 137 187 241 292 350 426
#     4  10  22  43  71 100 137 186 238 290 351 430
#     4  10  21  42  71  99 139 183 233 288 351 433
#     4  12  29  44  74 104 143 184 241 300 355 415
#     4  11  24  47  74 102 141 190 237 286 353 437
#
# _framework density 9.8765429999999999
#
# number of rings (size 3 to 8) (size 9 to 14) (size 15 to 20)
#    0.000    1.000    1.667    4.000    9.333    2.667 
#    0.000    0.000    0.000    0.000    0.000    0.000 
#    0.000    0.000    0.000    0.000    0.000    0.000 
#
# Total GULP energy -133690.984381 kJ/mol
# GULP energy per Si atom -5570.457683 kJ/mol
# Density = 0.985406 g / cm^3
# Si number density = 9.876543 Si / 1000 Ang^3
#
#
#
# Elastic Constant Matrix: (Units=GPa)
#
#
# Indices 1 2 3 4 5 6 
#
# 1 96.9939 76.1400 27.1063 0.0000 0.0000 0.0000
# 2 76.1400 154.6666 12.0819 0.0000 0.0000 0.0000
# 3 27.1063 12.0819 47.6184 0.0000 0.0000 0.0000
# 4 0.0000 0.0000 0.0000 48.4739 0.0000 0.0000
# 5 0.0000 0.0000 0.0000 0.0000 24.3903 0.0000
# 6 0.0000 0.0000 0.0000 0.0000 0.0000 39.4623
#
#
#
# Elastic Compliance Matrix: (Units=1/GPa)
#
#
# Indices 1 2 3 4 5 6 
#
# 1 0.020032 -0.009152 -0.009081 0.000000 0.000000 0.000000
# 2 -0.009152 0.010778 0.002475 0.000000 0.000000 0.000000
# 3 -0.009081 0.002475 0.025542 0.000000 0.000000 0.000000
# 4 0.000000 0.000000 0.000000 0.020630 0.000000 0.000000
# 5 0.000000 0.000000 0.000000 0.000000 0.041000 0.000000
# 6 0.000000 0.000000 0.000000 0.000000 0.000000 0.025341
#
#
# Mechanical properties :
#
#
# Convention : Reuss Voigt Hill
#
# Bulk Modulus (GPa) = 40.26497 58.88171 49.57334
# Shear Modulus (GPa) = 27.30513 34.72868 31.01691
#
# Velocity S-wave (km/s) = 3.72199 4.19757 3.96691
# Velocity P-wave (km/s) = 6.23694 7.30523 6.79212
#
# Compressibility (1/GPa) = 0.02483548
#
# Stress axis : x y z
#
# Youngs Moduli (GPa) = 49.91972 92.78468 39.15197
#
# Poissons Ratio (x) = 0.84918 0.35554
# Poissons Ratio (y) = 0.45687 -0.09691
# Poissons Ratio (z) = 0.45332 -0.22966
#
# Static dielectric constant tensor:
#      x y z
#    x 1.836770 0.000000 0.000000 
#    y 0.000000 1.676960 0.000000 
#    z 0.000000 0.000000 1.872490 
# 
# From -- ./inp_files/4653.got.cif
#   From: 2010.05.17/outbox.ucp.g08.bks.cvg/sg36_3_cif.got.tgz:4653.got - 2010.06.11 10:37:26.
