data_PCOD9353291
_publ_section_title
;
Structure prediction by ZEFSAII (Michael W. Deem and Ramdas Pophale) SiO2 
 PCOD9353291
Probable space group: C M C 21
;
_chemical_formula_sum "Si O2"
_cell_formula_units_Z 64
_cell_length_a 14.461796
_cell_length_b 23.835094
_cell_length_c 7.339979
_cell_angle_alpha 90.000000
_cell_angle_beta 90.000000
_cell_angle_gamma 90.000000
_cell_volume 2530.078042
_symmetry_space_group_name_H-M "C M C 21"
_symmetry_group_IT_number 36
_symmetry_cell_setting 'orthorhombic'
loop_
_space_group_symop_operation_xyz
x,y,z
-x,-y,1/2+z
x,-y,1/2+z
-x,y,z
1/2+x,1/2+y,z
1/2-x,1/2-y,1/2+z
1/2+x,1/2-y,1/2+z
1/2-x,1/2+y,z
loop_
_atom_site_type_symbol
_atom_site_label
_atom_site_fract_x
_atom_site_fract_y
_atom_site_fract_z
Si Si1 0.855022 0.798239 0.859070
Si Si2 0.859043 0.321049 0.787061
Si Si3 0.305818 0.938241 0.798139
Si Si4 0.694182 0.061759 0.862264
Si Si5 0.144978 0.201761 0.801334
Si Si6 0.901850 0.077764 0.291625
Si Si7 0.401850 0.577764 0.868779
Si Si8 0.359042 0.178951 0.873344
O O1 0.751053 0.808125 0.787525
O O2 0.903825 0.854832 0.800978
O O3 0.893759 0.738149 0.795004
O O4 0.852802 0.796759 0.080202
O O5 0.862019 0.383761 0.867914
O O6 0.893759 0.261851 0.865400
O O7 0.893869 0.324522 0.580202
O O8 0.299612 0.929765 0.580202
O O9 0.199209 0.937864 0.869737
O O10 0.345408 0.000000 0.830202
O O11 0.800791 0.062136 0.790666
O O12 0.637981 0.116239 0.792490
O O13 0.096175 0.145168 0.859426
O O14 0.248947 0.191875 0.872880
O O15 0.000000 0.058661 0.372983
O O16 0.900429 0.060323 0.080202
O O17 0.500000 0.558661 0.787420
#
# Coordination Sequence:
#
# PCOD9353291 Si02
#       8
#     8   8   8   8   8   8   8   8
#     4   9  15  24  41  61  76  94 126 165 198 232
#     4   8  15  27  40  55  78 103 123 153 203 247
#     4   9  17  28  40  55  77 106 137 164 191 226
#     4   9  17  28  40  55  77 106 137 164 191 226
#     4   9  15  24  41  61  76  94 126 165 198 232
#     4   9  18  31  42  53  77 111 137 160 197 237
#     4   9  18  31  42  53  77 111 137 160 197 237
#     4   8  15  27  40  55  78 103 123 153 203 247
#
# _framework density 25.295663000000001
#
# number of rings (size 3 to 8) (size 9 to 14) (size 15 to 20)
#    0.000    3.250    0.000    2.250    0.000    6.000 
#    0.000    0.000    0.000    0.000    0.000    0.000 
#    0.000    1.000    0.000    2.250    0.000    4.500 
#
# Total GULP energy -178318.398462 kJ/mol
# GULP energy per Si atom -5572.449952 kJ/mol
# Density = 2.523809 g / cm^3
# Si number density = 25.295663 Si / 1000 Ang^3
#
#
#
# Elastic Constant Matrix: (Units=GPa)
#
#
# Indices 1 2 3 4 5 6 
#
# 1 53.4365 4.7019 -1.5136 0.0000 0.0000 0.0000
# 2 4.7019 264.4800 -9.6463 0.0000 0.0000 0.0000
# 3 -1.5136 -9.6463 118.2398 0.0000 0.0000 0.0000
# 4 0.0000 0.0000 0.0000 23.7650 0.0000 0.0000
# 5 0.0000 0.0000 0.0000 0.0000 -16.4397 0.0000
# 6 0.0000 0.0000 0.0000 0.0000 0.0000 -25.2850
#
#
#
# Elastic Compliance Matrix: (Units=1/GPa)
#
#
# Indices 1 2 3 4 5 6 
#
# 1 0.018748 -0.000326 0.000213 0.000000 0.000000 0.000000
# 2 -0.000326 0.003798 0.000306 0.000000 0.000000 0.000000
# 3 0.000213 0.000306 0.008485 0.000000 0.000000 0.000000
# 4 0.000000 0.000000 0.000000 0.042079 0.000000 0.000000
# 5 0.000000 0.000000 0.000000 0.000000 -0.060828 0.000000
# 6 0.000000 0.000000 0.000000 0.000000 0.000000 -0.039549
#
#
# Mechanical properties :
#
#
# Convention : Reuss Voigt Hill
#
# Bulk Modulus (GPa) = 31.82819 47.02670 39.42744
# Shear Modulus (GPa) = -291.00996 25.91567 -132.54715
#
# Velocity S-wave (km/s) = -10.73747 3.20427 -7.24658
# Velocity P-wave (km/s) = 11.87916 5.68515 7.37541
#
# Compressibility (1/GPa) = 0.03141869
#
# Stress axis : x y z
#
# Youngs Moduli (GPa) = 53.33765 263.30058 117.85420
#
# Poissons Ratio (x) = 0.08571 -0.02516
# Poissons Ratio (y) = 0.01736 -0.03603
# Poissons Ratio (z) = -0.01138 -0.08048
#
# Static dielectric constant tensor:
#      x y z
#    x 2.038680 0.000000 0.000000 
#    y 0.000000 2.070250 0.000000 
#    z 0.000000 0.000000 1.993710 
# 
# From -- ./inp_files/5387.got.cif
#   From: 2010.05.17/outbox.cif.g08.bks.cpg/sg36_3_cif.got.tgz:5387.got - 2010.06.03 17:41:39.
