data_PCOD9353835
_publ_section_title
;
Structure prediction by ZEFSAII (Michael W. Deem and Ramdas Pophale) SiO2 
 PCOD9353835
Probable space group: C C C 2
;
_chemical_formula_sum "Si O2"
_cell_formula_units_Z 52
_cell_length_a 19.055123
_cell_length_b 8.594829
_cell_length_c 13.609355
_cell_angle_alpha 90.000000
_cell_angle_beta 90.000000
_cell_angle_gamma 90.000000
_cell_volume 2228.879243
_symmetry_space_group_name_H-M "C C C 2"
_symmetry_group_IT_number 37
_symmetry_cell_setting 'orthorhombic'
loop_
_space_group_symop_operation_xyz
x,y,z
-x,-y,z
-x,y,1/2+z
x,-y,1/2+z
1/2+x,1/2+y,z
1/2-x,1/2-y,z
1/2-x,1/2+y,1/2+z
1/2+x,1/2-y,1/2+z
loop_
_atom_site_type_symbol
_atom_site_label
_atom_site_fract_x
_atom_site_fract_y
_atom_site_fract_z
Si Si1 0.750000 0.250000 0.821020
Si Si2 0.023379 0.162993 0.541255
Si Si3 0.634665 0.020734 0.764546
Si Si4 0.469262 0.714719 0.753028
Si Si5 0.583435 0.208298 0.405839
Si Si6 0.670428 0.720238 0.638810
Si Si7 0.649368 0.488620 0.334491
O O1 0.694207 0.151191 0.759400
O O2 0.706579 0.387410 0.871964
O O3 0.106292 0.181505 0.563377
O O4 0.985290 0.157940 0.645565
O O5 0.980097 0.295942 0.482936
O O6 0.000000 0.000000 0.492081
O O7 0.565065 0.116778 0.745609
O O8 0.625074 0.944923 0.873448
O O9 0.649377 0.883483 0.689578
O O10 0.541530 0.737569 0.808767
O O11 0.417924 0.596453 0.809205
O O12 0.636575 0.353123 0.414435
O O13 0.750000 0.750000 0.601171
O O14 0.672104 0.594456 0.730315
#
# Coordination Sequence:
#
# PCOD9353835 Si02
#       7
#     4   8   8   8   8   8   8
#     4  10  20  36  72 100 136 190 234 282 376 420
#     4  12  23  40  72 103 137 190 235 296 359 416
#     4  10  22  38  65 103 135 182 229 293 356 423
#     4  11  20  40  64 100 130 176 242 291 347 413
#     4  11  23  39  65  99 143 178 239 297 344 413
#     4  11  21  39  68 102 140 178 231 289 363 427
#     4  10  19  37  68  99 136 179 232 285 351 432
#
# _framework density 23.330112
#
# number of rings (size 3 to 8) (size 9 to 14) (size 15 to 20)
#    0.000    1.231    6.154    1.846    0.000    0.000 
#    5.538    0.000   15.231    9.231    0.000    0.000 
#    0.000    0.000    0.000    0.000    0.000    0.000 
#
# Total GULP energy -145093.188443 kJ/mol
# GULP energy per Si atom -5580.507248 kJ/mol
# Density = 2.327701 g / cm^3
# Si number density = 23.330112 Si / 1000 Ang^3
#
#
#
# Elastic Constant Matrix: (Units=GPa)
#
#
# Indices 1 2 3 4 5 6 
#
# 1 129.7336 56.6101 18.9826 0.0000 0.0000 0.0000
# 2 56.6101 137.7913 12.6819 0.0000 0.0000 0.0000
# 3 18.9826 12.6819 55.6401 0.0000 0.0000 0.0000
# 4 0.0000 0.0000 0.0000 11.6928 0.0000 0.0000
# 5 0.0000 0.0000 0.0000 0.0000 22.7207 0.0000
# 6 0.0000 0.0000 0.0000 0.0000 0.0000 53.4333
#
#
#
# Elastic Compliance Matrix: (Units=1/GPa)
#
#
# Indices 1 2 3 4 5 6 
#
# 1 0.009709 -0.003763 -0.002455 0.000000 0.000000 0.000000
# 2 -0.003763 0.008871 -0.000738 0.000000 0.000000 0.000000
# 3 -0.002455 -0.000738 0.018978 0.000000 0.000000 0.000000
# 4 0.000000 0.000000 0.000000 0.085523 0.000000 0.000000
# 5 0.000000 0.000000 0.000000 0.000000 0.044013 0.000000
# 6 0.000000 0.000000 0.000000 0.000000 0.000000 0.018715
#
#
# Mechanical properties :
#
#
# Convention : Reuss Voigt Hill
#
# Bulk Modulus (GPa) = 42.28874 55.52379 48.90626
# Shear Modulus (GPa) = 24.08436 33.22873 28.65654
#
# Velocity S-wave (km/s) = 3.21647 3.77806 3.50852
# Velocity P-wave (km/s) = 5.65331 6.54848 6.11729
#
# Compressibility (1/GPa) = 0.02364696
#
# Stress axis : x y z
#
# Youngs Moduli (GPa) = 102.99391 112.72316 52.69150
#
# Poissons Ratio (x) = 0.42418 0.12935
# Poissons Ratio (y) = 0.38757 0.03890
# Poissons Ratio (z) = 0.25283 0.08321
#
# Static dielectric constant tensor:
#      x y z
#    x 1.946330 0.000000 0.000000 
#    y 0.000000 1.947270 0.000000 
#    z 0.000000 0.000000 1.907440 
# 
# From -- ./inp_files/12875.got.cif
#   From: 2010.05.17/outbox.cif.g08.bks.cpg/sg37_7_cif.got.tgz:12875.got - 2010.06.03 17:53:42.
