data_PCOD9353882
_publ_section_title
;
Structure prediction by ZEFSAII (Michael W. Deem and Ramdas Pophale) SiO2 
 PCOD9353882
Probable space group: C C C 2
;
_chemical_formula_sum "Si O2"
_cell_formula_units_Z 64
_cell_length_a 11.903095
_cell_length_b 17.654279
_cell_length_c 13.646997
_cell_angle_alpha 90.000000
_cell_angle_beta 90.000000
_cell_angle_gamma 90.000000
_cell_volume 2867.787593
_symmetry_space_group_name_H-M "C C C 2"
_symmetry_group_IT_number 37
_symmetry_cell_setting 'orthorhombic'
loop_
_space_group_symop_operation_xyz
x,y,z
-x,-y,z
-x,y,1/2+z
x,-y,1/2+z
1/2+x,1/2+y,z
1/2-x,1/2-y,z
1/2-x,1/2+y,1/2+z
1/2+x,1/2-y,1/2+z
loop_
_atom_site_type_symbol
_atom_site_label
_atom_site_fract_x
_atom_site_fract_y
_atom_site_fract_z
Si Si1 0.446847 0.186751 0.330580
Si Si2 0.943411 0.172526 0.711404
Si Si3 0.855201 0.423048 0.367464
Si Si4 0.728182 0.079154 0.767842
Si Si5 0.933123 0.226263 0.026991
Si Si6 0.382755 0.025133 0.078174
Si Si7 0.808991 0.168657 0.288199
Si Si8 0.779761 0.635626 0.577953
O O1 0.411047 0.242931 0.244055
O O2 0.550966 0.129348 0.313834
O O3 0.336266 0.136016 0.340877
O O4 0.473072 0.239253 0.424439
O O5 0.854299 0.109878 0.747532
O O6 0.978928 0.182809 0.597192
O O7 0.059920 0.163336 0.770889
O O8 0.810849 0.498090 0.312651
O O9 0.906295 0.437111 0.473962
O O10 0.741448 0.374897 0.379675
O O11 0.677730 0.076640 0.657794
O O12 0.878975 0.301766 0.077115
O O13 0.825582 0.170384 0.018477
O O14 0.500000 0.000000 0.124480
O O15 0.315375 0.948688 0.052256
O O16 0.750000 0.250000 0.289407
O O17 0.761168 0.130669 0.189723
#
# Coordination Sequence:
#
# PCOD9353882 Si02
#       8
#     8   8   8   8   8   8   8   8
#     4  12  25  44  72 106 145 194 243 307 374 458
#     4  11  26  45  71 105 143 195 245 316 378 439
#     4  12  25  45  74 104 144 194 244 304 377 454
#     4  12  28  45  69 111 153 184 248 319 382 447
#     4  10  22  40  73 100 135 187 256 298 369 449
#     4  12  26  43  71 104 150 190 241 306 391 457
#     4  11  20  46  73  97 133 197 251 299 365 452
#     4  10  19  40  70  97 131 185 246 300 360 454
#
# _framework density 22.316855
#
# number of rings (size 3 to 8) (size 9 to 14) (size 15 to 20)
#    0.000    0.750    5.000    3.750    8.750    1.500 
#    0.000    0.000    5.500    0.000    0.000    0.000 
#    0.000    0.000    0.000    0.000    0.000    0.000 
#
# Total GULP energy -178504.512562 kJ/mol
# GULP energy per Si atom -5578.266018 kJ/mol
# Density = 2.226606 g / cm^3
# Si number density = 22.316855 Si / 1000 Ang^3
#
#
#
# Elastic Constant Matrix: (Units=GPa)
#
#
# Indices 1 2 3 4 5 6 
#
# 1 112.1902 20.2156 36.6259 0.0000 0.0000 0.0000
# 2 20.2156 37.2921 29.8750 0.0000 0.0000 0.0000
# 3 36.6259 29.8750 63.6851 0.0000 0.0000 0.0000
# 4 0.0000 0.0000 0.0000 26.0104 0.0000 0.0000
# 5 0.0000 0.0000 0.0000 0.0000 22.5429 0.0000
# 6 0.0000 0.0000 0.0000 0.0000 0.0000 43.4863
#
#
#
# Elastic Compliance Matrix: (Units=1/GPa)
#
#
# Indices 1 2 3 4 5 6 
#
# 1 0.011022 -0.001437 -0.005665 0.000000 0.000000 0.000000
# 2 -0.001437 0.043147 -0.019414 0.000000 0.000000 0.000000
# 3 -0.005665 -0.019414 0.028067 0.000000 0.000000 0.000000
# 4 0.000000 0.000000 0.000000 0.038446 0.000000 0.000000
# 5 0.000000 0.000000 0.000000 0.000000 0.044360 0.000000
# 6 0.000000 0.000000 0.000000 0.000000 0.000000 0.022996
#
#
# Mechanical properties :
#
#
# Convention : Reuss Voigt Hill
#
# Bulk Modulus (GPa) = 34.24087 42.95560 38.59824
# Shear Modulus (GPa) = 19.93589 26.83797 23.38693
#
# Velocity S-wave (km/s) = 2.99207 3.47160 3.24072
# Velocity P-wave (km/s) = 5.22619 5.94636 5.59786
#
# Compressibility (1/GPa) = 0.02920486
#
# Stress axis : x y z
#
# Youngs Moduli (GPa) = 90.73078 23.17656 35.62858
#
# Poissons Ratio (x) = 0.03330 0.20182
# Poissons Ratio (y) = 0.13035 0.69170
# Poissons Ratio (z) = 0.51396 0.44995
#
# Static dielectric constant tensor:
#      x y z
#    x 1.873460 0.000000 0.000000 
#    y 0.000000 1.878840 0.000000 
#    z 0.000000 0.000000 1.865950 
# 
# From -- ./inp_files/11787.got.cif
#   From: 2010.05.17/outbox.cif.g08.bks.cpg/sg37_6_cif.got.tgz:11787.got - 2010.06.03 17:53:42.
