data_PCOD9353742
_publ_section_title
;
Structure prediction by ZEFSAII (Michael W. Deem and Ramdas Pophale) SiO2 
 PCOD9353742
Probable space group: C C C 2
;
_chemical_formula_sum "Si O2"
_cell_formula_units_Z 48
_cell_length_a 8.407183
_cell_length_b 13.978498
_cell_length_c 19.164722
_cell_angle_alpha 90.000000
_cell_angle_beta 90.000000
_cell_angle_gamma 90.000000
_cell_volume 2252.234119
_symmetry_space_group_name_H-M "C C C 2"
_symmetry_group_IT_number 37
_symmetry_cell_setting 'orthorhombic'
loop_
_space_group_symop_operation_xyz
x,y,z
-x,-y,z
-x,y,1/2+z
x,-y,1/2+z
1/2+x,1/2+y,z
1/2-x,1/2-y,z
1/2-x,1/2+y,1/2+z
1/2+x,1/2-y,1/2+z
loop_
_atom_site_type_symbol
_atom_site_label
_atom_site_fract_x
_atom_site_fract_y
_atom_site_fract_z
Si Si1 0.182638 0.981852 0.403020
Si Si2 0.161897 0.565579 0.675976
Si Si3 0.611769 0.175304 0.914221
Si Si4 0.107427 0.403421 0.020402
Si Si5 0.674959 0.400351 0.246882
Si Si6 0.004605 0.715925 0.262488
O O1 0.300598 0.073586 0.400918
O O2 0.256213 0.916625 0.463210
O O3 0.179747 0.937502 0.326168
O O4 0.000000 0.000000 0.421340
O O5 0.170901 0.607637 0.598182
O O6 0.301578 0.492247 0.697482
O O7 0.000000 0.500000 0.679936
O O8 0.135934 0.653655 0.728687
O O9 0.750000 0.250000 0.922137
O O10 0.509067 0.172507 0.984618
O O11 0.511833 0.204557 0.845869
O O12 0.000000 0.500000 0.022729
O O13 0.834560 0.337439 0.238803
O O14 0.528819 0.326247 0.240642
#
# Coordination Sequence:
#
# PCOD9353742 Si02
#       6
#     8   8   8   8   8   8
#     4  11  21  37  61  90 121 166 211 260 321 385
#     4   9  18  36  59  90 127 170 213 267 332 395
#     4  11  21  37  61  91 126 159 215 274 316 390
#     4   9  20  38  60  86 128 170 207 261 333 387
#     4  10  19  34  62  93 124 164 215 269 319 388
#     4  10  19  34  62  92 123 165 217 269 322 380
#
# _framework density 21.312170999999999
#
# number of rings (size 3 to 8) (size 9 to 14) (size 15 to 20)
#    0.000    2.000    3.333    1.000    0.000    0.000 
#   12.000    0.833    0.000    0.000    0.000    0.000 
#    0.000    0.000    0.000    0.000    0.000    0.000 
#
# Total GULP energy -133953.930867 kJ/mol
# GULP energy per Si atom -5581.413786 kJ/mol
# Density = 2.126366 g / cm^3
# Si number density = 21.312171 Si / 1000 Ang^3
#
#
#
# Elastic Constant Matrix: (Units=GPa)
#
#
# Indices 1 2 3 4 5 6 
#
# 1 54.7135 25.0931 -0.5272 0.0000 0.0000 0.0000
# 2 25.0931 99.1512 39.7734 0.0000 0.0000 0.0000
# 3 -0.5272 39.7734 119.6422 0.0000 0.0000 0.0000
# 4 0.0000 0.0000 0.0000 7.8589 0.0000 0.0000
# 5 0.0000 0.0000 0.0000 0.0000 -11.2494 0.0000
# 6 0.0000 0.0000 0.0000 0.0000 0.0000 25.5123
#
#
#
# Elastic Compliance Matrix: (Units=1/GPa)
#
#
# Indices 1 2 3 4 5 6 
#
# 1 0.021150 -0.006219 0.002161 0.000000 0.000000 0.000000
# 2 -0.006219 0.013466 -0.004504 0.000000 0.000000 0.000000
# 3 0.002161 -0.004504 0.009865 0.000000 0.000000 0.000000
# 4 0.000000 0.000000 0.000000 0.127244 0.000000 0.000000
# 5 0.000000 0.000000 0.000000 0.000000 -0.088894 0.000000
# 6 0.000000 0.000000 0.000000 0.000000 0.000000 0.039197
#
#
# Mechanical properties :
#
#
# Convention : Reuss Voigt Hill
#
# Bulk Modulus (GPa) = 36.55489 44.68729 40.62109
# Shear Modulus (GPa) = 33.72169 18.36888 26.04529
#
# Velocity S-wave (km/s) = 3.98210 2.93899 3.49963
# Velocity P-wave (km/s) = 6.19130 5.70354 5.95242
#
# Compressibility (1/GPa) = 0.02735612
#
# Stress axis : x y z
#
# Youngs Moduli (GPa) = 47.28080 74.25889 101.36731
#
# Poissons Ratio (x) = 0.46185 -0.21903
# Poissons Ratio (y) = 0.29406 0.45657
# Poissons Ratio (z) = -0.10216 0.33447
#
# Static dielectric constant tensor:
#      x y z
#    x 1.773330 0.000000 0.000000 
#    y 0.000000 1.810530 0.000000 
#    z 0.000000 0.000000 1.727160 
# 
# From -- ./inp_files/14503.got.cif
#   From: 2010.05.17/outbox.cif.g08.bks.cpg/sg37_8_cif.got.tgz:14503.got - 2010.06.03 17:53:42.
