data_PCOD9353006
_publ_section_title
;
Structure prediction by ZEFSAII (Michael W. Deem and Ramdas Pophale) SiO2 
 PCOD9353006
Probable space group: C M C 21
;
_chemical_formula_sum "Si O2"
_cell_formula_units_Z 64
_cell_length_a 8.991444
_cell_length_b 24.051676
_cell_length_c 15.334642
_cell_angle_alpha 90.000000
_cell_angle_beta 90.000000
_cell_angle_gamma 90.000000
_cell_volume 3316.258912
_symmetry_space_group_name_H-M "C M C 21"
_symmetry_group_IT_number 36
_symmetry_cell_setting 'orthorhombic'
loop_
_space_group_symop_operation_xyz
x,y,z
-x,-y,1/2+z
x,-y,1/2+z
-x,y,z
1/2+x,1/2+y,z
1/2-x,1/2-y,1/2+z
1/2+x,1/2-y,1/2+z
1/2-x,1/2+y,z
loop_
_atom_site_type_symbol
_atom_site_label
_atom_site_fract_x
_atom_site_fract_y
_atom_site_fract_z
Si Si1 0.820846 0.922711 0.917650
Si Si2 0.326835 0.767465 0.261658
Si Si3 0.174236 0.124024 0.798663
Si Si4 0.677198 0.199155 0.416813
Si Si5 0.826668 0.783879 0.572334
Si Si6 0.829698 0.622103 0.978716
Si Si7 0.173266 0.500681 0.061053
Si Si8 0.178053 0.996659 0.748750
O O1 0.757451 0.860406 0.915843
O O2 0.000000 0.921985 0.921353
O O3 0.777458 0.956179 0.828744
O O4 0.758416 0.955542 0.001900
O O5 0.500000 0.768079 0.286731
O O6 0.268472 0.829991 0.248474
O O7 0.234816 0.736729 0.336896
O O8 0.311287 0.735696 0.170927
O O9 0.208115 0.060472 0.775456
O O10 0.000000 0.133803 0.785176
O O11 0.219252 0.131971 0.898910
O O12 0.500000 0.191107 0.410345
O O13 0.707678 0.233977 0.505066
O O14 0.720082 0.835219 0.552575
O O15 0.000000 0.799709 0.557704
O O16 0.817979 0.559129 0.010509
O O17 0.000000 0.632550 0.951637
O O18 0.242245 0.511007 0.156356
O O19 0.000000 0.484697 0.069172
O O20 0.000000 0.990232 0.737238
#
# Coordination Sequence:
#
# PCOD9353006 Si02
#       8
#     8   8   8   8   8   8   8   8
#     4  11  24  44  66  92 127 170 213 259 315 377
#     4  11  24  42  64  95 127 165 211 258 312 374
#     4  11  22  41  66  93 124 163 208 261 316 368
#     4  11  24  43  64  92 128 168 210 259 317 373
#     4  10  24  43  64  90 126 167 206 254 315 372
#     4  11  23  40  65  95 124 161 210 260 312 371
#     4  11  25  42  64  96 129 165 208 261 320 374
#     4  10  24  43  65  93 125 167 214 258 313 377
#
# _framework density 19.298855
#
# number of rings (size 3 to 8) (size 9 to 14) (size 15 to 20)
#    0.000    1.250    2.500    2.250    3.500    5.000 
#    0.000    0.000    0.000    0.000    0.000    0.000 
#    0.000    0.000    0.000    0.000    0.000    0.000 
#
# Total GULP energy -178866.088247 kJ/mol
# GULP energy per Si atom -5589.565258 kJ/mol
# Density = 1.925493 g / cm^3
# Si number density = 19.298855 Si / 1000 Ang^3
#
#
#
# Elastic Constant Matrix: (Units=GPa)
#
#
# Indices 1 2 3 4 5 6 
#
# 1 38.5560 32.9171 14.2798 0.0000 0.0000 0.0000
# 2 32.9171 72.6983 -0.3667 0.0000 0.0000 0.0000
# 3 14.2798 -0.3667 57.9940 0.0000 0.0000 0.0000
# 4 0.0000 0.0000 0.0000 21.6234 0.0000 0.0000
# 5 0.0000 0.0000 0.0000 0.0000 25.4285 0.0000
# 6 0.0000 0.0000 0.0000 0.0000 0.0000 34.1916
#
#
#
# Elastic Compliance Matrix: (Units=1/GPa)
#
#
# Indices 1 2 3 4 5 6 
#
# 1 0.049868 -0.022642 -0.012422 0.000000 0.000000 0.000000
# 2 -0.022642 0.024037 0.005727 0.000000 0.000000 0.000000
# 3 -0.012422 0.005727 0.020338 0.000000 0.000000 0.000000
# 4 0.000000 0.000000 0.000000 0.046246 0.000000 0.000000
# 5 0.000000 0.000000 0.000000 0.000000 0.039326 0.000000
# 6 0.000000 0.000000 0.000000 0.000000 0.000000 0.029247
#
#
# Mechanical properties :
#
#
# Convention : Reuss Voigt Hill
#
# Bulk Modulus (GPa) = 28.11513 29.21208 28.66361
# Shear Modulus (GPa) = 17.88319 24.40989 21.14654
#
# Velocity S-wave (km/s) = 3.04739 3.56031 3.31379
# Velocity P-wave (km/s) = 5.19442 5.66310 5.43381
#
# Compressibility (1/GPa) = 0.03556803
#
# Stress axis : x y z
#
# Youngs Moduli (GPa) = 20.05299 41.60327 49.16889
#
# Poissons Ratio (x) = 0.94199 0.61078
# Poissons Ratio (y) = 0.45405 -0.28160
# Poissons Ratio (z) = 0.24910 -0.23827
#
# Static dielectric constant tensor:
#      x y z
#    x 1.655040 0.000000 0.000000 
#    y 0.000000 1.663390 0.000000 
#    z 0.000000 0.000000 1.659610 
# 
# From -- ./inp_files/10952.got.cif
#   From: 2010.05.17/outbox.cif.g08.bks.cpg/sg36_6_cif.got.tgz:10952.got - 2010.06.03 17:41:39.
