data_PCOD9353613
_publ_section_title
;
Structure prediction by ZEFSAII (Michael W. Deem and Ramdas Pophale) SiO2 
 PCOD9353613
Probable space group: C C C 2
;
_chemical_formula_sum "Si O2"
_cell_formula_units_Z 56
_cell_length_a 25.540614
_cell_length_b 5.348220
_cell_length_c 22.179361
_cell_angle_alpha 90.000000
_cell_angle_beta 90.000000
_cell_angle_gamma 90.000000
_cell_volume 3029.630240
_symmetry_space_group_name_H-M "C C C 2"
_symmetry_group_IT_number 37
_symmetry_cell_setting 'orthorhombic'
loop_
_space_group_symop_operation_xyz
x,y,z
-x,-y,z
-x,y,1/2+z
x,-y,1/2+z
1/2+x,1/2+y,z
1/2-x,1/2-y,z
1/2-x,1/2+y,1/2+z
1/2+x,1/2-y,1/2+z
loop_
_atom_site_type_symbol
_atom_site_label
_atom_site_fract_x
_atom_site_fract_y
_atom_site_fract_z
Si Si1 0.195463 0.590724 0.644510
Si Si2 0.103218 0.798844 0.723653
Si Si3 0.000000 0.000000 0.732906
Si Si4 0.340281 0.061499 0.885677
Si Si5 0.714627 0.999654 0.008768
Si Si6 0.250000 0.750000 0.229913
Si Si7 0.185061 0.049177 0.316702
Si Si8 0.054473 0.404509 0.817925
O O1 0.250000 0.750000 0.647676
O O2 0.146147 0.727919 0.674073
O O3 0.189437 0.514083 0.575216
O O4 0.204818 0.349781 0.686568
O O5 0.134573 0.968180 0.772459
O O6 0.081713 0.577181 0.766685
O O7 0.048811 0.894776 0.695714
O O8 0.031022 0.179654 0.778654
O O9 0.318730 0.818958 0.848470
O O10 0.314701 0.322639 0.864207
O O11 0.400884 0.107042 0.868394
O O12 0.326656 0.007339 0.954540
O O13 0.750000 0.250000 0.004699
O O14 0.750000 0.750000 0.002723
O O15 0.268140 0.522284 0.271755
O O16 0.000000 0.500000 0.846250
#
# Coordination Sequence:
#
# PCOD9353613 Si02
#       8
#     8   8   4   8   8   4   8   8
#     4  11  23  40  60  87 125 168 214 246 307 375
#     4  10  20  36  57  91 121 159 200 258 312 383
#     4  10  18  36  58  86 126 156 196 254 334 376
#     4  11  23  40  58  90 121 160 206 249 302 375
#     4  11  25  45  61  84 123 175 210 247 294 362
#     4  12  22  36  56  90 126 160 192 264 308 382
#     4  11  23  35  60  92 124 153 194 252 323 360
#     4   9  19  35  58  87 122 153 196 253 323 371
#
# _framework density 18.484103999999999
#
# number of rings (size 3 to 8) (size 9 to 14) (size 15 to 20)
#    0.000    1.429    3.571    2.571    3.000    0.000 
#    0.000    0.000    0.000    3.429    0.000    0.000 
#    0.000    0.000    0.000    0.000    0.000    0.000 
#
# Total GULP energy -155993.504776 kJ/mol
# GULP energy per Si atom -5571.196599 kJ/mol
# Density = 1.844203 g / cm^3
# Si number density = 18.484104 Si / 1000 Ang^3
#
#
#
# Elastic Constant Matrix: (Units=GPa)
#
#
# Indices 1 2 3 4 5 6 
#
# 1 131.6527 32.8589 75.1634 0.0000 0.0000 0.0000
# 2 32.8589 87.3555 30.1652 0.0000 0.0000 0.0000
# 3 75.1634 30.1652 121.1084 0.0000 0.0000 0.0000
# 4 0.0000 0.0000 0.0000 16.4879 0.0000 0.0000
# 5 0.0000 0.0000 0.0000 0.0000 21.9076 0.0000
# 6 0.0000 0.0000 0.0000 0.0000 0.0000 35.6257
#
#
#
# Elastic Compliance Matrix: (Units=1/GPa)
#
#
# Indices 1 2 3 4 5 6 
#
# 1 0.012121 -0.002146 -0.006988 0.000000 0.000000 0.000000
# 2 -0.002146 0.012905 -0.001882 0.000000 0.000000 0.000000
# 3 -0.006988 -0.001882 0.013063 0.000000 0.000000 0.000000
# 4 0.000000 0.000000 0.000000 0.060650 0.000000 0.000000
# 5 0.000000 0.000000 0.000000 0.000000 0.045646 0.000000
# 6 0.000000 0.000000 0.000000 0.000000 0.000000 0.028070
#
#
# Mechanical properties :
#
#
# Convention : Reuss Voigt Hill
#
# Bulk Modulus (GPa) = 62.28381 68.49908 65.39144
# Shear Modulus (GPa) = 25.02000 28.26619 26.64310
#
# Velocity S-wave (km/s) = 3.68312 3.91476 3.80070
# Velocity P-wave (km/s) = 7.20112 7.58766 7.39692
#
# Compressibility (1/GPa) = 0.01605554
#
# Stress axis : x y z
#
# Youngs Moduli (GPa) = 82.50081 77.49077 76.55256
#
# Poissons Ratio (x) = 0.16632 0.53496
# Poissons Ratio (y) = 0.17707 0.14409
# Poissons Ratio (z) = 0.57653 0.14586
#
# Static dielectric constant tensor:
#      x y z
#    x 1.708590 0.000000 0.000000 
#    y 0.000000 1.745010 0.000000 
#    z 0.000000 0.000000 1.612030 
# 
# From -- ./inp_files/17570.got.cif
#   From: 2010.05.17/outbox.cif.g08.bks.cpg/sg37_9_cif.got.tgz:17570.got - 2010.06.03 17:53:42.
