data_PCOD9353144
_publ_section_title
;
Structure prediction by ZEFSAII (Michael W. Deem and Ramdas Pophale) SiO2 
 PCOD9353144
Probable space group: C M C 21
;
_chemical_formula_sum "Si O2"
_cell_formula_units_Z 56
_cell_length_a 19.541194
_cell_length_b 11.802907
_cell_length_c 11.327535
_cell_angle_alpha 90.000000
_cell_angle_beta 90.000000
_cell_angle_gamma 90.000000
_cell_volume 2612.615471
_symmetry_space_group_name_H-M "C M C 21"
_symmetry_group_IT_number 36
_symmetry_cell_setting 'orthorhombic'
loop_
_space_group_symop_operation_xyz
x,y,z
-x,-y,1/2+z
x,-y,1/2+z
-x,y,z
1/2+x,1/2+y,z
1/2-x,1/2-y,1/2+z
1/2+x,1/2-y,1/2+z
1/2-x,1/2+y,z
loop_
_atom_site_type_symbol
_atom_site_label
_atom_site_fract_x
_atom_site_fract_y
_atom_site_fract_z
Si Si1 0.167330 0.718656 0.953820
Si Si2 0.579040 0.850824 0.229691
Si Si3 0.077116 0.073098 0.433497
Si Si4 0.612103 0.639388 0.067106
Si Si5 0.335670 0.939114 0.681703
Si Si6 0.817455 0.246824 0.844720
Si Si7 0.811815 0.009798 0.739549
O O1 0.123350 0.664362 0.847945
O O2 0.118718 0.823689 0.992567
O O3 0.239604 0.761362 0.896302
O O4 0.177978 0.629976 0.060360
O O5 0.500000 0.874254 0.254509
O O6 0.584397 0.732806 0.157351
O O7 0.613525 0.956477 0.161862
O O8 0.130300 0.033796 0.331386
O O9 0.000000 0.106259 0.393603
O O10 0.068667 0.965036 0.517972
O O11 0.671886 0.565873 0.126335
O O12 0.639816 0.707509 0.956349
O O13 0.356796 0.847088 0.779120
O O14 0.268255 0.985715 0.748735
O O15 0.814951 0.144647 0.749982
#
# Coordination Sequence:
#
# PCOD9353144 Si02
#       7
#     8   8   8   8   8   8   8
#     4  12  24  44  73 105 146 186 239 296 361 422
#     4  12  28  48  71 103 149 197 236 289 366 439
#     4  11  24  42  70 105 142 184 233 293 356 422
#     4  11  24  44  75 105 141 186 240 296 356 423
#     4  12  26  45  71 106 145 189 244 293 348 431
#     4  11  24  43  71 109 140 180 240 304 352 411
#     4  11  22  42  69 103 139 182 236 293 351 412
#
# _framework density 21.434457999999999
#
# number of rings (size 3 to 8) (size 9 to 14) (size 15 to 20)
#    0.000    0.571    5.714    1.714    2.000    2.857 
#    0.000    2.857    0.000    0.000    0.000    0.000 
#    0.000    0.000    0.000    0.000    0.000    0.000 
#
# Total GULP energy -156077.836907 kJ/mol
# GULP energy per Si atom -5574.208461 kJ/mol
# Density = 2.138567 g / cm^3
# Si number density = 21.434458 Si / 1000 Ang^3
#
#
#
# Elastic Constant Matrix: (Units=GPa)
#
#
# Indices 1 2 3 4 5 6 
#
# 1 94.9717 47.0576 16.1908 0.0000 0.0000 0.0000
# 2 47.0576 115.6912 38.9756 0.0000 0.0000 0.0000
# 3 16.1908 38.9756 77.3749 0.0000 0.0000 0.0000
# 4 0.0000 0.0000 0.0000 20.5209 0.0000 0.0000
# 5 0.0000 0.0000 0.0000 0.0000 -2.5478 0.0000
# 6 0.0000 0.0000 0.0000 0.0000 0.0000 1.0960
#
#
#
# Elastic Compliance Matrix: (Units=1/GPa)
#
#
# Indices 1 2 3 4 5 6 
#
# 1 0.013188 -0.005341 -0.000069 0.000000 0.000000 0.000000
# 2 -0.005341 0.012573 -0.005216 0.000000 0.000000 0.000000
# 3 -0.000069 -0.005216 0.015566 0.000000 0.000000 0.000000
# 4 0.000000 0.000000 0.000000 0.048731 0.000000 0.000000
# 5 0.000000 0.000000 0.000000 0.000000 -0.392503 0.000000
# 6 0.000000 0.000000 0.000000 0.000000 0.000000 0.912371
#
#
# Mechanical properties :
#
#
# Convention : Reuss Voigt Hill
#
# Bulk Modulus (GPa) = 49.81326 54.72066 52.26696
# Shear Modulus (GPa) = 7.83859 16.20141 12.02000
#
# Velocity S-wave (km/s) = 1.91440 2.75227 2.37065
# Velocity P-wave (km/s) = 5.30819 5.97367 5.65073
#
# Compressibility (1/GPa) = 0.02007498
#
# Stress axis : x y z
#
# Youngs Moduli (GPa) = 75.82916 79.53395 64.24278
#
# Poissons Ratio (x) = 0.42477 0.00445
# Poissons Ratio (y) = 0.40498 0.33508
# Poissons Ratio (z) = 0.00525 0.41484
#
# Static dielectric constant tensor:
#      x y z
#    x 1.884320 0.000000 0.000000 
#    y 0.000000 1.849530 0.000000 
#    z 0.000000 0.000000 1.810010 
# 
# From -- ./inp_files/9234.got.cif
#   From: 2010.05.17/outbox.cif.g08.bks.cpg/sg36_5_cif.got.tgz:9234.got - 2010.06.03 17:41:39.
