data_PCOD9353946
_publ_section_title
;
Structure prediction by ZEFSAII (Michael W. Deem and Ramdas Pophale) SiO2 
 PCOD9353946
Probable space group: C C C 2
;
_chemical_formula_sum "Si O2"
_cell_formula_units_Z 64
_cell_length_a 10.990642
_cell_length_b 12.575837
_cell_length_c 21.970788
_cell_angle_alpha 90.000000
_cell_angle_beta 90.000000
_cell_angle_gamma 90.000000
_cell_volume 3036.725910
_symmetry_space_group_name_H-M "C C C 2"
_symmetry_group_IT_number 37
_symmetry_cell_setting 'orthorhombic'
loop_
_space_group_symop_operation_xyz
x,y,z
-x,-y,z
-x,y,1/2+z
x,-y,1/2+z
1/2+x,1/2+y,z
1/2-x,1/2-y,z
1/2-x,1/2+y,1/2+z
1/2+x,1/2-y,1/2+z
loop_
_atom_site_type_symbol
_atom_site_label
_atom_site_fract_x
_atom_site_fract_y
_atom_site_fract_z
Si Si1 0.873595 0.938347 0.969010
Si Si2 0.273660 0.907866 0.691954
Si Si3 0.027671 0.375043 0.282034
Si Si4 0.880218 0.245707 0.373380
Si Si5 0.932079 0.114017 0.601330
Si Si6 0.822240 0.359260 0.179970
Si Si7 0.482200 0.151211 0.094120
Si Si8 0.387706 0.935444 0.465996
O O1 0.893537 0.863524 0.910103
O O2 0.742121 0.995482 0.964098
O O3 0.860607 0.886293 0.036580
O O4 0.000000 0.000000 0.973970
O O5 0.336171 0.869344 0.754508
O O6 0.152010 0.866373 0.660379
O O7 0.378087 0.880520 0.642318
O O8 0.251148 0.034556 0.698372
O O9 0.000000 0.500000 0.297624
O O10 0.990611 0.290243 0.333230
O O11 0.932099 0.349818 0.227957
O O12 0.750000 0.250000 0.338151
O O13 0.863550 0.331794 0.426415
O O14 0.007201 0.222092 0.594844
O O15 0.000000 0.000000 0.607216
O O16 0.750000 0.250000 0.176735
O O17 0.888135 0.391363 0.116725
O O18 0.436477 0.106484 0.030540
O O19 0.500000 0.000000 0.439133
#
# Coordination Sequence:
#
# PCOD9353946 Si02
#       8
#     8   8   8   8   8   8   8   8
#     4  10  22  39  61  91 129 169 207 261 329 392
#     4  10  20  34  58  84 121 164 204 264 319 378
#     4   9  19  36  60  90 119 159 214 265 314 373
#     4  10  20  37  64  90 119 166 215 259 319 388
#     4  11  21  35  57  86 127 167 209 260 327 400
#     4  10  20  35  55  86 122 158 202 259 317 379
#     4  11  20  34  54  84 123 159 204 258 313 389
#     4  11  21  36  60  91 121 161 214 258 319 383
#
# _framework density 21.075329
#
# number of rings (size 3 to 8) (size 9 to 14) (size 15 to 20)
#    0.000    1.750    2.500    3.750    0.000    0.000 
#    0.000    0.625    0.000   37.500    0.000    0.000 
#    0.000    0.000    0.000    0.000    0.000    0.000 
#
# Total GULP energy -178184.656773 kJ/mol
# GULP energy per Si atom -5568.270524 kJ/mol
# Density = 2.102736 g / cm^3
# Si number density = 21.075329 Si / 1000 Ang^3
#
#
#
# Elastic Constant Matrix: (Units=GPa)
#
#
# Indices 1 2 3 4 5 6 
#
# 1 94.2415 35.7160 30.3613 0.0000 0.0000 0.0000
# 2 35.7160 88.8045 11.5534 0.0000 0.0000 0.0000
# 3 30.3613 11.5534 81.8855 0.0000 0.0000 0.0000
# 4 0.0000 0.0000 0.0000 12.1113 0.0000 0.0000
# 5 0.0000 0.0000 0.0000 0.0000 19.5296 0.0000
# 6 0.0000 0.0000 0.0000 0.0000 0.0000 30.0393
#
#
#
# Elastic Compliance Matrix: (Units=1/GPa)
#
#
# Indices 1 2 3 4 5 6 
#
# 1 0.013957 -0.005032 -0.004465 0.000000 0.000000 0.000000
# 2 -0.005032 0.013286 -0.000009 0.000000 0.000000 0.000000
# 3 -0.004465 -0.000009 0.013869 0.000000 0.000000 0.000000
# 4 0.000000 0.000000 0.000000 0.082568 0.000000 0.000000
# 5 0.000000 0.000000 0.000000 0.000000 0.051204 0.000000
# 6 0.000000 0.000000 0.000000 0.000000 0.000000 0.033290
#
#
# Mechanical properties :
#
#
# Convention : Reuss Voigt Hill
#
# Bulk Modulus (GPa) = 45.24946 46.68812 45.96879
# Shear Modulus (GPa) = 21.31733 24.82274 23.07004
#
# Velocity S-wave (km/s) = 3.18383 3.43565 3.31213
# Velocity P-wave (km/s) = 5.91884 6.15949 6.04036
#
# Compressibility (1/GPa) = 0.02209971
#
# Stress axis : x y z
#
# Youngs Moduli (GPa) = 71.65073 75.26868 72.10414
#
# Poissons Ratio (x) = 0.37877 0.32193
# Poissons Ratio (y) = 0.36057 0.00062
# Poissons Ratio (z) = 0.31990 0.00065
#
# Static dielectric constant tensor:
#      x y z
#    x 1.840130 0.000000 0.000000 
#    y 0.000000 1.790080 0.000000 
#    z 0.000000 0.000000 1.799710 
# 
# From -- ./inp_files/18728.got.cif
#   From: 2010.05.17/outbox.cif.g08.bks.cpg/sg37_10_cif.got.tgz:18728.got - 2010.06.03 17:53:42.
