data_PCOD9353833
_publ_section_title
;
Structure prediction by ZEFSAII (Michael W. Deem and Ramdas Pophale) SiO2 
 PCOD9353833
Probable space group: C C C 2
;
_chemical_formula_sum "Si O2"
_cell_formula_units_Z 56
_cell_length_a 11.450344
_cell_length_b 14.840803
_cell_length_c 17.672895
_cell_angle_alpha 90.000000
_cell_angle_beta 90.000000
_cell_angle_gamma 90.000000
_cell_volume 3003.195688
_symmetry_space_group_name_H-M "C C C 2"
_symmetry_group_IT_number 37
_symmetry_cell_setting 'orthorhombic'
loop_
_space_group_symop_operation_xyz
x,y,z
-x,-y,z
-x,y,1/2+z
x,-y,1/2+z
1/2+x,1/2+y,z
1/2-x,1/2-y,z
1/2-x,1/2+y,1/2+z
1/2+x,1/2-y,1/2+z
loop_
_atom_site_type_symbol
_atom_site_label
_atom_site_fract_x
_atom_site_fract_y
_atom_site_fract_z
Si Si1 0.843142 0.567331 0.297830
Si Si2 0.000000 0.500000 0.040994
Si Si3 0.295657 0.056648 0.944453
Si Si4 0.136931 0.009190 0.084097
Si Si5 0.164800 0.829628 0.701922
Si Si6 0.458403 0.214371 0.766229
Si Si7 0.333240 0.920395 0.164537
Si Si8 0.250000 0.250000 0.876503
O O1 0.818822 0.509221 0.372899
O O2 0.731014 0.626440 0.273850
O O3 0.854806 0.497659 0.227925
O O4 0.954950 0.634753 0.298408
O O5 0.917712 0.441621 0.094780
O O6 0.917436 0.560557 0.989425
O O7 0.257511 0.156076 0.920634
O O8 0.202072 0.017783 0.004006
O O9 0.155889 0.097911 0.135539
O O10 0.202363 0.931294 0.132767
O O11 0.000000 0.000000 0.074232
O O12 0.250000 0.750000 0.675075
O O13 0.043351 0.787600 0.728979
O O14 0.374292 0.170123 0.703663
O O15 0.369300 0.252237 0.827788
#
# Coordination Sequence:
#
# PCOD9353833 Si02
#       8
#     8   4   8   8   8   8   8   4
#     4  10  19  41  63  86 120 162 202 253 304 370
#     4  10  20  36  62  92 110 166 206 258 298 362
#     4  11  24  38  60  88 129 162 206 247 316 373
#     4  10  24  41  60  87 125 171 200 243 316 379
#     4   9  22  38  64  91 121 158 204 259 307 354
#     4  11  21  36  63  95 118 153 210 265 298 346
#     4  10  19  37  66  88 113 153 219 251 293 356
#     4  12  26  34  56  98 124 156 202 268 308 348
#
# _framework density 18.646802000000001
#
# number of rings (size 3 to 8) (size 9 to 14) (size 15 to 20)
#    0.000    1.714    2.857    0.857    5.000    1.143 
#    0.000    0.714    0.000    0.000    0.000    0.000 
#    0.000    0.000    0.000    0.000    0.000    0.000 
#
# Total GULP energy -156262.184395 kJ/mol
# GULP energy per Si atom -5580.792300 kJ/mol
# Density = 1.860436 g / cm^3
# Si number density = 18.646802 Si / 1000 Ang^3
#
#
#
# Elastic Constant Matrix: (Units=GPa)
#
#
# Indices 1 2 3 4 5 6 
#
# 1 140.8398 39.4348 61.8873 0.0000 0.0000 0.0000
# 2 39.4348 67.6872 49.5778 0.0000 0.0000 0.0000
# 3 61.8873 49.5778 117.8721 0.0000 0.0000 0.0000
# 4 0.0000 0.0000 0.0000 13.1777 0.0000 0.0000
# 5 0.0000 0.0000 0.0000 0.0000 19.2226 0.0000
# 6 0.0000 0.0000 0.0000 0.0000 0.0000 26.9043
#
#
#
# Elastic Compliance Matrix: (Units=1/GPa)
#
#
# Indices 1 2 3 4 5 6 
#
# 1 0.009568 -0.002739 -0.003872 0.000000 0.000000 0.000000
# 2 -0.002739 0.022136 -0.007873 0.000000 0.000000 0.000000
# 3 -0.003872 -0.007873 0.013828 0.000000 0.000000 0.000000
# 4 0.000000 0.000000 0.000000 0.075886 0.000000 0.000000
# 5 0.000000 0.000000 0.000000 0.000000 0.052022 0.000000
# 6 0.000000 0.000000 0.000000 0.000000 0.000000 0.037169
#
#
# Mechanical properties :
#
#
# Convention : Reuss Voigt Hill
#
# Bulk Modulus (GPa) = 60.36498 69.79987 65.08242
# Shear Modulus (GPa) = 20.40009 23.56085 21.98047
#
# Velocity S-wave (km/s) = 3.31120 3.55848 3.43706
# Velocity P-wave (km/s) = 6.86016 7.37547 7.12248
#
# Compressibility (1/GPa) = 0.01656590
#
# Stress axis : x y z
#
# Youngs Moduli (GPa) = 104.51004 45.17601 72.31742
#
# Poissons Ratio (x) = 0.12372 0.28001
# Poissons Ratio (y) = 0.28621 0.56932
# Poissons Ratio (z) = 0.40466 0.35565
#
# Static dielectric constant tensor:
#      x y z
#    x 1.649080 0.000000 0.000000 
#    y 0.000000 1.650090 0.000000 
#    z 0.000000 0.000000 1.639100 
# 
# From -- ./inp_files/11637.got.cif
#   From: 2010.05.17/outbox.cif.g08.bks.cpg/sg37_6_cif.got.tgz:11637.got - 2010.06.03 17:53:42.
