data_PCOD9353751
_publ_section_title
;
Structure prediction by ZEFSAII (Michael W. Deem and Ramdas Pophale) SiO2 
 PCOD9353751
Probable space group: C C C 2
;
_chemical_formula_sum "Si O2"
_cell_formula_units_Z 52
_cell_length_a 19.611588
_cell_length_b 10.377604
_cell_length_c 10.291053
_cell_angle_alpha 90.000000
_cell_angle_beta 90.000000
_cell_angle_gamma 90.000000
_cell_volume 2094.448424
_symmetry_space_group_name_H-M "C C C 2"
_symmetry_group_IT_number 37
_symmetry_cell_setting 'orthorhombic'
loop_
_space_group_symop_operation_xyz
x,y,z
-x,-y,z
-x,y,1/2+z
x,-y,1/2+z
1/2+x,1/2+y,z
1/2-x,1/2-y,z
1/2-x,1/2+y,1/2+z
1/2+x,1/2-y,1/2+z
loop_
_atom_site_type_symbol
_atom_site_label
_atom_site_fract_x
_atom_site_fract_y
_atom_site_fract_z
Si Si1 0.000000 0.500000 0.611691
Si Si2 0.783164 0.876025 0.032645
Si Si3 0.054700 0.291984 0.970991
Si Si4 0.879498 0.207978 0.742372
Si Si5 0.256560 0.604558 0.160775
Si Si6 0.871624 0.494988 0.812087
Si Si7 0.392138 0.569879 0.322217
O O1 0.990945 0.622549 0.514931
O O2 0.066156 0.495817 0.705393
O O3 0.750000 0.750000 0.973009
O O4 0.807917 0.835855 0.176779
O O5 0.741097 0.004767 0.046102
O O6 0.847170 0.918049 0.950658
O O7 0.105306 0.405462 0.923735
O O8 0.054319 0.184383 0.857175
O O9 0.077726 0.239008 0.111551
O O10 0.867603 0.338779 0.823159
O O11 0.911267 0.079533 0.806318
O O12 0.250000 0.750000 0.120535
O O13 0.199557 0.556751 0.262394
O O14 0.335506 0.597608 0.211036
#
# Coordination Sequence:
#
# PCOD9353751 Si02
#       7
#     4   8   8   8   8   8   8
#     4  10  24  42  66 102 126 180 246 286 344 440
#     4  10  19  35  56  89 143 182 214 272 347 428
#     4  10  21  42  70  93 132 179 227 297 348 414
#     4   9  21  39  59  97 134 178 229 282 350 423
#     4  11  21  36  59 102 133 175 229 285 354 420
#     4  11  21  40  68  93 136 179 236 295 343 423
#     4  10  21  37  62  96 140 177 223 282 360 427
#
# _framework density 24.827541
#
# number of rings (size 3 to 8) (size 9 to 14) (size 15 to 20)
#    0.000    1.846    3.077    0.923    2.154    0.000 
#    8.308    0.000    0.000   15.692    0.000    0.000 
#    0.000    0.000    0.000    0.000    0.000    0.000 
#
# Total GULP energy -144838.257257 kJ/mol
# GULP energy per Si atom -5570.702202 kJ/mol
# Density = 2.477103 g / cm^3
# Si number density = 24.827541 Si / 1000 Ang^3
#
#
#
# Elastic Constant Matrix: (Units=GPa)
#
#
# Indices 1 2 3 4 5 6 
#
# 1 51.1703 40.4150 16.1873 0.0000 0.0000 0.0000
# 2 40.4150 258.7938 56.0779 0.0000 0.0000 0.0000
# 3 16.1873 56.0779 56.1798 0.0000 0.0000 0.0000
# 4 0.0000 0.0000 0.0000 60.0224 0.0000 0.0000
# 5 0.0000 0.0000 0.0000 0.0000 23.7104 0.0000
# 6 0.0000 0.0000 0.0000 0.0000 0.0000 26.6592
#
#
#
# Elastic Compliance Matrix: (Units=1/GPa)
#
#
# Indices 1 2 3 4 5 6 
#
# 1 0.022933 -0.002743 -0.003870 0.000000 0.000000 0.000000
# 2 -0.002743 0.005259 -0.004459 0.000000 0.000000 0.000000
# 3 -0.003870 -0.004459 0.023366 0.000000 0.000000 0.000000
# 4 0.000000 0.000000 0.000000 0.016660 0.000000 0.000000
# 5 0.000000 0.000000 0.000000 0.000000 0.042176 0.000000
# 6 0.000000 0.000000 0.000000 0.000000 0.000000 0.037510
#
#
# Mechanical properties :
#
#
# Convention : Reuss Voigt Hill
#
# Bulk Modulus (GPa) = 33.99697 65.72267 49.85982
# Shear Modulus (GPa) = 27.80068 38.97599 33.38833
#
# Velocity S-wave (km/s) = 3.34990 3.96646 3.67114
# Velocity P-wave (km/s) = 5.35588 6.89247 6.17218
#
# Compressibility (1/GPa) = 0.02941439
#
# Stress axis : x y z
#
# Youngs Moduli (GPa) = 43.60509 190.16545 42.79774
#
# Poissons Ratio (x) = 0.52159 0.16563
# Poissons Ratio (y) = 0.11960 0.19082
# Poissons Ratio (z) = 0.16875 0.84790
#
# Static dielectric constant tensor:
#      x y z
#    x 2.069340 0.000000 0.000000 
#    y 0.000000 2.128730 0.000000 
#    z 0.000000 0.000000 2.025150 
# 
# From -- ./inp_files/9041.got.cif
#   From: 2010.05.17/outbox.cif.g08.bks.cpg/sg37_5_cif.got.tgz:9041.got - 2010.06.03 17:53:42.
