data_PCOD9353387
_publ_section_title
;
Structure prediction by ZEFSAII (Michael W. Deem and Ramdas Pophale) SiO2 
 PCOD9353387
Probable space group: C M C 21
;
_chemical_formula_sum "Si O2"
_cell_formula_units_Z 24
_cell_length_a 9.000000
_cell_length_b 24.000000
_cell_length_c 12.000000
_cell_angle_alpha 90.000000
_cell_angle_beta 90.000000
_cell_angle_gamma 90.000000
_cell_volume 2592.000000
_symmetry_space_group_name_H-M "C M C 21"
_symmetry_group_IT_number 36
_symmetry_cell_setting 'orthorhombic'
loop_
_space_group_symop_operation_xyz
x,y,z
-x,-y,1/2+z
x,-y,1/2+z
-x,y,z
1/2+x,1/2+y,z
1/2-x,1/2-y,1/2+z
1/2+x,1/2-y,1/2+z
1/2-x,1/2+y,z
loop_
_atom_site_type_symbol
_atom_site_label
_atom_site_fract_x
_atom_site_fract_y
_atom_site_fract_z
Si Si1 0.822584 0.461451 0.545660
Si Si2 0.679669 0.834500 0.923413
Si Si3 0.175461 0.079761 0.591966
Si Si4 0.324698 0.601249 0.852945
Si Si5 0.820721 0.862587 0.687482
Si Si6 0.321061 0.289280 0.481481
O O1 0.755054 0.521440 0.569794
O O2 0.772208 0.442194 0.422583
O O3 0.745648 0.417299 0.628803
O O4 0.000000 0.460431 0.556910
O O5 0.500000 0.836727 0.920362
O O6 0.747228 0.853271 0.806139
O O7 0.731763 0.771629 0.949922
O O8 0.743703 0.874292 0.018067
O O9 0.188995 0.094326 0.722018
O O10 0.000000 0.076489 0.564305
O O11 0.500000 0.593885 0.883296
O O12 0.277712 0.662567 0.894588
O O13 0.780620 0.811859 0.603668
O O14 0.000000 0.866648 0.694654
O O15 0.500000 0.286835 0.479138
#
# Coordination Sequence:
#
# PCOD9353387 Si02
#       6
#     8   8   8   8   8   8
#     4  11  23  40  63  90 121 155 198 253 305 352
#     4  11  23  38  60  92 126 156 198 253 301 346
#     4  11  24  40  62  89 121 161 203 244 296 362
#     4   9  20  41  65  87 117 159 203 243 295 361
#     4  10  21  41  64  87 120 163 204 241 297 365
#     4   8  18  38  62  87 119 156 196 246 298 354
#
# _framework density 9.2592590000000001
#
# number of rings (size 3 to 8) (size 9 to 14) (size 15 to 20)
#    0.000    2.000    0.000    4.000    4.667    1.333 
#    0.000    7.500    0.000    0.000    0.000    0.000 
#    0.000    0.000    0.000    0.000    0.000    0.000 
#
# Total GULP energy -134016.407755 kJ/mol
# GULP energy per Si atom -5584.016990 kJ/mol
# Density = 0.923818 g / cm^3
# Si number density = 9.259259 Si / 1000 Ang^3
#
#
#
# Elastic Constant Matrix: (Units=GPa)
#
#
# Indices 1 2 3 4 5 6 
#
# 1 115.4778 48.5904 61.1901 0.0000 0.0000 0.0000
# 2 48.5904 97.4329 61.3156 0.0000 0.0000 0.0000
# 3 61.1901 61.3156 96.8535 0.0000 0.0000 0.0000
# 4 0.0000 0.0000 0.0000 4.9053 0.0000 0.0000
# 5 0.0000 0.0000 0.0000 0.0000 16.6770 0.0000
# 6 0.0000 0.0000 0.0000 0.0000 0.0000 20.5394
#
#
#
# Elastic Compliance Matrix: (Units=1/GPa)
#
#
# Indices 1 2 3 4 5 6 
#
# 1 0.013304 -0.002236 -0.006990 0.000000 0.000000 0.000000
# 2 -0.002236 0.017436 -0.009626 0.000000 0.000000 0.000000
# 3 -0.006990 -0.009626 0.020835 0.000000 0.000000 0.000000
# 4 0.000000 0.000000 0.000000 0.203860 0.000000 0.000000
# 5 0.000000 0.000000 0.000000 0.000000 0.059963 0.000000
# 6 0.000000 0.000000 0.000000 0.000000 0.000000 0.048687
#
#
# Mechanical properties :
#
#
# Convention : Reuss Voigt Hill
#
# Bulk Modulus (GPa) = 72.08777 72.43960 72.26368
# Shear Modulus (GPa) = 12.30277 17.66890 14.98584
#
# Velocity S-wave (km/s) = 2.58029 3.09224 2.84779
# Velocity P-wave (km/s) = 6.92020 7.20774 7.06543
#
# Compressibility (1/GPa) = 0.01387198
#
# Stress axis : x y z
#
# Youngs Moduli (GPa) = 75.16314 57.35193 47.99724
#
# Poissons Ratio (x) = 0.12826 0.33549
# Poissons Ratio (y) = 0.16809 0.46200
# Poissons Ratio (z) = 0.52537 0.55205
#
# Static dielectric constant tensor:
#      x y z
#    x 1.613940 0.000000 0.000000 
#    y 0.000000 1.637560 0.000000 
#    z 0.000000 0.000000 1.624240 
# 
# From -- ./inp_files/6734.got.cif
#   From: 2010.05.17/outbox.ucp.g08.bks.cvg/sg36_4_cif.got.tgz:6734.got - 2010.06.11 10:37:26.
