data_PCOD9353393
_publ_section_title
;
Structure prediction by ZEFSAII (Michael W. Deem and Ramdas Pophale) SiO2 
 PCOD9353393
Probable space group: C M C 21
;
_chemical_formula_sum "Si O2"
_cell_formula_units_Z 30
_cell_length_a 18.000000
_cell_length_b 18.000000
_cell_length_c 9.000000
_cell_angle_alpha 90.000000
_cell_angle_beta 90.000000
_cell_angle_gamma 90.000000
_cell_volume 2916.000000
_symmetry_space_group_name_H-M "C M C 21"
_symmetry_group_IT_number 36
_symmetry_cell_setting 'orthorhombic'
loop_
_space_group_symop_operation_xyz
x,y,z
-x,-y,1/2+z
x,-y,1/2+z
-x,y,z
1/2+x,1/2+y,z
1/2-x,1/2-y,1/2+z
1/2+x,1/2-y,1/2+z
1/2-x,1/2+y,z
loop_
_atom_site_type_symbol
_atom_site_label
_atom_site_fract_x
_atom_site_fract_y
_atom_site_fract_z
Si Si1 0.142378 0.738024 0.448560
Si Si2 0.679348 0.042084 0.136269
Si Si3 0.354419 0.400555 0.150529
Si Si4 0.086176 0.330645 0.492819
Si Si5 0.711535 0.487297 0.886697
Si Si6 0.413947 0.892020 0.157547
Si Si7 0.000000 0.177112 0.791233
Si Si8 0.217549 0.249090 0.637966
O O1 0.112265 0.665020 0.531251
O O2 0.068927 0.784073 0.394437
O O3 0.191644 0.722713 0.300376
O O4 0.203604 0.772171 0.565827
O O5 0.730425 0.056227 0.280443
O O6 0.638395 0.963666 0.158306
O O7 0.616174 0.101235 0.093349
O O8 0.736476 0.034507 0.998819
O O9 0.335618 0.460462 0.277784
O O10 0.433203 0.363192 0.189284
O O11 0.288354 0.339501 0.156277
O O12 0.342702 0.438867 0.990422
O O13 0.088575 0.353701 0.320425
O O14 0.149043 0.269901 0.528137
O O15 0.000000 0.310101 0.532760
O O16 0.500000 0.913512 0.130947
#
# Coordination Sequence:
#
# PCOD9353393 Si02
#       8
#     8   8   8   8   8   8   4   8
#     4  11  23  45  70 104 136 200 237 302 363 449
#     4  11  22  41  65 103 139 191 238 301 351 434
#     4  10  24  46  69 103 139 186 235 312 359 441
#     4  11  26  42  65 103 149 193 240 301 367 446
#     4  10  22  42  71  96 139 180 248 294 366 429
#     4  11  23  43  67  98 149 191 242 293 364 444
#     4  10  24  44  74 102 146 186 248 302 376 420
#     4  11  26  40  72 100 145 186 247 294 377 439
#
# _framework density 10.288066000000001
#
# number of rings (size 3 to 8) (size 9 to 14) (size 15 to 20)
#    0.000    1.333    2.000    2.800   11.200    0.533 
#    0.000    0.000    0.000    0.000    0.000    0.000 
#    0.000    0.000    0.000    0.000    0.000    0.000 
#
# Total GULP energy -167079.606086 kJ/mol
# GULP energy per Si atom -5569.320203 kJ/mol
# Density = 1.026465 g / cm^3
# Si number density = 10.288066 Si / 1000 Ang^3
#
#
#
# Elastic Constant Matrix: (Units=GPa)
#
#
# Indices 1 2 3 4 5 6 
#
# 1 166.6485 31.7563 57.8166 0.0000 0.0000 0.0000
# 2 31.7563 76.2240 41.1616 0.0000 0.0000 0.0000
# 3 57.8166 41.1616 126.4495 0.0000 0.0000 0.0000
# 4 0.0000 0.0000 0.0000 28.6986 0.0000 0.0000
# 5 0.0000 0.0000 0.0000 0.0000 46.9345 0.0000
# 6 0.0000 0.0000 0.0000 0.0000 0.0000 52.0042
#
#
#
# Elastic Compliance Matrix: (Units=1/GPa)
#
#
# Indices 1 2 3 4 5 6 
#
# 1 0.007270 -0.001497 -0.002837 0.000000 0.000000 0.000000
# 2 -0.001497 0.016225 -0.004597 0.000000 0.000000 0.000000
# 3 -0.002837 -0.004597 0.010702 0.000000 0.000000 0.000000
# 4 0.000000 0.000000 0.000000 0.034845 0.000000 0.000000
# 5 0.000000 0.000000 0.000000 0.000000 0.021306 0.000000
# 6 0.000000 0.000000 0.000000 0.000000 0.000000 0.019229
#
#
# Mechanical properties :
#
#
# Convention : Reuss Voigt Hill
#
# Bulk Modulus (GPa) = 61.21675 70.08787 65.65231
# Shear Modulus (GPa) = 37.62653 41.43328 39.52991
#
# Velocity S-wave (km/s) = 4.28091 4.49225 4.38785
# Velocity P-wave (km/s) = 7.36552 7.81305 7.59258
#
# Compressibility (1/GPa) = 0.01633540
#
# Stress axis : x y z
#
# Youngs Moduli (GPa) = 137.54940 61.63168 93.44168
#
# Poissons Ratio (x) = 0.09226 0.26508
# Poissons Ratio (y) = 0.20590 0.42957
# Poissons Ratio (z) = 0.39021 0.28333
#
# Static dielectric constant tensor:
#      x y z
#    x 1.714950 0.000000 0.000000 
#    y 0.000000 1.804710 0.000000 
#    z 0.000000 0.000000 1.755070 
# 
# From -- ./inp_files/4816.got.cif
#   From: 2010.05.17/outbox.ucp.g08.bks.cvg/sg36_3_cif.got.tgz:4816.got - 2010.06.11 10:37:26.
