data_PCOD9353063
_publ_section_title
;
Structure prediction by ZEFSAII (Michael W. Deem and Ramdas Pophale) SiO2 
 PCOD9353063
Probable space group: C M C 21
;
_chemical_formula_sum "Si O2"
_cell_formula_units_Z 64
_cell_length_a 18.458086
_cell_length_b 8.504132
_cell_length_c 24.307217
_cell_angle_alpha 90.000000
_cell_angle_beta 90.000000
_cell_angle_gamma 90.000000
_cell_volume 3815.503848
_symmetry_space_group_name_H-M "C M C 21"
_symmetry_group_IT_number 36
_symmetry_cell_setting 'orthorhombic'
loop_
_space_group_symop_operation_xyz
x,y,z
-x,-y,1/2+z
x,-y,1/2+z
-x,y,z
1/2+x,1/2+y,z
1/2-x,1/2-y,1/2+z
1/2+x,1/2-y,1/2+z
1/2-x,1/2+y,z
loop_
_atom_site_type_symbol
_atom_site_label
_atom_site_fract_x
_atom_site_fract_y
_atom_site_fract_z
Si Si1 0.804941 0.935377 0.311980
Si Si2 0.712313 0.552397 0.563421
Si Si3 0.224346 0.189762 0.981632
Si Si4 0.700382 0.272335 0.737332
Si Si5 0.584167 0.844835 0.825678
Si Si6 0.187536 0.671651 0.137124
Si Si7 0.804257 0.535548 0.404384
Si Si8 0.083297 0.518146 0.708284
O O1 0.743916 0.828612 0.282626
O O2 0.870879 0.818477 0.325490
O O3 0.824198 0.069082 0.267651
O O4 0.765749 0.017032 0.364301
O O5 0.748051 0.682888 0.524798
O O6 0.678041 0.432776 0.518480
O O7 0.771465 0.448601 0.596039
O O8 0.672093 0.660374 0.608295
O O9 0.190413 0.295498 0.933993
O O10 0.289061 0.093343 0.951535
O O11 0.756762 0.305254 0.687997
O O12 0.634357 0.169489 0.714958
O O13 0.500000 0.823816 0.839959
O O14 0.625367 0.966975 0.866006
O O15 0.588787 0.918355 0.764698
O O16 0.116551 0.589155 0.160479
O O17 0.000000 0.559398 0.699055
#
# Coordination Sequence:
#
# PCOD9353063 Si02
#       8
#     8   8   8   8   8   8   8   8
#     4  12  19  32  56  84 109 144 193 223 263 334
#     4   9  19  31  53  87 103 126 187 246 268 311
#     4   9  19  31  53  87 103 126 187 246 270 308
#     4  12  19  32  56  84 109 146 189 223 261 333
#     4  11  23  36  52  83 120 148 178 224 278 334
#     4  11  17  33  57  79 106 145 176 227 278 321
#     4  11  17  33  57  79 106 146 176 227 277 324
#     4  11  23  36  52  83 120 147 180 224 275 337
#
# _framework density 16.773671
#
# number of rings (size 3 to 8) (size 9 to 14) (size 15 to 20)
#    0.000    1.250    7.500    0.000    0.000    0.500 
#    0.000    0.000    0.000    7.500    0.000    0.000 
#    0.000    0.000    0.000    0.000    0.000    0.000 
#
# Total GULP energy -178165.278788 kJ/mol
# GULP energy per Si atom -5567.664962 kJ/mol
# Density = 1.673549 g / cm^3
# Si number density = 16.773671 Si / 1000 Ang^3
#
#
#
# Elastic Constant Matrix: (Units=GPa)
#
#
# Indices 1 2 3 4 5 6 
#
# 1 78.5368 12.0396 11.9461 0.0000 0.0000 0.0000
# 2 12.0396 67.5486 20.5138 0.0000 0.0000 0.0000
# 3 11.9461 20.5138 70.2940 0.0000 0.0000 0.0000
# 4 0.0000 0.0000 0.0000 53.3567 0.0000 0.0000
# 5 0.0000 0.0000 0.0000 0.0000 7.0353 0.0000
# 6 0.0000 0.0000 0.0000 0.0000 0.0000 18.4470
#
#
#
# Elastic Compliance Matrix: (Units=1/GPa)
#
#
# Indices 1 2 3 4 5 6 
#
# 1 0.013277 -0.001845 -0.001718 0.000000 0.000000 0.000000
# 2 -0.001845 0.016500 -0.004502 0.000000 0.000000 0.000000
# 3 -0.001718 -0.004502 0.015832 0.000000 0.000000 0.000000
# 4 0.000000 0.000000 0.000000 0.018742 0.000000 0.000000
# 5 0.000000 0.000000 0.000000 0.000000 0.142141 0.000000
# 6 0.000000 0.000000 0.000000 0.000000 0.000000 0.054209
#
#
# Mechanical properties :
#
#
# Convention : Reuss Voigt Hill
#
# Bulk Modulus (GPa) = 33.92141 33.93093 33.92617
# Shear Modulus (GPa) = 17.44248 27.22645 22.33447
#
# Velocity S-wave (km/s) = 3.22820 4.03322 3.65296
# Velocity P-wave (km/s) = 5.84483 6.47779 6.16943
#
# Compressibility (1/GPa) = 0.02947990
#
# Stress axis : x y z
#
# Youngs Moduli (GPa) = 75.31819 60.60577 63.16455
#
# Poissons Ratio (x) = 0.11180 0.10852
# Poissons Ratio (y) = 0.13894 0.28435
# Poissons Ratio (z) = 0.12940 0.27283
#
# Static dielectric constant tensor:
#      x y z
#    x 1.519270 0.000000 0.000000 
#    y 0.000000 1.607500 0.000000 
#    z 0.000000 0.000000 1.627490 
# 
# From -- ./inp_files/17016.got.cif
#   From: 2010.05.17/outbox.cif.g08.bks.cpg/sg36_9_cif.got.tgz:17016.got - 2010.06.03 17:41:39.
