data_PCOD9353524
_publ_section_title
;
Structure prediction by ZEFSAII (Michael W. Deem and Ramdas Pophale) SiO2 
 PCOD9353524
Probable space group: C C C 2
;
_chemical_formula_sum "Si O2"
_cell_formula_units_Z 48
_cell_length_a 23.400001
_cell_length_b 4.935402
_cell_length_c 21.547236
_cell_angle_alpha 90.000000
_cell_angle_beta 90.000000
_cell_angle_gamma 90.000000
_cell_volume 2488.456063
_symmetry_space_group_name_H-M "C C C 2"
_symmetry_group_IT_number 37
_symmetry_cell_setting 'orthorhombic'
loop_
_space_group_symop_operation_xyz
x,y,z
-x,-y,z
-x,y,1/2+z
x,-y,1/2+z
1/2+x,1/2+y,z
1/2-x,1/2-y,z
1/2-x,1/2+y,1/2+z
1/2+x,1/2-y,1/2+z
loop_
_atom_site_type_symbol
_atom_site_label
_atom_site_fract_x
_atom_site_fract_y
_atom_site_fract_z
Si Si1 0.434751 0.449860 0.515930
Si Si2 0.692246 0.574141 0.755408
Si Si3 0.118152 0.126112 0.641441
Si Si4 0.564370 0.044278 0.430010
Si Si5 0.060198 0.362643 0.192907
Si Si6 0.369075 0.074482 0.309577
O O1 0.500000 0.500000 0.539489
O O2 0.387272 0.455077 0.569669
O O3 0.433491 0.149311 0.489297
O O4 0.426984 0.656466 0.458263
O O5 0.750000 0.750000 0.759020
O O6 0.673013 0.547545 0.683274
O O7 0.681081 0.286649 0.789744
O O8 0.647873 0.773744 0.788874
O O9 0.104283 0.440387 0.655445
O O10 0.068128 0.941504 0.670535
O O11 0.610349 0.945796 0.379914
O O12 0.500000 0.000000 0.404041
O O13 0.078297 0.354685 0.264662
O O14 0.000000 0.500000 0.183320
#
# Coordination Sequence:
#
# PCOD9353524 Si02
#       6
#     8   8   8   8   8   8
#     4  10  19  31  49  74 109 148 176 203 248 316
#     4  10  21  37  57  78 100 133 178 233 282 311
#     4  10  20  32  50  76 104 138 177 215 261 316
#     4  10  20  33  51  77 111 146 175 206 252 320
#     4  10  18  29  48  74 105 134 167 215 264 316
#     4  10  20  34  53  77 103 135 175 218 269 321
#
# _framework density 19.289069000000001
#
# number of rings (size 3 to 8) (size 9 to 14) (size 15 to 20)
#    0.000    2.000    0.000    4.500    0.000    1.333 
#    0.000    5.000    0.000    4.000    0.000    0.000 
#    0.000    0.000    0.000    0.000    0.000    0.000 
#
# Total GULP energy -133657.084703 kJ/mol
# GULP energy per Si atom -5569.045196 kJ/mol
# Density = 1.924517 g / cm^3
# Si number density = 19.289069 Si / 1000 Ang^3
#
#
#
# Elastic Constant Matrix: (Units=GPa)
#
#
# Indices 1 2 3 4 5 6 
#
# 1 34.7140 -1.0177 18.4370 0.0000 0.0000 0.0000
# 2 -1.0177 83.9769 -2.0933 0.0000 0.0000 0.0000
# 3 18.4370 -2.0933 71.9106 0.0000 0.0000 0.0000
# 4 0.0000 0.0000 0.0000 9.9618 0.0000 0.0000
# 5 0.0000 0.0000 0.0000 0.0000 11.7577 0.0000
# 6 0.0000 0.0000 0.0000 0.0000 0.0000 23.2591
#
#
#
# Elastic Compliance Matrix: (Units=1/GPa)
#
#
# Indices 1 2 3 4 5 6 
#
# 1 0.033351 0.000191 -0.008545 0.000000 0.000000 0.000000
# 2 0.000191 0.011918 0.000298 0.000000 0.000000 0.000000
# 3 -0.008545 0.000298 0.016106 0.000000 0.000000 0.000000
# 4 0.000000 0.000000 0.000000 0.100383 0.000000 0.000000
# 5 0.000000 0.000000 0.000000 0.000000 0.085051 0.000000
# 6 0.000000 0.000000 0.000000 0.000000 0.000000 0.042994
#
#
# Mechanical properties :
#
#
# Convention : Reuss Voigt Hill
#
# Bulk Modulus (GPa) = 22.09352 24.58370 23.33861
# Shear Modulus (GPa) = 15.57625 20.68077 18.12851
#
# Velocity S-wave (km/s) = 2.84477 3.27792 3.06900
# Velocity P-wave (km/s) = 4.71901 5.20566 4.96830
#
# Compressibility (1/GPa) = 0.04526215
#
# Stress axis : x y z
#
# Youngs Moduli (GPa) = 29.98426 83.90822 62.08977
#
# Poissons Ratio (x) = -0.01604 0.53057
# Poissons Ratio (y) = -0.00573 -0.01850
# Poissons Ratio (z) = 0.25622 -0.02500
#
# Static dielectric constant tensor:
#      x y z
#    x 1.715790 0.000000 0.000000 
#    y 0.000000 1.662230 0.000000 
#    z 0.000000 0.000000 1.693620 
# 
# From -- ./inp_files/13901.got.cif
#   From: 2010.05.17/outbox.cif.g08.bks.cpg/sg37_7_cif.got.tgz:13901.got - 2010.06.03 17:53:42.
