data_PCOD9353179
_publ_section_title
;
Structure prediction by ZEFSAII (Michael W. Deem and Ramdas Pophale) SiO2 
 PCOD9353179
Probable space group: C M C 21
;
_chemical_formula_sum "Si O2"
_cell_formula_units_Z 56
_cell_length_a 24.128400
_cell_length_b 12.923960
_cell_length_c 7.681955
_cell_angle_alpha 90.000000
_cell_angle_beta 90.000000
_cell_angle_gamma 90.000000
_cell_volume 2395.498416
_symmetry_space_group_name_H-M "C M C 21"
_symmetry_group_IT_number 36
_symmetry_cell_setting 'orthorhombic'
loop_
_space_group_symop_operation_xyz
x,y,z
-x,-y,1/2+z
x,-y,1/2+z
-x,y,z
1/2+x,1/2+y,z
1/2-x,1/2-y,1/2+z
1/2+x,1/2-y,1/2+z
1/2-x,1/2+y,z
loop_
_atom_site_type_symbol
_atom_site_label
_atom_site_fract_x
_atom_site_fract_y
_atom_site_fract_z
Si Si1 0.937165 0.218137 0.723000
Si Si2 0.101543 0.203426 0.121000
Si Si3 0.340161 0.109182 0.740943
Si Si4 0.676617 0.574948 0.347977
Si Si5 0.939704 0.006234 0.296691
Si Si6 0.674261 0.231273 0.072425
Si Si7 0.296072 0.087507 0.360102
O O1 0.891711 0.274741 0.608669
O O2 0.000000 0.256534 0.712311
O O3 0.937828 0.095839 0.675364
O O4 0.914879 0.217648 0.921663
O O5 0.106931 0.316841 0.205800
O O6 0.159151 0.146790 0.181660
O O7 0.060964 0.118859 0.207077
O O8 0.311514 0.159005 0.909883
O O9 0.307859 0.113136 0.558829
O O10 0.344132 0.988501 0.789025
O O11 0.622441 0.504886 0.379069
O O12 0.683312 0.652181 0.511032
O O13 0.737496 0.530489 0.326451
O O14 0.000000 0.993630 0.385862
O O15 0.703888 0.190381 0.243720
#
# Coordination Sequence:
#
# PCOD9353179 Si02
#       7
#     8   8   8   8   8   8   8
#     4  11  23  41  73 104 140 189 235 291 363 439
#     4   9  21  43  63 103 136 182 234 287 348 417
#     4  11  24  45  69 101 134 190 231 296 352 413
#     4   9  25  40  63 103 138 189 225 290 342 417
#     4   9  21  40  65 101 143 187 232 286 355 427
#     4  11  25  44  66 103 143 181 237 291 353 420
#     4  12  24  45  72 101 143 188 243 289 355 419
#
# _framework density 23.377182999999999
#
# number of rings (size 3 to 8) (size 9 to 14) (size 15 to 20)
#    0.857    0.857    2.857    0.429    6.000    2.857 
#    0.000    0.000    0.000    4.286    0.000    0.000 
#    0.000    0.000    0.000    0.000    0.000    0.000 
#
# Total GULP energy -156069.528732 kJ/mol
# GULP energy per Si atom -5573.911740 kJ/mol
# Density = 2.332398 g / cm^3
# Si number density = 23.377183 Si / 1000 Ang^3
#
#
#
# Elastic Constant Matrix: (Units=GPa)
#
#
# Indices 1 2 3 4 5 6 
#
# 1 118.3679 42.3751 41.7649 0.0000 0.0000 0.0000
# 2 42.3751 64.6720 17.2827 0.0000 0.0000 0.0000
# 3 41.7649 17.2827 115.0380 0.0000 0.0000 0.0000
# 4 0.0000 0.0000 0.0000 30.9640 0.0000 0.0000
# 5 0.0000 0.0000 0.0000 0.0000 27.4690 0.0000
# 6 0.0000 0.0000 0.0000 0.0000 0.0000 20.8674
#
#
#
# Elastic Compliance Matrix: (Units=1/GPa)
#
#
# Indices 1 2 3 4 5 6 
#
# 1 0.012164 -0.007074 -0.003353 0.000000 0.000000 0.000000
# 2 -0.007074 0.020223 -0.000470 0.000000 0.000000 0.000000
# 3 -0.003353 -0.000470 0.009981 0.000000 0.000000 0.000000
# 4 0.000000 0.000000 0.000000 0.032296 0.000000 0.000000
# 5 0.000000 0.000000 0.000000 0.000000 0.036405 0.000000
# 6 0.000000 0.000000 0.000000 0.000000 0.000000 0.047922
#
#
# Mechanical properties :
#
#
# Convention : Reuss Voigt Hill
#
# Bulk Modulus (GPa) = 48.60669 55.65815 52.13242
# Shear Modulus (GPa) = 26.64641 28.97043 27.80842
#
# Velocity S-wave (km/s) = 3.37982 3.52413 3.45273
# Velocity P-wave (km/s) = 6.00570 6.35766 6.18418
#
# Compressibility (1/GPa) = 0.02057330
#
# Stress axis : x y z
#
# Youngs Moduli (GPa) = 82.21047 49.44777 100.19189
#
# Poissons Ratio (x) = 0.34979 0.33598
# Poissons Ratio (y) = 0.58156 0.04709
# Poissons Ratio (z) = 0.27568 0.02324
#
# Static dielectric constant tensor:
#      x y z
#    x 1.872510 0.000000 0.000000 
#    y 0.000000 1.906940 0.000000 
#    z 0.000000 0.000000 1.961200 
# 
# From -- ./inp_files/5220.got.cif
#   From: 2010.05.17/outbox.cif.g08.bks.cpg/sg36_3_cif.got.tgz:5220.got - 2010.06.03 17:41:39.
