data_PCOD9353458
_publ_section_title
;
Structure prediction by ZEFSAII (Michael W. Deem and Ramdas Pophale) SiO2 
 PCOD9353458
Probable space group: C C C 2
;
_chemical_formula_sum "Si O2"
_cell_formula_units_Z 32
_cell_length_a 14.541741
_cell_length_b 16.553389
_cell_length_c 5.458834
_cell_angle_alpha 90.000000
_cell_angle_beta 90.000000
_cell_angle_gamma 90.000000
_cell_volume 1314.023748
_symmetry_space_group_name_H-M "C C C 2"
_symmetry_group_IT_number 37
_symmetry_cell_setting 'orthorhombic'
loop_
_space_group_symop_operation_xyz
x,y,z
-x,-y,z
-x,y,1/2+z
x,-y,1/2+z
1/2+x,1/2+y,z
1/2-x,1/2-y,z
1/2-x,1/2+y,1/2+z
1/2+x,1/2-y,1/2+z
loop_
_atom_site_type_symbol
_atom_site_label
_atom_site_fract_x
_atom_site_fract_y
_atom_site_fract_z
Si Si1 0.034449 0.906779 0.723500
Si Si2 0.240597 0.951145 0.614898
Si Si3 0.158564 0.302456 0.329108
Si Si4 0.519299 0.147722 0.163865
O O1 0.139766 0.911662 0.643856
O O2 0.976430 0.872294 0.496514
O O3 0.000000 0.000000 0.755325
O O4 0.312931 0.884006 0.691715
O O5 0.247620 0.983821 0.337888
O O6 0.250000 0.250000 0.327713
O O7 0.120512 0.319584 0.603168
O O8 0.060454 0.282870 0.197706
O O9 0.508568 0.102087 0.416881
#
# Coordination Sequence:
#
# PCOD9353458 Si02
#       4
#     8   8   8   8
#     4  10  16  34  52  80 134 155 199 267 307 382
#     4  12  24  39  63  99 129 174 219 270 331 400
#     4  10  24  47  71  97 134 181 219 279 335 400
#     4   8  20  44  65  94 135 160 228 286 308 402
#
# _framework density 24.352681
#
# number of rings (size 3 to 8) (size 9 to 14) (size 15 to 20)
#    1.500    0.500    5.000    0.000    3.500    1.000 
#    4.500    3.750    0.000    0.000    0.000    0.000 
#    0.000    0.000    0.000    0.000    0.000    0.000 
#
# Total GULP energy -89090.487510 kJ/mol
# GULP energy per Si atom -5568.155469 kJ/mol
# Density = 2.429725 g / cm^3
# Si number density = 24.352681 Si / 1000 Ang^3
#
#
#
# Elastic Constant Matrix: (Units=GPa)
#
#
# Indices 1 2 3 4 5 6 
#
# 1 112.7304 18.5636 -18.8567 0.0000 0.0000 0.0000
# 2 18.5636 31.2613 2.5277 0.0000 0.0000 0.0000
# 3 -18.8567 2.5277 138.3853 0.0000 0.0000 0.0000
# 4 0.0000 0.0000 0.0000 12.7406 0.0000 0.0000
# 5 0.0000 0.0000 0.0000 0.0000 -218.0398 0.0000
# 6 0.0000 0.0000 0.0000 0.0000 0.0000 29.0076
#
#
#
# Elastic Compliance Matrix: (Units=1/GPa)
#
#
# Indices 1 2 3 4 5 6 
#
# 1 0.010131 -0.006137 0.001493 0.000000 0.000000 0.000000
# 2 -0.006137 0.035753 -0.001489 0.000000 0.000000 0.000000
# 3 0.001493 -0.001489 0.007457 0.000000 0.000000 0.000000
# 4 0.000000 0.000000 0.000000 0.078489 0.000000 0.000000
# 5 0.000000 0.000000 0.000000 0.000000 -0.004586 0.000000
# 6 0.000000 0.000000 0.000000 0.000000 0.000000 0.034474
#
#
# Mechanical properties :
#
#
# Convention : Reuss Voigt Hill
#
# Bulk Modulus (GPa) = 24.34631 31.87180 28.10906
# Shear Modulus (GPa) = 26.64176 -16.58216 5.02980
#
# Velocity S-wave (km/s) = 3.31115 -2.61227 1.43871
# Velocity P-wave (km/s) = 4.96361 2.00435 3.78515
#
# Compressibility (1/GPa) = 0.04107399
#
# Stress axis : x y z
#
# Youngs Moduli (GPa) = 98.70772 27.96971 134.10612
#
# Poissons Ratio (x) = 0.17164 -0.20016
# Poissons Ratio (y) = 0.60573 0.19972
# Poissons Ratio (z) = -0.14733 0.04165
#
# Static dielectric constant tensor:
#      x y z
#    x 2.272690 0.000000 0.000000 
#    y 0.000000 1.975050 0.000000 
#    z 0.000000 0.000000 1.995400 
# 
# From -- ./inp_files/453.got.cif
#   From: 2010.05.17/outbox.cif.g08.bks.cpg/sg37_1_cif.got.tgz:453.got - 2010.06.03 17:53:42.
