data_PCOD9353021
_publ_section_title
;
Structure prediction by ZEFSAII (Michael W. Deem and Ramdas Pophale) SiO2 
 PCOD9353021
Probable space group: C M C 21
;
_chemical_formula_sum "Si O2"
_cell_formula_units_Z 32
_cell_length_a 14.686768
_cell_length_b 15.822740
_cell_length_c 5.670064
_cell_angle_alpha 90.000000
_cell_angle_beta 90.000000
_cell_angle_gamma 90.000000
_cell_volume 1317.637321
_symmetry_space_group_name_H-M "C M C 21"
_symmetry_group_IT_number 36
_symmetry_cell_setting 'orthorhombic'
loop_
_space_group_symop_operation_xyz
x,y,z
-x,-y,1/2+z
x,-y,1/2+z
-x,y,z
1/2+x,1/2+y,z
1/2-x,1/2-y,1/2+z
1/2+x,1/2-y,1/2+z
1/2-x,1/2+y,z
loop_
_atom_site_type_symbol
_atom_site_label
_atom_site_fract_x
_atom_site_fract_y
_atom_site_fract_z
Si Si1 0.396563 0.028870 0.380750
Si Si2 0.604854 0.784300 0.018566
Si Si3 0.354921 0.487631 0.963832
Si Si4 0.775891 0.147322 0.757676
O O1 0.500000 0.994126 0.393053
O O2 0.398696 0.129635 0.366245
O O3 0.359042 0.009316 0.640799
O O4 0.500000 0.766269 0.093012
O O5 0.650183 0.712014 0.860457
O O6 0.678960 0.807085 0.222857
O O7 0.402640 0.490992 0.710993
O O8 0.284873 0.565995 0.928158
O O9 0.309334 0.396331 0.011821
#
# Coordination Sequence:
#
# PCOD9353021 Si02
#       4
#     8   8   8   8
#     4   9  20  39  63 101 146 187 239 302 382 476
#     4  11  26  45  75 116 157 205 263 334 407 476
#     4   8  20  42  74 101 141 204 255 316 393 460
#     4  10  24  44  75 104 154 198 258 328 387 472
#
# _framework density 24.285893000000002
#
# number of rings (size 3 to 8) (size 9 to 14) (size 15 to 20)
#    1.500    1.000    0.000    0.000    7.000    2.000 
#    0.000    5.000    0.000    0.000    0.000    0.000 
#    0.000    0.000    0.000    0.000    0.000    0.000 
#
# Total GULP energy -89078.267326 kJ/mol
# GULP energy per Si atom -5567.391708 kJ/mol
# Density = 2.423062 g / cm^3
# Si number density = 24.285893 Si / 1000 Ang^3
#
#
#
# Elastic Constant Matrix: (Units=GPa)
#
#
# Indices 1 2 3 4 5 6 
#
# 1 184.3675 55.8622 62.2715 0.0000 0.0000 0.0000
# 2 55.8622 124.8136 49.6140 0.0000 0.0000 0.0000
# 3 62.2715 49.6140 179.6991 0.0000 0.0000 0.0000
# 4 0.0000 0.0000 0.0000 47.8964 0.0000 0.0000
# 5 0.0000 0.0000 0.0000 0.0000 -12.0273 0.0000
# 6 0.0000 0.0000 0.0000 0.0000 0.0000 -23.3082
#
#
#
# Elastic Compliance Matrix: (Units=1/GPa)
#
#
# Indices 1 2 3 4 5 6 
#
# 1 0.006697 -0.002330 -0.001677 0.000000 0.000000 0.000000
# 2 -0.002330 0.009811 -0.001901 0.000000 0.000000 0.000000
# 3 -0.001677 -0.001901 0.006671 0.000000 0.000000 0.000000
# 4 0.000000 0.000000 0.000000 0.020878 0.000000 0.000000
# 5 0.000000 0.000000 0.000000 0.000000 -0.083144 0.000000
# 6 0.000000 0.000000 0.000000 0.000000 0.000000 -0.042903
#
#
# Mechanical properties :
#
#
# Convention : Reuss Voigt Hill
#
# Bulk Modulus (GPa) = 88.02242 91.59727 89.80985
# Shear Modulus (GPa) = -75.31617 23.92101 -25.69758
#
# Velocity S-wave (km/s) = -5.57491 3.14184 -3.25642
# Velocity P-wave (km/s) = 2.26198 7.13860 4.78764
#
# Compressibility (1/GPa) = 0.01136074
#
# Stress axis : x y z
#
# Youngs Moduli (GPa) = 149.33107 101.92975 149.90435
#
# Poissons Ratio (x) = 0.23754 0.25141
# Poissons Ratio (y) = 0.34801 0.28498
# Poissons Ratio (z) = 0.25045 0.19378
#
# Static dielectric constant tensor:
#      x y z
#    x 1.973230 0.000000 0.000000 
#    y 0.000000 1.921250 0.000000 
#    z 0.000000 0.000000 1.957430 
# 
# From -- ./inp_files/659.got.cif
#   From: 2010.05.17/outbox.cif.g08.bks.cpg/sg36_1_cif.got.tgz:659.got - 2010.06.03 17:41:39.
