data_PCOD9353026
_publ_section_title
;
Structure prediction by ZEFSAII (Michael W. Deem and Ramdas Pophale) SiO2 
 PCOD9353026
Probable space group: C M C 21
;
_chemical_formula_sum "Si O2"
_cell_formula_units_Z 48
_cell_length_a 22.975960
_cell_length_b 9.697942
_cell_length_c 9.834740
_cell_angle_alpha 90.000000
_cell_angle_beta 90.000000
_cell_angle_gamma 90.000000
_cell_volume 2191.372120
_symmetry_space_group_name_H-M "C M C 21"
_symmetry_group_IT_number 36
_symmetry_cell_setting 'orthorhombic'
loop_
_space_group_symop_operation_xyz
x,y,z
-x,-y,1/2+z
x,-y,1/2+z
-x,y,z
1/2+x,1/2+y,z
1/2-x,1/2-y,1/2+z
1/2+x,1/2-y,1/2+z
1/2-x,1/2+y,z
loop_
_atom_site_type_symbol
_atom_site_label
_atom_site_fract_x
_atom_site_fract_y
_atom_site_fract_z
Si Si1 0.500000 0.598723 0.906440
Si Si2 0.826154 0.441601 0.850676
Si Si3 0.374251 0.642515 0.824474
Si Si4 0.000000 0.844322 0.708305
Si Si5 0.654619 0.603723 0.524580
Si Si6 0.780668 0.388088 0.132063
Si Si7 0.117288 0.704519 0.785524
O O1 0.440534 0.673632 0.866041
O O2 0.500000 0.453005 0.830253
O O3 0.500000 0.576935 0.066594
O O4 0.837167 0.282097 0.825488
O O5 0.774750 0.505107 0.757347
O O6 0.879345 0.539983 0.807226
O O7 0.814405 0.461273 0.009055
O O8 0.374870 0.583427 0.671384
O O9 0.349389 0.533310 0.932861
O O10 0.058448 0.754786 0.718465
O O11 0.719897 0.649807 0.564868
O O12 0.626015 0.719173 0.428766
O O13 0.824343 0.272786 0.193122
#
# Coordination Sequence:
#
# PCOD9353026 Si02
#       7
#     4   8   8   4   8   8   8
#     4  12  26  45  72 108 147 199 250 323 358 472
#     4  10  24  45  69 106 145 191 248 298 380 441
#     4  12  27  44  74 108 148 196 253 306 385 441
#     4  12  24  51  74 106 157 191 260 311 384 448
#     4  12  26  45  75 111 146 202 248 307 383 453
#     4  10  24  46  72 103 153 187 249 303 371 454
#     4  10  26  46  75 107 145 200 244 314 374 448
#
# _framework density 21.904084000000001
#
# number of rings (size 3 to 8) (size 9 to 14) (size 15 to 20)
#    1.000    0.000    1.667    4.000    4.667    2.000 
#    0.000    0.833    0.000    0.000    0.000    0.000 
#    0.000    0.000    0.000    0.000    0.000    0.000 
#
# Total GULP energy -134071.135369 kJ/mol
# GULP energy per Si atom -5586.297307 kJ/mol
# Density = 2.185423 g / cm^3
# Si number density = 21.904084 Si / 1000 Ang^3
#
#
#
# Elastic Constant Matrix: (Units=GPa)
#
#
# Indices 1 2 3 4 5 6 
#
# 1 98.1651 -12.3968 32.5775 0.0000 0.0000 0.0000
# 2 -12.3968 70.0190 34.4257 0.0000 0.0000 0.0000
# 3 32.5775 34.4257 175.3319 0.0000 0.0000 0.0000
# 4 0.0000 0.0000 0.0000 22.3676 0.0000 0.0000
# 5 0.0000 0.0000 0.0000 0.0000 32.2035 0.0000
# 6 0.0000 0.0000 0.0000 0.0000 0.0000 16.1249
#
#
#
# Elastic Compliance Matrix: (Units=1/GPa)
#
#
# Indices 1 2 3 4 5 6 
#
# 1 0.011557 0.003433 -0.002821 0.000000 0.000000 0.000000
# 2 0.003433 0.016828 -0.003942 0.000000 0.000000 0.000000
# 3 -0.002821 -0.003942 0.007002 0.000000 0.000000 0.000000
# 4 0.000000 0.000000 0.000000 0.044707 0.000000 0.000000
# 5 0.000000 0.000000 0.000000 0.000000 0.031052 0.000000
# 6 0.000000 0.000000 0.000000 0.000000 0.000000 0.062016
#
#
# Mechanical properties :
#
#
# Convention : Reuss Voigt Hill
#
# Bulk Modulus (GPa) = 34.81153 50.30323 42.55738
# Shear Modulus (GPa) = 26.39945 33.39985 29.89965
#
# Velocity S-wave (km/s) = 3.47541 3.90913 3.69863
# Velocity P-wave (km/s) = 5.65967 6.58712 6.14093
#
# Compressibility (1/GPa) = 0.02872611
#
# Stress axis : x y z
#
# Youngs Moduli (GPa) = 86.52893 59.42536 142.82242
#
# Poissons Ratio (x) = -0.20403 0.40296
# Poissons Ratio (y) = -0.29708 0.56301
# Poissons Ratio (z) = 0.24414 0.23426
#
# Static dielectric constant tensor:
#      x y z
#    x 1.844240 0.000000 0.000000 
#    y 0.000000 1.781770 0.000000 
#    z 0.000000 0.000000 1.792610 
# 
# From -- ./inp_files/5576.got.cif
#   From: 2010.05.17/outbox.cif.g08.bks.cpg/sg36_3_cif.got.tgz:5576.got - 2010.06.03 17:41:39.
