data_PCOD9353665
_publ_section_title
;
Structure prediction by ZEFSAII (Michael W. Deem and Ramdas Pophale) SiO2 
 PCOD9353665
Probable space group: C C C 2
;
_chemical_formula_sum "Si O2"
_cell_formula_units_Z 60
_cell_length_a 13.256864
_cell_length_b 12.454003
_cell_length_c 17.991947
_cell_angle_alpha 90.000000
_cell_angle_beta 90.000000
_cell_angle_gamma 90.000000
_cell_volume 2970.488874
_symmetry_space_group_name_H-M "C C C 2"
_symmetry_group_IT_number 37
_symmetry_cell_setting 'orthorhombic'
loop_
_space_group_symop_operation_xyz
x,y,z
-x,-y,z
-x,y,1/2+z
x,-y,1/2+z
1/2+x,1/2+y,z
1/2-x,1/2-y,z
1/2-x,1/2+y,1/2+z
1/2+x,1/2-y,1/2+z
loop_
_atom_site_type_symbol
_atom_site_label
_atom_site_fract_x
_atom_site_fract_y
_atom_site_fract_z
Si Si1 0.270621 0.951907 0.460630
Si Si2 0.047880 0.381820 0.707841
Si Si3 0.750000 0.750000 0.059627
Si Si4 0.857629 0.765477 0.202223
Si Si5 0.715729 0.870786 0.582515
Si Si6 0.592528 0.576612 0.849734
Si Si7 0.111872 0.015131 0.680804
Si Si8 0.138856 0.694760 0.355509
O O1 0.227825 0.855624 0.512712
O O2 0.188188 0.967688 0.395686
O O3 0.363752 0.893115 0.420121
O O4 0.295965 0.054168 0.510117
O O5 0.115668 0.365971 0.634194
O O6 0.120198 0.363614 0.778173
O O7 0.000000 0.500000 0.706377
O O8 0.957811 0.296771 0.723373
O O9 0.838740 0.724418 0.117560
O O10 0.750000 0.750000 0.243127
O O11 0.863528 0.892635 0.199288
O O12 0.750000 0.750000 0.564844
O O13 0.805531 0.927828 0.630067
O O14 0.500000 0.500000 0.866609
O O15 0.607457 0.574667 0.760408
O O16 0.571350 0.700607 0.869849
O O17 0.000000 0.000000 0.646506
O O18 0.250000 0.750000 0.353885
#
# Coordination Sequence:
#
# PCOD9353665 Si02
#       8
#     8   8   4   8   8   8   8   8
#     4  11  21  41  63  87 125 181 215 253 330 402
#     4  12  23  41  65 102 130 168 219 280 348 397
#     4  10  18  42  64  86 120 170 216 248 326 396
#     4  10  22  39  64  92 123 164 207 267 322 394
#     4  12  24  42  65  96 134 168 220 286 338 394
#     4  10  20  36  60  94 122 160 214 273 316 382
#     4  11  21  38  65  96 123 161 217 271 333 382
#     4  10  21  41  69  87 126 177 218 261 327 409
#
# _framework density 20.198696000000002
#
# number of rings (size 3 to 8) (size 9 to 14) (size 15 to 20)
#    0.400    0.800    3.333    6.800    0.000    0.533 
#    2.400    5.333    0.000    0.000    0.000    0.000 
#    0.000    0.000    0.000    0.000    0.000    0.000 
#
# Total GULP energy -167259.952864 kJ/mol
# GULP energy per Si atom -5575.331762 kJ/mol
# Density = 2.015272 g / cm^3
# Si number density = 20.198696 Si / 1000 Ang^3
#
#
#
# Elastic Constant Matrix: (Units=GPa)
#
#
# Indices 1 2 3 4 5 6 
#
# 1 66.4306 41.4523 16.1532 0.0000 0.0000 0.0000
# 2 41.4523 158.2818 39.3865 0.0000 0.0000 0.0000
# 3 16.1532 39.3865 83.5862 0.0000 0.0000 0.0000
# 4 0.0000 0.0000 0.0000 17.2262 0.0000 0.0000
# 5 0.0000 0.0000 0.0000 0.0000 2.0967 0.0000
# 6 0.0000 0.0000 0.0000 0.0000 0.0000 35.5840
#
#
#
# Elastic Compliance Matrix: (Units=1/GPa)
#
#
# Indices 1 2 3 4 5 6 
#
# 1 0.018145 -0.004395 -0.001436 0.000000 0.000000 0.000000
# 2 -0.004395 0.008221 -0.003025 0.000000 0.000000 0.000000
# 3 -0.001436 -0.003025 0.013666 0.000000 0.000000 0.000000
# 4 0.000000 0.000000 0.000000 0.058051 0.000000 0.000000
# 5 0.000000 0.000000 0.000000 0.000000 0.476943 0.000000
# 6 0.000000 0.000000 0.000000 0.000000 0.000000 0.028103
#
#
# Mechanical properties :
#
#
# Convention : Reuss Voigt Hill
#
# Bulk Modulus (GPa) = 44.79815 55.80918 50.30366
# Shear Modulus (GPa) = 7.95823 25.06847 16.51335
#
# Velocity S-wave (km/s) = 1.98709 3.52674 2.86238
# Velocity P-wave (km/s) = 5.24324 6.65386 5.99022
#
# Compressibility (1/GPa) = 0.02232235
#
# Stress axis : x y z
#
# Youngs Moduli (GPa) = 55.11275 121.63360 73.17204
#
# Poissons Ratio (x) = 0.53453 0.10505
# Poissons Ratio (y) = 0.24220 0.22133
# Poissons Ratio (z) = 0.07913 0.36791
#
# Static dielectric constant tensor:
#      x y z
#    x 1.853360 0.000000 0.000000 
#    y 0.000000 1.902040 0.000000 
#    z 0.000000 0.000000 1.738960 
# 
# From -- ./inp_files/15291.got.cif
#   From: 2010.05.17/outbox.cif.g08.bks.cpg/sg37_8_cif.got.tgz:15291.got - 2010.06.03 17:53:42.
