data_PCOD9353276
_publ_section_title
;
Structure prediction by ZEFSAII (Michael W. Deem and Ramdas Pophale) SiO2 
 PCOD9353276
Probable space group: C M C 21
;
_chemical_formula_sum "Si O2"
_cell_formula_units_Z 40
_cell_length_a 15.002614
_cell_length_b 12.011266
_cell_length_c 9.316626
_cell_angle_alpha 90.000000
_cell_angle_beta 90.000000
_cell_angle_gamma 90.000000
_cell_volume 1678.859615
_symmetry_space_group_name_H-M "C M C 21"
_symmetry_group_IT_number 36
_symmetry_cell_setting 'orthorhombic'
loop_
_space_group_symop_operation_xyz
x,y,z
-x,-y,1/2+z
x,-y,1/2+z
-x,y,z
1/2+x,1/2+y,z
1/2-x,1/2-y,1/2+z
1/2+x,1/2-y,1/2+z
1/2-x,1/2+y,z
loop_
_atom_site_type_symbol
_atom_site_label
_atom_site_fract_x
_atom_site_fract_y
_atom_site_fract_z
Si Si1 0.000000 0.933228 0.285270
Si Si2 0.000000 0.151918 0.461569
Si Si3 0.759387 0.079653 0.218133
Si Si4 0.148031 0.184748 0.972746
Si Si5 0.323726 0.929702 0.004309
Si Si6 0.150701 0.668796 0.992022
O O1 0.915429 0.874487 0.361466
O O2 0.000000 0.909676 0.116258
O O3 0.000000 0.059875 0.338803
O O4 0.083526 0.235735 0.455991
O O5 0.755086 0.075328 0.386220
O O6 0.843502 0.119227 0.125485
O O7 0.680087 0.163063 0.160951
O O8 0.725047 0.963486 0.150809
O O9 0.126293 0.313522 0.004387
O O10 0.251665 0.183170 0.923281
O O11 0.379321 0.041086 0.964184
#
# Coordination Sequence:
#
# PCOD9353276 Si02
#       6
#     4   4   8   8   8   8
#     4  12  28  45  74 106 148 191 241 312 369 452
#     4  12  26  53  68 110 146 193 249 306 379 438
#     4   8  20  35  65  98 133 185 224 291 346 423
#     4   9  22  40  68 107 141 192 234 296 370 437
#     4   9  18  40  64 100 130 190 238 282 355 427
#     4   8  23  40  72  96 141 192 228 299 352 439
#
# _framework density 23.825697999999999
#
# number of rings (size 3 to 8) (size 9 to 14) (size 15 to 20)
#    2.400    0.000    0.000    1.200    5.600    7.200 
#    3.600    1.000    0.000    0.000    0.000    0.000 
#    0.000    0.000    0.000    0.000    0.000    0.000 
#
# Total GULP energy -111472.893976 kJ/mol
# GULP energy per Si atom -5573.644699 kJ/mol
# Density = 2.377147 g / cm^3
# Si number density = 23.825698 Si / 1000 Ang^3
#
#
#
# Elastic Constant Matrix: (Units=GPa)
#
#
# Indices 1 2 3 4 5 6 
#
# 1 112.1713 43.9502 18.4189 0.0000 0.0000 0.0000
# 2 43.9502 163.7046 9.0157 0.0000 0.0000 0.0000
# 3 18.4189 9.0157 78.0358 0.0000 0.0000 0.0000
# 4 0.0000 0.0000 0.0000 25.7482 0.0000 0.0000
# 5 0.0000 0.0000 0.0000 0.0000 21.1029 0.0000
# 6 0.0000 0.0000 0.0000 0.0000 0.0000 37.3087
#
#
#
# Elastic Compliance Matrix: (Units=1/GPa)
#
#
# Indices 1 2 3 4 5 6 
#
# 1 0.010302 -0.002649 -0.002126 0.000000 0.000000 0.000000
# 2 -0.002649 0.006829 -0.000164 0.000000 0.000000 0.000000
# 3 -0.002126 -0.000164 0.013335 0.000000 0.000000 0.000000
# 4 0.000000 0.000000 0.000000 0.038838 0.000000 0.000000
# 5 0.000000 0.000000 0.000000 0.000000 0.047387 0.000000
# 6 0.000000 0.000000 0.000000 0.000000 0.000000 0.026803
#
#
# Mechanical properties :
#
#
# Convention : Reuss Voigt Hill
#
# Bulk Modulus (GPa) = 48.56791 55.18681 51.87736
# Shear Modulus (GPa) = 31.20460 35.66709 33.43585
#
# Velocity S-wave (km/s) = 3.62291 3.87331 3.75020
# Velocity P-wave (km/s) = 6.15870 6.57391 6.36969
#
# Compressibility (1/GPa) = 0.02058973
#
# Stress axis : x y z
#
# Youngs Moduli (GPa) = 97.07097 146.44121 74.98923
#
# Poissons Ratio (x) = 0.38788 0.15939
# Poissons Ratio (y) = 0.25711 0.01228
# Poissons Ratio (z) = 0.20633 0.02398
#
# Static dielectric constant tensor:
#      x y z
#    x 1.924690 0.000000 0.000000 
#    y 0.000000 2.005760 0.000000 
#    z 0.000000 0.000000 1.901810 
# 
# From -- ./inp_files/8274.got.cif
#   From: 2010.05.17/outbox.cif.g08.bks.cpg/sg36_5_cif.got.tgz:8274.got - 2010.06.03 17:41:39.
