data_PCOD9353293
_publ_section_title
;
Structure prediction by ZEFSAII (Michael W. Deem and Ramdas Pophale) SiO2 
 PCOD9353293
Probable space group: C M C 21
;
_chemical_formula_sum "Si O2"
_cell_formula_units_Z 64
_cell_length_a 15.331462
_cell_length_b 27.754544
_cell_length_c 7.044759
_cell_angle_alpha 90.000000
_cell_angle_beta 90.000000
_cell_angle_gamma 90.000000
_cell_volume 2997.669905
_symmetry_space_group_name_H-M "C M C 21"
_symmetry_group_IT_number 36
_symmetry_cell_setting 'orthorhombic'
loop_
_space_group_symop_operation_xyz
x,y,z
-x,-y,1/2+z
x,-y,1/2+z
-x,y,z
1/2+x,1/2+y,z
1/2-x,1/2-y,1/2+z
1/2+x,1/2-y,1/2+z
1/2-x,1/2+y,z
loop_
_atom_site_type_symbol
_atom_site_label
_atom_site_fract_x
_atom_site_fract_y
_atom_site_fract_z
Si Si1 0.096703 0.816902 0.954590
Si Si2 0.598637 0.930872 0.801199
Si Si3 0.401311 0.236790 0.463653
Si Si4 0.598144 0.039903 0.740289
Si Si5 0.722729 0.848170 0.886900
Si Si6 0.401235 0.790476 0.409225
Si Si7 0.719658 0.123112 0.838952
Si Si8 0.403340 0.651363 0.881682
O O1 0.176652 0.838421 0.837558
O O2 0.117263 0.761053 0.004315
O O3 0.000000 0.817002 0.865255
O O4 0.090973 0.844636 0.152671
O O5 0.500000 0.917101 0.739955
O O6 0.671442 0.890248 0.779219
O O7 0.622176 0.983844 0.725575
O O8 0.593435 0.939165 0.028596
O O9 0.500000 0.227361 0.392396
O O10 0.331827 0.201224 0.369867
O O11 0.400500 0.223133 0.685611
O O12 0.385257 0.293450 0.443705
O O13 0.500000 0.041380 0.822490
O O14 0.663931 0.074369 0.850906
O O15 0.723409 0.862657 0.112656
O O16 0.500000 0.806339 0.455343
O O17 0.331802 0.832355 0.432678
O O18 0.817669 0.119897 0.916576
O O19 0.500000 0.636551 0.950293
#
# Coordination Sequence:
#
# PCOD9353293 Si02
#       8
#     8   8   8   8   8   8   8   8
#     4   9  17  28  41  59  84 112 140 169 199 232
#     4   9  17  30  47  65  84 105 131 166 207 248
#     4   9  16  26  41  61  84 110 139 168 199 238
#     4   9  17  30  47  65  84 105 131 166 207 248
#     4   9  16  27  44  62  81 109 141 167 197 243
#     4   9  16  26  41  61  84 110 139 168 199 238
#     4   9  16  27  44  62  81 109 141 167 197 243
#     4   9  17  28  41  59  84 112 140 169 199 232
#
# _framework density 21.349916
#
# number of rings (size 3 to 8) (size 9 to 14) (size 15 to 20)
#    0.000    3.000    0.000    1.500    0.000    3.000 
#    0.000    2.500    0.000    6.750    0.000    0.000 
#    0.000    0.000    0.000    0.000    0.000    0.000 
#
# Total GULP energy -178780.131136 kJ/mol
# GULP energy per Si atom -5586.879098 kJ/mol
# Density = 2.130132 g / cm^3
# Si number density = 21.349916 Si / 1000 Ang^3
#
#
#
# Elastic Constant Matrix: (Units=GPa)
#
#
# Indices 1 2 3 4 5 6 
#
# 1 170.5863 95.3701 8.9848 0.0000 0.0000 0.0000
# 2 95.3701 78.5271 4.7423 0.0000 0.0000 0.0000
# 3 8.9848 4.7423 59.6918 0.0000 0.0000 0.0000
# 4 0.0000 0.0000 0.0000 26.7621 0.0000 0.0000
# 5 0.0000 0.0000 0.0000 0.0000 6.0173 0.0000
# 6 0.0000 0.0000 0.0000 0.0000 0.0000 30.6662
#
#
#
# Elastic Compliance Matrix: (Units=1/GPa)
#
#
# Indices 1 2 3 4 5 6 
#
# 1 0.018320 -0.022189 -0.000995 0.000000 0.000000 0.000000
# 2 -0.022189 0.039672 0.000188 0.000000 0.000000 0.000000
# 3 -0.000995 0.000188 0.016887 0.000000 0.000000 0.000000
# 4 0.000000 0.000000 0.000000 0.037366 0.000000 0.000000
# 5 0.000000 0.000000 0.000000 0.000000 0.166189 0.000000
# 6 0.000000 0.000000 0.000000 0.000000 0.000000 0.032609
#
#
# Mechanical properties :
#
#
# Convention : Reuss Voigt Hill
#
# Bulk Modulus (GPa) = 34.61699 58.55552 46.58626
# Shear Modulus (GPa) = 13.63648 26.00298 19.81973
#
# Velocity S-wave (km/s) = 2.53002 3.49369 3.05015
# Velocity P-wave (km/s) = 4.97835 6.61518 5.85425
#
# Compressibility (1/GPa) = 0.02888755
#
# Stress axis : x y z
#
# Youngs Moduli (GPa) = 54.58546 25.20698 59.21548
#
# Poissons Ratio (x) = 0.55932 0.05890
# Poissons Ratio (y) = 1.21121 -0.01114
# Poissons Ratio (z) = 0.05429 -0.00474
#
# Static dielectric constant tensor:
#      x y z
#    x 1.790410 0.000000 0.000000 
#    y 0.000000 1.717840 0.000000 
#    z 0.000000 0.000000 1.881340 
# 
# From -- ./inp_files/4427.got.cif
#   From: 2010.05.17/outbox.cif.g08.bks.cpg/sg36_3_cif.got.tgz:4427.got - 2010.06.03 17:41:39.
