data_PCOD9353130
_publ_section_title
;
Structure prediction by ZEFSAII (Michael W. Deem and Ramdas Pophale) SiO2 
 PCOD9353130
Probable space group: C M C 21
;
_chemical_formula_sum "Si O2"
_cell_formula_units_Z 56
_cell_length_a 23.780249
_cell_length_b 13.848976
_cell_length_c 8.335160
_cell_angle_alpha 90.000000
_cell_angle_beta 90.000000
_cell_angle_gamma 90.000000
_cell_volume 2745.035727
_symmetry_space_group_name_H-M "C M C 21"
_symmetry_group_IT_number 36
_symmetry_cell_setting 'orthorhombic'
loop_
_space_group_symop_operation_xyz
x,y,z
-x,-y,1/2+z
x,-y,1/2+z
-x,y,z
1/2+x,1/2+y,z
1/2-x,1/2-y,1/2+z
1/2+x,1/2-y,1/2+z
1/2-x,1/2+y,z
loop_
_atom_site_type_symbol
_atom_site_label
_atom_site_fract_x
_atom_site_fract_y
_atom_site_fract_z
Si Si1 0.660780 0.964380 0.850520
Si Si2 0.000000 0.618226 0.135961
Si Si3 0.618034 0.858729 0.149271
Si Si4 0.801033 0.852311 0.329447
Si Si5 0.814044 0.231779 0.343164
Si Si6 0.123669 0.296300 0.660795
Si Si7 0.000000 0.604793 0.754646
Si Si8 0.216308 0.962498 0.991909
O O1 0.660908 0.890434 0.702743
O O2 0.719399 0.975345 0.938797
O O3 0.638275 0.063495 0.781926
O O4 0.621774 0.911882 0.980144
O O5 0.058396 0.673614 0.176361
O O6 0.000000 0.508930 0.205459
O O7 0.000000 0.607319 0.945005
O O8 0.659387 0.769098 0.176838
O O9 0.553967 0.840896 0.187153
O O10 0.746713 0.784155 0.363070
O O11 0.853888 0.785849 0.282159
O O12 0.810483 0.932686 0.465239
O O13 0.787207 0.914974 0.167588
O O14 0.857213 0.263321 0.484212
O O15 0.807017 0.118374 0.369788
#
# Coordination Sequence:
#
# PCOD9353130 Si02
#       8
#     8   4   8   8   8   8   4   8
#     4  12  21  35  57  88 122 164 199 248 304 379
#     4  12  24  42  64  89 131 168 210 259 311 375
#     4  12  23  36  56  88 127 162 199 248 306 374
#     4  11  24  39  61  89 124 165 205 256 315 369
#     4  11  22  39  59  90 123 162 202 250 316 371
#     4  11  25  40  61  90 128 168 208 252 316 378
#     4  12  24  38  60  91 123 168 204 251 307 375
#     4  11  23  36  60  87 123 158 202 254 311 374
#
# _framework density 20.400462000000001
#
# number of rings (size 3 to 8) (size 9 to 14) (size 15 to 20)
#    0.000    0.571    7.143    1.714    2.000    1.143 
#    0.000    0.000    0.000    4.286    0.000    0.000 
#    0.000    0.000    0.000    0.000    0.000    0.000 
#
# Total GULP energy -156619.619164 kJ/mol
# GULP energy per Si atom -5593.557827 kJ/mol
# Density = 2.035403 g / cm^3
# Si number density = 20.400462 Si / 1000 Ang^3
#
#
#
# Elastic Constant Matrix: (Units=GPa)
#
#
# Indices 1 2 3 4 5 6 
#
# 1 71.3583 23.1163 21.2108 0.0000 0.0000 0.0000
# 2 23.1163 92.1522 5.3852 0.0000 0.0000 0.0000
# 3 21.2108 5.3852 51.4772 0.0000 0.0000 0.0000
# 4 0.0000 0.0000 0.0000 26.4524 0.0000 0.0000
# 5 0.0000 0.0000 0.0000 0.0000 26.9284 0.0000
# 6 0.0000 0.0000 0.0000 0.0000 0.0000 21.7958
#
#
#
# Elastic Compliance Matrix: (Units=1/GPa)
#
#
# Indices 1 2 3 4 5 6 
#
# 1 0.017286 -0.003944 -0.006710 0.000000 0.000000 0.000000
# 2 -0.003944 0.011818 0.000389 0.000000 0.000000 0.000000
# 3 -0.006710 0.000389 0.022150 0.000000 0.000000 0.000000
# 4 0.000000 0.000000 0.000000 0.037804 0.000000 0.000000
# 5 0.000000 0.000000 0.000000 0.000000 0.037135 0.000000
# 6 0.000000 0.000000 0.000000 0.000000 0.000000 0.045880
#
#
# Mechanical properties :
#
#
# Convention : Reuss Voigt Hill
#
# Bulk Modulus (GPa) = 32.54792 34.93471 33.74132
# Shear Modulus (GPa) = 24.64928 26.05369 25.35149
#
# Velocity S-wave (km/s) = 3.47979 3.57755 3.52901
# Velocity P-wave (km/s) = 5.66872 5.85037 5.76026
#
# Compressibility (1/GPa) = 0.03072393
#
# Stress axis : x y z
#
# Youngs Moduli (GPa) = 57.85053 84.61490 45.14637
#
# Poissons Ratio (x) = 0.33372 0.30293
# Poissons Ratio (y) = 0.22816 -0.01755
# Poissons Ratio (z) = 0.38817 -0.03289
#
# Static dielectric constant tensor:
#      x y z
#    x 1.719790 0.000000 0.000000 
#    y 0.000000 1.747550 0.000000 
#    z 0.000000 0.000000 1.825170 
# 
# From -- ./inp_files/5235.got.cif
#   From: 2010.05.17/outbox.cif.g08.bks.cpg/sg36_3_cif.got.tgz:5235.got - 2010.06.03 17:41:39.
