data_PCOD9353438
_publ_section_title
;
Structure prediction by ZEFSAII (Michael W. Deem and Ramdas Pophale) SiO2 
 PCOD9353438
Probable space group: C C C 2
;
_chemical_formula_sum "Si O2"
_cell_formula_units_Z 48
_cell_length_a 18.412223
_cell_length_b 7.046831
_cell_length_c 13.433951
_cell_angle_alpha 90.000000
_cell_angle_beta 90.000000
_cell_angle_gamma 90.000000
_cell_volume 1743.025907
_symmetry_space_group_name_H-M "C C C 2"
_symmetry_group_IT_number 37
_symmetry_cell_setting 'orthorhombic'
loop_
_space_group_symop_operation_xyz
x,y,z
-x,-y,z
-x,y,1/2+z
x,-y,1/2+z
1/2+x,1/2+y,z
1/2-x,1/2-y,z
1/2-x,1/2+y,1/2+z
1/2+x,1/2-y,1/2+z
loop_
_atom_site_type_symbol
_atom_site_label
_atom_site_fract_x
_atom_site_fract_y
_atom_site_fract_z
Si Si1 0.250000 0.250000 0.281730
Si Si2 0.135455 0.312491 0.124540
Si Si3 0.882227 0.871926 0.424414
Si Si4 0.615339 0.175127 0.403521
Si Si5 0.507671 0.270609 0.771661
Si Si6 0.183937 0.117129 0.611962
Si Si7 0.250000 0.250000 0.802166
O O1 0.197584 0.378186 0.205371
O O2 0.189224 0.166935 0.357198
O O3 0.059816 0.292194 0.182490
O O4 0.173557 0.107870 0.100990
O O5 0.115239 0.399474 0.017318
O O6 0.945094 0.759451 0.371835
O O7 0.879578 0.817238 0.539957
O O8 0.895180 0.096936 0.417376
O O9 0.562636 0.151425 0.307127
O O10 0.698051 0.130143 0.372508
O O11 0.500000 0.500000 0.753469
O O12 0.250000 0.250000 0.573832
O O13 0.191237 0.155118 0.728311
#
# Coordination Sequence:
#
# PCOD9353438 Si02
#       7
#     4   8   8   8   8   8   4
#     4  10  16  30  50  72 102 132 170 204 254 296
#     4  10  20  32  50  76 108 133 168 213 250 309
#     4   9  17  31  49  73  99 131 167 210 249 308
#     4  10  20  32  47  75 108 134 168 209 264 306
#     4   9  18  30  48  71 104 133 161 209 260 309
#     4   9  18  30  47  72 103 131 168 206 254 300
#     4  10  18  30  46  68 106 134 164 206 254 312
#
# _framework density 27.538315000000001
#
# number of rings (size 3 to 8) (size 9 to 14) (size 15 to 20)
#    0.500    2.000    0.833    3.500    0.000    4.667 
#    0.000    0.000    0.000    0.000    0.000   18.667 
#   10.000    0.000    0.000    0.000    0.000    0.000 
#
# Total GULP energy -133657.128524 kJ/mol
# GULP energy per Si atom -5569.047022 kJ/mol
# Density = 2.747564 g / cm^3
# Si number density = 27.538315 Si / 1000 Ang^3
#
#
#
# Elastic Constant Matrix: (Units=GPa)
#
#
# Indices 1 2 3 4 5 6 
#
# 1 135.9831 0.4521 45.0785 0.0000 0.0000 0.0000
# 2 0.4521 113.9259 -4.5468 0.0000 0.0000 0.0000
# 3 45.0785 -4.5468 162.9267 0.0000 0.0000 0.0000
# 4 0.0000 0.0000 0.0000 14.7289 0.0000 0.0000
# 5 0.0000 0.0000 0.0000 0.0000 0.4161 0.0000
# 6 0.0000 0.0000 0.0000 0.0000 0.0000 24.8611
#
#
#
# Elastic Compliance Matrix: (Units=1/GPa)
#
#
# Indices 1 2 3 4 5 6 
#
# 1 0.008098 -0.000122 -0.002244 0.000000 0.000000 0.000000
# 2 -0.000122 0.008789 0.000279 0.000000 0.000000 0.000000
# 3 -0.002244 0.000279 0.006766 0.000000 0.000000 0.000000
# 4 0.000000 0.000000 0.000000 0.067894 0.000000 0.000000
# 5 0.000000 0.000000 0.000000 0.000000 2.403384 0.000000
# 6 0.000000 0.000000 0.000000 0.000000 0.000000 0.040224
#
#
# Mechanical properties :
#
#
# Convention : Reuss Voigt Hill
#
# Bulk Modulus (GPa) = 51.33388 54.97814 53.15601
# Shear Modulus (GPa) = 1.96400 32.79133 17.37767
#
# Velocity S-wave (km/s) = 0.84542 3.45447 2.51477
# Velocity P-wave (km/s) = 4.43107 5.99323 5.27035
#
# Compressibility (1/GPa) = 0.01948031
#
# Stress axis : x y z
#
# Youngs Moduli (GPa) = 123.48509 113.77538 147.78951
#
# Poissons Ratio (x) = 0.01385 0.33164
# Poissons Ratio (y) = 0.01503 -0.04123
# Poissons Ratio (z) = 0.27710 -0.03174
#
# Static dielectric constant tensor:
#      x y z
#    x 2.206230 0.000000 0.000000 
#    y 0.000000 2.343210 0.000000 
#    z 0.000000 0.000000 2.116460 
# 
# From -- ./inp_files/12619.got.cif
#   From: 2010.05.17/outbox.cif.g08.bks.cpg/sg37_7_cif.got.tgz:12619.got - 2010.06.03 17:53:42.
