data_PCOD9353798
_publ_section_title
;
Structure prediction by ZEFSAII (Michael W. Deem and Ramdas Pophale) SiO2 
 PCOD9353798
Probable space group: C C C 2
;
_chemical_formula_sum "Si O2"
_cell_formula_units_Z 48
_cell_length_a 7.973429
_cell_length_b 17.747973
_cell_length_c 14.977835
_cell_angle_alpha 90.000000
_cell_angle_beta 90.000000
_cell_angle_gamma 90.000000
_cell_volume 2119.546421
_symmetry_space_group_name_H-M "C C C 2"
_symmetry_group_IT_number 37
_symmetry_cell_setting 'orthorhombic'
loop_
_space_group_symop_operation_xyz
x,y,z
-x,-y,z
-x,y,1/2+z
x,-y,1/2+z
1/2+x,1/2+y,z
1/2-x,1/2-y,z
1/2-x,1/2+y,1/2+z
1/2+x,1/2-y,1/2+z
loop_
_atom_site_type_symbol
_atom_site_label
_atom_site_fract_x
_atom_site_fract_y
_atom_site_fract_z
Si Si1 0.806592 0.005096 0.664950
Si Si2 0.321263 0.453069 0.477496
Si Si3 0.305765 0.933512 0.343140
Si Si4 0.419502 0.702375 0.307427
Si Si5 0.685331 0.326540 0.670073
Si Si6 0.136030 0.665069 0.861756
O O1 0.789644 0.091186 0.628720
O O2 0.780863 0.950054 0.581970
O O3 0.701303 0.979877 0.750386
O O4 0.000000 0.000000 0.695535
O O5 0.500000 0.500000 0.472583
O O6 0.205376 0.510219 0.424232
O O7 0.267420 0.374262 0.429955
O O8 0.144244 0.877571 0.343940
O O9 0.471517 0.885853 0.354800
O O10 0.250000 0.750000 0.298261
O O11 0.500433 0.688270 0.209720
O O12 0.551438 0.751110 0.367190
O O13 0.750000 0.250000 0.623234
O O14 0.786105 0.334901 0.762924
#
# Coordination Sequence:
#
# PCOD9353798 Si02
#       6
#     8   8   8   8   8   8
#     4  11  22  38  66  95 125 173 224 275 338 396
#     4  11  23  38  61  93 133 169 224 275 329 403
#     4  11  20  40  64  93 127 169 223 274 333 396
#     4   9  19  35  67  89 123 169 220 269 336 396
#     4  10  19  36  61  91 126 165 216 265 338 396
#     4  10  21  38  61  96 124 174 216 270 333 395
#
# _framework density 22.646353000000001
#
# number of rings (size 3 to 8) (size 9 to 14) (size 15 to 20)
#    0.000    1.667    3.333    2.000    0.000    0.000 
#    6.000    2.500    7.333    5.000    0.000    0.000 
#    0.000    0.000    0.000    0.000    0.000    0.000 
#
# Total GULP energy -133742.958110 kJ/mol
# GULP energy per Si atom -5572.623255 kJ/mol
# Density = 2.259481 g / cm^3
# Si number density = 22.646353 Si / 1000 Ang^3
#
#
#
# Elastic Constant Matrix: (Units=GPa)
#
#
# Indices 1 2 3 4 5 6 
#
# 1 68.4345 34.6050 28.2180 0.0000 0.0000 0.0000
# 2 34.6050 143.3491 17.0699 0.0000 0.0000 0.0000
# 3 28.2180 17.0699 51.7244 0.0000 0.0000 0.0000
# 4 0.0000 0.0000 0.0000 25.3471 0.0000 0.0000
# 5 0.0000 0.0000 0.0000 0.0000 -12.2834 0.0000
# 6 0.0000 0.0000 0.0000 0.0000 0.0000 43.5360
#
#
#
# Elastic Compliance Matrix: (Units=1/GPa)
#
#
# Indices 1 2 3 4 5 6 
#
# 1 0.020663 -0.003795 -0.010020 0.000000 0.000000 0.000000
# 2 -0.003795 0.007958 -0.000556 0.000000 0.000000 0.000000
# 3 -0.010020 -0.000556 0.024983 0.000000 0.000000 0.000000
# 4 0.000000 0.000000 0.000000 0.039452 0.000000 0.000000
# 5 0.000000 0.000000 0.000000 0.000000 -0.081410 0.000000
# 6 0.000000 0.000000 0.000000 0.000000 0.000000 0.022970
#
#
# Mechanical properties :
#
#
# Convention : Reuss Voigt Hill
#
# Bulk Modulus (GPa) = 40.22179 47.03264 43.62721
# Shear Modulus (GPa) = 69.78726 23.56093 46.67410
#
# Velocity S-wave (km/s) = 5.55725 3.22900 4.54475
# Velocity P-wave (km/s) = 7.67963 5.89197 6.84442
#
# Compressibility (1/GPa) = 0.02486215
#
# Stress axis : x y z
#
# Youngs Moduli (GPa) = 48.39508 125.65482 40.02671
#
# Poissons Ratio (x) = 0.47686 0.40108
# Poissons Ratio (y) = 0.18366 0.02226
# Poissons Ratio (z) = 0.48494 0.06987
#
# Static dielectric constant tensor:
#      x y z
#    x 1.951260 0.000000 0.000000 
#    y 0.000000 1.951220 0.000000 
#    z 0.000000 0.000000 1.772430 
# 
# From -- ./inp_files/10613.got.cif
#   From: 2010.05.17/outbox.cif.g08.bks.cpg/sg37_6_cif.got.tgz:10613.got - 2010.06.03 17:53:42.
