data_PCOD9353137
_publ_section_title
;
Structure prediction by ZEFSAII (Michael W. Deem and Ramdas Pophale) SiO2 
 PCOD9353137
Probable space group: C M C 21
;
_chemical_formula_sum "Si O2"
_cell_formula_units_Z 48
_cell_length_a 23.521339
_cell_length_b 5.134530
_cell_length_c 17.226116
_cell_angle_alpha 90.000000
_cell_angle_beta 90.000000
_cell_angle_gamma 90.000000
_cell_volume 2080.415613
_symmetry_space_group_name_H-M "C M C 21"
_symmetry_group_IT_number 36
_symmetry_cell_setting 'orthorhombic'
loop_
_space_group_symop_operation_xyz
x,y,z
-x,-y,1/2+z
x,-y,1/2+z
-x,y,z
1/2+x,1/2+y,z
1/2-x,1/2-y,1/2+z
1/2+x,1/2-y,1/2+z
1/2-x,1/2+y,z
loop_
_atom_site_type_symbol
_atom_site_label
_atom_site_fract_x
_atom_site_fract_y
_atom_site_fract_z
Si Si1 0.000000 0.968899 0.517540
Si Si2 0.214980 0.885159 0.847257
Si Si3 0.664833 0.717309 0.195191
Si Si4 0.289460 0.739672 0.021983
Si Si5 0.390092 0.370802 0.411602
Si Si6 0.100520 0.712009 0.238145
Si Si7 0.000000 0.465550 0.627209
O O1 0.056061 0.943163 0.463664
O O2 0.000000 0.740202 0.582473
O O3 0.000000 0.243861 0.561209
O O4 0.250666 0.639172 0.870719
O O5 0.210555 0.896425 0.754570
O O6 0.151035 0.895966 0.880447
O O7 0.684642 0.747469 0.108246
O O8 0.615467 0.497650 0.204040
O O9 0.650341 0.001448 0.228852
O O10 0.259492 0.456891 0.016174
O O11 0.344070 0.779104 0.965480
O O12 0.409990 0.239842 0.330579
O O13 0.052658 0.584557 0.184444
#
# Coordination Sequence:
#
# PCOD9353137 Si02
#       7
#     4   8   8   8   8   8   4
#     4  12  29  48  75 100 138 180 228 292 347 414
#     4  11  22  40  67  99 138 180 223 272 327 400
#     4  11  23  42  68 100 138 182 229 276 337 407
#     4  12  25  42  67 100 141 181 224 281 342 409
#     4  11  26  46  69 104 139 178 228 285 353 405
#     4  11  24  43  71  98 136 180 231 287 334 412
#     4  12  25  48  71  98 130 182 238 282 345 408
#
# _framework density 23.072310999999999
#
# number of rings (size 3 to 8) (size 9 to 14) (size 15 to 20)
#    0.000    0.667    0.000    8.500    0.000    8.000 
#    0.000    2.500    0.000    0.000    0.000    0.000 
#    0.000    0.000    0.000    0.000    0.000    0.000 
#
# Total GULP energy -134235.323903 kJ/mol
# GULP energy per Si atom -5593.138496 kJ/mol
# Density = 2.301980 g / cm^3
# Si number density = 23.072311 Si / 1000 Ang^3
#
#
#
# Elastic Constant Matrix: (Units=GPa)
#
#
# Indices 1 2 3 4 5 6 
#
# 1 101.4068 6.8280 31.7879 0.0000 0.0000 0.0000
# 2 6.8280 100.9479 10.0234 0.0000 0.0000 0.0000
# 3 31.7879 10.0234 140.5242 0.0000 0.0000 0.0000
# 4 0.0000 0.0000 0.0000 33.1688 0.0000 0.0000
# 5 0.0000 0.0000 0.0000 0.0000 56.8398 0.0000
# 6 0.0000 0.0000 0.0000 0.0000 0.0000 20.9699
#
#
#
# Elastic Compliance Matrix: (Units=1/GPa)
#
#
# Indices 1 2 3 4 5 6 
#
# 1 0.010637 -0.000484 -0.002372 0.000000 0.000000 0.000000
# 2 -0.000484 0.009999 -0.000604 0.000000 0.000000 0.000000
# 3 -0.002372 -0.000604 0.007696 0.000000 0.000000 0.000000
# 4 0.000000 0.000000 0.000000 0.030149 0.000000 0.000000
# 5 0.000000 0.000000 0.000000 0.000000 0.017593 0.000000
# 6 0.000000 0.000000 0.000000 0.000000 0.000000 0.047687
#
#
# Mechanical properties :
#
#
# Convention : Reuss Voigt Hill
#
# Bulk Modulus (GPa) = 46.70063 48.90638 47.80350
# Shear Modulus (GPa) = 36.27975 41.81167 39.04571
#
# Velocity S-wave (km/s) = 3.96970 4.26161 4.11824
# Velocity P-wave (km/s) = 6.42622 6.74227 6.58614
#
# Compressibility (1/GPa) = 0.02141299
#
# Stress axis : x y z
#
# Youngs Moduli (GPa) = 94.00859 100.01218 129.94125
#
# Poissons Ratio (x) = 0.04841 0.30819
# Poissons Ratio (y) = 0.04550 0.07845
# Poissons Ratio (z) = 0.22296 0.06038
#
# Static dielectric constant tensor:
#      x y z
#    x 1.942440 0.000000 0.000000 
#    y 0.000000 1.841520 0.000000 
#    z 0.000000 0.000000 1.921010 
# 
# From -- ./inp_files/15096.got.cif
#   From: 2010.05.17/outbox.cif.g08.bks.cpg/sg36_8_cif.got.tgz:15096.got - 2010.06.03 17:41:39.
