data_PCOD9353888
_publ_section_title
;
Structure prediction by ZEFSAII (Michael W. Deem and Ramdas Pophale) SiO2 
 PCOD9353888
Probable space group: C C C 2
;
_chemical_formula_sum "Si O2"
_cell_formula_units_Z 64
_cell_length_a 8.691004
_cell_length_b 25.275959
_cell_length_c 13.765918
_cell_angle_alpha 90.000000
_cell_angle_beta 90.000000
_cell_angle_gamma 90.000000
_cell_volume 3024.006848
_symmetry_space_group_name_H-M "C C C 2"
_symmetry_group_IT_number 37
_symmetry_cell_setting 'orthorhombic'
loop_
_space_group_symop_operation_xyz
x,y,z
-x,-y,z
-x,y,1/2+z
x,-y,1/2+z
1/2+x,1/2+y,z
1/2-x,1/2-y,z
1/2-x,1/2+y,1/2+z
1/2+x,1/2-y,1/2+z
loop_
_atom_site_type_symbol
_atom_site_label
_atom_site_fract_x
_atom_site_fract_y
_atom_site_fract_z
Si Si1 0.665752 0.516539 0.008510
Si Si2 0.078938 0.871995 0.420340
Si Si3 0.344743 0.798016 0.432331
Si Si4 0.716692 0.686216 0.488969
Si Si5 0.114875 0.046039 0.311892
Si Si6 0.121839 0.705904 0.799911
Si Si7 0.018343 0.649615 0.111529
Si Si8 0.111938 0.459631 0.170379
O O1 0.500000 0.500000 0.050946
O O2 0.805228 0.510696 0.081354
O O3 0.647503 0.578667 0.981868
O O4 0.678816 0.480174 0.912285
O O5 0.221191 0.837175 0.383999
O O6 0.957250 0.835323 0.479701
O O7 0.984281 0.902547 0.337611
O O8 0.250000 0.750000 0.476635
O O9 0.469987 0.774838 0.357978
O O10 0.426968 0.829484 0.517734
O O11 0.750000 0.750000 0.495185
O O12 0.795497 0.671153 0.384769
O O13 0.806150 0.661413 0.580332
O O14 0.250802 0.058526 0.239330
O O15 0.000000 0.000000 0.274981
O O16 0.250000 0.750000 0.775495
O O17 0.053068 0.678772 0.705069
O O18 0.985098 0.588822 0.130503
O O19 0.000000 0.500000 0.224361
#
# Coordination Sequence:
#
# PCOD9353888 Si02
#       8
#     8   8   8   8   8   8   8   8
#     4   9  21  41  65  89 120 170 213 271 331 393
#     4  10  19  41  66  89 125 170 219 271 325 389
#     4  11  22  40  67  96 130 175 227 267 327 390
#     4  10  22  41  64  93 130 174 214 274 331 386
#     4   9  22  42  67  91 125 172 216 271 337 394
#     4  10  22  41  62  92 138 173 217 266 327 391
#     4  11  24  40  62  99 129 172 216 269 335 402
#     4  12  25  40  61  98 130 163 217 273 337 404
#
# _framework density 21.163972000000001
#
# number of rings (size 3 to 8) (size 9 to 14) (size 15 to 20)
#    0.000    2.000    1.250    3.750    3.500    3.000 
#    2.250    0.000    0.000    0.000    0.000    0.000 
#    0.000    0.000    0.000    0.000    0.000    0.000 
#
# Total GULP energy -178489.934666 kJ/mol
# GULP energy per Si atom -5577.810458 kJ/mol
# Density = 2.111580 g / cm^3
# Si number density = 21.163972 Si / 1000 Ang^3
#
#
#
# Elastic Constant Matrix: (Units=GPa)
#
#
# Indices 1 2 3 4 5 6 
#
# 1 89.4793 27.3640 15.1013 0.0000 0.0000 0.0000
# 2 27.3640 70.5838 5.2722 0.0000 0.0000 0.0000
# 3 15.1013 5.2722 74.1165 0.0000 0.0000 0.0000
# 4 0.0000 0.0000 0.0000 8.5900 0.0000 0.0000
# 5 0.0000 0.0000 0.0000 0.0000 -3.4799 0.0000
# 6 0.0000 0.0000 0.0000 0.0000 0.0000 34.5430
#
#
#
# Elastic Compliance Matrix: (Units=1/GPa)
#
#
# Indices 1 2 3 4 5 6 
#
# 1 0.013062 -0.004891 -0.002313 0.000000 0.000000 0.000000
# 2 -0.004891 0.016075 -0.000147 0.000000 0.000000 0.000000
# 3 -0.002313 -0.000147 0.013974 0.000000 0.000000 0.000000
# 4 0.000000 0.000000 0.000000 0.116415 0.000000 0.000000
# 5 0.000000 0.000000 0.000000 0.000000 -0.287361 0.000000
# 6 0.000000 0.000000 0.000000 0.000000 0.000000 0.028949
#
#
# Mechanical properties :
#
#
# Convention : Reuss Voigt Hill
#
# Bulk Modulus (GPa) = 35.20148 36.62828 35.91488
# Shear Modulus (GPa) = -66.92205 20.36008 -23.28098
#
# Velocity S-wave (km/s) = -5.62933 3.10500 -3.32027
# Velocity P-wave (km/s) = 5.05803 5.49538 1.51913
#
# Compressibility (1/GPa) = 0.02840790
#
# Stress axis : x y z
#
# Youngs Moduli (GPa) = 76.55815 62.20959 71.56100
#
# Poissons Ratio (x) = 0.30427 0.16555
# Poissons Ratio (y) = 0.37445 0.01051
# Poissons Ratio (z) = 0.17711 0.00914
#
# Static dielectric constant tensor:
#      x y z
#    x 1.783760 0.000000 0.000000 
#    y 0.000000 1.804200 0.000000 
#    z 0.000000 0.000000 1.748440 
# 
# From -- ./inp_files/10972.got.cif
#   From: 2010.05.17/outbox.cif.g08.bks.cpg/sg37_6_cif.got.tgz:10972.got - 2010.06.03 17:53:42.
