data_PCOD9353771
_publ_section_title
;
Structure prediction by ZEFSAII (Michael W. Deem and Ramdas Pophale) SiO2 
 PCOD9353771
Probable space group: C C C 2
;
_chemical_formula_sum "Si O2"
_cell_formula_units_Z 48
_cell_length_a 7.709825
_cell_length_b 14.341855
_cell_length_c 18.520504
_cell_angle_alpha 90.000000
_cell_angle_beta 90.000000
_cell_angle_gamma 90.000000
_cell_volume 2047.871249
_symmetry_space_group_name_H-M "C C C 2"
_symmetry_group_IT_number 37
_symmetry_cell_setting 'orthorhombic'
loop_
_space_group_symop_operation_xyz
x,y,z
-x,-y,z
-x,y,1/2+z
x,-y,1/2+z
1/2+x,1/2+y,z
1/2-x,1/2-y,z
1/2-x,1/2+y,1/2+z
1/2+x,1/2-y,1/2+z
loop_
_atom_site_type_symbol
_atom_site_label
_atom_site_fract_x
_atom_site_fract_y
_atom_site_fract_z
Si Si1 0.133386 0.087354 0.391350
Si Si2 0.393661 0.632632 0.730114
Si Si3 0.262584 0.546994 0.167077
Si Si4 0.403896 0.694471 0.498329
Si Si5 0.702868 0.998727 0.019210
Si Si6 0.551626 0.788292 0.643078
O O1 0.166248 0.125292 0.312095
O O2 0.049207 0.166317 0.441635
O O3 0.284318 0.044801 0.440663
O O4 0.000000 0.000000 0.384208
O O5 0.588530 0.589216 0.718120
O O6 0.274796 0.562653 0.683492
O O7 0.429355 0.734366 0.698888
O O8 0.088466 0.607110 0.171052
O O9 0.302527 0.557397 0.081247
O O10 0.250000 0.750000 0.459730
O O11 0.305333 0.598759 0.520476
O O12 0.473296 0.757897 0.564978
O O13 0.500000 0.000000 0.038878
O O14 0.750000 0.750000 0.643173
#
# Coordination Sequence:
#
# PCOD9353771 Si02
#       6
#     8   8   8   8   8   8
#     4  10  21  38  64  90 136 182 223 284 356 433
#     4  10  19  37  62 101 133 181 234 281 369 438
#     4  10  19  35  65  95 134 177 235 292 347 423
#     4  11  23  38  62  98 135 171 237 292 346 427
#     4  11  23  41  66  96 129 186 236 289 356 420
#     4  10  20  35  64  97 133 177 234 298 353 415
#
# _framework density 23.438974000000002
#
# number of rings (size 3 to 8) (size 9 to 14) (size 15 to 20)
#    0.000    1.667    3.333    3.000    4.667    2.000 
#    0.000    0.833    0.000    1.000    0.000    0.000 
#    0.000    0.000    0.000    0.000    0.000    0.000 
#
# Total GULP energy -133907.693167 kJ/mol
# GULP energy per Si atom -5579.487215 kJ/mol
# Density = 2.338563 g / cm^3
# Si number density = 23.438974 Si / 1000 Ang^3
#
#
#
# Elastic Constant Matrix: (Units=GPa)
#
#
# Indices 1 2 3 4 5 6 
#
# 1 116.9964 34.8161 26.3536 0.0000 0.0000 0.0000
# 2 34.8161 124.6866 39.4914 0.0000 0.0000 0.0000
# 3 26.3536 39.4914 158.9752 0.0000 0.0000 0.0000
# 4 0.0000 0.0000 0.0000 1.1896 0.0000 0.0000
# 5 0.0000 0.0000 0.0000 0.0000 12.5964 0.0000
# 6 0.0000 0.0000 0.0000 0.0000 0.0000 40.1617
#
#
#
# Elastic Compliance Matrix: (Units=1/GPa)
#
#
# Indices 1 2 3 4 5 6 
#
# 1 0.009463 -0.002329 -0.000990 0.000000 0.000000 0.000000
# 2 -0.002329 0.009278 -0.001919 0.000000 0.000000 0.000000
# 3 -0.000990 -0.001919 0.006931 0.000000 0.000000 0.000000
# 4 0.000000 0.000000 0.000000 0.840618 0.000000 0.000000
# 5 0.000000 0.000000 0.000000 0.000000 0.079388 0.000000
# 6 0.000000 0.000000 0.000000 0.000000 0.000000 0.024899
#
#
# Mechanical properties :
#
#
# Convention : Reuss Voigt Hill
#
# Bulk Modulus (GPa) = 65.80281 66.88673 66.34477
# Shear Modulus (GPa) = 5.07038 30.78935 17.92986
#
# Velocity S-wave (km/s) = 1.47239 3.62829 2.76879
# Velocity P-wave (km/s) = 5.57006 6.79346 6.21195
#
# Compressibility (1/GPa) = 0.01519692
#
# Stress axis : x y z
#
# Youngs Moduli (GPa) = 105.67098 107.78081 144.27760
#
# Poissons Ratio (x) = 0.25100 0.14287
# Poissons Ratio (y) = 0.24609 0.27683
# Poissons Ratio (z) = 0.10464 0.20680
#
# Static dielectric constant tensor:
#      x y z
#    x 1.870690 0.000000 0.000000 
#    y 0.000000 2.024450 0.000000 
#    z 0.000000 0.000000 1.827700 
# 
# From -- ./inp_files/16291.got.cif
#   From: 2010.05.17/outbox.cif.g08.bks.cpg/sg37_9_cif.got.tgz:16291.got - 2010.06.03 17:53:42.
