data_PCOD9353957
_publ_section_title
;
Structure prediction by ZEFSAII (Michael W. Deem and Ramdas Pophale) SiO2 
 PCOD9353957
Probable space group: C C C 2
;
_chemical_formula_sum "Si O2"
_cell_formula_units_Z 44
_cell_length_a 12.525286
_cell_length_b 14.802524
_cell_length_c 9.362022
_cell_angle_alpha 90.000000
_cell_angle_beta 90.000000
_cell_angle_gamma 90.000000
_cell_volume 1735.773615
_symmetry_space_group_name_H-M "C C C 2"
_symmetry_group_IT_number 37
_symmetry_cell_setting 'orthorhombic'
loop_
_space_group_symop_operation_xyz
x,y,z
-x,-y,z
-x,y,1/2+z
x,-y,1/2+z
1/2+x,1/2+y,z
1/2-x,1/2-y,z
1/2-x,1/2+y,1/2+z
1/2+x,1/2-y,1/2+z
loop_
_atom_site_type_symbol
_atom_site_label
_atom_site_fract_x
_atom_site_fract_y
_atom_site_fract_z
Si Si1 0.000000 0.000000 0.010770
Si Si2 0.356528 0.544818 0.263214
Si Si3 0.467640 0.767948 0.824550
Si Si4 0.590663 0.058578 0.434080
Si Si5 0.356530 0.693982 0.099124
Si Si6 0.311112 0.084137 0.216397
O O1 0.929486 0.057238 0.120169
O O2 0.078229 0.052670 0.906202
O O3 0.286714 0.627838 0.214218
O O4 0.307940 0.444885 0.260607
O O5 0.549949 0.729765 0.707266
O O6 0.367807 0.822470 0.753561
O O7 0.537477 0.847033 0.898589
O O8 0.419877 0.701242 0.944345
O O9 0.684727 0.069356 0.547083
O O10 0.500000 0.000000 0.513681
O O11 0.625476 0.994067 0.304370
O O12 0.250000 0.750000 0.054025
#
# Coordination Sequence:
#
# PCOD9353957 Si02
#       6
#     4   8   8   8   8   8
#     4  10  24  46  70  90 140 186 256 308 348 432
#     4  11  24  43  70 100 135 193 250 301 362 446
#     4  11  24  46  67 108 150 189 236 310 371 456
#     4  10  20  34  63  98 139 172 226 294 352 420
#     4  12  27  45  73 105 156 193 238 306 400 436
#     4  11  22  38  71 104 136 182 251 294 362 438
#
# _framework density 25.348927
#
# number of rings (size 3 to 8) (size 9 to 14) (size 15 to 20)
#    0.000    1.091    1.818    4.909   10.182    0.000 
#    0.000    0.909    0.000    0.000    0.000    0.000 
#    0.000    0.000    0.000    0.000    0.000    0.000 
#
# Total GULP energy -122497.680608 kJ/mol
# GULP energy per Si atom -5568.076391 kJ/mol
# Density = 2.529123 g / cm^3
# Si number density = 25.348927 Si / 1000 Ang^3
#
#
#
# Elastic Constant Matrix: (Units=GPa)
#
#
# Indices 1 2 3 4 5 6 
#
# 1 94.9243 25.3688 45.7493 0.0000 0.0000 0.0000
# 2 25.3688 77.6121 38.8974 0.0000 0.0000 0.0000
# 3 45.7493 38.8974 129.6217 0.0000 0.0000 0.0000
# 4 0.0000 0.0000 0.0000 22.7563 0.0000 0.0000
# 5 0.0000 0.0000 0.0000 0.0000 21.4511 0.0000
# 6 0.0000 0.0000 0.0000 0.0000 0.0000 37.5443
#
#
#
# Elastic Compliance Matrix: (Units=1/GPa)
#
#
# Indices 1 2 3 4 5 6 
#
# 1 0.013034 -0.002301 -0.003910 0.000000 0.000000 0.000000
# 2 -0.002301 0.015572 -0.003861 0.000000 0.000000 0.000000
# 3 -0.003910 -0.003861 0.010253 0.000000 0.000000 0.000000
# 4 0.000000 0.000000 0.000000 0.043944 0.000000 0.000000
# 5 0.000000 0.000000 0.000000 0.000000 0.046618 0.000000
# 6 0.000000 0.000000 0.000000 0.000000 0.000000 0.026635
#
#
# Mechanical properties :
#
#
# Convention : Reuss Voigt Hill
#
# Bulk Modulus (GPa) = 53.43018 58.02102 55.72560
# Shear Modulus (GPa) = 27.40673 29.15985 28.28329
#
# Velocity S-wave (km/s) = 3.29170 3.39534 3.34392
# Velocity P-wave (km/s) = 5.96411 6.18949 6.07785
#
# Compressibility (1/GPa) = 0.01871601
#
# Stress axis : x y z
#
# Youngs Moduli (GPa) = 76.72252 64.21969 97.53017
#
# Poissons Ratio (x) = 0.14776 0.38133
# Poissons Ratio (y) = 0.17653 0.37653
# Poissons Ratio (z) = 0.29997 0.24793
#
# Static dielectric constant tensor:
#      x y z
#    x 2.153810 0.000000 0.000000 
#    y 0.000000 2.190830 0.000000 
#    z 0.000000 0.000000 1.934340 
# 
# From -- ./inp_files/3458.got.cif
#   From: 2010.05.17/outbox.cif.g08.bks.cpg/sg37_2_cif.got.tgz:3458.got - 2010.06.03 17:53:42.
