data_PCOD9353260
_publ_section_title
;
Structure prediction by ZEFSAII (Michael W. Deem and Ramdas Pophale) SiO2 
 PCOD9353260
Probable space group: C M C 21
;
_chemical_formula_sum "Si O2"
_cell_formula_units_Z 40
_cell_length_a 24.171509
_cell_length_b 15.526966
_cell_length_c 4.992307
_cell_angle_alpha 90.000000
_cell_angle_beta 90.000000
_cell_angle_gamma 90.000000
_cell_volume 1873.663731
_symmetry_space_group_name_H-M "C M C 21"
_symmetry_group_IT_number 36
_symmetry_cell_setting 'orthorhombic'
loop_
_space_group_symop_operation_xyz
x,y,z
-x,-y,1/2+z
x,-y,1/2+z
-x,y,z
1/2+x,1/2+y,z
1/2-x,1/2-y,1/2+z
1/2+x,1/2-y,1/2+z
1/2-x,1/2+y,z
loop_
_atom_site_type_symbol
_atom_site_label
_atom_site_fract_x
_atom_site_fract_y
_atom_site_fract_z
Si Si1 0.596279 0.704508 0.198200
Si Si2 0.302937 0.058379 0.065388
Si Si3 0.500000 0.056182 0.256851
Si Si4 0.500000 0.563569 0.200800
Si Si5 0.404807 0.182732 0.181539
Si Si6 0.225787 0.200281 0.249540
O O1 0.554487 0.624490 0.203986
O O2 0.573704 0.775539 0.406948
O O3 0.660049 0.692534 0.290007
O O4 0.600922 0.742647 0.900195
O O5 0.349515 0.129877 0.119378
O O6 0.247326 0.109349 0.136855
O O7 0.308107 0.978391 0.267973
O O8 0.446785 0.113976 0.301942
O O9 0.500000 0.023889 0.953592
O O10 0.500000 0.497900 0.445553
O O11 0.256627 0.229526 0.522620
#
# Coordination Sequence:
#
# PCOD9353260 Si02
#       6
#     8   8   4   4   8   8
#     4  12  24  45  73  96 133 182 228 281 341 407
#     4  12  24  39  63  98 133 170 215 280 341 387
#     4  12  24  40  60  94 134 174 214 266 328 394
#     4  12  28  48  72 106 140 176 236 304 348 394
#     4  12  23  42  67  96 133 176 227 266 331 420
#     4  12  23  44  67  98 134 181 233 280 333 422
#
# _framework density 21.348548000000001
#
# number of rings (size 3 to 8) (size 9 to 14) (size 15 to 20)
#    0.000    0.000    4.000    7.200    0.000    1.600 
#    0.000    0.000    0.000    0.000    0.000    0.000 
#    0.000    0.000    0.000    0.000    0.000    0.000 
#
# Total GULP energy -111936.988524 kJ/mol
# GULP energy per Si atom -5596.849426 kJ/mol
# Density = 2.129996 g / cm^3
# Si number density = 21.348548 Si / 1000 Ang^3
#
#
#
# Elastic Constant Matrix: (Units=GPa)
#
#
# Indices 1 2 3 4 5 6 
#
# 1 116.0482 44.6513 -7.7571 0.0000 0.0000 0.0000
# 2 44.6513 101.7240 14.9388 0.0000 0.0000 0.0000
# 3 -7.7571 14.9388 79.5003 0.0000 0.0000 0.0000
# 4 0.0000 0.0000 0.0000 53.7592 0.0000 0.0000
# 5 0.0000 0.0000 0.0000 0.0000 18.5110 0.0000
# 6 0.0000 0.0000 0.0000 0.0000 0.0000 34.8328
#
#
#
# Elastic Compliance Matrix: (Units=1/GPa)
#
#
# Indices 1 2 3 4 5 6 
#
# 1 0.010661 -0.004970 0.001974 0.000000 0.000000 0.000000
# 2 -0.004970 0.012426 -0.002820 0.000000 0.000000 0.000000
# 3 0.001974 -0.002820 0.013301 0.000000 0.000000 0.000000
# 4 0.000000 0.000000 0.000000 0.018601 0.000000 0.000000
# 5 0.000000 0.000000 0.000000 0.000000 0.054022 0.000000
# 6 0.000000 0.000000 0.000000 0.000000 0.000000 0.028709
#
#
# Mechanical properties :
#
#
# Convention : Reuss Voigt Hill
#
# Bulk Modulus (GPa) = 40.39176 44.54872 42.47024
# Shear Modulus (GPa) = 31.72518 37.78324 34.75421
#
# Velocity S-wave (km/s) = 3.85912 4.21150 4.03915
# Velocity P-wave (km/s) = 6.23044 6.67544 6.45678
#
# Compressibility (1/GPa) = 0.02475753
#
# Stress axis : x y z
#
# Youngs Moduli (GPa) = 93.79815 80.47630 75.18202
#
# Poissons Ratio (x) = 0.39993 -0.14841
# Poissons Ratio (y) = 0.46614 0.21200
# Poissons Ratio (z) = -0.18516 0.22693
#
# Static dielectric constant tensor:
#      x y z
#    x 1.740450 0.000000 0.000000 
#    y 0.000000 1.732490 0.000000 
#    z 0.000000 0.000000 1.729870 
# 
# From -- ./inp_files/1546.got.cif
#   From: 2010.05.17/outbox.cif.g08.bks.cpg/sg36_1_cif.got.tgz:1546.got - 2010.06.03 17:41:39.
