data_PCOD9353702
_publ_section_title
;
Structure prediction by ZEFSAII (Michael W. Deem and Ramdas Pophale) SiO2 
 PCOD9353702
Probable space group: C C C 2
;
_chemical_formula_sum "Si O2"
_cell_formula_units_Z 64
_cell_length_a 34.172594
_cell_length_b 15.910524
_cell_length_c 5.149936
_cell_angle_alpha 90.000000
_cell_angle_beta 90.000000
_cell_angle_gamma 90.000000
_cell_volume 2800.040169
_symmetry_space_group_name_H-M "C C C 2"
_symmetry_group_IT_number 37
_symmetry_cell_setting 'orthorhombic'
loop_
_space_group_symop_operation_xyz
x,y,z
-x,-y,z
-x,y,1/2+z
x,-y,1/2+z
1/2+x,1/2+y,z
1/2-x,1/2-y,z
1/2-x,1/2+y,1/2+z
1/2+x,1/2-y,1/2+z
loop_
_atom_site_type_symbol
_atom_site_label
_atom_site_fract_x
_atom_site_fract_y
_atom_site_fract_z
Si Si1 0.138215 0.684341 0.553920
Si Si2 0.169353 0.106768 0.557278
Si Si3 0.017040 0.697028 0.436312
Si Si4 0.188935 0.700221 0.067287
Si Si5 0.570727 0.052677 0.629320
Si Si6 0.527063 0.612861 0.050114
Si Si7 0.754976 0.551150 0.485929
Si Si8 0.383223 0.377920 0.044941
O O1 0.168491 0.667211 0.325566
O O2 0.107929 0.609497 0.570174
O O3 0.118195 0.775748 0.504956
O O4 0.160897 0.688047 0.822821
O O5 0.188820 0.199257 0.601272
O O6 0.207776 0.052878 0.499321
O O7 0.139709 0.108997 0.314569
O O8 0.143298 0.086758 0.810083
O O9 0.035745 0.614600 0.556443
O O10 0.032759 0.786017 0.538310
O O11 0.978309 0.697716 0.624672
O O12 0.227163 0.644346 0.017124
O O13 0.569598 0.977043 0.424577
O O14 0.499097 0.592771 0.803829
O O15 0.572511 0.584665 0.046652
O O16 0.768184 0.508992 0.219150
#
# Coordination Sequence:
#
# PCOD9353702 Si02
#       8
#     8   8   8   8   8   8   8   8
#     4  10  21  37  53  79 104 144 195 243 293 336
#     4  10  22  39  63  89 118 160 201 241 284 354
#     4  10  21  35  49  66  95 134 182 235 289 342
#     4  10  22  39  63  82 115 156 198 242 289 347
#     4  12  24  34  48  67  98 139 190 244 283 345
#     4  10  19  32  55  83 113 145 182 239 300 345
#     4  12  25  41  62  91 126 155 193 244 299 350
#     4  10  19  37  60  83 116 149 192 238 291 346
#
# _framework density 22.856815999999998
#
# number of rings (size 3 to 8) (size 9 to 14) (size 15 to 20)
#    0.000    1.500    1.250    4.125    0.000    4.500 
#    0.000    5.000    0.000    0.000    0.000    0.000 
#    0.000   35.000    0.000    0.000    0.000    0.000 
#
# Total GULP energy -178663.559939 kJ/mol
# GULP energy per Si atom -5583.236248 kJ/mol
# Density = 2.280479 g / cm^3
# Si number density = 22.856816 Si / 1000 Ang^3
#
#
#
# Elastic Constant Matrix: (Units=GPa)
#
#
# Indices 1 2 3 4 5 6 
#
# 1 107.4194 9.2177 10.8760 0.0000 0.0000 0.0000
# 2 9.2177 73.8060 -15.2068 0.0000 0.0000 0.0000
# 3 10.8760 -15.2068 87.7896 0.0000 0.0000 0.0000
# 4 0.0000 0.0000 0.0000 29.6032 0.0000 0.0000
# 5 0.0000 0.0000 0.0000 0.0000 12.0083 0.0000
# 6 0.0000 0.0000 0.0000 0.0000 0.0000 36.0040
#
#
#
# Elastic Compliance Matrix: (Units=1/GPa)
#
#
# Indices 1 2 3 4 5 6 
#
# 1 0.009584 -0.001495 -0.001446 0.000000 0.000000 0.000000
# 2 -0.001495 0.014284 0.002659 0.000000 0.000000 0.000000
# 3 -0.001446 0.002659 0.012031 0.000000 0.000000 0.000000
# 4 0.000000 0.000000 0.000000 0.033780 0.000000 0.000000
# 5 0.000000 0.000000 0.000000 0.000000 0.083276 0.000000
# 6 0.000000 0.000000 0.000000 0.000000 0.000000 0.027775
#
#
# Mechanical properties :
#
#
# Convention : Reuss Voigt Hill
#
# Bulk Modulus (GPa) = 28.30075 30.97653 29.63864
# Shear Modulus (GPa) = 25.89720 33.13165 29.51443
#
# Velocity S-wave (km/s) = 3.36969 3.81140 3.59733
# Velocity P-wave (km/s) = 5.24865 5.74029 5.49996
#
# Compressibility (1/GPa) = 0.03533475
#
# Stress axis : x y z
#
# Youngs Moduli (GPa) = 104.34038 70.00998 83.12069
#
# Poissons Ratio (x) = 0.10466 0.12022
# Poissons Ratio (y) = 0.15598 -0.22105
# Poissons Ratio (z) = 0.15091 -0.18618
#
# Static dielectric constant tensor:
#      x y z
#    x 1.897950 0.000000 0.000000 
#    y 0.000000 1.867480 0.000000 
#    z 0.000000 0.000000 1.890790 
# 
# From -- ./inp_files/1505.got.cif
#   From: 2010.05.17/outbox.cif.g08.bks.cpg/sg37_1_cif.got.tgz:1505.got - 2010.06.03 17:53:42.
