data_PCOD9353038
_publ_section_title
;
Structure prediction by ZEFSAII (Michael W. Deem and Ramdas Pophale) SiO2 
 PCOD9353038
Probable space group: C M C 21
;
_chemical_formula_sum "Si O2"
_cell_formula_units_Z 48
_cell_length_a 28.217906
_cell_length_b 8.324956
_cell_length_c 8.245283
_cell_angle_alpha 90.000000
_cell_angle_beta 90.000000
_cell_angle_gamma 90.000000
_cell_volume 1936.922730
_symmetry_space_group_name_H-M "C M C 21"
_symmetry_group_IT_number 36
_symmetry_cell_setting 'orthorhombic'
loop_
_space_group_symop_operation_xyz
x,y,z
-x,-y,1/2+z
x,-y,1/2+z
-x,y,z
1/2+x,1/2+y,z
1/2-x,1/2-y,1/2+z
1/2+x,1/2-y,1/2+z
1/2-x,1/2+y,z
loop_
_atom_site_type_symbol
_atom_site_label
_atom_site_fract_x
_atom_site_fract_y
_atom_site_fract_z
Si Si1 0.392838 0.949803 0.972600
Si Si2 0.000000 0.574221 0.542013
Si Si3 0.897160 0.194973 0.421860
Si Si4 0.742665 0.320808 0.415122
Si Si5 0.209384 0.451138 0.114011
Si Si6 0.137582 0.131560 0.780801
Si Si7 0.500000 0.233879 0.842701
O O1 0.345583 0.957316 0.079029
O O2 0.388530 0.780845 0.874213
O O3 0.389466 0.118986 0.876856
O O4 0.443093 0.957873 0.065723
O O5 0.000000 0.463006 0.372575
O O6 0.000000 0.742385 0.646868
O O7 0.870194 0.167833 0.591755
O O8 0.954297 0.190356 0.426794
O O9 0.882161 0.047453 0.309563
O O10 0.763205 0.383706 0.587881
O O11 0.733667 0.138229 0.461445
O O12 0.691246 0.374675 0.348772
O O13 0.780712 0.360953 0.279447
#
# Coordination Sequence:
#
# PCOD9353038 Si02
#       7
#     8   4   8   8   8   8   4
#     4  10  27  46  79 107 145 199 249 301 382 439
#     4  10  24  47  73 108 149 186 245 311 365 440
#     4  11  27  46  74 106 151 189 252 303 373 440
#     4  11  25  44  67 105 142 190 239 303 363 435
#     4  11  25  44  72 103 144 190 245 300 371 443
#     4  11  27  48  72 110 147 199 245 311 365 445
#     4  10  26  45  75 110 141 198 243 311 373 444
#
# _framework density 24.781578
#
# number of rings (size 3 to 8) (size 9 to 14) (size 15 to 20)
#    0.000    1.333    0.000    2.000   21.000    2.667 
#    0.000    0.000    0.000    0.000    0.000    0.000 
#    0.000    0.000    0.000    0.000    0.000    0.000 
#
# Total GULP energy -133686.904436 kJ/mol
# GULP energy per Si atom -5570.287685 kJ/mol
# Density = 2.472517 g / cm^3
# Si number density = 24.781578 Si / 1000 Ang^3
#
#
#
# Elastic Constant Matrix: (Units=GPa)
#
#
# Indices 1 2 3 4 5 6 
#
# 1 119.5997 44.9249 21.8484 0.0000 0.0000 0.0000
# 2 44.9249 80.9618 36.6999 0.0000 0.0000 0.0000
# 3 21.8484 36.6999 77.4213 0.0000 0.0000 0.0000
# 4 0.0000 0.0000 0.0000 16.6036 0.0000 0.0000
# 5 0.0000 0.0000 0.0000 0.0000 36.1742 0.0000
# 6 0.0000 0.0000 0.0000 0.0000 0.0000 2.4587
#
#
#
# Elastic Compliance Matrix: (Units=1/GPa)
#
#
# Indices 1 2 3 4 5 6 
#
# 1 0.010567 -0.005747 -0.000258 0.000000 0.000000 0.000000
# 2 -0.005747 0.018857 -0.007317 0.000000 0.000000 0.000000
# 3 -0.000258 -0.007317 0.016458 0.000000 0.000000 0.000000
# 4 0.000000 0.000000 0.000000 0.060228 0.000000 0.000000
# 5 0.000000 0.000000 0.000000 0.000000 0.027644 0.000000
# 6 0.000000 0.000000 0.000000 0.000000 0.000000 0.406717
#
#
# Mechanical properties :
#
#
# Convention : Reuss Voigt Hill
#
# Bulk Modulus (GPa) = 51.97939 53.88102 52.93020
# Shear Modulus (GPa) = 8.71799 22.68127 15.69963
#
# Velocity S-wave (km/s) = 1.87765 3.02859 2.51971
# Velocity P-wave (km/s) = 5.07162 5.83261 5.46538
#
# Compressibility (1/GPa) = 0.01923839
#
# Stress axis : x y z
#
# Youngs Moduli (GPa) = 94.63513 53.03065 60.76197
#
# Poissons Ratio (x) = 0.30474 0.01568
# Poissons Ratio (y) = 0.54382 0.44460
# Poissons Ratio (z) = 0.02441 0.38803
#
# Static dielectric constant tensor:
#      x y z
#    x 2.015330 0.000000 0.000000 
#    y 0.000000 2.028160 0.000000 
#    z 0.000000 0.000000 2.023210 
# 
# From -- ./inp_files/6031.got.cif
#   From: 2010.05.17/outbox.cif.g08.bks.cpg/sg36_4_cif.got.tgz:6031.got - 2010.06.03 17:41:39.
