data_PCOD9353822
_publ_section_title
;
Structure prediction by ZEFSAII (Michael W. Deem and Ramdas Pophale) SiO2 
 PCOD9353822
Probable space group: C C C 2
;
_chemical_formula_sum "Si O2"
_cell_formula_units_Z 44
_cell_length_a 17.016914
_cell_length_b 11.483635
_cell_length_c 9.299515
_cell_angle_alpha 90.000000
_cell_angle_beta 90.000000
_cell_angle_gamma 90.000000
_cell_volume 1817.274295
_symmetry_space_group_name_H-M "C C C 2"
_symmetry_group_IT_number 37
_symmetry_cell_setting 'orthorhombic'
loop_
_space_group_symop_operation_xyz
x,y,z
-x,-y,z
-x,y,1/2+z
x,-y,1/2+z
1/2+x,1/2+y,z
1/2-x,1/2-y,z
1/2-x,1/2+y,1/2+z
1/2+x,1/2-y,1/2+z
loop_
_atom_site_type_symbol
_atom_site_label
_atom_site_fract_x
_atom_site_fract_y
_atom_site_fract_z
Si Si1 0.660782 0.225957 0.422220
Si Si2 0.250000 0.250000 0.473208
Si Si3 0.404394 0.765357 0.133539
Si Si4 0.566886 0.419006 0.940990
Si Si5 0.837154 0.079341 0.653996
Si Si6 0.679966 0.973664 0.524974
O O1 0.750000 0.250000 0.365845
O O2 0.598029 0.262522 0.301116
O O3 0.660347 0.298623 0.568672
O O4 0.651592 0.089312 0.448529
O O5 0.321971 0.285845 0.574023
O O6 0.213855 0.371860 0.417224
O O7 0.461308 0.698351 0.024527
O O8 0.388829 0.902478 0.106745
O O9 0.500000 0.500000 0.875104
O O10 0.629958 0.400195 0.813559
O O11 0.602815 0.498649 0.066743
O O12 0.751796 0.019484 0.625821
#
# Coordination Sequence:
#
# PCOD9353822 Si02
#       6
#     8   4   8   8   8   8
#     4  10  20  35  58  96 136 175 215 275 354 430
#     4   8  16  34  56  92 130 170 202 268 348 400
#     4  10  19  37  60  86 131 172 224 278 348 402
#     4  12  25  42  62  90 128 186 241 287 330 409
#     4  11  23  38  60  91 133 174 233 278 344 415
#     4   9  19  34  59  98 132 171 205 278 357 412
#
# _framework density 24.212084999999998
#
# number of rings (size 3 to 8) (size 9 to 14) (size 15 to 20)
#    1.091    0.727    2.727    1.636    5.091    1.455 
#   11.455    0.909    0.000    1.091    0.000    7.636 
#    0.000    0.000    0.000    0.000    0.000    0.000 
#
# Total GULP energy -122506.508288 kJ/mol
# GULP energy per Si atom -5568.477649 kJ/mol
# Density = 2.415698 g / cm^3
# Si number density = 24.212085 Si / 1000 Ang^3
#
#
#
# Elastic Constant Matrix: (Units=GPa)
#
#
# Indices 1 2 3 4 5 6 
#
# 1 39.8004 15.3941 29.8863 0.0000 0.0000 0.0000
# 2 15.3941 186.6263 63.5994 0.0000 0.0000 0.0000
# 3 29.8863 63.5994 159.4852 0.0000 0.0000 0.0000
# 4 0.0000 0.0000 0.0000 23.3879 0.0000 0.0000
# 5 0.0000 0.0000 0.0000 0.0000 26.1799 0.0000
# 6 0.0000 0.0000 0.0000 0.0000 0.0000 18.6027
#
#
#
# Elastic Compliance Matrix: (Units=1/GPa)
#
#
# Indices 1 2 3 4 5 6 
#
# 1 0.029304 -0.000632 -0.005239 0.000000 0.000000 0.000000
# 2 -0.000632 0.006215 -0.002360 0.000000 0.000000 0.000000
# 3 -0.005239 -0.002360 0.008193 0.000000 0.000000 0.000000
# 4 0.000000 0.000000 0.000000 0.042757 0.000000 0.000000
# 5 0.000000 0.000000 0.000000 0.000000 0.038197 0.000000
# 6 0.000000 0.000000 0.000000 0.000000 0.000000 0.053756
#
#
# Mechanical properties :
#
#
# Convention : Reuss Voigt Hill
#
# Bulk Modulus (GPa) = 36.69761 67.07460 51.88610
# Shear Modulus (GPa) = 24.51379 32.10292 28.30835
#
# Velocity S-wave (km/s) = 3.18537 3.64525 3.42304
# Velocity P-wave (km/s) = 5.35896 6.74390 6.09092
#
# Compressibility (1/GPa) = 0.02724973
#
# Stress axis : x y z
#
# Youngs Moduli (GPa) = 34.12501 160.91084 122.05417
#
# Poissons Ratio (x) = 0.10164 0.63950
# Poissons Ratio (y) = 0.02155 0.28804
# Poissons Ratio (z) = 0.17880 0.37973
#
# Static dielectric constant tensor:
#      x y z
#    x 2.017580 0.000000 0.000000 
#    y 0.000000 2.037360 0.000000 
#    z 0.000000 0.000000 1.946390 
# 
# From -- ./inp_files/4571.got.cif
#   From: 2010.05.17/outbox.cif.g08.bks.cpg/sg37_3_cif.got.tgz:4571.got - 2010.06.03 17:53:42.
