data_PCOD9353238
_publ_section_title
;
Structure prediction by ZEFSAII (Michael W. Deem and Ramdas Pophale) SiO2 
 PCOD9353238
Probable space group: C M C 21
;
_chemical_formula_sum "Si O2"
_cell_formula_units_Z 40
_cell_length_a 15.447073
_cell_length_b 9.431048
_cell_length_c 12.678001
_cell_angle_alpha 90.000000
_cell_angle_beta 90.000000
_cell_angle_gamma 90.000000
_cell_volume 1846.957644
_symmetry_space_group_name_H-M "C M C 21"
_symmetry_group_IT_number 36
_symmetry_cell_setting 'orthorhombic'
loop_
_space_group_symop_operation_xyz
x,y,z
-x,-y,1/2+z
x,-y,1/2+z
-x,y,z
1/2+x,1/2+y,z
1/2-x,1/2-y,1/2+z
1/2+x,1/2-y,1/2+z
1/2-x,1/2+y,z
loop_
_atom_site_type_symbol
_atom_site_label
_atom_site_fract_x
_atom_site_fract_y
_atom_site_fract_z
Si Si1 0.821347 0.619966 0.621840
Si Si2 0.095484 0.809124 0.244389
Si Si3 0.903737 0.633354 0.030118
Si Si4 0.177300 0.918042 0.732235
Si Si5 0.747993 0.260010 0.907166
O O1 0.898832 0.521047 0.583373
O O2 0.836953 0.756686 0.694637
O O3 0.753106 0.506782 0.672160
O O4 0.786612 0.691815 0.516712
O O5 0.111883 0.737059 0.130646
O O6 0.173766 0.779405 0.326494
O O7 0.000000 0.762537 0.281463
O O8 0.097497 0.977101 0.225028
O O9 0.000000 0.661397 0.987858
O O10 0.829164 0.652879 0.942033
O O11 0.203688 0.895389 0.852894
#
# Coordination Sequence:
#
# PCOD9353238 Si02
#       5
#     8   8   8   8   8
#     4  12  23  42  69 105 138 191 237 291 353 434
#     4  11  25  46  70 105 146 185 238 300 357 423
#     4  11  25  46  70 105 146 185 238 300 357 423
#     4  12  23  42  69 105 138 191 237 291 353 434
#     4  12  22  42  76  96 144 196 234 292 362 418
#
# _framework density 21.657236000000001
#
# number of rings (size 3 to 8) (size 9 to 14) (size 15 to 20)
#    0.000    0.400    8.000    1.200    0.000    2.400 
#    0.000    4.000    0.000    1.200    0.000    0.000 
#    0.000    0.000    0.000    0.000    0.000    0.000 
#
# Total GULP energy -111511.323250 kJ/mol
# GULP energy per Si atom -5575.566162 kJ/mol
# Density = 2.160794 g / cm^3
# Si number density = 21.657236 Si / 1000 Ang^3
#
#
#
# Elastic Constant Matrix: (Units=GPa)
#
#
# Indices 1 2 3 4 5 6 
#
# 1 132.0905 27.4176 29.3106 0.0000 0.0000 0.0000
# 2 27.4176 94.9326 -7.8026 0.0000 0.0000 0.0000
# 3 29.3106 -7.8026 53.0230 0.0000 0.0000 0.0000
# 4 0.0000 0.0000 0.0000 31.1763 0.0000 0.0000
# 5 0.0000 0.0000 0.0000 0.0000 29.5185 0.0000
# 6 0.0000 0.0000 0.0000 0.0000 0.0000 6.2374
#
#
#
# Elastic Compliance Matrix: (Units=1/GPa)
#
#
# Indices 1 2 3 4 5 6 
#
# 1 0.009510 -0.003218 -0.005731 0.000000 0.000000 0.000000
# 2 -0.003218 0.011751 0.003508 0.000000 0.000000 0.000000
# 3 -0.005731 0.003508 0.022544 0.000000 0.000000 0.000000
# 4 0.000000 0.000000 0.000000 0.032076 0.000000 0.000000
# 5 0.000000 0.000000 0.000000 0.000000 0.033877 0.000000
# 6 0.000000 0.000000 0.000000 0.000000 0.000000 0.160323
#
#
# Mechanical properties :
#
#
# Convention : Reuss Voigt Hill
#
# Bulk Modulus (GPa) = 30.37230 41.98859 36.18044
# Shear Modulus (GPa) = 17.12704 28.79448 22.96076
#
# Velocity S-wave (km/s) = 2.81521 3.65026 3.25959
# Velocity P-wave (km/s) = 4.96203 6.09883 5.55956
#
# Compressibility (1/GPa) = 0.03292474
#
# Stress axis : x y z
#
# Youngs Moduli (GPa) = 105.15216 85.09635 44.35826
#
# Poissons Ratio (x) = 0.27381 0.25420
# Poissons Ratio (y) = 0.33834 -0.15561
# Poissons Ratio (z) = 0.60258 -0.29851
#
# Static dielectric constant tensor:
#      x y z
#    x 1.829980 0.000000 0.000000 
#    y 0.000000 1.853670 0.000000 
#    z 0.000000 0.000000 1.776110 
# 
# From -- ./inp_files/8775.got.cif
#   From: 2010.05.17/outbox.cif.g08.bks.cpg/sg36_5_cif.got.tgz:8775.got - 2010.06.03 17:41:39.
