data_PCOD9353436
_publ_section_title
;
Structure prediction by ZEFSAII (Michael W. Deem and Ramdas Pophale) SiO2 
 PCOD9353436
Probable space group: C C C 2
;
_chemical_formula_sum "Si O2"
_cell_formula_units_Z 56
_cell_length_a 22.411258
_cell_length_b 20.242300
_cell_length_c 5.586425
_cell_angle_alpha 90.000000
_cell_angle_beta 90.000000
_cell_angle_gamma 90.000000
_cell_volume 2534.311912
_symmetry_space_group_name_H-M "C C C 2"
_symmetry_group_IT_number 37
_symmetry_cell_setting 'orthorhombic'
loop_
_space_group_symop_operation_xyz
x,y,z
-x,-y,z
-x,y,1/2+z
x,-y,1/2+z
1/2+x,1/2+y,z
1/2-x,1/2-y,z
1/2-x,1/2+y,1/2+z
1/2+x,1/2-y,1/2+z
loop_
_atom_site_type_symbol
_atom_site_label
_atom_site_fract_x
_atom_site_fract_y
_atom_site_fract_z
Si Si1 0.821925 0.247706 0.061460
Si Si2 0.337220 0.957707 0.061343
Si Si3 0.975388 0.423988 0.061361
Si Si4 0.788861 0.098706 0.061455
Si Si5 0.977548 0.075290 0.561339
Si Si6 0.677604 0.747563 0.061463
Si Si7 0.338801 0.409454 0.061453
O O1 0.750000 0.250000 0.061456
O O2 0.825936 0.167882 0.061474
O O3 0.844558 0.276157 0.311089
O O4 0.844560 0.276155 0.811835
O O5 0.403750 0.927983 0.061355
O O6 0.283105 0.904392 0.061354
O O7 0.331739 0.000004 0.311336
O O8 0.000000 0.500000 0.061363
O O9 0.999999 0.394480 0.311362
O O10 0.807647 0.069189 0.316047
O O11 0.807691 0.069175 0.806935
O O12 0.906914 0.070602 0.561334
O O13 0.999998 0.106576 0.811342
O O14 0.000000 0.000000 0.561345
O O15 0.750000 0.750000 0.061462
O O16 0.663408 0.670265 0.061479
#
# Coordination Sequence:
#
# PCOD9353436 Si02
#       7
#     8   8   8   8   8   8   8
#     4   8  14  27  46  66  96 123 147 187 233 301
#     4  12  21  33  45  69 102 133 167 206 243 293
#     4  10  16  30  49  62  83 125 175 202 226 267
#     4  10  21  33  47  76 103 127 164 201 266 324
#     4  10  21  38  53  68  90 134 190 226 250 293
#     4   8  14  25  47  74  96 117 146 185 245 313
#     4  10  19  36  52  69 103 131 162 213 263 313
#
# _framework density 22.096727999999999
#
# number of rings (size 3 to 8) (size 9 to 14) (size 15 to 20)
#    0.000    2.286    2.857    1.714    0.000    0.000 
#   15.429    0.000    0.000    0.000    0.000    0.000 
#    0.000  109.714    0.000    0.000    0.000    0.000 
#
# Total GULP energy -155954.742735 kJ/mol
# GULP energy per Si atom -5569.812241 kJ/mol
# Density = 2.204643 g / cm^3
# Si number density = 22.096728 Si / 1000 Ang^3
#
#
#
# Elastic Constant Matrix: (Units=GPa)
#
#
# Indices 1 2 3 4 5 6 
#
# 1 152.3881 7.0032 51.5171 0.0000 0.0000 0.0000
# 2 7.0032 23.2365 6.3988 0.0000 0.0000 0.0000
# 3 51.5171 6.3988 311.2669 0.0000 0.0000 0.0000
# 4 0.0000 0.0000 0.0000 38.2534 0.0000 0.0000
# 5 0.0000 0.0000 0.0000 0.0000 24.7050 0.0000
# 6 0.0000 0.0000 0.0000 0.0000 0.0000 192.4140
#
#
#
# Elastic Compliance Matrix: (Units=1/GPa)
#
#
# Indices 1 2 3 4 5 6 
#
# 1 0.007026 -0.001808 -0.001126 0.000000 0.000000 0.000000
# 2 -0.001808 0.043746 -0.000600 0.000000 0.000000 0.000000
# 3 -0.001126 -0.000600 0.003411 0.000000 0.000000 0.000000
# 4 0.000000 0.000000 0.000000 0.026141 0.000000 0.000000
# 5 0.000000 0.000000 0.000000 0.000000 0.040478 0.000000
# 6 0.000000 0.000000 0.000000 0.000000 0.000000 0.005197
#
#
# Mechanical properties :
#
#
# Convention : Reuss Voigt Hill
#
# Bulk Modulus (GPa) = 21.22408 68.52551 44.87479
# Shear Modulus (GPa) = 33.60866 79.20598 56.40732
#
# Velocity S-wave (km/s) = 3.90420 5.99357 5.05795
# Velocity P-wave (km/s) = 5.47263 8.88685 7.37990
#
# Compressibility (1/GPa) = 0.04711630
#
# Stress axis : x y z
#
# Youngs Moduli (GPa) = 142.33243 22.85935 293.14158
#
# Poissons Ratio (x) = 0.04132 0.32998
# Poissons Ratio (y) = 0.25727 0.17592
# Poissons Ratio (z) = 0.16022 0.01372
#
# Static dielectric constant tensor:
#      x y z
#    x 1.742690 0.000000 0.000000 
#    y 0.000000 1.913610 0.000000 
#    z 0.000000 0.000000 1.934300 
# 
# From -- ./inp_files/1042.got.cif
#   From: 2010.05.17/outbox.cif.g08.bks.cpg/sg37_1_cif.got.tgz:1042.got - 2010.06.03 17:53:42.
