data_PCOD9353067
_publ_section_title
;
Structure prediction by ZEFSAII (Michael W. Deem and Ramdas Pophale) SiO2 
 PCOD9353067
Probable space group: C M C 21
;
_chemical_formula_sum "Si O2"
_cell_formula_units_Z 48
_cell_length_a 15.721813
_cell_length_b 17.423160
_cell_length_c 8.441322
_cell_angle_alpha 90.000000
_cell_angle_beta 90.000000
_cell_angle_gamma 90.000000
_cell_volume 2312.277846
_symmetry_space_group_name_H-M "C M C 21"
_symmetry_group_IT_number 36
_symmetry_cell_setting 'orthorhombic'
loop_
_space_group_symop_operation_xyz
x,y,z
-x,-y,1/2+z
x,-y,1/2+z
-x,y,z
1/2+x,1/2+y,z
1/2-x,1/2-y,1/2+z
1/2+x,1/2-y,1/2+z
1/2-x,1/2+y,z
loop_
_atom_site_type_symbol
_atom_site_label
_atom_site_fract_x
_atom_site_fract_y
_atom_site_fract_z
Si Si1 0.650350 0.529795 0.060210
Si Si2 0.246088 0.135605 0.854854
Si Si3 0.660000 0.011876 0.683960
Si Si4 0.403864 0.884275 0.908201
Si Si5 0.256971 0.288362 0.012147
Si Si6 0.593439 0.385798 0.873204
O O1 0.745397 0.505170 0.116160
O O2 0.607461 0.575020 0.202828
O O3 0.665913 0.585590 0.910748
O O4 0.603303 0.454346 0.000477
O O5 0.321433 0.075284 0.820523
O O6 0.262501 0.197543 0.991052
O O7 0.233894 0.181907 0.691600
O O8 0.605174 0.054858 0.552517
O O9 0.621433 0.934916 0.755717
O O10 0.500000 0.855172 0.897522
O O11 0.332935 0.820319 0.945962
O O12 0.331535 0.326859 0.909598
O O13 0.500000 0.350804 0.882780
#
# Coordination Sequence:
#
# PCOD9353067 Si02
#       6
#     8   8   8   8   8   8
#     4  12  19  41  65  92 123 165 220 261 317 368
#     4  11  22  39  70  89 125 175 203 260 322 375
#     4  11  19  39  65  91 121 162 212 258 304 363
#     4  11  22  38  63  93 125 162 206 257 310 368
#     4  11  23  42  61  93 131 168 209 254 320 389
#     4  12  23  39  64  94 129 168 214 266 317 377
#
# _framework density 20.758751
#
# number of rings (size 3 to 8) (size 9 to 14) (size 15 to 20)
#    0.000    0.667    8.333    2.000    0.000    0.000 
#    0.000   10.833    0.000    0.000    0.000    0.000 
#    0.000    0.000    0.000    0.000    0.000    0.000 
#
# Total GULP energy -134157.348363 kJ/mol
# GULP energy per Si atom -5589.889515 kJ/mol
# Density = 2.071150 g / cm^3
# Si number density = 20.758751 Si / 1000 Ang^3
#
#
#
# Elastic Constant Matrix: (Units=GPa)
#
#
# Indices 1 2 3 4 5 6 
#
# 1 130.1644 11.6879 15.5793 0.0000 0.0000 0.0000
# 2 11.6879 58.1493 1.2187 0.0000 0.0000 0.0000
# 3 15.5793 1.2187 46.0230 0.0000 0.0000 0.0000
# 4 0.0000 0.0000 0.0000 42.9868 0.0000 0.0000
# 5 0.0000 0.0000 0.0000 0.0000 17.5626 0.0000
# 6 0.0000 0.0000 0.0000 0.0000 0.0000 2.0796
#
#
#
# Elastic Compliance Matrix: (Units=1/GPa)
#
#
# Indices 1 2 3 4 5 6 
#
# 1 0.008150 -0.001581 -0.002717 0.000000 0.000000 0.000000
# 2 -0.001581 0.017513 0.000071 0.000000 0.000000 0.000000
# 3 -0.002717 0.000071 0.022646 0.000000 0.000000 0.000000
# 4 0.000000 0.000000 0.000000 0.023263 0.000000 0.000000
# 5 0.000000 0.000000 0.000000 0.000000 0.056939 0.000000
# 6 0.000000 0.000000 0.000000 0.000000 0.000000 0.480860
#
#
# Mechanical properties :
#
#
# Convention : Reuss Voigt Hill
#
# Bulk Modulus (GPa) = 25.09029 32.36762 28.72895
# Shear Modulus (GPa) = 7.92255 26.24918 17.08586
#
# Velocity S-wave (km/s) = 1.95570 3.55982 2.87203
# Velocity P-wave (km/s) = 4.14880 5.70286 4.98674
#
# Compressibility (1/GPa) = 0.03985606
#
# Stress axis : x y z
#
# Youngs Moduli (GPa) = 122.70312 57.09907 44.15778
#
# Poissons Ratio (x) = 0.09028 0.11997
# Poissons Ratio (y) = 0.19401 -0.00316
# Poissons Ratio (z) = 0.33337 -0.00408
#
# Static dielectric constant tensor:
#      x y z
#    x 1.726890 0.000000 0.000000 
#    y 0.000000 1.740610 0.000000 
#    z 0.000000 0.000000 1.798780 
# 
# From -- ./inp_files/3994.got.cif
#   From: 2010.05.17/outbox.cif.g08.bks.cpg/sg36_2_cif.got.tgz:3994.got - 2010.06.03 17:41:39.
