data_PCOD9353517
_publ_section_title
;
Structure prediction by ZEFSAII (Michael W. Deem and Ramdas Pophale) SiO2 
 PCOD9353517
Probable space group: C C C 2
;
_chemical_formula_sum "Si O2"
_cell_formula_units_Z 48
_cell_length_a 23.268933
_cell_length_b 9.441030
_cell_length_c 9.098376
_cell_angle_alpha 90.000000
_cell_angle_beta 90.000000
_cell_angle_gamma 90.000000
_cell_volume 1998.755755
_symmetry_space_group_name_H-M "C C C 2"
_symmetry_group_IT_number 37
_symmetry_cell_setting 'orthorhombic'
loop_
_space_group_symop_operation_xyz
x,y,z
-x,-y,z
-x,y,1/2+z
x,-y,1/2+z
1/2+x,1/2+y,z
1/2-x,1/2-y,z
1/2-x,1/2+y,1/2+z
1/2+x,1/2-y,1/2+z
loop_
_atom_site_type_symbol
_atom_site_label
_atom_site_fract_x
_atom_site_fract_y
_atom_site_fract_z
Si Si1 0.017960 0.184460 0.162210
Si Si2 0.834310 0.134589 0.181944
Si Si3 0.922204 0.715998 0.880027
Si Si4 0.581784 0.364704 0.931320
Si Si5 0.286694 0.951327 0.118679
Si Si6 0.144458 0.574590 0.844079
O O1 0.055264 0.088714 0.274774
O O2 0.978746 0.274672 0.275614
O O3 0.061010 0.260153 0.049041
O O4 0.971040 0.130627 0.044989
O O5 0.878124 0.164152 0.316688
O O6 0.777199 0.040141 0.182879
O O7 0.810953 0.295581 0.160923
O O8 0.867277 0.081592 0.035807
O O9 0.895205 0.562479 0.860036
O O10 0.607205 0.209018 0.890638
O O11 0.328194 0.071511 0.183358
O O12 0.299219 0.949184 0.946098
#
# Coordination Sequence:
#
# PCOD9353517 Si02
#       6
#     8   8   8   8   8   8
#     4   9  17  26  40  62  92 120 147 175 218 269
#     4   8  16  31  45  57  84 123 155 187 221 253
#     4   9  17  27  41  64  91 118 149 181 217 266
#     4   9  17  27  41  64  91 118 149 181 217 266
#     4   9  17  30  45  60  84 120 156 188 221 255
#     4  10  18  27  42  64  90 121 152 180 216 266
#
# _framework density 24.014939999999999
#
# number of rings (size 3 to 8) (size 9 to 14) (size 15 to 20)
#    0.000    3.000    0.000    2.000    0.000    4.000 
#    0.000    1.667    0.000    8.000    0.000    0.000 
#    0.000   64.000    0.000    0.000    0.000    0.000 
#
# Total GULP energy -133725.534748 kJ/mol
# GULP energy per Si atom -5571.897281 kJ/mol
# Density = 2.396028 g / cm^3
# Si number density = 24.014940 Si / 1000 Ang^3
#
#
#
# Elastic Constant Matrix: (Units=GPa)
#
#
# Indices 1 2 3 4 5 6 
#
# 1 142.0678 39.9952 49.9770 0.0000 0.0000 0.0000
# 2 39.9952 61.0630 15.3459 0.0000 0.0000 0.0000
# 3 49.9770 15.3459 143.1661 0.0000 0.0000 0.0000
# 4 0.0000 0.0000 0.0000 25.7563 0.0000 0.0000
# 5 0.0000 0.0000 0.0000 0.0000 36.8710 0.0000
# 6 0.0000 0.0000 0.0000 0.0000 0.0000 29.8719
#
#
#
# Elastic Compliance Matrix: (Units=1/GPa)
#
#
# Indices 1 2 3 4 5 6 
#
# 1 0.009576 -0.005582 -0.002744 0.000000 0.000000 0.000000
# 2 -0.005582 0.020084 -0.000204 0.000000 0.000000 0.000000
# 3 -0.002744 -0.000204 0.007965 0.000000 0.000000 0.000000
# 4 0.000000 0.000000 0.000000 0.038825 0.000000 0.000000
# 5 0.000000 0.000000 0.000000 0.000000 0.027122 0.000000
# 6 0.000000 0.000000 0.000000 0.000000 0.000000 0.033476
#
#
# Mechanical properties :
#
#
# Convention : Reuss Voigt Hill
#
# Bulk Modulus (GPa) = 48.63074 61.88148 55.25611
# Shear Modulus (GPa) = 31.06281 34.56510 32.81396
#
# Velocity S-wave (km/s) = 3.60040 3.79795 3.70049
# Velocity P-wave (km/s) = 6.13009 6.71241 6.42784
#
# Compressibility (1/GPa) = 0.02056312
#
# Stress axis : x y z
#
# Youngs Moduli (GPa) = 104.42900 49.79045 125.55233
#
# Poissons Ratio (x) = 0.27795 0.34457
# Poissons Ratio (y) = 0.58296 0.02563
# Poissons Ratio (z) = 0.28660 0.01016
#
# Static dielectric constant tensor:
#      x y z
#    x 1.974870 0.000000 0.000000 
#    y 0.000000 1.920450 0.000000 
#    z 0.000000 0.000000 1.910860 
# 
# From -- ./inp_files/2920.got.cif
#   From: 2010.05.17/outbox.cif.g08.bks.cpg/sg37_2_cif.got.tgz:2920.got - 2010.06.03 17:53:42.
