data_PCOD9353450
_publ_section_title
;
Structure prediction by ZEFSAII (Michael W. Deem and Ramdas Pophale) SiO2 
 PCOD9353450
Probable space group: C C C 2
;
_chemical_formula_sum "Si O2"
_cell_formula_units_Z 52
_cell_length_a 7.086146
_cell_length_b 20.981085
_cell_length_c 14.827107
_cell_angle_alpha 90.000000
_cell_angle_beta 90.000000
_cell_angle_gamma 90.000000
_cell_volume 2204.420601
_symmetry_space_group_name_H-M "C C C 2"
_symmetry_group_IT_number 37
_symmetry_cell_setting 'orthorhombic'
loop_
_space_group_symop_operation_xyz
x,y,z
-x,-y,z
-x,y,1/2+z
x,-y,1/2+z
1/2+x,1/2+y,z
1/2-x,1/2-y,z
1/2-x,1/2+y,1/2+z
1/2+x,1/2-y,1/2+z
loop_
_atom_site_type_symbol
_atom_site_label
_atom_site_fract_x
_atom_site_fract_y
_atom_site_fract_z
Si Si1 0.760739 0.672776 0.948900
Si Si2 0.750000 0.250000 0.110455
Si Si3 0.325178 0.318108 0.265213
Si Si4 0.728690 0.556983 0.604046
Si Si5 0.658179 0.651163 0.464055
Si Si6 0.277686 0.153858 0.750409
Si Si7 0.273615 0.412342 0.112539
O O1 0.750000 0.750000 0.959139
O O2 0.557232 0.637931 0.938324
O O3 0.853005 0.660400 0.851313
O O4 0.817433 0.636284 0.039793
O O5 0.640911 0.203294 0.177413
O O6 0.639122 0.295094 0.041715
O O7 0.250000 0.250000 0.232069
O O8 0.265692 0.323792 0.369756
O O9 0.554067 0.325277 0.255674
O O10 0.247657 0.377185 0.207528
O O11 0.773792 0.595151 0.511835
O O12 0.795109 0.587561 0.698282
O O13 0.792268 0.484452 0.600749
O O14 0.501607 0.573283 0.605654
#
# Coordination Sequence:
#
# PCOD9353450 Si02
#       7
#     8   4   8   8   8   8   8
#     4  10  18  30  45  74  99 124 155 201 240 287
#     4  10  16  32  46  68  92 128 156 194 234 296
#     4  10  18  30  45  74  99 124 155 201 240 287
#     4   8  16  30  42  67  92 132 156 183 241 294
#     4   9  18  29  49  68  98 122 161 199 234 286
#     4   9  18  29  49  68  98 122 161 199 234 286
#     4   9  17  27  44  63 102 127 150 189 241 296
#
# _framework density 23.588965999999999
#
# number of rings (size 3 to 8) (size 9 to 14) (size 15 to 20)
#    0.000    2.769    1.538    1.385    0.000    1.231 
#    0.000    6.154    0.000    0.000    0.000   17.231 
#    0.000    0.000    0.000    0.000    0.000    0.000 
#
# Total GULP energy -144835.878132 kJ/mol
# GULP energy per Si atom -5570.610697 kJ/mol
# Density = 2.353528 g / cm^3
# Si number density = 23.588966 Si / 1000 Ang^3
#
#
#
# Elastic Constant Matrix: (Units=GPa)
#
#
# Indices 1 2 3 4 5 6 
#
# 1 82.6819 -6.8626 6.3127 0.0000 0.0000 0.0000
# 2 -6.8626 170.8736 94.2504 0.0000 0.0000 0.0000
# 3 6.3127 94.2504 194.1207 0.0000 0.0000 0.0000
# 4 0.0000 0.0000 0.0000 12.4066 0.0000 0.0000
# 5 0.0000 0.0000 0.0000 0.0000 4.2395 0.0000
# 6 0.0000 0.0000 0.0000 0.0000 0.0000 17.9847
#
#
#
# Elastic Compliance Matrix: (Units=1/GPa)
#
#
# Indices 1 2 3 4 5 6 
#
# 1 0.012242 0.000971 -0.000870 0.000000 0.000000 0.000000
# 2 0.000971 0.008070 -0.003950 0.000000 0.000000 0.000000
# 3 -0.000870 -0.003950 0.007097 0.000000 0.000000 0.000000
# 4 0.000000 0.000000 0.000000 0.080602 0.000000 0.000000
# 5 0.000000 0.000000 0.000000 0.000000 0.235876 0.000000
# 6 0.000000 0.000000 0.000000 0.000000 0.000000 0.055603
#
#
# Mechanical properties :
#
#
# Convention : Reuss Voigt Hill
#
# Bulk Modulus (GPa) = 50.72866 70.56414 60.64640
# Shear Modulus (GPa) = 12.08438 30.52453 21.30445
#
# Velocity S-wave (km/s) = 2.26584 3.60115 3.00851
# Velocity P-wave (km/s) = 5.32891 6.87532 6.15091
#
# Compressibility (1/GPa) = 0.01971272
#
# Stress axis : x y z
#
# Youngs Moduli (GPa) = 81.68882 123.91767 140.89662
#
# Poissons Ratio (x) = -0.12037 0.12254
# Poissons Ratio (y) = -0.07935 0.55650
# Poissons Ratio (z) = 0.07105 0.48944
#
# Static dielectric constant tensor:
#      x y z
#    x 2.111570 0.000000 0.000000 
#    y 0.000000 1.903240 0.000000 
#    z 0.000000 0.000000 1.912480 
# 
# From -- ./inp_files/11817.got.cif
#   From: 2010.05.17/outbox.cif.g08.bks.cpg/sg37_6_cif.got.tgz:11817.got - 2010.06.03 17:53:42.
