data_PCOD9353992
_publ_section_title
;
Structure prediction by ZEFSAII (Michael W. Deem and Ramdas Pophale) SiO2 
 PCOD9353992
Probable space group: C C C 2
;
_chemical_formula_sum "Si O2"
_cell_formula_units_Z 56
_cell_length_a 14.827006
_cell_length_b 13.819520
_cell_length_c 13.914222
_cell_angle_alpha 90.000000
_cell_angle_beta 90.000000
_cell_angle_gamma 90.000000
_cell_volume 2851.053391
_symmetry_space_group_name_H-M "C C C 2"
_symmetry_group_IT_number 37
_symmetry_cell_setting 'orthorhombic'
loop_
_space_group_symop_operation_xyz
x,y,z
-x,-y,z
-x,y,1/2+z
x,-y,1/2+z
1/2+x,1/2+y,z
1/2-x,1/2-y,z
1/2-x,1/2+y,1/2+z
1/2+x,1/2-y,1/2+z
loop_
_atom_site_type_symbol
_atom_site_label
_atom_site_fract_x
_atom_site_fract_y
_atom_site_fract_z
Si Si1 0.805561 0.598918 0.653360
Si Si2 0.481200 0.295852 0.283123
Si Si3 0.378291 0.694734 0.113104
Si Si4 0.909763 0.562912 0.054784
Si Si5 0.484545 0.612027 0.480040
Si Si6 0.143075 0.229610 0.121344
Si Si7 0.063347 0.590954 0.331172
O O1 0.701373 0.625554 0.648654
O O2 0.829749 0.502708 0.595936
O O3 0.852828 0.594213 0.757665
O O4 0.000000 0.500000 0.573715
O O5 0.546263 0.312271 0.193487
O O6 0.513588 0.367129 0.366899
O O7 0.384186 0.303557 0.229809
O O8 0.503966 0.188054 0.321243
O O9 0.348743 0.805762 0.105035
O O10 0.424488 0.664228 0.015478
O O11 0.907041 0.667070 0.104845
O O12 0.904593 0.579899 0.940780
O O13 0.500000 0.500000 0.502010
O O14 0.400474 0.658250 0.540033
O O15 0.250000 0.250000 0.110043
O O16 0.000000 0.500000 0.307197
#
# Coordination Sequence:
#
# PCOD9353992 Si02
#       7
#     8   8   8   8   8   8   8
#     4  10  20  39  62  96 129 160 214 268 316 386
#     4  10  21  43  64  89 128 174 209 262 329 389
#     4   9  22  41  64  88 127 172 211 265 319 383
#     4  11  21  38  66  96 132 169 209 269 334 386
#     4  11  24  44  66  88 130 177 217 254 334 399
#     4  11  25  44  70  99 132 166 222 281 317 379
#     4  10  20  35  64  96 125 166 210 264 334 391
#
# _framework density 19.641863000000001
#
# number of rings (size 3 to 8) (size 9 to 14) (size 15 to 20)
#    0.000    1.714    1.429    3.857    4.000    3.429 
#    2.571    0.000    0.000    0.000    0.000    0.000 
#    0.000    0.000    0.000    0.000    0.000    0.000 
#
# Total GULP energy -156219.887934 kJ/mol
# GULP energy per Si atom -5579.281712 kJ/mol
# Density = 1.959716 g / cm^3
# Si number density = 19.641863 Si / 1000 Ang^3
#
#
#
# Elastic Constant Matrix: (Units=GPa)
#
#
# Indices 1 2 3 4 5 6 
#
# 1 78.1819 16.1723 2.7186 0.0000 0.0000 0.0000
# 2 16.1723 58.8158 8.6770 0.0000 0.0000 0.0000
# 3 2.7186 8.6770 62.5194 0.0000 0.0000 0.0000
# 4 0.0000 0.0000 0.0000 46.2114 0.0000 0.0000
# 5 0.0000 0.0000 0.0000 0.0000 4.9246 0.0000
# 6 0.0000 0.0000 0.0000 0.0000 0.0000 23.7690
#
#
#
# Elastic Compliance Matrix: (Units=1/GPa)
#
#
# Indices 1 2 3 4 5 6 
#
# 1 0.013562 -0.003718 -0.000074 0.000000 0.000000 0.000000
# 2 -0.003718 0.018377 -0.002389 0.000000 0.000000 0.000000
# 3 -0.000074 -0.002389 0.016330 0.000000 0.000000 0.000000
# 4 0.000000 0.000000 0.000000 0.021640 0.000000 0.000000
# 5 0.000000 0.000000 0.000000 0.000000 0.203062 0.000000
# 6 0.000000 0.000000 0.000000 0.000000 0.000000 0.042072
#
#
# Mechanical properties :
#
#
# Convention : Reuss Voigt Hill
#
# Bulk Modulus (GPa) = 27.84932 28.29478 28.07205
# Shear Modulus (GPa) = 14.73304 26.44427 20.58865
#
# Velocity S-wave (km/s) = 2.74174 3.67321 3.24111
# Velocity P-wave (km/s) = 4.92262 5.69443 5.32253
#
# Compressibility (1/GPa) = 0.03590753
#
# Stress axis : x y z
#
# Youngs Moduli (GPa) = 73.73325 54.41564 61.23781
#
# Poissons Ratio (x) = 0.20234 0.00451
# Poissons Ratio (y) = 0.27416 0.14629
# Poissons Ratio (z) = 0.00543 0.12999
#
# Static dielectric constant tensor:
#      x y z
#    x 1.763900 0.000000 0.000000 
#    y 0.000000 1.698550 0.000000 
#    z 0.000000 0.000000 1.702490 
# 
# From -- ./inp_files/12733.got.cif
#   From: 2010.05.17/outbox.cif.g08.bks.cpg/sg37_7_cif.got.tgz:12733.got - 2010.06.03 17:53:42.
