data_PCOD9353459
_publ_section_title
;
Structure prediction by ZEFSAII (Michael W. Deem and Ramdas Pophale) SiO2 
 PCOD9353459
Probable space group: C C C 2
;
_chemical_formula_sum "Si O2"
_cell_formula_units_Z 64
_cell_length_a 9.477630
_cell_length_b 22.608251
_cell_length_c 15.527413
_cell_angle_alpha 90.000000
_cell_angle_beta 90.000000
_cell_angle_gamma 90.000000
_cell_volume 3327.099744
_symmetry_space_group_name_H-M "C C C 2"
_symmetry_group_IT_number 37
_symmetry_cell_setting 'orthorhombic'
loop_
_space_group_symop_operation_xyz
x,y,z
-x,-y,z
-x,y,1/2+z
x,-y,1/2+z
1/2+x,1/2+y,z
1/2-x,1/2-y,z
1/2-x,1/2+y,1/2+z
1/2+x,1/2-y,1/2+z
loop_
_atom_site_type_symbol
_atom_site_label
_atom_site_fract_x
_atom_site_fract_y
_atom_site_fract_z
Si Si1 0.677668 0.432448 0.414070
Si Si2 0.344100 0.477108 0.186691
Si Si3 0.512238 0.686265 0.184186
Si Si4 0.511612 0.180542 0.691529
Si Si5 0.255730 0.400061 0.717717
Si Si6 0.746038 0.683160 0.334873
Si Si7 0.253032 0.364392 0.076770
Si Si8 0.653511 0.437956 0.888139
O O1 0.719332 0.413110 0.318444
O O2 0.744330 0.386614 0.480047
O O3 0.507107 0.430193 0.419645
O O4 0.715307 0.501829 0.429614
O O5 0.500000 0.500000 0.162501
O O6 0.249402 0.535042 0.176845
O O7 0.287420 0.423150 0.132127
O O8 0.351786 0.455523 0.286194
O O9 0.456196 0.752714 0.184679
O O10 0.390810 0.637387 0.185766
O O11 0.611797 0.680508 0.269224
O O12 0.617459 0.677905 0.103657
O O13 0.384545 0.135986 0.701913
O O14 0.617657 0.177130 0.773311
O O15 0.609784 0.164287 0.610469
O O16 0.750000 0.750000 0.372781
O O17 0.731444 0.625158 0.394417
#
# Coordination Sequence:
#
# PCOD9353459 Si02
#       8
#     8   8   8   8   8   8   8   8
#     4  10  21  32  60  89 121 146 189 260 305 341
#     4  11  17  33  60  83 112 151 201 246 273 355
#     4  10  18  37  62  85 110 153 206 242 276 360
#     4  10  22  35  59  87 116 158 198 240 291 356
#     4  11  20  36  61  89 115 147 205 253 293 341
#     4   9  16  32  59  83 111 151 198 236 276 346
#     4  11  21  37  60  86 117 154 197 240 312 349
#     4  10  16  34  55  91 114 144 206 248 280 344
#
# _framework density 19.235972
#
# number of rings (size 3 to 8) (size 9 to 14) (size 15 to 20)
#    0.000    1.750    7.500    1.500    1.750    0.500 
#    0.000    2.500    8.250    0.000    0.000    0.000 
#    0.000    0.000    0.000    0.000    0.000    0.000 
#
# Total GULP energy -178538.249277 kJ/mol
# GULP energy per Si atom -5579.320290 kJ/mol
# Density = 1.919219 g / cm^3
# Si number density = 19.235972 Si / 1000 Ang^3
#
#
#
# Elastic Constant Matrix: (Units=GPa)
#
#
# Indices 1 2 3 4 5 6 
#
# 1 54.2014 22.7970 -7.2393 0.0000 0.0000 0.0000
# 2 22.7970 130.8048 -3.4873 0.0000 0.0000 0.0000
# 3 -7.2393 -3.4873 14.0733 0.0000 0.0000 0.0000
# 4 0.0000 0.0000 0.0000 22.0016 0.0000 0.0000
# 5 0.0000 0.0000 0.0000 0.0000 -2.2593 0.0000
# 6 0.0000 0.0000 0.0000 0.0000 0.0000 38.0247
#
#
#
# Elastic Compliance Matrix: (Units=1/GPa)
#
#
# Indices 1 2 3 4 5 6 
#
# 1 0.021239 -0.003433 0.010075 0.000000 0.000000 0.000000
# 2 -0.003433 0.008251 0.000279 0.000000 0.000000 0.000000
# 3 0.010075 0.000279 0.076308 0.000000 0.000000 0.000000
# 4 0.000000 0.000000 0.000000 0.045451 0.000000 0.000000
# 5 0.000000 0.000000 0.000000 0.000000 -0.442617 0.000000
# 6 0.000000 0.000000 0.000000 0.000000 0.000000 0.026299
#
#
# Mechanical properties :
#
#
# Convention : Reuss Voigt Hill
#
# Bulk Modulus (GPa) = 8.35852 24.80226 16.58039
# Shear Modulus (GPa) = -20.91780 24.02068 1.55144
#
# Velocity S-wave (km/s) = -3.30120 3.53758 0.89904
# Velocity P-wave (km/s) = 3.18996 5.44129 3.11703
#
# Compressibility (1/GPa) = 0.11963839
#
# Stress axis : x y z
#
# Youngs Moduli (GPa) = 47.08264 121.20147 13.10482
#
# Poissons Ratio (x) = 0.41609 -0.13203
# Poissons Ratio (y) = 0.16164 -0.00365
# Poissons Ratio (z) = -0.47435 -0.03376
#
# Static dielectric constant tensor:
#      x y z
#    x 1.646930 0.000000 0.000000 
#    y 0.000000 1.697940 0.000000 
#    z 0.000000 0.000000 1.684430 
# 
# From -- ./inp_files/11015.got.cif
#   From: 2010.05.17/outbox.cif.g08.bks.cpg/sg37_6_cif.got.tgz:11015.got - 2010.06.03 17:53:42.
