data_PCOD9353922
_publ_section_title
;
Structure prediction by ZEFSAII (Michael W. Deem and Ramdas Pophale) SiO2 
 PCOD9353922
Probable space group: C C C 2
;
_chemical_formula_sum "Si O2"
_cell_formula_units_Z 64
_cell_length_a 13.544382
_cell_length_b 17.475914
_cell_length_c 12.316563
_cell_angle_alpha 90.000000
_cell_angle_beta 90.000000
_cell_angle_gamma 90.000000
_cell_volume 2915.336066
_symmetry_space_group_name_H-M "C C C 2"
_symmetry_group_IT_number 37
_symmetry_cell_setting 'orthorhombic'
loop_
_space_group_symop_operation_xyz
x,y,z
-x,-y,z
-x,y,1/2+z
x,-y,1/2+z
1/2+x,1/2+y,z
1/2-x,1/2-y,z
1/2-x,1/2+y,1/2+z
1/2+x,1/2-y,1/2+z
loop_
_atom_site_type_symbol
_atom_site_label
_atom_site_fract_x
_atom_site_fract_y
_atom_site_fract_z
Si Si1 0.826119 0.074494 0.229740
Si Si2 0.836871 0.901363 0.271799
Si Si3 0.895563 0.361060 0.771057
Si Si4 0.905759 0.614232 0.723774
Si Si5 0.352392 0.351007 0.512911
Si Si6 0.634570 0.729750 0.852358
Si Si7 0.133449 0.770714 0.602647
Si Si8 0.879961 0.686319 0.511765
O O1 0.704821 0.080323 0.240562
O O2 0.870777 0.146633 0.295545
O O3 0.858961 0.990894 0.265528
O O4 0.860089 0.085505 0.104914
O O5 0.716293 0.893089 0.267619
O O6 0.874211 0.871180 0.388646
O O7 0.876543 0.848481 0.173412
O O8 0.905456 0.299210 0.675121
O O9 0.905813 0.320856 0.887190
O O10 0.988956 0.417405 0.763743
O O11 0.902938 0.698363 0.781648
O O12 0.919371 0.624169 0.594654
O O13 0.236838 0.329243 0.515039
O O14 0.401572 0.272061 0.550426
O O15 0.750000 0.750000 0.857870
O O16 0.599832 0.726160 0.977501
O O17 0.250000 0.750000 0.598093
#
# Coordination Sequence:
#
# PCOD9353922 Si02
#       8
#     8   8   8   8   8   8   8   8
#     4  10  20  33  52  77 105 135 167 206 252 304
#     4  10  20  33  52  77 105 135 167 206 252 304
#     4  10  20  33  52  77 105 135 167 206 252 304
#     4  10  20  33  52  77 105 135 167 206 252 304
#     4   9  16  32  53  72  95 130 179 217 241 282
#     4   9  18  33  51  72  99 133 174 213 246 287
#     4   9  18  33  51  72  99 133 174 213 246 287
#     4   9  16  32  53  72  95 130 179 217 241 282
#
# _framework density 21.952870999999998
#
# number of rings (size 3 to 8) (size 9 to 14) (size 15 to 20)
#    0.000    2.500    2.500    0.000    3.500    0.500 
#    0.000    0.000    0.000    5.250    0.000    3.500 
#    0.000    0.000    0.000    0.000    0.000    0.000 
#
# Total GULP energy -178355.598803 kJ/mol
# GULP energy per Si atom -5573.612463 kJ/mol
# Density = 2.190291 g / cm^3
# Si number density = 21.952871 Si / 1000 Ang^3
#
#
#
# Elastic Constant Matrix: (Units=GPa)
#
#
# Indices 1 2 3 4 5 6 
#
# 1 49.9383 -22.4719 -7.5391 0.0000 0.0000 0.0000
# 2 -22.4719 111.3941 32.0082 0.0000 0.0000 0.0000
# 3 -7.5391 32.0082 122.2185 0.0000 0.0000 0.0000
# 4 0.0000 0.0000 0.0000 15.9025 0.0000 0.0000
# 5 0.0000 0.0000 0.0000 0.0000 -3.6967 0.0000
# 6 0.0000 0.0000 0.0000 0.0000 0.0000 -1.0167
#
#
#
# Elastic Compliance Matrix: (Units=1/GPa)
#
#
# Indices 1 2 3 4 5 6 
#
# 1 0.022029 0.004383 0.000211 0.000000 0.000000 0.000000
# 2 0.004383 0.010580 -0.002500 0.000000 0.000000 0.000000
# 3 0.000211 -0.002500 0.008850 0.000000 0.000000 0.000000
# 4 0.000000 0.000000 0.000000 0.062883 0.000000 0.000000
# 5 0.000000 0.000000 0.000000 0.000000 -0.270509 0.000000
# 6 0.000000 0.000000 0.000000 0.000000 0.000000 -0.983532
#
#
# Mechanical properties :
#
#
# Convention : Reuss Voigt Hill
#
# Bulk Modulus (GPa) = 21.90743 31.94949 26.92846
# Shear Modulus (GPa) = -4.39108 21.00805 8.30849
#
# Velocity S-wave (km/s) = -1.41583 3.09684 1.94754
# Velocity P-wave (km/s) = 2.70707 5.23187 4.16537
#
# Compressibility (1/GPa) = 0.04564661
#
# Stress axis : x y z
#
# Youngs Moduli (GPa) = 45.39457 94.51898 112.99544
#
# Poissons Ratio (x) = -0.41431 -0.02383
# Poissons Ratio (y) = -0.19898 0.28254
# Poissons Ratio (z) = -0.00957 0.23634
#
# Static dielectric constant tensor:
#      x y z
#    x 1.897090 0.000000 0.000000 
#    y 0.000000 1.769450 0.000000 
#    z 0.000000 0.000000 1.784450 
# 
# From -- ./inp_files/7978.got.cif
#   From: 2010.05.17/outbox.cif.g08.bks.cpg/sg37_4_cif.got.tgz:7978.got - 2010.06.03 17:53:42.
