data_PCOD9353827
_publ_section_title
;
Structure prediction by ZEFSAII (Michael W. Deem and Ramdas Pophale) SiO2 
 PCOD9353827
Probable space group: C C C 2
;
_chemical_formula_sum "Si O2"
_cell_formula_units_Z 60
_cell_length_a 16.060951
_cell_length_b 12.379539
_cell_length_c 15.181565
_cell_angle_alpha 90.000000
_cell_angle_beta 90.000000
_cell_angle_gamma 90.000000
_cell_volume 3018.507594
_symmetry_space_group_name_H-M "C C C 2"
_symmetry_group_IT_number 37
_symmetry_cell_setting 'orthorhombic'
loop_
_space_group_symop_operation_xyz
x,y,z
-x,-y,z
-x,y,1/2+z
x,-y,1/2+z
1/2+x,1/2+y,z
1/2-x,1/2-y,z
1/2-x,1/2+y,1/2+z
1/2+x,1/2-y,1/2+z
loop_
_atom_site_type_symbol
_atom_site_label
_atom_site_fract_x
_atom_site_fract_y
_atom_site_fract_z
Si Si1 0.092062 0.364356 0.104300
Si Si2 0.101767 0.231556 0.935630
Si Si3 0.500000 0.000000 0.236123
Si Si4 0.452674 0.601832 0.849940
Si Si5 0.238583 0.480416 0.637812
Si Si6 0.330392 0.911899 0.313861
Si Si7 0.675082 0.688609 0.221277
Si Si8 0.804659 0.987165 0.953851
O O1 0.151736 0.468103 0.104321
O O2 0.148335 0.270022 0.145372
O O3 0.019240 0.398892 0.170906
O O4 0.073860 0.319314 0.008184
O O5 0.146204 0.298314 0.858064
O O6 0.163672 0.136669 0.969528
O O7 0.020340 0.170551 0.901555
O O8 0.417033 0.975140 0.292648
O O9 0.500000 0.500000 0.807164
O O10 0.405195 0.672254 0.779558
O O11 0.381124 0.550505 0.910571
O O12 0.216529 0.402782 0.719441
O O13 0.292098 0.575629 0.684191
O O14 0.282782 0.454743 0.545800
O O15 0.270906 0.975000 0.383558
O O16 0.750000 0.750000 0.270843
#
# Coordination Sequence:
#
# PCOD9353827 Si02
#       8
#     8   8   4   8   8   8   8   8
#     4  10  20  37  62  89 125 165 211 261 320 394
#     4  11  22  39  64  93 130 171 215 266 323 394
#     4  10  24  40  56 102 128 164 210 266 338 382
#     4  10  23  41  59  95 132 169 211 266 327 386
#     4  10  20  37  62  94 120 163 219 266 313 384
#     4  11  22  39  66  94 128 165 215 271 322 382
#     4  10  19  37  63  86 118 163 215 256 314 383
#     4  11  21  41  66  94 125 173 225 258 323 394
#
# _framework density 19.877372999999999
#
# number of rings (size 3 to 8) (size 9 to 14) (size 15 to 20)
#    0.000    1.600    4.000    1.200    0.000    0.533 
#    2.400    2.667    0.000    0.000    0.000    0.000 
#    0.000    0.000    0.000    0.000    0.000    0.000 
#
# Total GULP energy -167285.976845 kJ/mol
# GULP energy per Si atom -5576.199228 kJ/mol
# Density = 1.983213 g / cm^3
# Si number density = 19.877373 Si / 1000 Ang^3
#
#
#
# Elastic Constant Matrix: (Units=GPa)
#
#
# Indices 1 2 3 4 5 6 
#
# 1 99.8760 17.7036 36.3919 0.0000 0.0000 0.0000
# 2 17.7036 49.7329 23.6929 0.0000 0.0000 0.0000
# 3 36.3919 23.6929 82.4178 0.0000 0.0000 0.0000
# 4 0.0000 0.0000 0.0000 16.9681 0.0000 0.0000
# 5 0.0000 0.0000 0.0000 0.0000 43.5313 0.0000
# 6 0.0000 0.0000 0.0000 0.0000 0.0000 32.6156
#
#
#
# Elastic Compliance Matrix: (Units=1/GPa)
#
#
# Indices 1 2 3 4 5 6 
#
# 1 0.012109 -0.002043 -0.004759 0.000000 0.000000 0.000000
# 2 -0.002043 0.023643 -0.005895 0.000000 0.000000 0.000000
# 3 -0.004759 -0.005895 0.015929 0.000000 0.000000 0.000000
# 4 0.000000 0.000000 0.000000 0.058934 0.000000 0.000000
# 5 0.000000 0.000000 0.000000 0.000000 0.022972 0.000000
# 6 0.000000 0.000000 0.000000 0.000000 0.000000 0.030660
#
#
# Mechanical properties :
#
#
# Convention : Reuss Voigt Hill
#
# Bulk Modulus (GPa) = 38.04157 43.06706 40.55431
# Shear Modulus (GPa) = 25.20117 28.90554 27.05336
#
# Velocity S-wave (km/s) = 3.56453 3.81753 3.69319
# Velocity P-wave (km/s) = 6.01006 6.41442 6.21553
#
# Compressibility (1/GPa) = 0.02628703
#
# Stress axis : x y z
#
# Youngs Moduli (GPa) = 82.58505 42.29606 62.77722
#
# Poissons Ratio (x) = 0.08641 0.29878
# Poissons Ratio (y) = 0.16872 0.37005
# Poissons Ratio (z) = 0.39305 0.24932
#
# Static dielectric constant tensor:
#      x y z
#    x 1.712420 0.000000 0.000000 
#    y 0.000000 1.709180 0.000000 
#    z 0.000000 0.000000 1.714890 
# 
# From -- ./inp_files/12255.got.cif
#   From: 2010.05.17/outbox.cif.g08.bks.cpg/sg37_7_cif.got.tgz:12255.got - 2010.06.03 17:53:42.
