data_PCOD9353499
_publ_section_title
;
Structure prediction by ZEFSAII (Michael W. Deem and Ramdas Pophale) SiO2 
 PCOD9353499
Probable space group: C C C 2
;
_chemical_formula_sum "Si O2"
_cell_formula_units_Z 48
_cell_length_a 7.159108
_cell_length_b 18.353964
_cell_length_c 15.404701
_cell_angle_alpha 90.000000
_cell_angle_beta 90.000000
_cell_angle_gamma 90.000000
_cell_volume 2024.147064
_symmetry_space_group_name_H-M "C C C 2"
_symmetry_group_IT_number 37
_symmetry_cell_setting 'orthorhombic'
loop_
_space_group_symop_operation_xyz
x,y,z
-x,-y,z
-x,y,1/2+z
x,-y,1/2+z
1/2+x,1/2+y,z
1/2-x,1/2-y,z
1/2-x,1/2+y,1/2+z
1/2+x,1/2-y,1/2+z
loop_
_atom_site_type_symbol
_atom_site_label
_atom_site_fract_x
_atom_site_fract_y
_atom_site_fract_z
Si Si1 0.750000 0.750000 0.915941
Si Si2 0.646606 0.675099 0.573541
Si Si3 0.790613 0.362275 0.540647
Si Si4 0.470688 0.308060 0.767616
Si Si5 0.280194 0.483348 0.574219
Si Si6 0.373921 0.147034 0.242435
Si Si7 0.000000 0.500000 0.230837
O O1 0.645968 0.692242 0.854566
O O2 0.873453 0.696052 0.974935
O O3 0.750000 0.750000 0.548189
O O4 0.427544 0.664326 0.548645
O O5 0.639688 0.674564 0.679435
O O6 0.742282 0.599585 0.542996
O O7 0.795447 0.447883 0.519289
O O8 0.874436 0.354146 0.636987
O O9 0.538815 0.224123 0.764637
O O10 0.657803 0.354849 0.769592
O O11 0.500000 0.500000 0.585375
O O12 0.176850 0.490550 0.666524
O O13 0.474540 0.076022 0.278617
#
# Coordination Sequence:
#
# PCOD9353499 Si02
#       7
#     4   8   8   8   8   8   4
#     4  12  22  36  60  88 132 170 206 258 346 402
#     4  10  17  33  61  93 114 155 221 267 307 381
#     4   9  20  37  59  86 121 170 209 266 321 383
#     4  10  20  34  60  91 125 159 209 261 327 390
#     4   9  19  34  58  89 125 154 211 271 315 374
#     4   9  19  39  62  90 121 159 224 268 303 383
#     4  10  18  32  66  90 118 154 208 278 324 352
#
# _framework density 23.713692999999999
#
# number of rings (size 3 to 8) (size 9 to 14) (size 15 to 20)
#    0.000    2.333    0.833    4.000    0.000    1.333 
#    3.000    0.000   11.000    1.000    0.000    0.000 
#    0.000    0.000    0.000    0.000    0.000    0.000 
#
# Total GULP energy -134047.307121 kJ/mol
# GULP energy per Si atom -5585.304463 kJ/mol
# Density = 2.365972 g / cm^3
# Si number density = 23.713693 Si / 1000 Ang^3
#
#
#
# Elastic Constant Matrix: (Units=GPa)
#
#
# Indices 1 2 3 4 5 6 
#
# 1 56.8916 22.4273 9.3366 0.0000 0.0000 0.0000
# 2 22.4273 190.8340 19.8377 0.0000 0.0000 0.0000
# 3 9.3366 19.8377 45.3124 0.0000 0.0000 0.0000
# 4 0.0000 0.0000 0.0000 5.2359 0.0000 0.0000
# 5 0.0000 0.0000 0.0000 0.0000 7.4799 0.0000
# 6 0.0000 0.0000 0.0000 0.0000 0.0000 40.4238
#
#
#
# Elastic Compliance Matrix: (Units=1/GPa)
#
#
# Indices 1 2 3 4 5 6 
#
# 1 0.018825 -0.001895 -0.003049 0.000000 0.000000 0.000000
# 2 -0.001895 0.005681 -0.002097 0.000000 0.000000 0.000000
# 3 -0.003049 -0.002097 0.023615 0.000000 0.000000 0.000000
# 4 0.000000 0.000000 0.000000 0.190990 0.000000 0.000000
# 5 0.000000 0.000000 0.000000 0.000000 0.133692 0.000000
# 6 0.000000 0.000000 0.000000 0.000000 0.000000 0.024738
#
#
# Mechanical properties :
#
#
# Convention : Reuss Voigt Hill
#
# Bulk Modulus (GPa) = 29.37817 44.02682 36.70249
# Shear Modulus (GPa) = 11.82121 26.72368 19.27244
#
# Velocity S-wave (km/s) = 2.23513 3.36062 2.85391
# Velocity P-wave (km/s) = 4.36768 5.80212 5.13524
#
# Compressibility (1/GPa) = 0.03403888
#
# Stress axis : x y z
#
# Youngs Moduli (GPa) = 53.12123 176.03013 42.34575
#
# Poissons Ratio (x) = 0.33365 0.12912
# Poissons Ratio (y) = 0.10069 0.08878
# Poissons Ratio (z) = 0.16197 0.36905
#
# Static dielectric constant tensor:
#      x y z
#    x 1.992350 0.000000 0.000000 
#    y 0.000000 1.952420 0.000000 
#    z 0.000000 0.000000 1.902590 
# 
# From -- ./inp_files/10644.got.cif
#   From: 2010.05.17/outbox.cif.g08.bks.cpg/sg37_6_cif.got.tgz:10644.got - 2010.06.03 17:53:42.
