data_PCOD9353180
_publ_section_title
;
Structure prediction by ZEFSAII (Michael W. Deem and Ramdas Pophale) SiO2 
 PCOD9353180
Probable space group: C M C 21
;
_chemical_formula_sum "Si O2"
_cell_formula_units_Z 40
_cell_length_a 14.809023
_cell_length_b 13.955799
_cell_length_c 8.045441
_cell_angle_alpha 90.000000
_cell_angle_beta 90.000000
_cell_angle_gamma 90.000000
_cell_volume 1662.765358
_symmetry_space_group_name_H-M "C M C 21"
_symmetry_group_IT_number 36
_symmetry_cell_setting 'orthorhombic'
loop_
_space_group_symop_operation_xyz
x,y,z
-x,-y,1/2+z
x,-y,1/2+z
-x,y,z
1/2+x,1/2+y,z
1/2-x,1/2-y,1/2+z
1/2+x,1/2-y,1/2+z
1/2-x,1/2+y,z
loop_
_atom_site_type_symbol
_atom_site_label
_atom_site_fract_x
_atom_site_fract_y
_atom_site_fract_z
Si Si1 0.395786 0.465100 0.355710
Si Si2 0.892208 0.863032 0.672512
Si Si3 0.500000 0.153076 0.977756
Si Si4 0.145047 0.212021 0.641306
Si Si5 0.000000 0.551998 0.614142
Si Si6 0.341219 0.179321 0.497419
O O1 0.500000 0.625112 0.183286
O O2 0.350283 0.412821 0.508665
O O3 0.355305 0.567682 0.313521
O O4 0.395931 0.388688 0.205916
O O5 0.880080 0.753737 0.634274
O O6 0.000000 0.978298 0.403310
O O7 0.415916 0.224405 0.017519
O O8 0.500000 0.063412 0.106677
O O9 0.500000 0.099517 0.799019
O O10 0.238533 0.181411 0.558138
O O11 0.153807 0.276497 0.810808
O O12 0.091224 0.589800 0.520291
#
# Coordination Sequence:
#
# PCOD9353180 Si02
#       6
#     8   8   4   8   4   8
#     4   9  18  34  57  85 118 154 194 247 308 369
#     4   9  18  34  57  85 118 154 194 247 308 369
#     4  12  26  46  71  98 131 180 231 284 348 414
#     4  11  23  42  65  95 133 173 220 276 332 400
#     4  12  26  46  71  98 131 180 231 284 348 414
#     4  11  23  42  65  95 133 173 220 276 332 400
#
# _framework density 24.056308999999999
#
# number of rings (size 3 to 8) (size 9 to 14) (size 15 to 20)
#    0.000    1.600    2.000    3.000    0.000    4.800 
#    0.000    4.000    0.000    0.000    0.000    0.000 
#    0.000    0.000    0.000    0.000    0.000    0.000 
#
# Total GULP energy -111568.016441 kJ/mol
# GULP energy per Si atom -5578.400822 kJ/mol
# Density = 2.400156 g / cm^3
# Si number density = 24.056309 Si / 1000 Ang^3
#
#
#
# Elastic Constant Matrix: (Units=GPa)
#
#
# Indices 1 2 3 4 5 6 
#
# 1 97.6902 17.2381 32.4502 0.0000 0.0000 0.0000
# 2 17.2381 87.7263 4.6939 0.0000 0.0000 0.0000
# 3 32.4502 4.6939 105.2031 0.0000 0.0000 0.0000
# 4 0.0000 0.0000 0.0000 44.2269 0.0000 0.0000
# 5 0.0000 0.0000 0.0000 0.0000 108.8017 0.0000
# 6 0.0000 0.0000 0.0000 0.0000 0.0000 -84.5080
#
#
#
# Elastic Compliance Matrix: (Units=1/GPa)
#
#
# Indices 1 2 3 4 5 6 
#
# 1 0.011788 -0.002127 -0.003541 0.000000 0.000000 0.000000
# 2 -0.002127 0.011810 0.000129 0.000000 0.000000 0.000000
# 3 -0.003541 0.000129 0.010592 0.000000 0.000000 0.000000
# 4 0.000000 0.000000 0.000000 0.022611 0.000000 0.000000
# 5 0.000000 0.000000 0.000000 0.000000 0.009191 0.000000
# 6 0.000000 0.000000 0.000000 0.000000 0.000000 -0.011833
#
#
# Mechanical properties :
#
#
# Convention : Reuss Voigt Hill
#
# Bulk Modulus (GPa) = 43.26711 44.37601 43.82156
# Shear Modulus (GPa) = 68.54904 29.45329 49.00116
#
# Velocity S-wave (km/s) = 5.34388 3.50286 4.51814
# Velocity P-wave (km/s) = 7.49006 5.90312 6.74343
#
# Compressibility (1/GPa) = 0.02311224
#
# Stress axis : x y z
#
# Youngs Moduli (GPa) = 84.83190 84.67326 94.41136
#
# Poissons Ratio (x) = 0.18009 0.33433
# Poissons Ratio (y) = 0.18043 -0.01219
# Poissons Ratio (z) = 0.30040 -0.01093
#
# Static dielectric constant tensor:
#      x y z
#    x 1.768070 0.000000 0.000000 
#    y 0.000000 1.931770 0.000000 
#    z 0.000000 0.000000 2.045410 
# 
# From -- ./inp_files/3829.got.cif
#   From: 2010.05.17/outbox.cif.g08.bks.cpg/sg36_2_cif.got.tgz:3829.got - 2010.06.03 17:41:39.
