data_PCOD9353734
_publ_section_title
;
Structure prediction by ZEFSAII (Michael W. Deem and Ramdas Pophale) SiO2 
 PCOD9353734
Probable space group: C C C 2
;
_chemical_formula_sum "Si O2"
_cell_formula_units_Z 40
_cell_length_a 14.840373
_cell_length_b 5.066537
_cell_length_c 24.263916
_cell_angle_alpha 90.000000
_cell_angle_beta 90.000000
_cell_angle_gamma 90.000000
_cell_volume 1824.386833
_symmetry_space_group_name_H-M "C C C 2"
_symmetry_group_IT_number 37
_symmetry_cell_setting 'orthorhombic'
loop_
_space_group_symop_operation_xyz
x,y,z
-x,-y,z
-x,y,1/2+z
x,-y,1/2+z
1/2+x,1/2+y,z
1/2-x,1/2-y,z
1/2-x,1/2+y,1/2+z
1/2+x,1/2-y,1/2+z
loop_
_atom_site_type_symbol
_atom_site_label
_atom_site_fract_x
_atom_site_fract_y
_atom_site_fract_z
Si Si1 0.186624 0.498689 0.287570
Si Si2 0.392751 0.996039 0.404823
Si Si3 0.389654 0.491691 0.468529
Si Si4 0.314777 0.998408 0.665242
Si Si5 0.559012 0.241762 0.073808
O O1 0.250000 0.250000 0.298806
O O2 0.126463 0.549278 0.340813
O O3 0.354888 0.047861 0.226735
O O4 0.250000 0.750000 0.282648
O O5 0.358547 0.278934 0.424166
O O6 0.500000 0.000000 0.410697
O O7 0.357723 0.773158 0.446883
O O8 0.500000 0.500000 0.468354
O O9 0.373125 0.372503 0.529124
O O10 0.250000 0.250000 0.667590
O O11 0.390230 0.084413 0.621869
O O12 0.250000 0.750000 0.651047
O O13 0.500000 0.500000 0.092109
O O14 0.500000 0.000000 0.047348
#
# Coordination Sequence:
#
# PCOD9353734 Si02
#       5
#     8   8   8   8   8
#     4  10  21  38  57  80 115 153 187 232 292 347
#     4  10  19  34  57  81 108 144 186 230 280 341
#     4   9  18  33  54  81 111 143 179 231 293 336
#     4  10  22  40  59  83 120 160 193 238 303 356
#     4  11  21  37  62  87 113 150 199 245 287 350
#
# _framework density 21.925173000000001
#
# number of rings (size 3 to 8) (size 9 to 14) (size 15 to 20)
#    0.000    2.000    0.000    5.400    0.000    0.800 
#    0.000    7.000    0.000    0.000    0.000    0.000 
#    0.000    0.000    0.000    0.000    0.000    0.000 
#
# Total GULP energy -111549.280423 kJ/mol
# GULP energy per Si atom -5577.464021 kJ/mol
# Density = 2.187527 g / cm^3
# Si number density = 21.925173 Si / 1000 Ang^3
#
#
#
# Elastic Constant Matrix: (Units=GPa)
#
#
# Indices 1 2 3 4 5 6 
#
# 1 40.5536 19.4095 36.4589 0.0000 0.0000 0.0000
# 2 19.4095 159.7339 35.2159 0.0000 0.0000 0.0000
# 3 36.4589 35.2159 158.4287 0.0000 0.0000 0.0000
# 4 0.0000 0.0000 0.0000 34.1014 0.0000 0.0000
# 5 0.0000 0.0000 0.0000 0.0000 114.4475 0.0000
# 6 0.0000 0.0000 0.0000 0.0000 0.0000 15.8135
#
#
#
# Elastic Compliance Matrix: (Units=1/GPa)
#
#
# Indices 1 2 3 4 5 6 
#
# 1 0.031926 -0.002376 -0.006819 0.000000 0.000000 0.000000
# 2 -0.002376 0.006760 -0.000956 0.000000 0.000000 0.000000
# 3 -0.006819 -0.000956 0.008094 0.000000 0.000000 0.000000
# 4 0.000000 0.000000 0.000000 0.029324 0.000000 0.000000
# 5 0.000000 0.000000 0.000000 0.000000 0.008738 0.000000
# 6 0.000000 0.000000 0.000000 0.000000 0.000000 0.063237
#
#
# Mechanical properties :
#
#
# Convention : Reuss Voigt Hill
#
# Bulk Modulus (GPa) = 37.76688 60.09831 48.93259
# Shear Modulus (GPa) = 28.21560 50.71461 39.46511
#
# Velocity S-wave (km/s) = 3.59124 4.81466 4.24723
# Velocity P-wave (km/s) = 5.87015 7.64056 6.81311
#
# Compressibility (1/GPa) = 0.02647823
#
# Stress axis : x y z
#
# Youngs Moduli (GPa) = 31.32199 147.93217 123.55307
#
# Poissons Ratio (x) = 0.35150 0.84251
# Poissons Ratio (y) = 0.07442 0.11809
# Poissons Ratio (z) = 0.21358 0.14139
#
# Static dielectric constant tensor:
#      x y z
#    x 1.735530 0.000000 0.000000 
#    y 0.000000 1.782690 0.000000 
#    z 0.000000 0.000000 1.886450 
# 
# From -- ./inp_files/18785.got.cif
#   From: 2010.05.17/outbox.cif.g08.bks.cpg/sg37_10_cif.got.tgz:18785.got - 2010.06.03 17:53:42.
