data_PCOD9353060
_publ_section_title
;
Structure prediction by ZEFSAII (Michael W. Deem and Ramdas Pophale) SiO2 
 PCOD9353060
Probable space group: C M C 21
;
_chemical_formula_sum "Si O2"
_cell_formula_units_Z 36
_cell_length_a 21.678287
_cell_length_b 10.933386
_cell_length_c 5.753124
_cell_angle_alpha 90.000000
_cell_angle_beta 90.000000
_cell_angle_gamma 90.000000
_cell_volume 1363.588649
_symmetry_space_group_name_H-M "C M C 21"
_symmetry_group_IT_number 36
_symmetry_cell_setting 'orthorhombic'
loop_
_space_group_symop_operation_xyz
x,y,z
-x,-y,1/2+z
x,-y,1/2+z
-x,y,z
1/2+x,1/2+y,z
1/2-x,1/2-y,1/2+z
1/2+x,1/2-y,1/2+z
1/2-x,1/2+y,z
loop_
_atom_site_type_symbol
_atom_site_label
_atom_site_fract_x
_atom_site_fract_y
_atom_site_fract_z
Si Si1 0.067000 0.431299 0.940060
Si Si2 0.624904 0.335169 0.926224
Si Si3 0.188570 0.671786 0.244332
Si Si4 0.000000 0.928347 0.090323
Si Si5 0.190137 0.907433 0.532715
O O1 0.064859 0.510079 0.698507
O O2 0.136226 0.380025 0.910306
O O3 0.000000 0.360821 0.930113
O O4 0.655441 0.210440 0.006039
O O5 0.561147 0.349123 0.055977
O O6 0.663727 0.458818 0.983626
O O7 0.629119 0.346320 0.651711
O O8 0.208076 0.805195 0.343331
O O9 0.247784 0.590652 0.188840
O O10 0.000000 0.989951 0.347311
#
# Coordination Sequence:
#
# PCOD9353060 Si02
#       5
#     8   8   8   4   8
#     4  10  26  51  75 106 144 189 249 307 361 429
#     4  12  26  46  69 104 148 189 242 303 367 438
#     4  12  27  43  75 104 140 198 243 300 371 439
#     4  12  24  46  72 100 144 192 236 296 366 432
#     4  12  25  45  67 104 145 186 246 300 362 444
#
# _framework density 26.400922000000001
#
# number of rings (size 3 to 8) (size 9 to 14) (size 15 to 20)
#    0.000    0.444    6.667    0.000    7.778    0.000 
#    4.000    0.000    0.000    0.000    0.000    0.000 
#    0.000    0.000    0.000    0.000    0.000    0.000 
#
# Total GULP energy -100340.538964 kJ/mol
# GULP energy per Si atom -5574.474387 kJ/mol
# Density = 2.634083 g / cm^3
# Si number density = 26.400922 Si / 1000 Ang^3
#
#
#
# Elastic Constant Matrix: (Units=GPa)
#
#
# Indices 1 2 3 4 5 6 
#
# 1 147.9550 44.4214 13.9176 0.0000 0.0000 0.0000
# 2 44.4214 41.4043 11.2869 0.0000 0.0000 0.0000
# 3 13.9176 11.2869 89.7991 0.0000 0.0000 0.0000
# 4 0.0000 0.0000 0.0000 54.3262 0.0000 0.0000
# 5 0.0000 0.0000 0.0000 0.0000 61.8403 0.0000
# 6 0.0000 0.0000 0.0000 0.0000 0.0000 35.7524
#
#
#
# Elastic Compliance Matrix: (Units=1/GPa)
#
#
# Indices 1 2 3 4 5 6 
#
# 1 0.009974 -0.010644 -0.000208 0.000000 0.000000 0.000000
# 2 -0.010644 0.036368 -0.002921 0.000000 0.000000 0.000000
# 3 -0.000208 -0.002921 0.011535 0.000000 0.000000 0.000000
# 4 0.000000 0.000000 0.000000 0.018407 0.000000 0.000000
# 5 0.000000 0.000000 0.000000 0.000000 0.016171 0.000000
# 6 0.000000 0.000000 0.000000 0.000000 0.000000 0.027970
#
#
# Mechanical properties :
#
#
# Convention : Reuss Voigt Hill
#
# Bulk Modulus (GPa) = 32.97002 46.49000 39.73001
# Shear Modulus (GPa) = 31.62880 44.35263 37.99071
#
# Velocity S-wave (km/s) = 3.46500 4.10318 3.79752
# Velocity P-wave (km/s) = 5.34075 6.33211 5.85744
#
# Compressibility (1/GPa) = 0.03033059
#
# Stress axis : x y z
#
# Youngs Moduli (GPa) = 100.25894 27.49636 86.68973
#
# Poissons Ratio (x) = 0.29268 0.01803
# Poissons Ratio (y) = 1.06719 0.25326
# Poissons Ratio (z) = 0.02085 0.08033
#
# Static dielectric constant tensor:
#      x y z
#    x 2.082200 0.000000 0.000000 
#    y 0.000000 2.084840 0.000000 
#    z 0.000000 0.000000 2.550660 
# 
# From -- ./inp_files/1521.got.cif
#   From: 2010.05.17/outbox.cif.g08.bks.cpg/sg36_1_cif.got.tgz:1521.got - 2010.06.03 17:41:39.
