data_PCOD9353274
_publ_section_title
;
Structure prediction by ZEFSAII (Michael W. Deem and Ramdas Pophale) SiO2 
 PCOD9353274
Probable space group: C M C 21
;
_chemical_formula_sum "Si O2"
_cell_formula_units_Z 24
_cell_length_a 18.861965
_cell_length_b 4.716548
_cell_length_c 8.517830
_cell_angle_alpha 90.000000
_cell_angle_beta 90.000000
_cell_angle_gamma 90.000000
_cell_volume 757.774805
_symmetry_space_group_name_H-M "C M C 21"
_symmetry_group_IT_number 36
_symmetry_cell_setting 'orthorhombic'
loop_
_space_group_symop_operation_xyz
x,y,z
-x,-y,1/2+z
x,-y,1/2+z
-x,y,z
1/2+x,1/2+y,z
1/2-x,1/2-y,1/2+z
1/2+x,1/2-y,1/2+z
1/2-x,1/2+y,z
loop_
_atom_site_type_symbol
_atom_site_label
_atom_site_fract_x
_atom_site_fract_y
_atom_site_fract_z
Si Si1 0.500000 0.958931 0.163661
Si Si2 0.500000 0.380002 0.374568
Si Si3 0.796397 0.312517 0.335281
Si Si4 0.882093 0.897214 0.115256
O O1 0.500000 0.657280 0.245990
O O2 0.436219 0.182819 0.211530
O O3 0.500000 0.935464 0.976733
O O4 0.569454 0.480430 0.477647
O O5 0.778102 0.641789 0.320405
O O6 0.824679 0.267318 0.510502
O O7 0.846151 0.155741 0.209370
#
# Coordination Sequence:
#
# PCOD9353274 Si02
#       4
#     4   4   8   8
#     4   8  20  42  74 112 152 198 251 329 386 456
#     4   8  20  42  74 112 152 198 251 329 386 456
#     4  12  26  47  74 109 152 204 256 312 378 462
#     4   9  24  44  72 110 154 195 262 314 392 451
#
# _framework density 31.671676000000001
#
# number of rings (size 3 to 8) (size 9 to 14) (size 15 to 20)
#    2.000    0.000    0.000    2.000    4.667    5.333 
#    6.000    0.000    0.000    0.000    0.000    0.000 
#    0.000    0.000    0.000    0.000    0.000    0.000 
#
# Total GULP energy -67233.504046 kJ/mol
# GULP energy per Si atom -5602.792004 kJ/mol
# Density = 3.159959 g / cm^3
# Si number density = 31.671676 Si / 1000 Ang^3
#
#
#
# Elastic Constant Matrix: (Units=GPa)
#
#
# Indices 1 2 3 4 5 6 
#
# 1 126.4800 29.5592 50.4821 0.0000 0.0000 0.0000
# 2 29.5592 239.3310 88.6561 0.0000 0.0000 0.0000
# 3 50.4821 88.6561 261.2617 0.0000 0.0000 0.0000
# 4 0.0000 0.0000 0.0000 88.0269 0.0000 0.0000
# 5 0.0000 0.0000 0.0000 0.0000 28.8336 0.0000
# 6 0.0000 0.0000 0.0000 0.0000 0.0000 45.7683
#
#
#
# Elastic Compliance Matrix: (Units=1/GPa)
#
#
# Indices 1 2 3 4 5 6 
#
# 1 0.008622 -0.000512 -0.001492 0.000000 0.000000 0.000000
# 2 -0.000512 0.004809 -0.001533 0.000000 0.000000 0.000000
# 3 -0.001492 -0.001533 0.004636 0.000000 0.000000 0.000000
# 4 0.000000 0.000000 0.000000 0.011360 0.000000 0.000000
# 5 0.000000 0.000000 0.000000 0.000000 0.034682 0.000000
# 6 0.000000 0.000000 0.000000 0.000000 0.000000 0.021849
#
#
# Mechanical properties :
#
#
# Convention : Reuss Voigt Hill
#
# Bulk Modulus (GPa) = 90.97042 107.16307 99.06674
# Shear Modulus (GPa) = 51.70782 63.08411 57.39596
#
# Velocity S-wave (km/s) = 4.04495 4.46782 4.26163
# Velocity P-wave (km/s) = 7.11343 7.77973 7.45403
#
# Compressibility (1/GPa) = 0.01099258
#
# Stress axis : x y z
#
# Youngs Moduli (GPa) = 115.98742 207.92314 215.69704
#
# Poissons Ratio (x) = 0.10648 0.32185
# Poissons Ratio (y) = 0.05940 0.33068
# Poissons Ratio (z) = 0.17307 0.31876
#
# Static dielectric constant tensor:
#      x y z
#    x 2.960760 0.000000 0.000000 
#    y 0.000000 2.425440 0.000000 
#    z 0.000000 0.000000 2.730160 
# 
# From -- ./inp_files/5441.got.cif
#   From: 2010.05.17/outbox.cif.g08.bks.cpg/sg36_3_cif.got.tgz:5441.got - 2010.06.03 17:41:39.
