data_PCOD9353820
_publ_section_title
;
Structure prediction by ZEFSAII (Michael W. Deem and Ramdas Pophale) SiO2 
 PCOD9353820
Probable space group: C C C 2
;
_chemical_formula_sum "Si O2"
_cell_formula_units_Z 48
_cell_length_a 16.734591
_cell_length_b 9.799670
_cell_length_c 12.052963
_cell_angle_alpha 90.000000
_cell_angle_beta 90.000000
_cell_angle_gamma 90.000000
_cell_volume 1976.607219
_symmetry_space_group_name_H-M "C C C 2"
_symmetry_group_IT_number 37
_symmetry_cell_setting 'orthorhombic'
loop_
_space_group_symop_operation_xyz
x,y,z
-x,-y,z
-x,y,1/2+z
x,-y,1/2+z
1/2+x,1/2+y,z
1/2-x,1/2-y,z
1/2-x,1/2+y,1/2+z
1/2+x,1/2-y,1/2+z
loop_
_atom_site_type_symbol
_atom_site_label
_atom_site_fract_x
_atom_site_fract_y
_atom_site_fract_z
Si Si1 0.423264 0.694174 0.261550
Si Si2 0.805270 0.426223 0.277890
Si Si3 0.943758 0.624442 0.353579
Si Si4 0.174235 0.117864 0.967219
Si Si5 0.656930 0.427890 0.694279
Si Si6 0.835361 0.187714 0.942089
O O1 0.353406 0.799774 0.226109
O O2 0.505877 0.776779 0.270600
O O3 0.395442 0.672009 0.389181
O O4 0.412393 0.544256 0.208904
O O5 0.867795 0.545364 0.303223
O O6 0.756266 0.388240 0.393297
O O7 0.737845 0.482825 0.198486
O O8 0.909386 0.711639 0.455964
O O9 0.000000 0.500000 0.389057
O O10 0.155168 0.959775 0.993138
O O11 0.164875 0.173797 0.090587
O O12 0.661191 0.345379 0.809750
O O13 0.750000 0.250000 0.969331
#
# Coordination Sequence:
#
# PCOD9353820 Si02
#       6
#     8   8   8   8   8   8
#     4   9  20  37  58  87 118 152 184 239 300 332
#     4   9  18  38  59  85 114 154 198 231 287 336
#     4  10  19  38  65  80 114 152 190 240 291 342
#     4  10  20  34  60  88 113 152 197 238 278 342
#     4  10  20  34  60  88 113 152 197 238 278 342
#     4  10  19  37  59  83 113 151 197 233 283 339
#
# _framework density 24.284034999999999
#
# number of rings (size 3 to 8) (size 9 to 14) (size 15 to 20)
#    0.000    2.667    3.333    2.000    0.000    5.333 
#    0.000    3.333    7.333    0.000    0.000    0.000 
#    0.000    0.000    0.000    0.000    0.000    0.000 
#
# Total GULP energy -133844.509026 kJ/mol
# GULP energy per Si atom -5576.854543 kJ/mol
# Density = 2.422876 g / cm^3
# Si number density = 24.284035 Si / 1000 Ang^3
#
#
#
# Elastic Constant Matrix: (Units=GPa)
#
#
# Indices 1 2 3 4 5 6 
#
# 1 127.5559 32.4087 9.0032 0.0000 0.0000 0.0000
# 2 32.4087 87.9827 -27.6093 0.0000 0.0000 0.0000
# 3 9.0032 -27.6093 101.6760 0.0000 0.0000 0.0000
# 4 0.0000 0.0000 0.0000 -4.8728 0.0000 0.0000
# 5 0.0000 0.0000 0.0000 0.0000 3.1754 0.0000
# 6 0.0000 0.0000 0.0000 0.0000 0.0000 42.7712
#
#
#
# Elastic Compliance Matrix: (Units=1/GPa)
#
#
# Indices 1 2 3 4 5 6 
#
# 1 0.008955 -0.003878 -0.001846 0.000000 0.000000 0.000000
# 2 -0.003878 0.014104 0.004173 0.000000 0.000000 0.000000
# 3 -0.001846 0.004173 0.011132 0.000000 0.000000 0.000000
# 4 0.000000 0.000000 0.000000 -0.205220 0.000000 0.000000
# 5 0.000000 0.000000 0.000000 0.000000 0.314925 0.000000
# 6 0.000000 0.000000 0.000000 0.000000 0.000000 0.023380
#
#
# Mechanical properties :
#
#
# Convention : Reuss Voigt Hill
#
# Bulk Modulus (GPa) = 32.16533 38.31331 35.23932
# Shear Modulus (GPa) = 27.66389 28.44222 28.05305
#
# Velocity S-wave (km/s) = 3.37884 3.42604 3.40252
# Velocity P-wave (km/s) = 5.33819 5.60908 5.47531
#
# Compressibility (1/GPa) = 0.03108938
#
# Stress axis : x y z
#
# Youngs Moduli (GPa) = 111.66586 70.90240 89.83262
#
# Poissons Ratio (x) = 0.27496 0.16583
# Poissons Ratio (y) = 0.43304 -0.37489
# Poissons Ratio (z) = 0.20614 -0.29589
#
# Static dielectric constant tensor:
#      x y z
#    x 1.952540 0.000000 0.000000 
#    y 0.000000 2.048040 0.000000 
#    z 0.000000 0.000000 2.011260 
# 
# From -- ./inp_files/12601.got.cif
#   From: 2010.05.17/outbox.cif.g08.bks.cpg/sg37_7_cif.got.tgz:12601.got - 2010.06.03 17:53:42.
