data_PCOD9353669
_publ_section_title
;
Structure prediction by ZEFSAII (Michael W. Deem and Ramdas Pophale) SiO2 
 PCOD9353669
Probable space group: C C C 2
;
_chemical_formula_sum "Si O2"
_cell_formula_units_Z 36
_cell_length_a 14.011084
_cell_length_b 10.330796
_cell_length_c 9.192427
_cell_angle_alpha 90.000000
_cell_angle_beta 90.000000
_cell_angle_gamma 90.000000
_cell_volume 1330.563826
_symmetry_space_group_name_H-M "C C C 2"
_symmetry_group_IT_number 37
_symmetry_cell_setting 'orthorhombic'
loop_
_space_group_symop_operation_xyz
x,y,z
-x,-y,z
-x,y,1/2+z
x,-y,1/2+z
1/2+x,1/2+y,z
1/2-x,1/2-y,z
1/2-x,1/2+y,1/2+z
1/2+x,1/2-y,1/2+z
loop_
_atom_site_type_symbol
_atom_site_label
_atom_site_fract_x
_atom_site_fract_y
_atom_site_fract_z
Si Si1 0.000000 0.500000 0.218100
Si Si2 0.750000 0.750000 0.346400
Si Si3 0.716022 0.002504 0.159779
Si Si4 0.887774 0.133095 0.039110
Si Si5 0.050019 0.226345 0.855167
Si Si6 0.750000 0.750000 0.867196
O O1 0.898386 0.507429 0.131591
O O2 0.990169 0.368363 0.313172
O O3 0.800779 0.969748 0.543148
O O4 0.836921 0.746267 0.459421
O O5 0.728819 0.126717 0.264777
O O6 0.746877 0.874845 0.245921
O O7 0.980673 0.131705 0.940349
O O8 0.922818 0.161852 0.200916
O O9 0.148849 0.238436 0.945157
#
# Coordination Sequence:
#
# PCOD9353669 Si02
#       6
#     4   4   8   8   8   4
#     4  10  18  42  76 120 148 218 276 350 426 516
#     4  12  23  48  79 120 169 230 289 354 433 534
#     4  10  22  44  80 114 168 209 289 351 434 513
#     4  11  24  48  75 120 166 223 279 359 430 518
#     4  10  21  43  78 114 168 215 286 349 440 514
#     4   8  19  44  71 112 155 218 271 354 415 518
#
# _framework density 27.0562
#
# number of rings (size 3 to 8) (size 9 to 14) (size 15 to 20)
#    0.000    1.778    2.222    4.000    0.000    0.889 
#    8.000   15.556    0.000    0.000    0.000    0.000 
#    0.000    0.000    0.000    0.000    0.000    0.000 
#
# Total GULP energy -100615.514917 kJ/mol
# GULP energy per Si atom -5589.750829 kJ/mol
# Density = 2.699462 g / cm^3
# Si number density = 27.056200 Si / 1000 Ang^3
#
#
#
# Elastic Constant Matrix: (Units=GPa)
#
#
# Indices 1 2 3 4 5 6 
#
# 1 283.0778 71.7799 89.7639 0.0000 0.0000 0.0000
# 2 71.7799 164.5186 54.4614 0.0000 0.0000 0.0000
# 3 89.7639 54.4614 116.3756 0.0000 0.0000 0.0000
# 4 0.0000 0.0000 0.0000 121.2591 0.0000 0.0000
# 5 0.0000 0.0000 0.0000 0.0000 63.5373 0.0000
# 6 0.0000 0.0000 0.0000 0.0000 0.0000 37.0908
#
#
#
# Elastic Compliance Matrix: (Units=1/GPa)
#
#
# Indices 1 2 3 4 5 6 
#
# 1 0.004820 -0.001032 -0.003235 0.000000 0.000000 0.000000
# 2 -0.001032 0.007414 -0.002673 0.000000 0.000000 0.000000
# 3 -0.003235 -0.002673 0.012339 0.000000 0.000000 0.000000
# 4 0.000000 0.000000 0.000000 0.008247 0.000000 0.000000
# 5 0.000000 0.000000 0.000000 0.000000 0.015739 0.000000
# 6 0.000000 0.000000 0.000000 0.000000 0.000000 0.026961
#
#
# Mechanical properties :
#
#
# Convention : Reuss Voigt Hill
#
# Bulk Modulus (GPa) = 93.52643 110.66471 102.09557
# Shear Modulus (GPa) = 53.78436 67.57524 60.67980
#
# Velocity S-wave (km/s) = 4.46340 5.00301 4.74089
# Velocity P-wave (km/s) = 7.82337 8.62346 8.23314
#
# Compressibility (1/GPa) = 0.01069217
#
# Stress axis : x y z
#
# Youngs Moduli (GPa) = 207.46479 134.88676 81.04362
#
# Poissons Ratio (x) = 0.13923 0.26216
# Poissons Ratio (y) = 0.21414 0.21665
# Poissons Ratio (z) = 0.67112 0.36059
#
# Static dielectric constant tensor:
#      x y z
#    x 2.361590 0.000000 0.000000 
#    y 0.000000 2.124920 0.000000 
#    z 0.000000 0.000000 2.122490 
# 
# From -- ./inp_files/7640.got.cif
#   From: 2010.05.17/outbox.cif.g08.bks.cpg/sg37_4_cif.got.tgz:7640.got - 2010.06.03 17:53:42.
