data_PCOD9353717
_publ_section_title
;
Structure prediction by ZEFSAII (Michael W. Deem and Ramdas Pophale) SiO2 
 PCOD9353717
Probable space group: C C C 2
;
_chemical_formula_sum "Si O2"
_cell_formula_units_Z 48
_cell_length_a 12.460001
_cell_length_b 13.157236
_cell_length_c 13.159270
_cell_angle_alpha 90.000000
_cell_angle_beta 90.000000
_cell_angle_gamma 90.000000
_cell_volume 2157.319851
_symmetry_space_group_name_H-M "C C C 2"
_symmetry_group_IT_number 37
_symmetry_cell_setting 'orthorhombic'
loop_
_space_group_symop_operation_xyz
x,y,z
-x,-y,z
-x,y,1/2+z
x,-y,1/2+z
1/2+x,1/2+y,z
1/2-x,1/2-y,z
1/2-x,1/2+y,1/2+z
1/2+x,1/2-y,1/2+z
loop_
_atom_site_type_symbol
_atom_site_label
_atom_site_fract_x
_atom_site_fract_y
_atom_site_fract_z
Si Si1 0.516175 0.253324 0.753740
Si Si2 0.122246 0.625572 0.122645
Si Si3 0.398552 0.303307 0.463075
Si Si4 0.757400 0.510710 0.476232
Si Si5 0.209663 0.143168 0.798495
Si Si6 0.571882 0.407590 0.594368
O O1 0.473610 0.148908 0.702619
O O2 0.576299 0.243977 0.859965
O O3 0.413503 0.328306 0.774816
O O4 0.584936 0.316750 0.673164
O O5 0.120290 0.727214 0.055239
O O6 0.227852 0.624318 0.193135
O O7 0.865727 0.463334 0.038919
O O8 0.301808 0.382406 0.452793
O O9 0.252765 0.555046 0.374267
O O10 0.502891 0.367609 0.498200
O O11 0.682535 0.450816 0.555289
O O12 0.250000 0.250000 0.844558
O O13 0.500000 0.500000 0.637959
#
# Coordination Sequence:
#
# PCOD9353717 Si02
#       6
#     8   8   8   8   8   8
#     4  10  19  33  57  86 123 159 196 245 313 357
#     4  10  22  40  58  87 130 168 190 249 317 376
#     4  10  19  33  56  92 124 157 200 245 303 363
#     4  11  20  33  59  90 123 155 205 248 307 364
#     4  10  20  36  60  85 119 165 199 245 317 364
#     4   9  18  28  50  91 120 143 192 259 298 349
#
# _framework density 22.249829999999999
#
# number of rings (size 3 to 8) (size 9 to 14) (size 15 to 20)
#    0.000    2.000    1.667    5.500    4.667    0.000 
#    0.000    0.000    3.667    8.000    0.000    0.000 
#    0.000    0.000    0.000    0.000    0.000    0.000 
#
# Total GULP energy -133906.976796 kJ/mol
# GULP energy per Si atom -5579.457366 kJ/mol
# Density = 2.219919 g / cm^3
# Si number density = 22.249830 Si / 1000 Ang^3
#
#
#
# Elastic Constant Matrix: (Units=GPa)
#
#
# Indices 1 2 3 4 5 6 
#
# 1 39.6694 17.4503 29.5212 0.0000 0.0000 0.0000
# 2 17.4503 50.8823 28.3859 0.0000 0.0000 0.0000
# 3 29.5212 28.3859 115.4134 0.0000 0.0000 0.0000
# 4 0.0000 0.0000 0.0000 31.2840 0.0000 0.0000
# 5 0.0000 0.0000 0.0000 0.0000 10.6086 0.0000
# 6 0.0000 0.0000 0.0000 0.0000 0.0000 12.0583
#
#
#
# Elastic Compliance Matrix: (Units=1/GPa)
#
#
# Indices 1 2 3 4 5 6 
#
# 1 0.033610 -0.007801 -0.006678 0.000000 0.000000 0.000000
# 2 -0.007801 0.024589 -0.004052 0.000000 0.000000 0.000000
# 3 -0.006678 -0.004052 0.011369 0.000000 0.000000 0.000000
# 4 0.000000 0.000000 0.000000 0.031965 0.000000 0.000000
# 5 0.000000 0.000000 0.000000 0.000000 0.094263 0.000000
# 6 0.000000 0.000000 0.000000 0.000000 0.000000 0.082931
#
#
# Mechanical properties :
#
#
# Convention : Reuss Voigt Hill
#
# Bulk Modulus (GPa) = 30.76426 39.63111 35.19769
# Shear Modulus (GPa) = 15.30806 19.49737 17.40271
#
# Velocity S-wave (km/s) = 2.62584 2.96344 2.79973
# Velocity P-wave (km/s) = 4.80105 5.43689 5.12884
#
# Compressibility (1/GPa) = 0.03250525
#
# Stress axis : x y z
#
# Youngs Moduli (GPa) = 29.75324 40.66812 87.95542
#
# Poissons Ratio (x) = 0.31725 0.58739
# Poissons Ratio (y) = 0.23210 0.35643
# Poissons Ratio (z) = 0.19870 0.16480
#
# Static dielectric constant tensor:
#      x y z
#    x 1.859890 0.000000 0.000000 
#    y 0.000000 1.850780 0.000000 
#    z 0.000000 0.000000 1.848530 
# 
# From -- ./inp_files/11480.got.cif
#   From: 2010.05.17/outbox.cif.g08.bks.cpg/sg37_6_cif.got.tgz:11480.got - 2010.06.03 17:53:42.
