data_PCOD9353346
_publ_section_title
;
Structure prediction by ZEFSAII (Michael W. Deem and Ramdas Pophale) SiO2 
 PCOD9353346
Probable space group: C M C 21
;
_chemical_formula_sum "Si O2"
_cell_formula_units_Z 32
_cell_length_a 9.000000
_cell_length_b 24.000000
_cell_length_c 15.000000
_cell_angle_alpha 90.000000
_cell_angle_beta 90.000000
_cell_angle_gamma 90.000000
_cell_volume 3240.000000
_symmetry_space_group_name_H-M "C M C 21"
_symmetry_group_IT_number 36
_symmetry_cell_setting 'orthorhombic'
loop_
_space_group_symop_operation_xyz
x,y,z
-x,-y,1/2+z
x,-y,1/2+z
-x,y,z
1/2+x,1/2+y,z
1/2-x,1/2-y,1/2+z
1/2+x,1/2-y,1/2+z
1/2-x,1/2+y,z
loop_
_atom_site_type_symbol
_atom_site_label
_atom_site_fract_x
_atom_site_fract_y
_atom_site_fract_z
Si Si1 0.331572 0.625941 0.397100
Si Si2 0.176715 0.422103 0.732287
Si Si3 0.177681 0.549376 0.705021
Si Si4 0.325875 0.087986 0.023754
Si Si5 0.831996 0.976553 0.022767
Si Si6 0.822768 0.166624 0.731921
Si Si7 0.826013 0.299449 0.045849
Si Si8 0.673499 0.311667 0.430342
O O1 0.500000 0.647061 0.389529
O O2 0.257011 0.618138 0.301481
O O3 0.334258 0.564833 0.440593
O O4 0.243657 0.661010 0.470430
O O5 0.219159 0.487788 0.741890
O O6 0.205522 0.405434 0.629611
O O7 0.000000 0.418992 0.747275
O O8 0.226236 0.546020 0.601241
O O9 0.257976 0.603915 0.743207
O O10 0.000000 0.555299 0.712778
O O11 0.500000 0.075329 0.014945
O O12 0.279691 0.140725 0.967096
O O13 0.229231 0.035757 0.993719
O O14 0.000000 0.980620 0.059083
O O15 0.752173 0.192578 0.641902
O O16 0.793897 0.199024 0.825291
O O17 0.000000 0.163569 0.718518
O O18 0.000000 0.312094 0.058034
O O19 0.811789 0.239391 0.998803
O O20 0.500000 0.329703 0.433076
#
# Coordination Sequence:
#
# PCOD9353346 Si02
#       8
#     8   8   8   8   8   8   8   8
#     4  11  23  37  59  92 124 164 211 254 309 369
#     4   9  21  38  57  88 129 168 206 252 309 371
#     4  10  20  36  59  90 124 162 208 254 309 370
#     4  10  22  40  62  90 124 164 209 257 311 368
#     4  10  20  35  57  87 125 164 202 251 311 367
#     4  11  23  41  64  91 124 160 204 258 313 372
#     4  11  24  44  67  90 124 166 211 262 312 368
#     4  10  25  45  65  92 124 164 209 258 318 373
#
# _framework density 9.8765429999999999
#
# number of rings (size 3 to 8) (size 9 to 14) (size 15 to 20)
#    0.000    1.750    1.250    3.000    1.750    7.500 
#    0.000    3.750    0.000    0.000    0.000    0.000 
#    0.000    0.000    0.000    0.000    0.000    0.000 
#
# Total GULP energy -178659.299675 kJ/mol
# GULP energy per Si atom -5583.103115 kJ/mol
# Density = 0.985406 g / cm^3
# Si number density = 9.876543 Si / 1000 Ang^3
#
#
#
# Elastic Constant Matrix: (Units=GPa)
#
#
# Indices 1 2 3 4 5 6 
#
# 1 72.9904 30.0960 35.4848 0.0000 0.0000 0.0000
# 2 30.0960 26.9486 22.8067 0.0000 0.0000 0.0000
# 3 35.4848 22.8067 60.1405 0.0000 0.0000 0.0000
# 4 0.0000 0.0000 0.0000 19.3244 0.0000 0.0000
# 5 0.0000 0.0000 0.0000 0.0000 34.5712 0.0000
# 6 0.0000 0.0000 0.0000 0.0000 0.0000 18.0194
#
#
#
# Elastic Compliance Matrix: (Units=1/GPa)
#
#
# Indices 1 2 3 4 5 6 
#
# 1 0.027083 -0.024626 -0.006641 0.000000 0.000000 0.000000
# 2 -0.024626 0.077037 -0.014684 0.000000 0.000000 0.000000
# 3 -0.006641 -0.014684 0.026115 0.000000 0.000000 0.000000
# 4 0.000000 0.000000 0.000000 0.051748 0.000000 0.000000
# 5 0.000000 0.000000 0.000000 0.000000 0.028926 0.000000
# 6 0.000000 0.000000 0.000000 0.000000 0.000000 0.055496
#
#
# Mechanical properties :
#
#
# Convention : Reuss Voigt Hill
#
# Bulk Modulus (GPa) = 26.08753 37.42828 31.75790
# Shear Modulus (GPa) = 13.47405 19.16248 16.31827
#
# Velocity S-wave (km/s) = 2.61458 3.11802 2.87733
# Velocity P-wave (km/s) = 4.72760 5.65261 5.21067
#
# Compressibility (1/GPa) = 0.03833249
#
# Stress axis : x y z
#
# Youngs Moduli (GPa) = 36.92369 12.98080 38.29235
#
# Poissons Ratio (x) = 0.31966 0.25431
# Poissons Ratio (y) = 0.90927 0.56230
# Poissons Ratio (z) = 0.24522 0.19061
#
# Static dielectric constant tensor:
#      x y z
#    x 1.684470 0.000000 0.000000 
#    y 0.000000 1.725390 0.000000 
#    z 0.000000 0.000000 1.677270 
# 
# From -- ./inp_files/10931.got.cif
#   From: 2010.05.17/outbox.ucp.g08.bks.cvg/sg36_6_cif.got.tgz:10931.got - 2010.06.11 10:37:26.
