data_PCOD9353581
_publ_section_title
;
Structure prediction by ZEFSAII (Michael W. Deem and Ramdas Pophale) SiO2 
 PCOD9353581
Probable space group: C C C 2
;
_chemical_formula_sum "Si O2"
_cell_formula_units_Z 48
_cell_length_a 9.177728
_cell_length_b 17.539273
_cell_length_c 14.969326
_cell_angle_alpha 90.000000
_cell_angle_beta 90.000000
_cell_angle_gamma 90.000000
_cell_volume 2409.622539
_symmetry_space_group_name_H-M "C C C 2"
_symmetry_group_IT_number 37
_symmetry_cell_setting 'orthorhombic'
loop_
_space_group_symop_operation_xyz
x,y,z
-x,-y,z
-x,y,1/2+z
x,-y,1/2+z
1/2+x,1/2+y,z
1/2-x,1/2-y,z
1/2-x,1/2+y,1/2+z
1/2+x,1/2-y,1/2+z
loop_
_atom_site_type_symbol
_atom_site_label
_atom_site_fract_x
_atom_site_fract_y
_atom_site_fract_z
Si Si1 0.348240 0.462764 0.358790
Si Si2 0.848429 0.545776 0.717548
Si Si3 0.902818 0.712757 0.655441
Si Si4 0.354855 0.686478 0.742010
Si Si5 0.826733 0.504434 0.018822
Si Si6 0.814332 0.672863 0.053784
O O1 0.500000 0.500000 0.384757
O O2 0.261400 0.519628 0.293289
O O3 0.371948 0.385657 0.304091
O O4 0.252710 0.452760 0.447080
O O5 0.875573 0.635897 0.711937
O O6 0.791531 0.520297 0.619797
O O7 0.000000 0.500000 0.731103
O O8 0.750000 0.750000 0.627057
O O9 0.995034 0.774280 0.712175
O O10 0.015583 0.686633 0.577489
O O11 0.250000 0.750000 0.785602
O O12 0.268020 0.665578 0.650146
O O13 0.788355 0.593528 0.005018
O O14 0.000000 0.500000 0.009170
O O15 0.750000 0.750000 0.011562
#
# Coordination Sequence:
#
# PCOD9353581 Si02
#       6
#     8   8   8   8   8   8
#     4  12  25  40  60  97 132 165 208 270 325 374
#     4  11  20  41  68  88 122 171 217 259 311 388
#     4  10  18  33  63  96 116 156 209 258 318 374
#     4   9  19  39  65  89 120 163 210 256 320 375
#     4  11  22  41  64  92 124 168 224 252 315 392
#     4   9  18  38  63  89 119 162 207 258 314 372
#
# _framework density 19.920131999999999
#
# number of rings (size 3 to 8) (size 9 to 14) (size 15 to 20)
#    0.000    2.000    5.000    2.500    0.000    0.667 
#    6.000    5.000    0.000    0.000    0.000    0.000 
#    0.000    0.000    0.000    0.000    0.000    0.000 
#
# Total GULP energy -133997.891002 kJ/mol
# GULP energy per Si atom -5583.245458 kJ/mol
# Density = 1.987479 g / cm^3
# Si number density = 19.920132 Si / 1000 Ang^3
#
#
#
# Elastic Constant Matrix: (Units=GPa)
#
#
# Indices 1 2 3 4 5 6 
#
# 1 72.3964 6.2659 21.0317 0.0000 0.0000 0.0000
# 2 6.2659 89.3428 -4.4291 0.0000 0.0000 0.0000
# 3 21.0317 -4.4291 43.8543 0.0000 0.0000 0.0000
# 4 0.0000 0.0000 0.0000 -27.9511 0.0000 0.0000
# 5 0.0000 0.0000 0.0000 0.0000 131.0141 0.0000
# 6 0.0000 0.0000 0.0000 0.0000 0.0000 20.1522
#
#
#
# Elastic Compliance Matrix: (Units=1/GPa)
#
#
# Indices 1 2 3 4 5 6 
#
# 1 0.016255 -0.001534 -0.007951 0.000000 0.000000 0.000000
# 2 -0.001534 0.011394 0.001887 0.000000 0.000000 0.000000
# 3 -0.007951 0.001887 0.026806 0.000000 0.000000 0.000000
# 4 0.000000 0.000000 0.000000 -0.035777 0.000000 0.000000
# 5 0.000000 0.000000 0.000000 0.000000 0.007633 0.000000
# 6 0.000000 0.000000 0.000000 0.000000 0.000000 0.049622
#
#
# Mechanical properties :
#
#
# Convention : Reuss Voigt Hill
#
# Bulk Modulus (GPa) = 25.47196 27.92561 26.69879
# Shear Modulus (GPa) = 47.97678 36.82470 42.40074
#
# Velocity S-wave (km/s) = 4.91293 4.30422 4.61861
# Velocity P-wave (km/s) = 6.70800 6.22503 6.47102
#
# Compressibility (1/GPa) = 0.03925886
#
# Stress axis : x y z
#
# Youngs Moduli (GPa) = 61.51814 87.76574 37.30464
#
# Poissons Ratio (x) = 0.13465 0.29660
# Poissons Ratio (y) = 0.09438 -0.07038
# Poissons Ratio (z) = 0.48911 -0.16557
#
# Static dielectric constant tensor:
#      x y z
#    x 1.256940 0.000000 0.000000 
#    y 0.000000 1.724960 0.000000 
#    z 0.000000 0.000000 1.668410 
# 
# From -- ./inp_files/10592.got.cif
#   From: 2010.05.17/outbox.cif.g08.bks.cpg/sg37_6_cif.got.tgz:10592.got - 2010.06.03 17:53:42.
