data_PCOD9353622
_publ_section_title
;
Structure prediction by ZEFSAII (Michael W. Deem and Ramdas Pophale) SiO2 
 PCOD9353622
Probable space group: C C C 2
;
_chemical_formula_sum "Si O2"
_cell_formula_units_Z 36
_cell_length_a 5.119007
_cell_length_b 19.019842
_cell_length_c 17.823515
_cell_angle_alpha 90.000000
_cell_angle_beta 90.000000
_cell_angle_gamma 90.000000
_cell_volume 1735.345621
_symmetry_space_group_name_H-M "C C C 2"
_symmetry_group_IT_number 37
_symmetry_cell_setting 'orthorhombic'
loop_
_space_group_symop_operation_xyz
x,y,z
-x,-y,z
-x,y,1/2+z
x,-y,1/2+z
1/2+x,1/2+y,z
1/2-x,1/2-y,z
1/2-x,1/2+y,1/2+z
1/2+x,1/2-y,1/2+z
loop_
_atom_site_type_symbol
_atom_site_label
_atom_site_fract_x
_atom_site_fract_y
_atom_site_fract_z
Si Si1 0.250000 0.250000 0.265041
Si Si2 0.870635 0.827452 0.871177
Si Si3 0.477728 0.878869 0.246119
Si Si4 0.003546 0.198720 0.033480
Si Si5 0.474242 0.422862 0.156538
O O1 0.391475 0.309934 0.314629
O O2 0.464090 0.203223 0.223805
O O3 0.750000 0.750000 0.879492
O O4 0.646376 0.873798 0.830786
O O5 0.978650 0.842867 0.953517
O O6 0.731737 0.919435 0.215121
O O7 0.237660 0.909577 0.201364
O O8 0.250000 0.250000 0.039611
O O9 0.033332 0.140553 0.097648
O O10 0.750000 0.250000 0.034971
O O11 0.500000 0.500000 0.121107
#
# Coordination Sequence:
#
# PCOD9353622 Si02
#       5
#     4   8   8   8   8
#     4  10  18  36  64 104 126 156 216 296 318 380
#     4   9  19  37  64 101 132 161 216 287 337 385
#     4  11  23  39  68  92 132 172 224 271 339 389
#     4  11  24  40  69 102 131 172 224 278 340 407
#     4  12  27  44  63  95 142 182 222 272 338 402
#
# _framework density 20.745145000000001
#
# number of rings (size 3 to 8) (size 9 to 14) (size 15 to 20)
#    0.000    1.333    3.333    2.000    4.667    0.000 
#    0.000    1.111    0.000    0.000    0.000    0.000 
#    0.000    0.000    0.000    0.000    0.000    0.000 
#
# Total GULP energy -100251.497127 kJ/mol
# GULP energy per Si atom -5569.527618 kJ/mol
# Density = 2.069793 g / cm^3
# Si number density = 20.745145 Si / 1000 Ang^3
#
#
#
# Elastic Constant Matrix: (Units=GPa)
#
#
# Indices 1 2 3 4 5 6 
#
# 1 159.6708 42.8753 28.0387 0.0000 0.0000 0.0000
# 2 42.8753 94.5219 51.2789 0.0000 0.0000 0.0000
# 3 28.0387 51.2789 66.9985 0.0000 0.0000 0.0000
# 4 0.0000 0.0000 0.0000 4.3189 0.0000 0.0000
# 5 0.0000 0.0000 0.0000 0.0000 15.9720 0.0000
# 6 0.0000 0.0000 0.0000 0.0000 0.0000 14.0674
#
#
#
# Elastic Compliance Matrix: (Units=1/GPa)
#
#
# Indices 1 2 3 4 5 6 
#
# 1 0.007161 -0.002775 -0.000873 0.000000 0.000000 0.000000
# 2 -0.002775 0.019167 -0.013508 0.000000 0.000000 0.000000
# 3 -0.000873 -0.013508 0.025630 0.000000 0.000000 0.000000
# 4 0.000000 0.000000 0.000000 0.231541 0.000000 0.000000
# 5 0.000000 0.000000 0.000000 0.000000 0.062610 0.000000
# 6 0.000000 0.000000 0.000000 0.000000 0.000000 0.071086
#
#
# Mechanical properties :
#
#
# Convention : Reuss Voigt Hill
#
# Bulk Modulus (GPa) = 56.67238 62.84189 59.75714
# Shear Modulus (GPa) = 10.93159 20.13821 15.53490
#
# Velocity S-wave (km/s) = 2.29802 3.11906 2.73947
# Velocity P-wave (km/s) = 5.86676 6.58251 6.23492
#
# Compressibility (1/GPa) = 0.01764528
#
# Stress axis : x y z
#
# Youngs Moduli (GPa) = 139.63970 52.17429 39.01641
#
# Poissons Ratio (x) = 0.14476 0.03408
# Poissons Ratio (y) = 0.38744 0.52705
# Poissons Ratio (z) = 0.12196 0.70479
#
# Static dielectric constant tensor:
#      x y z
#    x 1.896660 0.000000 0.000000 
#    y 0.000000 1.756610 0.000000 
#    z 0.000000 0.000000 1.872230 
# 
# From -- ./inp_files/13800.got.cif
#   From: 2010.05.17/outbox.cif.g08.bks.cpg/sg37_7_cif.got.tgz:13800.got - 2010.06.03 17:53:42.
