data_PCOD9353964
_publ_section_title
;
Structure prediction by ZEFSAII (Michael W. Deem and Ramdas Pophale) SiO2 
 PCOD9353964
Probable space group: C C C 2
;
_chemical_formula_sum "Si O2"
_cell_formula_units_Z 64
_cell_length_a 28.029637
_cell_length_b 5.536789
_cell_length_c 19.549876
_cell_angle_alpha 90.000000
_cell_angle_beta 90.000000
_cell_angle_gamma 90.000000
_cell_volume 3034.027089
_symmetry_space_group_name_H-M "C C C 2"
_symmetry_group_IT_number 37
_symmetry_cell_setting 'orthorhombic'
loop_
_space_group_symop_operation_xyz
x,y,z
-x,-y,z
-x,y,1/2+z
x,-y,1/2+z
1/2+x,1/2+y,z
1/2-x,1/2-y,z
1/2-x,1/2+y,1/2+z
1/2+x,1/2-y,1/2+z
loop_
_atom_site_type_symbol
_atom_site_label
_atom_site_fract_x
_atom_site_fract_y
_atom_site_fract_z
Si Si1 0.362814 0.635117 0.524390
Si Si2 0.381388 0.683937 0.667791
Si Si3 0.634333 0.240234 0.928647
Si Si4 0.562334 0.182657 0.143522
Si Si5 0.946779 0.468536 0.494644
Si Si6 0.303077 0.847077 0.396820
Si Si7 0.372710 0.418345 0.805326
Si Si8 0.977103 0.746439 0.778903
O O1 0.347746 0.704334 0.600915
O O2 0.358667 0.357093 0.503170
O O3 0.418235 0.723161 0.515393
O O4 0.329949 0.757197 0.466191
O O5 0.410239 0.438800 0.647058
O O6 0.363328 0.601568 0.742450
O O7 0.409134 0.940735 0.669668
O O8 0.617555 0.432245 0.873736
O O9 0.683494 0.128416 0.901244
O O10 0.590116 0.064377 0.938540
O O11 0.519183 0.230552 0.195993
O O12 0.550792 0.120284 0.065453
O O13 0.000000 0.500000 0.467489
O O14 0.250000 0.750000 0.398351
O O15 0.329036 0.748058 0.328707
O O16 0.420546 0.267499 0.791055
O O17 0.000000 0.500000 0.805766
O O18 0.000000 0.000000 0.801979
#
# Coordination Sequence:
#
# PCOD9353964 Si02
#       8
#     8   8   8   8   8   8   8   8
#     4   9  20  40  61  93 121 167 218 264 330 382
#     4  10  20  38  67  93 129 171 213 278 323 372
#     4  10  21  42  60  87 125 166 213 265 326 396
#     4  10  20  36  61  90 126 176 228 265 314 373
#     4  10  20  35  56  89 128 171 221 272 311 376
#     4  10  23  44  72  91 122 166 219 271 338 414
#     4  10  24  39  63  94 128 173 217 268 332 393
#     4  11  23  39  59  92 132 182 223 266 319 390
#
# _framework density 21.094075
#
# number of rings (size 3 to 8) (size 9 to 14) (size 15 to 20)
#    0.000    2.000    1.250    1.875    5.250    4.500 
#    6.750    0.000    5.500    0.000    0.000    0.000 
#    0.000    0.000    0.000    0.000    0.000    0.000 
#
# Total GULP energy -178137.200009 kJ/mol
# GULP energy per Si atom -5566.787500 kJ/mol
# Density = 2.104606 g / cm^3
# Si number density = 21.094075 Si / 1000 Ang^3
#
#
#
# Elastic Constant Matrix: (Units=GPa)
#
#
# Indices 1 2 3 4 5 6 
#
# 1 109.8603 30.5203 14.1254 0.0000 0.0000 0.0000
# 2 30.5203 108.8801 16.5575 0.0000 0.0000 0.0000
# 3 14.1254 16.5575 89.6352 0.0000 0.0000 0.0000
# 4 0.0000 0.0000 0.0000 33.9934 0.0000 0.0000
# 5 0.0000 0.0000 0.0000 0.0000 20.9638 0.0000
# 6 0.0000 0.0000 0.0000 0.0000 0.0000 18.0449
#
#
#
# Elastic Compliance Matrix: (Units=1/GPa)
#
#
# Indices 1 2 3 4 5 6 
#
# 1 0.009973 -0.002630 -0.001086 0.000000 0.000000 0.000000
# 2 -0.002630 0.010144 -0.001459 0.000000 0.000000 0.000000
# 3 -0.001086 -0.001459 0.011597 0.000000 0.000000 0.000000
# 4 0.000000 0.000000 0.000000 0.029418 0.000000 0.000000
# 5 0.000000 0.000000 0.000000 0.000000 0.047701 0.000000
# 6 0.000000 0.000000 0.000000 0.000000 0.000000 0.055417
#
#
# Mechanical properties :
#
#
# Convention : Reuss Voigt Hill
#
# Bulk Modulus (GPa) = 46.81033 47.86465 47.33749
# Shear Modulus (GPa) = 27.51470 31.07858 29.29664
#
# Velocity S-wave (km/s) = 3.61554 3.84257 3.73078
# Velocity P-wave (km/s) = 6.29832 6.51363 6.40688
#
# Compressibility (1/GPa) = 0.02136281
#
# Stress axis : x y z
#
# Youngs Moduli (GPa) = 100.27266 98.58383 86.22936
#
# Poissons Ratio (x) = 0.25931 0.09362
# Poissons Ratio (y) = 0.26376 0.12583
# Poissons Ratio (z) = 0.10887 0.14386
#
# Static dielectric constant tensor:
#      x y z
#    x 1.781920 0.000000 0.000000 
#    y 0.000000 1.933750 0.000000 
#    z 0.000000 0.000000 1.822150 
# 
# From -- ./inp_files/17646.got.cif
#   From: 2010.05.17/outbox.cif.g08.bks.cpg/sg37_9_cif.got.tgz:17646.got - 2010.06.03 17:53:42.
