data_PCOD9353298
_publ_section_title
;
Structure prediction by ZEFSAII (Michael W. Deem and Ramdas Pophale) SiO2 
 PCOD9353298
Probable space group: C M C 21
;
_chemical_formula_sum "Si O2"
_cell_formula_units_Z 32
_cell_length_a 9.000000
_cell_length_b 21.000000
_cell_length_c 21.000000
_cell_angle_alpha 90.000000
_cell_angle_beta 90.000000
_cell_angle_gamma 90.000000
_cell_volume 3969.000000
_symmetry_space_group_name_H-M "C M C 21"
_symmetry_group_IT_number 36
_symmetry_cell_setting 'orthorhombic'
loop_
_space_group_symop_operation_xyz
x,y,z
-x,-y,1/2+z
x,-y,1/2+z
-x,y,z
1/2+x,1/2+y,z
1/2-x,1/2-y,1/2+z
1/2+x,1/2-y,1/2+z
1/2-x,1/2+y,z
loop_
_atom_site_type_symbol
_atom_site_label
_atom_site_fract_x
_atom_site_fract_y
_atom_site_fract_z
Si Si1 0.819594 0.226575 0.140930
Si Si2 0.819597 0.950190 0.479473
Si Si3 0.679508 0.772519 0.997727
Si Si4 0.819326 0.916688 0.623813
Si Si5 0.319801 0.833183 0.246873
Si Si6 0.179068 0.942797 0.161073
Si Si7 0.819331 0.166488 0.889289
Si Si8 0.178555 0.908493 0.012921
O O1 0.774510 0.248743 0.069170
O O2 0.771319 0.152627 0.149333
O O3 0.775917 0.275215 0.197824
O O4 0.000000 0.226798 0.140698
O O5 0.774718 0.923885 0.549399
O O6 0.775393 0.900579 0.424093
O O7 0.000000 0.950330 0.479307
O O8 0.774620 0.024972 0.478497
O O9 0.500000 0.775829 0.998164
O O10 0.745636 0.843463 0.989497
O O11 0.719184 0.722724 0.940775
O O12 0.000000 0.916892 0.624208
O O13 0.775833 0.982109 0.659967
O O14 0.500000 0.834504 0.250482
O O15 0.259520 0.897388 0.212030
O O16 0.252953 0.826769 0.318740
O O17 0.209154 0.918184 0.088728
O O18 0.000000 0.939476 0.170753
O O19 0.000000 0.166834 0.882545
O O20 0.000000 0.902883 0.006204
#
# Coordination Sequence:
#
# PCOD9353298 Si02
#       8
#     8   8   8   8   8   8   8   8
#     4   9  16  29  50  76 101 130 169 210 252 299
#     4   8  14  28  50  75  97 123 162 210 251 286
#     4  10  18  31  53  78 102 134 171 210 256 305
#     4   8  13  26  51  78  97 117 163 218 250 280
#     4  11  22  34  50  73 107 141 167 205 260 317
#     4   9  17  30  51  77 101 127 164 210 253 297
#     4  10  20  35  55  74  98 135 179 216 248 299
#     4   9  17  29  50  79 105 125 157 211 260 297
#
# _framework density 8.0624839999999995
#
# number of rings (size 3 to 8) (size 9 to 14) (size 15 to 20)
#    0.000    2.750    2.500    1.875    0.000    0.500 
#    0.000    1.875    0.000    9.000    0.000    0.000 
#    0.000    0.000    0.000    0.000    0.000    0.000 
#
# Total GULP energy -178170.452774 kJ/mol
# GULP energy per Si atom -5567.826649 kJ/mol
# Density = 0.804413 g / cm^3
# Si number density = 8.062484 Si / 1000 Ang^3
#
#
#
# Elastic Constant Matrix: (Units=GPa)
#
#
# Indices 1 2 3 4 5 6 
#
# 1 23.1309 28.0722 29.0262 0.0000 0.0000 0.0000
# 2 28.0722 178.4490 84.1340 0.0000 0.0000 0.0000
# 3 29.0262 84.1340 130.5529 0.0000 0.0000 0.0000
# 4 0.0000 0.0000 0.0000 31.8937 0.0000 0.0000
# 5 0.0000 0.0000 0.0000 0.0000 25.8575 0.0000
# 6 0.0000 0.0000 0.0000 0.0000 0.0000 27.3529
#
#
#
# Elastic Compliance Matrix: (Units=1/GPa)
#
#
# Indices 1 2 3 4 5 6 
#
# 1 0.062613 -0.004721 -0.010879 0.000000 0.000000 0.000000
# 2 -0.004721 0.008406 -0.004367 0.000000 0.000000 0.000000
# 3 -0.010879 -0.004367 0.012893 0.000000 0.000000 0.000000
# 4 0.000000 0.000000 0.000000 0.031354 0.000000 0.000000
# 5 0.000000 0.000000 0.000000 0.000000 0.038674 0.000000
# 6 0.000000 0.000000 0.000000 0.000000 0.000000 0.036559
#
#
# Mechanical properties :
#
#
# Convention : Reuss Voigt Hill
#
# Bulk Modulus (GPa) = 22.73873 68.28861 45.51367
# Shear Modulus (GPa) = 20.40059 29.74749 25.07404
#
# Velocity S-wave (km/s) = 3.56076 4.29978 3.94760
# Velocity P-wave (km/s) = 5.57113 8.19100 7.00464
#
# Compressibility (1/GPa) = 0.04397783
#
# Stress axis : x y z
#
# Youngs Moduli (GPa) = 15.97118 118.96885 77.56205
#
# Poissons Ratio (x) = 0.56163 0.84377
# Poissons Ratio (y) = 0.07540 0.33874
# Poissons Ratio (z) = 0.17374 0.51958
#
# Static dielectric constant tensor:
#      x y z
#    x 1.541970 0.000000 0.000000 
#    y 0.000000 1.571080 0.000000 
#    z 0.000000 0.000000 1.527860 
# 
# From -- ./inp_files/13848.got.cif
#   From: 2010.05.17/outbox.ucp.g08.bks.cvg/sg36_7_cif.got.tgz:13848.got - 2010.06.11 10:37:26.
