data_PCOD9353024
_publ_section_title
;
Structure prediction by ZEFSAII (Michael W. Deem and Ramdas Pophale) SiO2 
 PCOD9353024
Probable space group: C M C 21
;
_chemical_formula_sum "Si O2"
_cell_formula_units_Z 48
_cell_length_a 27.187466
_cell_length_b 9.277036
_cell_length_c 7.631914
_cell_angle_alpha 90.000000
_cell_angle_beta 90.000000
_cell_angle_gamma 90.000000
_cell_volume 1924.914487
_symmetry_space_group_name_H-M "C M C 21"
_symmetry_group_IT_number 36
_symmetry_cell_setting 'orthorhombic'
loop_
_space_group_symop_operation_xyz
x,y,z
-x,-y,1/2+z
x,-y,1/2+z
-x,y,z
1/2+x,1/2+y,z
1/2-x,1/2-y,1/2+z
1/2+x,1/2-y,1/2+z
1/2-x,1/2+y,z
loop_
_atom_site_type_symbol
_atom_site_label
_atom_site_fract_x
_atom_site_fract_y
_atom_site_fract_z
Si Si1 0.896064 0.852142 0.403690
Si Si2 0.256209 0.231438 0.852709
Si Si3 0.637920 0.334522 0.784945
Si Si4 0.604699 0.130922 0.079652
Si Si5 0.289491 0.959999 0.656846
Si Si6 0.500000 0.015984 0.189791
Si Si7 0.500000 0.246635 0.506922
O O1 0.864606 0.816730 0.576594
O O2 0.891753 0.745234 0.238903
O O3 0.951695 0.839353 0.475057
O O4 0.883117 0.010326 0.335829
O O5 0.306703 0.321316 0.855313
O O6 0.213708 0.345667 0.818035
O O7 0.264702 0.109960 0.703370
O O8 0.256637 0.127722 0.019195
O O9 0.609356 0.212025 0.894388
O O10 0.653763 0.033338 0.098151
O O11 0.552251 0.055168 0.098753
O O12 0.500000 0.118801 0.360068
O O13 0.500000 0.841848 0.189063
#
# Coordination Sequence:
#
# PCOD9353024 Si02
#       7
#     8   8   8   8   8   4   4
#     4  11  24  43  69  98 141 184 238 294 359 426
#     4  11  27  44  73 105 143 190 239 300 366 438
#     4  11  25  43  71 101 140 190 236 295 367 430
#     4  10  25  45  69 104 143 184 240 301 357 441
#     4  11  26  46  71 106 143 187 243 300 368 434
#     4  10  24  45  69 100 146 181 242 291 367 416
#     4  10  26  41  69 104 134 189 238 303 357 432
#
# _framework density 24.936173
#
# number of rings (size 3 to 8) (size 9 to 14) (size 15 to 20)
#    0.000    1.333    1.667    1.000   11.667    4.000 
#    0.000    0.000    0.000    0.000    0.000    0.000 
#    0.000    0.000    0.000    0.000    0.000    0.000 
#
# Total GULP energy -134425.890654 kJ/mol
# GULP energy per Si atom -5601.078777 kJ/mol
# Density = 2.487942 g / cm^3
# Si number density = 24.936173 Si / 1000 Ang^3
#
#
#
# Elastic Constant Matrix: (Units=GPa)
#
#
# Indices 1 2 3 4 5 6 
#
# 1 126.0875 50.1659 -7.6555 0.0000 0.0000 0.0000
# 2 50.1659 139.6319 19.4386 0.0000 0.0000 0.0000
# 3 -7.6555 19.4386 95.8780 0.0000 0.0000 0.0000
# 4 0.0000 0.0000 0.0000 46.7565 0.0000 0.0000
# 5 0.0000 0.0000 0.0000 0.0000 34.3995 0.0000
# 6 0.0000 0.0000 0.0000 0.0000 0.0000 35.1814
#
#
#
# Elastic Compliance Matrix: (Units=1/GPa)
#
#
# Indices 1 2 3 4 5 6 
#
# 1 0.009455 -0.003604 0.001486 0.000000 0.000000 0.000000
# 2 -0.003604 0.008743 -0.002060 0.000000 0.000000 0.000000
# 3 0.001486 -0.002060 0.010966 0.000000 0.000000 0.000000
# 4 0.000000 0.000000 0.000000 0.021387 0.000000 0.000000
# 5 0.000000 0.000000 0.000000 0.000000 0.029070 0.000000
# 6 0.000000 0.000000 0.000000 0.000000 0.000000 0.028424
#
#
# Mechanical properties :
#
#
# Convention : Reuss Voigt Hill
#
# Bulk Modulus (GPa) = 48.05975 53.94395 51.00185
# Shear Modulus (GPa) = 40.53864 43.24403 41.89134
#
# Velocity S-wave (km/s) = 4.03637 4.16888 4.10316
# Velocity P-wave (km/s) = 6.40609 6.69720 6.55326
#
# Compressibility (1/GPa) = 0.02080743
#
# Stress axis : x y z
#
# Youngs Moduli (GPa) = 105.76413 114.37401 91.18877
#
# Poissons Ratio (x) = 0.41217 -0.13547
# Poissons Ratio (y) = 0.38115 0.18788
# Poissons Ratio (z) = -0.15712 0.23565
#
# Static dielectric constant tensor:
#      x y z
#    x 1.931730 0.000000 0.000000 
#    y 0.000000 1.918330 0.000000 
#    z 0.000000 0.000000 2.172480 
# 
# From -- ./inp_files/6022.got.cif
#   From: 2010.05.17/outbox.cif.g08.bks.cpg/sg36_4_cif.got.tgz:6022.got - 2010.06.03 17:41:39.
