data_PCOD9353202
_publ_section_title
;
Structure prediction by ZEFSAII (Michael W. Deem and Ramdas Pophale) SiO2 
 PCOD9353202
Probable space group: C M C 21
;
_chemical_formula_sum "Si O2"
_cell_formula_units_Z 48
_cell_length_a 8.334876
_cell_length_b 16.744655
_cell_length_c 14.598853
_cell_angle_alpha 90.000000
_cell_angle_beta 90.000000
_cell_angle_gamma 90.000000
_cell_volume 2037.483416
_symmetry_space_group_name_H-M "C M C 21"
_symmetry_group_IT_number 36
_symmetry_cell_setting 'orthorhombic'
loop_
_space_group_symop_operation_xyz
x,y,z
-x,-y,1/2+z
x,-y,1/2+z
-x,y,z
1/2+x,1/2+y,z
1/2-x,1/2-y,1/2+z
1/2+x,1/2-y,1/2+z
1/2-x,1/2+y,z
loop_
_atom_site_type_symbol
_atom_site_label
_atom_site_fract_x
_atom_site_fract_y
_atom_site_fract_z
Si Si1 0.811987 0.544508 0.152300
Si Si2 0.687399 0.554903 0.495575
Si Si3 0.812593 0.294522 0.754894
Si Si4 0.690777 0.540576 0.820680
Si Si5 0.684629 0.211607 0.588377
Si Si6 0.312436 0.199759 0.916625
O O1 0.715888 0.520509 0.062281
O O2 0.758663 0.625263 0.203050
O O3 0.784111 0.475299 0.227259
O O4 0.000000 0.552080 0.129778
O O5 0.500000 0.576529 0.494998
O O6 0.784323 0.627396 0.539295
O O7 0.714438 0.728073 0.344818
O O8 0.736145 0.472123 0.894324
O O9 0.790179 0.225678 0.678531
O O10 0.000000 0.302212 0.779358
O O11 0.500000 0.536539 0.803977
O O12 0.733640 0.623697 0.868275
O O13 0.500000 0.219115 0.615200
O O14 0.731891 0.276801 0.512060
O O15 0.500000 0.185704 0.931397
#
# Coordination Sequence:
#
# PCOD9353202 Si02
#       6
#     8   8   8   8   8   8
#     4  11  24  41  64  93 125 163 204 253 310 367
#     4  11  24  42  65  92 124 163 207 256 309 367
#     4  11  24  43  66  93 127 165 208 257 310 369
#     4  11  24  42  65  92 124 163 207 256 309 367
#     4  12  25  42  65  93 127 165 208 257 310 369
#     4  12  25  42  65  93 127 165 208 257 310 369
#
# _framework density 23.558472999999999
#
# number of rings (size 3 to 8) (size 9 to 14) (size 15 to 20)
#    0.000    0.667    0.000    8.000    0.000   10.667 
#    0.000    0.000    0.000    0.000    0.000    0.000 
#    0.000    0.000    0.000    0.000    0.000    0.000 
#
# Total GULP energy -134575.038158 kJ/mol
# GULP energy per Si atom -5607.293257 kJ/mol
# Density = 2.350485 g / cm^3
# Si number density = 23.558473 Si / 1000 Ang^3
#
#
#
# Elastic Constant Matrix: (Units=GPa)
#
#
# Indices 1 2 3 4 5 6 
#
# 1 47.1760 -8.4037 -1.9911 0.0000 0.0000 0.0000
# 2 -8.4037 59.6402 -3.1322 0.0000 0.0000 0.0000
# 3 -1.9911 -3.1322 84.9962 0.0000 0.0000 0.0000
# 4 0.0000 0.0000 0.0000 39.6473 0.0000 0.0000
# 5 0.0000 0.0000 0.0000 0.0000 22.2240 0.0000
# 6 0.0000 0.0000 0.0000 0.0000 0.0000 31.7536
#
#
#
# Elastic Compliance Matrix: (Units=1/GPa)
#
#
# Indices 1 2 3 4 5 6 
#
# 1 0.021776 0.003101 0.000624 0.000000 0.000000 0.000000
# 2 0.003101 0.017241 0.000708 0.000000 0.000000 0.000000
# 3 0.000624 0.000708 0.011806 0.000000 0.000000 0.000000
# 4 0.000000 0.000000 0.000000 0.025222 0.000000 0.000000
# 5 0.000000 0.000000 0.000000 0.000000 0.044996 0.000000
# 6 0.000000 0.000000 0.000000 0.000000 0.000000 0.031493
#
#
# Mechanical properties :
#
#
# Convention : Reuss Voigt Hill
#
# Bulk Modulus (GPa) = 16.75310 18.30650 17.52980
# Shear Modulus (GPa) = 30.56902 32.41427 31.49165
#
# Velocity S-wave (km/s) = 3.60610 3.71335 3.66012
# Velocity P-wave (km/s) = 4.94625 5.11593 5.03181
#
# Compressibility (1/GPa) = 0.05969045
#
# Stress axis : x y z
#
# Youngs Moduli (GPa) = 45.92215 58.00003 84.70309
#
# Poissons Ratio (x) = -0.17987 -0.05289
# Poissons Ratio (y) = -0.14241 -0.05997
# Poissons Ratio (z) = -0.02867 -0.04106
#
# Static dielectric constant tensor:
#      x y z
#    x 1.774130 0.000000 0.000000 
#    y 0.000000 1.960280 0.000000 
#    z 0.000000 0.000000 1.843230 
# 
# From -- ./inp_files/10475.got.cif
#   From: 2010.05.17/outbox.cif.g08.bks.cpg/sg36_6_cif.got.tgz:10475.got - 2010.06.03 17:41:39.
