data_PCOD9353790
_publ_section_title
;
Structure prediction by ZEFSAII (Michael W. Deem and Ramdas Pophale) SiO2 
 PCOD9353790
Probable space group: C C C 2
;
_chemical_formula_sum "Si O2"
_cell_formula_units_Z 48
_cell_length_a 8.784360
_cell_length_b 15.735599
_cell_length_c 16.703947
_cell_angle_alpha 90.000000
_cell_angle_beta 90.000000
_cell_angle_gamma 90.000000
_cell_volume 2308.939262
_symmetry_space_group_name_H-M "C C C 2"
_symmetry_group_IT_number 37
_symmetry_cell_setting 'orthorhombic'
loop_
_space_group_symop_operation_xyz
x,y,z
-x,-y,z
-x,y,1/2+z
x,-y,1/2+z
1/2+x,1/2+y,z
1/2-x,1/2-y,z
1/2-x,1/2+y,1/2+z
1/2+x,1/2-y,1/2+z
loop_
_atom_site_type_symbol
_atom_site_label
_atom_site_fract_x
_atom_site_fract_y
_atom_site_fract_z
Si Si1 0.898463 0.915241 0.955930
Si Si2 0.460540 0.900156 0.903724
Si Si3 0.602985 0.914637 0.638984
Si Si4 0.205094 0.846120 0.995387
Si Si5 0.286433 0.849674 0.299687
Si Si6 0.151581 0.335252 0.050647
O O1 0.815755 0.889766 0.872083
O O2 0.773412 0.909394 0.026973
O O3 0.000000 0.000000 0.949999
O O4 0.026512 0.848916 0.982907
O O5 0.538624 0.864033 0.825739
O O6 0.500000 0.000000 0.911282
O O7 0.284079 0.881662 0.914552
O O8 0.541460 0.846930 0.974201
O O9 0.718416 0.903582 0.564320
O O10 0.709963 0.897671 0.715252
O O11 0.465165 0.846774 0.623817
O O12 0.500000 0.000000 0.640802
O O13 0.250000 0.750000 0.012189
O O14 0.250000 0.750000 0.292453
O O15 0.250000 0.250000 0.053571
#
# Coordination Sequence:
#
# PCOD9353790 Si02
#       6
#     8   8   8   8   8   8
#     4  11  21  37  62  91 118 148 193 252 297 340
#     4  10  19  36  60  86 118 162 200 232 288 364
#     4  11  23  41  61  84 118 162 201 240 298 369
#     4  11  20  35  60  90 116 149 194 243 292 350
#     4  11  23  41  59  84 122 163 201 247 296 351
#     4  10  20  38  62  89 118 156 199 244 293 354
#
# _framework density 20.788768000000001
#
# number of rings (size 3 to 8) (size 9 to 14) (size 15 to 20)
#    0.000    1.333    0.000   11.000    0.000    0.000 
#    0.000    8.333    0.000    0.000    0.000    0.000 
#    0.000    0.000    0.000    0.000    0.000    0.000 
#
# Total GULP energy -133666.321573 kJ/mol
# GULP energy per Si atom -5569.430066 kJ/mol
# Density = 2.074145 g / cm^3
# Si number density = 20.788768 Si / 1000 Ang^3
#
#
#
# Elastic Constant Matrix: (Units=GPa)
#
#
# Indices 1 2 3 4 5 6 
#
# 1 105.6872 15.7763 24.3985 0.0000 0.0000 0.0000
# 2 15.7763 122.4924 21.2456 0.0000 0.0000 0.0000
# 3 24.3985 21.2456 69.1095 0.0000 0.0000 0.0000
# 4 0.0000 0.0000 0.0000 16.8824 0.0000 0.0000
# 5 0.0000 0.0000 0.0000 0.0000 30.2281 0.0000
# 6 0.0000 0.0000 0.0000 0.0000 0.0000 42.4431
#
#
#
# Elastic Compliance Matrix: (Units=1/GPa)
#
#
# Indices 1 2 3 4 5 6 
#
# 1 0.010365 -0.000740 -0.003432 0.000000 0.000000 0.000000
# 2 -0.000740 0.008676 -0.002406 0.000000 0.000000 0.000000
# 3 -0.003432 -0.002406 0.016421 0.000000 0.000000 0.000000
# 4 0.000000 0.000000 0.000000 0.059233 0.000000 0.000000
# 5 0.000000 0.000000 0.000000 0.000000 0.033082 0.000000
# 6 0.000000 0.000000 0.000000 0.000000 0.000000 0.023561
#
#
# Mechanical properties :
#
#
# Convention : Reuss Voigt Hill
#
# Bulk Modulus (GPa) = 44.82929 46.68109 45.75519
# Shear Modulus (GPa) = 29.08181 33.63529 31.35855
#
# Velocity S-wave (km/s) = 3.74427 4.02674 3.88807
# Velocity P-wave (km/s) = 6.34852 6.64253 6.49719
#
# Compressibility (1/GPa) = 0.02230685
#
# Stress axis : x y z
#
# Youngs Moduli (GPa) = 96.48295 115.25552 60.89760
#
# Poissons Ratio (x) = 0.08525 0.20898
# Poissons Ratio (y) = 0.07137 0.14653
# Poissons Ratio (z) = 0.33110 0.27732
#
# Static dielectric constant tensor:
#      x y z
#    x 1.783990 0.000000 0.000000 
#    y 0.000000 1.819210 0.000000 
#    z 0.000000 0.000000 1.793260 
# 
# From -- ./inp_files/14499.got.cif
#   From: 2010.05.17/outbox.cif.g08.bks.cpg/sg37_8_cif.got.tgz:14499.got - 2010.06.03 17:53:42.
