data_PCOD9353652
_publ_section_title
;
Structure prediction by ZEFSAII (Michael W. Deem and Ramdas Pophale) SiO2 
 PCOD9353652
Probable space group: C C C 2
;
_chemical_formula_sum "Si O2"
_cell_formula_units_Z 60
_cell_length_a 27.057613
_cell_length_b 10.697196
_cell_length_c 8.664130
_cell_angle_alpha 90.000000
_cell_angle_beta 90.000000
_cell_angle_gamma 90.000000
_cell_volume 2507.750895
_symmetry_space_group_name_H-M "C C C 2"
_symmetry_group_IT_number 37
_symmetry_cell_setting 'orthorhombic'
loop_
_space_group_symop_operation_xyz
x,y,z
-x,-y,z
-x,y,1/2+z
x,-y,1/2+z
1/2+x,1/2+y,z
1/2-x,1/2-y,z
1/2-x,1/2+y,1/2+z
1/2+x,1/2-y,1/2+z
loop_
_atom_site_type_symbol
_atom_site_label
_atom_site_fract_x
_atom_site_fract_y
_atom_site_fract_z
Si Si1 0.250000 0.750000 0.904150
Si Si2 0.397879 0.934935 0.903426
Si Si3 0.247787 0.106604 0.856627
Si Si4 0.929053 0.291700 0.351257
Si Si5 0.800792 0.474701 0.087491
Si Si6 0.354908 0.670347 0.849431
Si Si7 0.506367 0.139749 0.094201
Si Si8 0.359749 0.582314 0.213691
O O1 0.296623 0.691203 0.818580
O O2 0.225680 0.645941 0.013451
O O3 0.377643 0.808543 0.823627
O O4 0.407388 0.068780 0.824552
O O5 0.356711 0.970356 0.032451
O O6 0.449937 0.887064 0.971868
O O7 0.250000 0.250000 0.824767
O O8 0.292103 0.035828 0.768099
O O9 0.194671 0.072300 0.790075
O O10 0.264769 0.083887 0.030084
O O11 0.971678 0.271879 0.224084
O O12 0.889225 0.185098 0.315287
O O13 0.957650 0.306081 0.513371
O O14 0.377732 0.560133 0.744200
O O15 0.359294 0.627890 0.033456
O O16 0.500000 0.000000 0.161761
#
# Coordination Sequence:
#
# PCOD9353652 Si02
#       8
#     4   8   8   8   8   8   8   8
#     4  10  18  40  62  92 132 192 220 274 326 420
#     4  10  22  41  71 102 133 187 235 300 358 436
#     4  12  22  40  62  94 138 181 228 279 335 414
#     4  11  24  45  75 101 137 179 246 304 378 425
#     4  11  22  37  64  95 134 178 227 271 346 410
#     4  11  23  44  70  99 149 191 238 284 364 428
#     4  10  21  43  72 102 132 176 237 309 367 427
#     4  12  23  45  69 103 141 196 233 295 357 443
#
# _framework density 23.925823000000001
#
# number of rings (size 3 to 8) (size 9 to 14) (size 15 to 20)
#    0.000    1.067    4.667    2.800    1.867    0.000 
#    8.400    2.000    0.000    0.000    0.000    0.000 
#    0.000    0.000    0.000    0.000    0.000    0.000 
#
# Total GULP energy -167579.515241 kJ/mol
# GULP energy per Si atom -5585.983841 kJ/mol
# Density = 2.387137 g / cm^3
# Si number density = 23.925823 Si / 1000 Ang^3
#
#
#
# Elastic Constant Matrix: (Units=GPa)
#
#
# Indices 1 2 3 4 5 6 
#
# 1 110.4164 38.9484 38.5851 0.0000 0.0000 0.0000
# 2 38.9484 138.8465 32.0029 0.0000 0.0000 0.0000
# 3 38.5851 32.0029 57.0648 0.0000 0.0000 0.0000
# 4 0.0000 0.0000 0.0000 379.9303 0.0000 0.0000
# 5 0.0000 0.0000 0.0000 0.0000 39.2572 0.0000
# 6 0.0000 0.0000 0.0000 0.0000 0.0000 26.6709
#
#
#
# Elastic Compliance Matrix: (Units=1/GPa)
#
#
# Indices 1 2 3 4 5 6 
#
# 1 0.012218 -0.001749 -0.007280 0.000000 0.000000 0.000000
# 2 -0.001749 0.008522 -0.003596 0.000000 0.000000 0.000000
# 3 -0.007280 -0.003596 0.024463 0.000000 0.000000 0.000000
# 4 0.000000 0.000000 0.000000 0.002632 0.000000 0.000000
# 5 0.000000 0.000000 0.000000 0.000000 0.025473 0.000000
# 6 0.000000 0.000000 0.000000 0.000000 0.000000 0.037494
#
#
# Mechanical properties :
#
#
# Convention : Reuss Voigt Hill
#
# Bulk Modulus (GPa) = 50.12187 58.37782 54.24985
# Shear Modulus (GPa) = 35.03750 102.29110 68.66430
#
# Velocity S-wave (km/s) = 3.83093 6.54570 5.36294
# Velocity P-wave (km/s) = 6.36886 9.03221 7.81483
#
# Compressibility (1/GPa) = 0.01995137
#
# Stress axis : x y z
#
# Youngs Moduli (GPa) = 81.84840 117.34577 40.87731
#
# Poissons Ratio (x) = 0.20526 0.29759
# Poissons Ratio (y) = 0.14317 0.14701
# Poissons Ratio (z) = 0.59587 0.42202
#
# Static dielectric constant tensor:
#      x y z
#    x 2.062920 0.000000 0.000000 
#    y 0.000000 1.927480 0.000000 
#    z 0.000000 0.000000 1.998840 
# 
# From -- ./inp_files/4817.got.cif
#   From: 2010.05.17/outbox.cif.g08.bks.cpg/sg37_3_cif.got.tgz:4817.got - 2010.06.03 17:53:42.
