data_PCOD9353422
_publ_section_title
;
Structure prediction by ZEFSAII (Michael W. Deem and Ramdas Pophale) SiO2 
 PCOD9353422
Probable space group: C C C 2
;
_chemical_formula_sum "Si O2"
_cell_formula_units_Z 60
_cell_length_a 7.166956
_cell_length_b 23.516603
_cell_length_c 15.957912
_cell_angle_alpha 90.000000
_cell_angle_beta 90.000000
_cell_angle_gamma 90.000000
_cell_volume 2689.585729
_symmetry_space_group_name_H-M "C C C 2"
_symmetry_group_IT_number 37
_symmetry_cell_setting 'orthorhombic'
loop_
_space_group_symop_operation_xyz
x,y,z
-x,-y,z
-x,y,1/2+z
x,-y,1/2+z
1/2+x,1/2+y,z
1/2-x,1/2-y,z
1/2-x,1/2+y,1/2+z
1/2+x,1/2-y,1/2+z
loop_
_atom_site_type_symbol
_atom_site_label
_atom_site_fract_x
_atom_site_fract_y
_atom_site_fract_z
Si Si1 0.769320 0.109776 0.840320
Si Si2 0.775344 0.125243 0.348583
Si Si3 0.850745 0.116941 0.658246
Si Si4 0.770473 0.817915 0.679097
Si Si5 0.712314 0.504611 0.917919
Si Si6 0.293550 0.685391 0.509722
Si Si7 0.000000 0.000000 0.583707
Si Si8 0.734560 0.316723 0.993859
O O1 0.730664 0.113882 0.742240
O O2 0.696489 0.153161 0.910266
O O3 0.997309 0.118307 0.842350
O O4 0.700199 0.049506 0.874974
O O5 0.703559 0.145177 0.258198
O O6 0.715429 0.065148 0.388366
O O7 0.723149 0.172675 0.416855
O O8 0.735280 0.139511 0.578927
O O9 0.010729 0.164703 0.673096
O O10 0.954941 0.056945 0.636484
O O11 0.750000 0.750000 0.692895
O O12 0.689078 0.831488 0.586505
O O13 0.500000 0.500000 0.884249
O O14 0.674573 0.495364 0.017626
O O15 0.250000 0.750000 0.534238
O O16 0.513716 0.672480 0.501213
O O17 0.750000 0.250000 0.983469
#
# Coordination Sequence:
#
# PCOD9353422 Si02
#       8
#     8   8   8   8   8   8   4   8
#     4   9  17  27  42  66  96 125 154 191 240 292
#     4   9  15  26  41  65  91 120 149 194 243 277
#     4  10  19  27  43  69  96 131 152 192 248 296
#     4   9  17  27  41  61  89 121 160 194 228 279
#     4   8  14  25  38  61  94 117 149 186 238 286
#     4  10  18  31  46  69 100 124 152 201 243 289
#     4  10  16  26  44  64  98 126 156 188 248 300
#     4   9  18  33  47  65  94 130 166 198 233 288
#
# _framework density 22.308268000000002
#
# number of rings (size 3 to 8) (size 9 to 14) (size 15 to 20)
#    0.400    2.400    1.333    2.000    4.667    0.533 
#    0.000    0.000    0.000    0.000    0.000    0.933 
#    0.000    0.000    0.000    0.000    0.000    0.000 
#
# Total GULP energy -167014.175170 kJ/mol
# GULP energy per Si atom -5567.139172 kJ/mol
# Density = 2.225749 g / cm^3
# Si number density = 22.308268 Si / 1000 Ang^3
#
#
#
# Elastic Constant Matrix: (Units=GPa)
#
#
# Indices 1 2 3 4 5 6 
#
# 1 70.0093 1.9234 -2.9535 0.0000 0.0000 0.0000
# 2 1.9234 106.3633 76.0578 0.0000 0.0000 0.0000
# 3 -2.9535 76.0578 194.3661 0.0000 0.0000 0.0000
# 4 0.0000 0.0000 0.0000 22.6136 0.0000 0.0000
# 5 0.0000 0.0000 0.0000 0.0000 -15.2865 0.0000
# 6 0.0000 0.0000 0.0000 0.0000 0.0000 5.9785
#
#
#
# Elastic Compliance Matrix: (Units=1/GPa)
#
#
# Indices 1 2 3 4 5 6 
#
# 1 0.014318 -0.000576 0.000443 0.000000 0.000000 0.000000
# 2 -0.000576 0.013078 -0.005126 0.000000 0.000000 0.000000
# 3 0.000443 -0.005126 0.007158 0.000000 0.000000 0.000000
# 4 0.000000 0.000000 0.000000 0.044221 0.000000 0.000000
# 5 0.000000 0.000000 0.000000 0.000000 -0.065417 0.000000
# 6 0.000000 0.000000 0.000000 0.000000 0.000000 0.167267
#
#
# Mechanical properties :
#
#
# Convention : Reuss Voigt Hill
#
# Bulk Modulus (GPa) = 41.60476 57.86603 49.73539
# Shear Modulus (GPa) = 25.10606 22.37516 23.74061
#
# Velocity S-wave (km/s) = 3.35836 3.17045 3.26576
# Velocity P-wave (km/s) = 5.80763 6.27678 6.04675
#
# Compressibility (1/GPa) = 0.02403571
#
# Stress axis : x y z
#
# Youngs Moduli (GPa) = 69.84064 76.46542 139.71113
#
# Poissons Ratio (x) = 0.04401 -0.06186
# Poissons Ratio (y) = 0.04020 0.71619
# Poissons Ratio (z) = -0.03093 0.39198
#
# Static dielectric constant tensor:
#      x y z
#    x 1.836670 0.000000 0.000000 
#    y 0.000000 1.810890 0.000000 
#    z 0.000000 0.000000 1.889690 
# 
# From -- ./inp_files/11861.got.cif
#   From: 2010.05.17/outbox.cif.g08.bks.cpg/sg37_6_cif.got.tgz:11861.got - 2010.06.03 17:53:42.
