data_PCOD9353058
_publ_section_title
;
Structure prediction by ZEFSAII (Michael W. Deem and Ramdas Pophale) SiO2 
 PCOD9353058
Probable space group: C M C 21
;
_chemical_formula_sum "Si O2"
_cell_formula_units_Z 40
_cell_length_a 17.551481
_cell_length_b 8.957752
_cell_length_c 11.226439
_cell_angle_alpha 90.000000
_cell_angle_beta 90.000000
_cell_angle_gamma 90.000000
_cell_volume 1765.041105
_symmetry_space_group_name_H-M "C M C 21"
_symmetry_group_IT_number 36
_symmetry_cell_setting 'orthorhombic'
loop_
_space_group_symop_operation_xyz
x,y,z
-x,-y,1/2+z
x,-y,1/2+z
-x,y,z
1/2+x,1/2+y,z
1/2-x,1/2-y,1/2+z
1/2+x,1/2-y,1/2+z
1/2-x,1/2+y,z
loop_
_atom_site_type_symbol
_atom_site_label
_atom_site_fract_x
_atom_site_fract_y
_atom_site_fract_z
Si Si1 0.588415 0.756950 0.771560
Si Si2 0.816809 0.523885 0.723713
Si Si3 0.189959 0.821239 0.867161
Si Si4 0.092074 0.974753 0.063978
Si Si5 0.178130 0.738945 0.519078
O O1 0.500000 0.736255 0.790751
O O2 0.612303 0.634721 0.673813
O O3 0.611252 0.915984 0.719467
O O4 0.628635 0.761208 0.898876
O O5 0.833993 0.678308 0.791345
O O6 0.748108 0.430475 0.790586
O O7 0.808598 0.586272 0.590401
O O8 0.125140 0.911845 0.938178
O O9 0.237753 0.736367 0.970635
O O10 0.000000 0.990528 0.058505
O O11 0.136541 0.128396 0.088417
#
# Coordination Sequence:
#
# PCOD9353058 Si02
#       5
#     8   8   8   8   8
#     4  10  26  48  70 108 150 193 249 305 370 453
#     4  11  27  44  74 104 146 196 249 307 371 443
#     4  11  26  46  71 111 142 196 254 311 369 444
#     4  11  26  48  75 109 152 197 246 307 380 453
#     4  11  26  46  75 102 150 194 248 306 369 437
#
# _framework density 22.662362999999999
#
# number of rings (size 3 to 8) (size 9 to 14) (size 15 to 20)
#    0.000    1.200    2.000    0.600   16.800    2.400 
#    0.000    0.000    0.000    0.000    0.000    0.000 
#    0.000    0.000    0.000    0.000    0.000    0.000 
#
# Total GULP energy -111601.453078 kJ/mol
# GULP energy per Si atom -5580.072654 kJ/mol
# Density = 2.261078 g / cm^3
# Si number density = 22.662363 Si / 1000 Ang^3
#
#
#
# Elastic Constant Matrix: (Units=GPa)
#
#
# Indices 1 2 3 4 5 6 
#
# 1 81.6750 38.3584 37.6422 0.0000 0.0000 0.0000
# 2 38.3584 145.2544 59.0154 0.0000 0.0000 0.0000
# 3 37.6422 59.0154 103.6756 0.0000 0.0000 0.0000
# 4 0.0000 0.0000 0.0000 109.7233 0.0000 0.0000
# 5 0.0000 0.0000 0.0000 0.0000 35.0374 0.0000
# 6 0.0000 0.0000 0.0000 0.0000 0.0000 27.8875
#
#
#
# Elastic Compliance Matrix: (Units=1/GPa)
#
#
# Indices 1 2 3 4 5 6 
#
# 1 0.015281 -0.002317 -0.004229 0.000000 0.000000 0.000000
# 2 -0.002317 0.009307 -0.004457 0.000000 0.000000 0.000000
# 3 -0.004229 -0.004457 0.013718 0.000000 0.000000 0.000000
# 4 0.000000 0.000000 0.000000 0.009114 0.000000 0.000000
# 5 0.000000 0.000000 0.000000 0.000000 0.028541 0.000000
# 6 0.000000 0.000000 0.000000 0.000000 0.000000 0.035858
#
#
# Mechanical properties :
#
#
# Convention : Reuss Voigt Hill
#
# Bulk Modulus (GPa) = 61.34926 66.73742 64.04334
# Shear Modulus (GPa) = 35.90456 47.56892 41.73674
#
# Velocity S-wave (km/s) = 3.98468 4.58648 4.29613
# Velocity P-wave (km/s) = 6.94982 7.58685 7.27531
#
# Compressibility (1/GPa) = 0.01630011
#
# Stress axis : x y z
#
# Youngs Moduli (GPa) = 65.44067 107.44585 72.89786
#
# Poissons Ratio (x) = 0.24896 0.30830
# Poissons Ratio (y) = 0.15163 0.32487
# Poissons Ratio (z) = 0.27676 0.47884
#
# Static dielectric constant tensor:
#      x y z
#    x 1.820890 0.000000 0.000000 
#    y 0.000000 1.809450 0.000000 
#    z 0.000000 0.000000 2.073780 
# 
# From -- ./inp_files/9155.got.cif
#   From: 2010.05.17/outbox.cif.g08.bks.cpg/sg36_5_cif.got.tgz:9155.got - 2010.06.03 17:41:39.
