data_PCOD9353540
_publ_section_title
;
Structure prediction by ZEFSAII (Michael W. Deem and Ramdas Pophale) SiO2 
 PCOD9353540
Probable space group: C C C 2
;
_chemical_formula_sum "Si O2"
_cell_formula_units_Z 64
_cell_length_a 24.917813
_cell_length_b 5.291195
_cell_length_c 25.444155
_cell_angle_alpha 90.000000
_cell_angle_beta 90.000000
_cell_angle_gamma 90.000000
_cell_volume 3354.684808
_symmetry_space_group_name_H-M "C C C 2"
_symmetry_group_IT_number 37
_symmetry_cell_setting 'orthorhombic'
loop_
_space_group_symop_operation_xyz
x,y,z
-x,-y,z
-x,y,1/2+z
x,-y,1/2+z
1/2+x,1/2+y,z
1/2-x,1/2-y,z
1/2-x,1/2+y,1/2+z
1/2+x,1/2-y,1/2+z
loop_
_atom_site_type_symbol
_atom_site_label
_atom_site_fract_x
_atom_site_fract_y
_atom_site_fract_z
Si Si1 0.625890 0.474855 0.713300
Si Si2 0.155566 0.605505 0.457082
Si Si3 0.785350 0.501939 0.562498
Si Si4 0.594734 0.391835 0.829484
Si Si5 0.657558 0.027804 0.172256
Si Si6 0.254959 0.496506 0.758319
Si Si7 0.942619 0.385206 0.386648
Si Si8 0.693501 0.393966 0.901238
O O1 0.594245 0.419877 0.766739
O O2 0.617570 0.746333 0.687684
O O3 0.688563 0.497664 0.729893
O O4 0.626028 0.235673 0.675320
O O5 0.173125 0.579395 0.517204
O O6 0.095284 0.660727 0.437192
O O7 0.163688 0.322674 0.434928
O O8 0.190687 0.834890 0.431156
O O9 0.750000 0.250000 0.572568
O O10 0.815220 0.571414 0.616404
O O11 0.750000 0.750000 0.546704
O O12 0.560048 0.618131 0.855545
O O13 0.655716 0.434619 0.850276
O O14 0.580114 0.109188 0.848509
O O15 0.707065 0.011432 0.215014
O O16 0.250000 0.750000 0.789110
O O17 0.250000 0.250000 0.793028
O O18 0.000000 0.500000 0.401657
O O19 0.750000 0.250000 0.895822
#
# Coordination Sequence:
#
# PCOD9353540 Si02
#       8
#     8   8   8   8   8   8   8   8
#     4  10  18  31  46  69 105 135 171 219 248 292
#     4  10  21  34  52  77 104 137 183 224 274 325
#     4  12  21  32  51  76 109 154 190 218 254 308
#     4  10  21  34  55  83 105 138 181 216 273 338
#     4  10  19  30  45  69 106 150 185 208 240 292
#     4   8  14  24  37  54  86 129 167 194 221 261
#     4  10  21  40  60  80 104 131 176 240 290 337
#     4  10  19  33  48  72 110 144 171 211 263 329
#
# _framework density 19.077798999999999
#
# number of rings (size 3 to 8) (size 9 to 14) (size 15 to 20)
#    0.000    2.000    0.000    6.375    0.000    1.500 
#    0.000    6.250    0.000    0.000    0.000    5.250 
#    0.000    0.000    0.000    0.000    0.000    0.000 
#
# Total GULP energy -178155.857371 kJ/mol
# GULP energy per Si atom -5567.370543 kJ/mol
# Density = 1.903438 g / cm^3
# Si number density = 19.077799 Si / 1000 Ang^3
#
#
#
# Elastic Constant Matrix: (Units=GPa)
#
#
# Indices 1 2 3 4 5 6 
#
# 1 60.2840 13.0617 18.2584 0.0000 0.0000 0.0000
# 2 13.0617 135.4996 11.6559 0.0000 0.0000 0.0000
# 3 18.2584 11.6559 76.7599 0.0000 0.0000 0.0000
# 4 0.0000 0.0000 0.0000 15.9661 0.0000 0.0000
# 5 0.0000 0.0000 0.0000 0.0000 10.4621 0.0000
# 6 0.0000 0.0000 0.0000 0.0000 0.0000 25.8006
#
#
#
# Elastic Compliance Matrix: (Units=1/GPa)
#
#
# Indices 1 2 3 4 5 6 
#
# 1 0.018133 -0.001395 -0.004101 0.000000 0.000000 0.000000
# 2 -0.001395 0.007585 -0.000820 0.000000 0.000000 0.000000
# 3 -0.004101 -0.000820 0.014128 0.000000 0.000000 0.000000
# 4 0.000000 0.000000 0.000000 0.062633 0.000000 0.000000
# 5 0.000000 0.000000 0.000000 0.000000 0.095584 0.000000
# 6 0.000000 0.000000 0.000000 0.000000 0.000000 0.038759
#
#
# Mechanical properties :
#
#
# Convention : Reuss Voigt Hill
#
# Bulk Modulus (GPa) = 36.74744 39.83283 38.29014
# Shear Modulus (GPa) = 19.34057 25.75025 22.54541
#
# Velocity S-wave (km/s) = 3.18744 3.67788 3.44141
# Velocity P-wave (km/s) = 5.73149 6.24181 5.99209
#
# Compressibility (1/GPa) = 0.02721278
#
# Stress axis : x y z
#
# Youngs Moduli (GPa) = 55.14936 131.83718 70.78306
#
# Poissons Ratio (x) = 0.18393 0.29030
# Poissons Ratio (y) = 0.07694 0.05804
# Poissons Ratio (z) = 0.22618 0.10810
#
# Static dielectric constant tensor:
#      x y z
#    x 1.698550 0.000000 0.000000 
#    y 0.000000 1.793090 0.000000 
#    z 0.000000 0.000000 1.655230 
# 
# From -- ./inp_files/19110.got.cif
#   From: 2010.05.17/outbox.cif.g08.bks.cpg/sg37_10_cif.got.tgz:19110.got - 2010.06.03 17:53:42.
