data_PCOD9353112
_publ_section_title
;
Structure prediction by ZEFSAII (Michael W. Deem and Ramdas Pophale) SiO2 
 PCOD9353112
Probable space group: C M C 21
;
_chemical_formula_sum "Si O2"
_cell_formula_units_Z 52
_cell_length_a 17.857766
_cell_length_b 21.475001
_cell_length_c 5.609676
_cell_angle_alpha 90.000000
_cell_angle_beta 90.000000
_cell_angle_gamma 90.000000
_cell_volume 2151.285742
_symmetry_space_group_name_H-M "C M C 21"
_symmetry_group_IT_number 36
_symmetry_cell_setting 'orthorhombic'
loop_
_space_group_symop_operation_xyz
x,y,z
-x,-y,1/2+z
x,-y,1/2+z
-x,y,z
1/2+x,1/2+y,z
1/2-x,1/2-y,1/2+z
1/2+x,1/2-y,1/2+z
1/2-x,1/2+y,z
loop_
_atom_site_type_symbol
_atom_site_label
_atom_site_fract_x
_atom_site_fract_y
_atom_site_fract_z
Si Si1 0.887413 0.193645 0.675220
Si Si2 0.000000 0.463724 0.214911
Si Si3 0.079270 0.675356 0.338143
Si Si4 0.280138 0.532349 0.081621
Si Si5 0.636082 0.339517 0.682718
Si Si6 0.132095 0.592201 0.965585
Si Si7 0.207287 0.701939 0.697519
O O1 0.918012 0.263503 0.670338
O O2 0.907207 0.157844 0.433960
O O3 0.796110 0.195049 0.683146
O O4 0.908836 0.167881 0.935571
O O5 0.077556 0.426127 0.251062
O O6 0.000000 0.504413 0.458959
O O7 0.081009 0.614204 0.181349
O O8 0.156903 0.679101 0.477935
O O9 0.000000 0.679895 0.475435
O O10 0.300899 0.489373 0.310884
O O11 0.315011 0.598979 0.148865
O O12 0.190643 0.541109 0.055080
O O13 0.683159 0.274423 0.710914
O O14 0.179921 0.653618 0.896863
#
# Coordination Sequence:
#
# PCOD9353112 Si02
#       7
#     8   4   8   8   8   8   8
#     4  11  21  40  65  97 131 168 221 282 371 425
#     4  12  30  48  62  84 134 202 248 264 316 392
#     4  11  25  40  65 103 143 180 226 294 368 432
#     4  12  26  42  62  95 133 182 233 290 342 416
#     4  11  21  40  63  95 129 165 217 287 361 425
#     4  12  24  42  65  89 132 185 244 293 331 396
#     4  11  23  38  69  99 127 178 229 301 367 411
#
# _framework density 24.171589999999998
#
# number of rings (size 3 to 8) (size 9 to 14) (size 15 to 20)
#    0.000    0.615    3.846    5.538    5.385    0.000 
#    0.000    0.000    0.000    0.000    0.000    0.000 
#    0.000   65.231    0.000    0.000    0.000    0.000 
#
# Total GULP energy -145280.270419 kJ/mol
# GULP energy per Si atom -5587.702708 kJ/mol
# Density = 2.411657 g / cm^3
# Si number density = 24.171590 Si / 1000 Ang^3
#
#
#
# Elastic Constant Matrix: (Units=GPa)
#
#
# Indices 1 2 3 4 5 6 
#
# 1 87.6751 11.4057 19.6430 0.0000 0.0000 0.0000
# 2 11.4057 73.4650 38.5244 0.0000 0.0000 0.0000
# 3 19.6430 38.5244 174.7301 0.0000 0.0000 0.0000
# 4 0.0000 0.0000 0.0000 55.9908 0.0000 0.0000
# 5 0.0000 0.0000 0.0000 0.0000 19.6789 0.0000
# 6 0.0000 0.0000 0.0000 0.0000 0.0000 11.4023
#
#
#
# Elastic Compliance Matrix: (Units=1/GPa)
#
#
# Indices 1 2 3 4 5 6 
#
# 1 0.011807 -0.001286 -0.001044 0.000000 0.000000 0.000000
# 2 -0.001286 0.015531 -0.003280 0.000000 0.000000 0.000000
# 3 -0.001044 -0.003280 0.006564 0.000000 0.000000 0.000000
# 4 0.000000 0.000000 0.000000 0.017860 0.000000 0.000000
# 5 0.000000 0.000000 0.000000 0.000000 0.050816 0.000000
# 6 0.000000 0.000000 0.000000 0.000000 0.000000 0.087702
#
#
# Mechanical properties :
#
#
# Convention : Reuss Voigt Hill
#
# Bulk Modulus (GPa) = 44.08552 52.77963 48.43258
# Shear Modulus (GPa) = 23.91666 35.16754 29.54210
#
# Velocity S-wave (km/s) = 3.14897 3.81847 3.49977
# Velocity P-wave (km/s) = 5.61244 6.42835 6.03420
#
# Compressibility (1/GPa) = 0.02268318
#
# Stress axis : x y z
#
# Youngs Moduli (GPa) = 84.69647 64.38549 152.35547
#
# Poissons Ratio (x) = 0.08278 0.15904
# Poissons Ratio (y) = 0.10889 0.49970
# Poissons Ratio (z) = 0.08841 0.21117
#
# Static dielectric constant tensor:
#      x y z
#    x 1.927300 0.000000 0.000000 
#    y 0.000000 1.930130 0.000000 
#    z 0.000000 0.000000 2.040670 
# 
# From -- ./inp_files/1382.got.cif
#   From: 2010.05.17/outbox.cif.g08.bks.cpg/sg36_1_cif.got.tgz:1382.got - 2010.06.03 17:41:39.
