data_PCOD9353483
_publ_section_title
;
Structure prediction by ZEFSAII (Michael W. Deem and Ramdas Pophale) SiO2 
 PCOD9353483
Probable space group: C C C 2
;
_chemical_formula_sum "Si O2"
_cell_formula_units_Z 56
_cell_length_a 30.840732
_cell_length_b 11.453906
_cell_length_c 8.775616
_cell_angle_alpha 90.000000
_cell_angle_beta 90.000000
_cell_angle_gamma 90.000000
_cell_volume 3099.958668
_symmetry_space_group_name_H-M "C C C 2"
_symmetry_group_IT_number 37
_symmetry_cell_setting 'orthorhombic'
loop_
_space_group_symop_operation_xyz
x,y,z
-x,-y,z
-x,y,1/2+z
x,-y,1/2+z
1/2+x,1/2+y,z
1/2-x,1/2-y,z
1/2-x,1/2+y,1/2+z
1/2+x,1/2-y,1/2+z
loop_
_atom_site_type_symbol
_atom_site_label
_atom_site_fract_x
_atom_site_fract_y
_atom_site_fract_z
Si Si1 0.566169 0.333121 0.300990
Si Si2 0.638053 0.706186 0.588045
Si Si3 0.219981 0.644313 0.074359
Si Si4 0.676245 0.553296 0.122960
Si Si5 0.737337 0.536656 0.862953
Si Si6 0.907760 0.897032 0.296838
Si Si7 0.011993 0.865750 0.586279
O O1 0.608955 0.271131 0.237711
O O2 0.583947 0.465502 0.331827
O O3 0.536730 0.304419 0.446938
O O4 0.532715 0.324887 0.159750
O O5 0.671279 0.810520 0.564656
O O6 0.665392 0.585347 0.606287
O O7 0.607882 0.674335 0.443201
O O8 0.250000 0.750000 0.017382
O O9 0.236519 0.615927 0.245243
O O10 0.230497 0.531489 0.974212
O O11 0.710252 0.555964 0.261028
O O12 0.631147 0.610015 0.173229
O O13 0.700501 0.594749 0.970808
O O14 0.952878 0.862045 0.221759
O O15 0.000000 0.000000 0.540640
#
# Coordination Sequence:
#
# PCOD9353483 Si02
#       7
#     8   8   8   8   8   8   8
#     4  10  19  29  46  72 105 147 176 211 258 323
#     4  11  20  32  52  69 102 141 181 220 262 306
#     4  11  21  38  56  75 106 142 183 236 283 316
#     4  10  17  31  49  71 100 138 177 216 261 323
#     4  10  20  34  54  74 103 141 184 229 280 331
#     4  10  18  27  46  73 103 143 180 208 254 327
#     4  10  18  28  43  69 111 144 175 207 255 318
#
# _framework density 18.064755000000002
#
# number of rings (size 3 to 8) (size 9 to 14) (size 15 to 20)
#    0.000    1.714    4.286    4.714    2.000    0.000 
#    0.000    8.571    0.000    0.000    0.000    0.000 
#    0.000   13.714    0.000    0.000    0.000    0.000 
#
# Total GULP energy -156003.094606 kJ/mol
# GULP energy per Si atom -5571.539093 kJ/mol
# Density = 1.802364 g / cm^3
# Si number density = 18.064755 Si / 1000 Ang^3
#
#
#
# Elastic Constant Matrix: (Units=GPa)
#
#
# Indices 1 2 3 4 5 6 
#
# 1 113.4036 19.5826 38.4757 0.0000 0.0000 0.0000
# 2 19.5826 18.9817 9.0456 0.0000 0.0000 0.0000
# 3 38.4757 9.0456 87.4091 0.0000 0.0000 0.0000
# 4 0.0000 0.0000 0.0000 15.6509 0.0000 0.0000
# 5 0.0000 0.0000 0.0000 0.0000 40.0131 0.0000
# 6 0.0000 0.0000 0.0000 0.0000 0.0000 19.5238
#
#
#
# Elastic Compliance Matrix: (Units=1/GPa)
#
#
# Indices 1 2 3 4 5 6 
#
# 1 0.012051 -0.010419 -0.004226 0.000000 0.000000 0.000000
# 2 -0.010419 0.064422 -0.002081 0.000000 0.000000 0.000000
# 3 -0.004226 -0.002081 0.013516 0.000000 0.000000 0.000000
# 4 0.000000 0.000000 0.000000 0.063894 0.000000 0.000000
# 5 0.000000 0.000000 0.000000 0.000000 0.024992 0.000000
# 6 0.000000 0.000000 0.000000 0.000000 0.000000 0.051220
#
#
# Mechanical properties :
#
#
# Convention : Reuss Voigt Hill
#
# Bulk Modulus (GPa) = 17.68720 39.33358 28.51039
# Shear Modulus (GPa) = 17.70585 25.21693 21.46139
#
# Velocity S-wave (km/s) = 3.13410 3.74025 3.45051
# Velocity P-wave (km/s) = 4.78634 6.36189 5.62950
#
# Compressibility (1/GPa) = 0.05653805
#
# Stress axis : x y z
#
# Youngs Moduli (GPa) = 82.97994 15.52258 73.98535
#
# Poissons Ratio (x) = 0.16172 0.31270
# Poissons Ratio (y) = 0.86453 0.15394
# Poissons Ratio (z) = 0.35071 0.03230
#
# Static dielectric constant tensor:
#      x y z
#    x 1.651260 0.000000 0.000000 
#    y 0.000000 1.582480 0.000000 
#    z 0.000000 0.000000 1.705000 
# 
# From -- ./inp_files/5018.got.cif
#   From: 2010.05.17/outbox.cif.g08.bks.cpg/sg37_3_cif.got.tgz:5018.got - 2010.06.03 17:53:42.
