data_PCOD9353621
_publ_section_title
;
Structure prediction by ZEFSAII (Michael W. Deem and Ramdas Pophale) SiO2 
 PCOD9353621
Probable space group: C C C 2
;
_chemical_formula_sum "Si O2"
_cell_formula_units_Z 52
_cell_length_a 8.544237
_cell_length_b 14.150945
_cell_length_c 21.502727
_cell_angle_alpha 90.000000
_cell_angle_beta 90.000000
_cell_angle_gamma 90.000000
_cell_volume 2599.873818
_symmetry_space_group_name_H-M "C C C 2"
_symmetry_group_IT_number 37
_symmetry_cell_setting 'orthorhombic'
loop_
_space_group_symop_operation_xyz
x,y,z
-x,-y,z
-x,y,1/2+z
x,-y,1/2+z
1/2+x,1/2+y,z
1/2-x,1/2-y,z
1/2-x,1/2+y,1/2+z
1/2+x,1/2-y,1/2+z
loop_
_atom_site_type_symbol
_atom_site_label
_atom_site_fract_x
_atom_site_fract_y
_atom_site_fract_z
Si Si1 0.836155 0.904219 0.516280
Si Si2 0.323522 0.476349 0.374627
Si Si3 0.140492 0.333343 0.292823
Si Si4 0.498688 0.884171 0.004636
Si Si5 0.250000 0.750000 0.671527
Si Si6 0.130580 0.334083 0.881519
Si Si7 0.664941 0.619216 0.062774
O O1 0.832599 0.925344 0.441997
O O2 0.669233 0.858442 0.533416
O O3 0.001399 0.854204 0.529552
O O4 0.835766 0.004808 0.553977
O O5 0.500000 0.500000 0.354835
O O6 0.227010 0.424301 0.320549
O O7 0.230696 0.571809 0.387250
O O8 0.250000 0.250000 0.319901
O O9 0.146173 0.312250 0.219420
O O10 0.966340 0.328266 0.318404
O O11 0.663706 0.854378 0.035164
O O12 0.500000 0.000000 0.001176
O O13 0.504095 0.841003 0.936013
O O14 0.336068 0.672756 0.628630
O O15 0.250000 0.250000 0.889431
#
# Coordination Sequence:
#
# PCOD9353621 Si02
#       7
#     8   8   8   8   4   8   8
#     4  10  19  37  67 104 125 167 223 277 356 411
#     4  12  20  40  70 103 137 169 221 289 363 417
#     4  10  24  45  63  93 137 184 235 284 332 411
#     4  10  18  36  62  98 135 165 210 279 351 410
#     4  10  26  48  60  86 144 190 234 276 330 406
#     4  12  22  37  66 107 138 174 222 286 363 420
#     4  10  20  40  65  90 136 173 225 275 334 414
#
# _framework density 20.000969999999999
#
# number of rings (size 3 to 8) (size 9 to 14) (size 15 to 20)
#    0.462    0.923    6.154    1.385    1.077    0.000 
#    2.769    6.923    0.000    0.000    0.000    0.000 
#    0.000    0.000    0.000    0.000    0.000    0.000 
#
# Total GULP energy -144890.012710 kJ/mol
# GULP energy per Si atom -5572.692797 kJ/mol
# Density = 1.995545 g / cm^3
# Si number density = 20.000970 Si / 1000 Ang^3
#
#
#
# Elastic Constant Matrix: (Units=GPa)
#
#
# Indices 1 2 3 4 5 6 
#
# 1 174.9193 34.7027 42.0820 0.0000 0.0000 0.0000
# 2 34.7027 52.9035 33.7203 0.0000 0.0000 0.0000
# 3 42.0820 33.7203 103.6520 0.0000 0.0000 0.0000
# 4 0.0000 0.0000 0.0000 29.2421 0.0000 0.0000
# 5 0.0000 0.0000 0.0000 0.0000 22.1755 0.0000
# 6 0.0000 0.0000 0.0000 0.0000 0.0000 25.2613
#
#
#
# Elastic Compliance Matrix: (Units=1/GPa)
#
#
# Indices 1 2 3 4 5 6 
#
# 1 0.006789 -0.003402 -0.001649 0.000000 0.000000 0.000000
# 2 -0.003402 0.025552 -0.006931 0.000000 0.000000 0.000000
# 3 -0.001649 -0.006931 0.012572 0.000000 0.000000 0.000000
# 4 0.000000 0.000000 0.000000 0.034197 0.000000 0.000000
# 5 0.000000 0.000000 0.000000 0.000000 0.045095 0.000000
# 6 0.000000 0.000000 0.000000 0.000000 0.000000 0.039586
#
#
# Mechanical properties :
#
#
# Convention : Reuss Voigt Hill
#
# Bulk Modulus (GPa) = 47.73869 61.38719 54.56294
# Shear Modulus (GPa) = 25.67539 30.06710 27.87125
#
# Velocity S-wave (km/s) = 3.58677 3.88142 3.73700
# Velocity P-wave (km/s) = 6.40884 7.13064 6.77935
#
# Compressibility (1/GPa) = 0.02094737
#
# Stress axis : x y z
#
# Youngs Moduli (GPa) = 147.30509 39.13615 79.53984
#
# Poissons Ratio (x) = 0.13313 0.13120
# Poissons Ratio (y) = 0.50109 0.55133
# Poissons Ratio (z) = 0.24298 0.27127
#
# Static dielectric constant tensor:
#      x y z
#    x 1.735450 0.000000 0.000000 
#    y 0.000000 1.802030 0.000000 
#    z 0.000000 0.000000 1.697480 
# 
# From -- ./inp_files/18395.got.cif
#   From: 2010.05.17/outbox.cif.g08.bks.cpg/sg37_10_cif.got.tgz:18395.got - 2010.06.03 17:53:42.
