data_PCOD9353265
_publ_section_title
;
Structure prediction by ZEFSAII (Michael W. Deem and Ramdas Pophale) SiO2 
 PCOD9353265
Probable space group: C M C 21
;
_chemical_formula_sum "Si O2"
_cell_formula_units_Z 40
_cell_length_a 10.888016
_cell_length_b 18.941961
_cell_length_c 8.261761
_cell_angle_alpha 90.000000
_cell_angle_beta 90.000000
_cell_angle_gamma 90.000000
_cell_volume 1703.908682
_symmetry_space_group_name_H-M "C M C 21"
_symmetry_group_IT_number 36
_symmetry_cell_setting 'orthorhombic'
loop_
_space_group_symop_operation_xyz
x,y,z
-x,-y,1/2+z
x,-y,1/2+z
-x,y,z
1/2+x,1/2+y,z
1/2-x,1/2-y,1/2+z
1/2+x,1/2-y,1/2+z
1/2-x,1/2+y,z
loop_
_atom_site_type_symbol
_atom_site_label
_atom_site_fract_x
_atom_site_fract_y
_atom_site_fract_z
Si Si1 0.640843 0.523713 0.385740
Si Si2 0.761080 0.900724 0.568814
Si Si3 0.257195 0.651730 0.578374
Si Si4 0.642742 0.731241 0.883598
Si Si5 0.500000 0.913388 0.093637
Si Si6 0.500000 0.075610 0.203454
O O1 0.500000 0.500503 0.392753
O O2 0.670316 0.560253 0.215937
O O3 0.727260 0.457164 0.422616
O O4 0.669172 0.583590 0.518999
O O5 0.825125 0.829093 0.514706
O O6 0.621510 0.891410 0.624926
O O7 0.326847 0.696604 0.712178
O O8 0.226548 0.701934 0.426125
O O9 0.124006 0.626707 0.642599
O O10 0.500000 0.750521 0.893579
O O11 0.500000 0.917909 0.897305
O O12 0.500000 0.992501 0.161126
#
# Coordination Sequence:
#
# PCOD9353265 Si02
#       6
#     8   8   8   8   4   4
#     4  12  24  44  70 103 141 185 238 292 355 436
#     4  12  25  44  73 103 143 189 233 299 364 419
#     4  12  26  48  73 100 143 187 240 298 366 425
#     4  12  28  49  71 104 145 189 241 299 359 442
#     4  12  26  48  74 108 148 183 243 308 362 438
#     4  12  24  46  76 108 148 177 249 302 356 430
#
# _framework density 23.475435999999998
#
# number of rings (size 3 to 8) (size 9 to 14) (size 15 to 20)
#    0.000    0.000    5.000    4.800    2.800    0.000 
#    5.400    0.000    0.000    0.000    0.000    0.000 
#    0.000    0.000    0.000    0.000    0.000    0.000 
#
# Total GULP energy -112245.259526 kJ/mol
# GULP energy per Si atom -5612.262976 kJ/mol
# Density = 2.342201 g / cm^3
# Si number density = 23.475436 Si / 1000 Ang^3
#
#
#
# Elastic Constant Matrix: (Units=GPa)
#
#
# Indices 1 2 3 4 5 6 
#
# 1 107.1973 5.5001 30.0932 0.0000 0.0000 0.0000
# 2 5.5001 71.6970 19.4444 0.0000 0.0000 0.0000
# 3 30.0932 19.4444 63.6790 0.0000 0.0000 0.0000
# 4 0.0000 0.0000 0.0000 44.4659 0.0000 0.0000
# 5 0.0000 0.0000 0.0000 0.0000 37.7673 0.0000
# 6 0.0000 0.0000 0.0000 0.0000 0.0000 36.9383
#
#
#
# Elastic Compliance Matrix: (Units=1/GPa)
#
#
# Indices 1 2 3 4 5 6 
#
# 1 0.010779 0.000605 -0.005279 0.000000 0.000000 0.000000
# 2 0.000605 0.015241 -0.004940 0.000000 0.000000 0.000000
# 3 -0.005279 -0.004940 0.019707 0.000000 0.000000 0.000000
# 4 0.000000 0.000000 0.000000 0.022489 0.000000 0.000000
# 5 0.000000 0.000000 0.000000 0.000000 0.026478 0.000000
# 6 0.000000 0.000000 0.000000 0.000000 0.000000 0.027072
#
#
# Mechanical properties :
#
#
# Convention : Reuss Voigt Hill
#
# Bulk Modulus (GPa) = 37.73629 39.18320 38.45974
# Shear Modulus (GPa) = 33.37189 36.33668 34.85428
#
# Velocity S-wave (km/s) = 3.77446 3.93855 3.85738
# Velocity P-wave (km/s) = 5.92495 6.11640 6.02144
#
# Compressibility (1/GPa) = 0.02649969
#
# Stress axis : x y z
#
# Youngs Moduli (GPa) = 92.76902 65.61329 50.74419
#
# Poissons Ratio (x) = -0.03968 0.26787
# Poissons Ratio (y) = -0.05610 0.25065
# Poissons Ratio (z) = 0.48971 0.32410
#
# Static dielectric constant tensor:
#      x y z
#    x 1.816910 0.000000 0.000000 
#    y 0.000000 1.844460 0.000000 
#    z 0.000000 0.000000 1.909690 
# 
# From -- ./inp_files/3080.got.cif
#   From: 2010.05.17/outbox.cif.g08.bks.cpg/sg36_2_cif.got.tgz:3080.got - 2010.06.03 17:41:39.
