data_PCOD9353570
_publ_section_title
;
Structure prediction by ZEFSAII (Michael W. Deem and Ramdas Pophale) SiO2 
 PCOD9353570
Probable space group: C C C 2
;
_chemical_formula_sum "Si O2"
_cell_formula_units_Z 56
_cell_length_a 5.415970
_cell_length_b 27.150019
_cell_length_c 21.737402
_cell_angle_alpha 90.000000
_cell_angle_beta 90.000000
_cell_angle_gamma 90.000000
_cell_volume 3196.347766
_symmetry_space_group_name_H-M "C C C 2"
_symmetry_group_IT_number 37
_symmetry_cell_setting 'orthorhombic'
loop_
_space_group_symop_operation_xyz
x,y,z
-x,-y,z
-x,y,1/2+z
x,-y,1/2+z
1/2+x,1/2+y,z
1/2-x,1/2-y,z
1/2-x,1/2+y,1/2+z
1/2+x,1/2-y,1/2+z
loop_
_atom_site_type_symbol
_atom_site_label
_atom_site_fract_x
_atom_site_fract_y
_atom_site_fract_z
Si Si1 0.750000 0.560245 0.829960
Si Si2 0.250000 0.951172 0.779938
Si Si3 0.250000 0.863490 0.579973
Si Si4 0.750000 0.028087 0.635394
Si Si5 0.750000 0.693471 0.580361
Si Si6 0.250000 0.693313 0.930818
Si Si7 0.750000 0.635695 0.931632
O O1 0.750000 0.500894 0.821965
O O2 0.500649 0.576705 0.795856
O O3 0.750000 0.583150 0.897527
O O4 0.999351 0.576705 0.795856
O O5 0.250000 0.968258 0.709668
O O6 0.250000 0.917313 0.608834
O O7 0.498865 0.834467 0.598319
O O8 0.250000 0.868442 0.505572
O O9 0.001136 0.834467 0.598319
O O10 0.500000 0.000000 0.616601
O O11 0.000000 0.000000 0.616600
O O12 0.750000 0.750000 0.601589
O O13 0.750000 0.694469 0.505601
O O14 0.250000 0.750000 0.909634
O O15 0.501279 0.665049 0.913271
O O16 0.998721 0.665049 0.913271
#
# Coordination Sequence:
#
# PCOD9353570 Si02
#       7
#     8   8   8   8   8   8   8
#     4  10  18  33  52  73  97 130 165 226 240 291
#     4  10  19  35  53  71  94 125 189 213 242 286
#     4  10  21  33  51  84 111 139 173 210 272 321
#     4  12  21  38  55  74 108 139 184 225 252 311
#     4   9  17  33  54  77 109 141 174 213 255 318
#     4   9  17  30  50  74 106 140 166 202 249 312
#     4  10  19  32  49  79 110 130 169 207 260 317
#
# _framework density 17.519994000000001
#
# number of rings (size 3 to 8) (size 9 to 14) (size 15 to 20)
#    0.000    2.000    2.857    2.571    0.000    3.429 
#    5.143    0.000    0.000    0.000    0.000   20.000 
#    0.000    0.000    0.000    0.000    0.000    0.000 
#
# Total GULP energy -155995.516114 kJ/mol
# GULP energy per Si atom -5571.268433 kJ/mol
# Density = 1.748012 g / cm^3
# Si number density = 17.519994 Si / 1000 Ang^3
#
#
#
# Elastic Constant Matrix: (Units=GPa)
#
#
# Indices 1 2 3 4 5 6 
#
# 1 208.7392 77.2563 28.3049 0.0000 0.0000 0.0000
# 2 77.2563 137.5431 40.7896 0.0000 0.0000 0.0000
# 3 28.3049 40.7896 21.1156 0.0000 0.0000 0.0000
# 4 0.0000 0.0000 0.0000 -2.2885 0.0000 0.0000
# 5 0.0000 0.0000 0.0000 0.0000 4.8527 0.0000
# 6 0.0000 0.0000 0.0000 0.0000 0.0000 27.4193
#
#
#
# Elastic Compliance Matrix: (Units=1/GPa)
#
#
# Indices 1 2 3 4 5 6 
#
# 1 0.006168 -0.002371 -0.003689 0.000000 0.000000 0.000000
# 2 -0.002371 0.017933 -0.031463 0.000000 0.000000 0.000000
# 3 -0.003689 -0.031463 0.113082 0.000000 0.000000 0.000000
# 4 0.000000 0.000000 0.000000 -0.436966 0.000000 0.000000
# 5 0.000000 0.000000 0.000000 0.000000 0.206072 0.000000
# 6 0.000000 0.000000 0.000000 0.000000 0.000000 0.036471
#
#
# Mechanical properties :
#
#
# Convention : Reuss Voigt Hill
#
# Bulk Modulus (GPa) = 16.09349 73.34440 44.71894
# Shear Modulus (GPa) = 129.80692 20.73315 75.27004
#
# Velocity S-wave (km/s) = 8.61694 3.44379 6.56168
# Velocity P-wave (km/s) = 10.40230 7.60046 9.10974
#
# Compressibility (1/GPa) = 0.06213694
#
# Stress axis : x y z
#
# Youngs Moduli (GPa) = 162.11941 55.76378 8.84315
#
# Poissons Ratio (x) = 0.13220 0.03262
# Poissons Ratio (y) = 0.38433 0.27824
# Poissons Ratio (z) = 0.59805 1.75452
#
# Static dielectric constant tensor:
#      x y z
#    x 1.608580 0.000000 0.000000 
#    y 0.000000 1.581800 0.000000 
#    z 0.000000 0.000000 1.572880 
# 
# From -- ./inp_files/17555.got.cif
#   From: 2010.05.17/outbox.cif.g08.bks.cpg/sg37_9_cif.got.tgz:17555.got - 2010.06.03 17:53:42.
