data_PCOD9353715
_publ_section_title
;
Structure prediction by ZEFSAII (Michael W. Deem and Ramdas Pophale) SiO2 
 PCOD9353715
Probable space group: C C C 2
;
_chemical_formula_sum "Si O2"
_cell_formula_units_Z 48
_cell_length_a 5.088674
_cell_length_b 28.916865
_cell_length_c 14.887159
_cell_angle_alpha 90.000000
_cell_angle_beta 90.000000
_cell_angle_gamma 90.000000
_cell_volume 2190.623103
_symmetry_space_group_name_H-M "C C C 2"
_symmetry_group_IT_number 37
_symmetry_cell_setting 'orthorhombic'
loop_
_space_group_symop_operation_xyz
x,y,z
-x,-y,z
-x,y,1/2+z
x,-y,1/2+z
1/2+x,1/2+y,z
1/2-x,1/2-y,z
1/2-x,1/2+y,1/2+z
1/2+x,1/2-y,1/2+z
loop_
_atom_site_type_symbol
_atom_site_label
_atom_site_fract_x
_atom_site_fract_y
_atom_site_fract_z
Si Si1 0.753545 0.140718 0.648820
Si Si2 0.246451 0.359282 0.363270
Si Si3 0.755712 0.803241 0.645793
Si Si4 0.490381 0.946988 0.449098
Si Si5 0.509619 0.446988 0.062994
Si Si6 0.244293 0.696759 0.366298
O O1 0.749998 0.143247 0.756045
O O2 0.473712 0.160967 0.617764
O O3 0.876112 0.090780 0.626139
O O4 0.970019 0.176340 0.614390
O O5 0.123887 0.409220 0.385952
O O6 0.526282 0.339033 0.394327
O O7 0.029975 0.323660 0.397701
O O8 0.750000 0.750000 0.616930
O O9 0.750004 0.802685 0.756045
O O10 0.185675 0.941576 0.476649
O O11 0.685675 0.941575 0.535443
O O12 0.500000 0.000000 0.416411
O O13 0.500000 0.500000 0.095681
O O14 0.250000 0.750000 0.395161
#
# Coordination Sequence:
#
# PCOD9353715 Si02
#       6
#     8   8   8   8   8   8
#     4  10  19  33  55  82 106 134 178 226 264 303
#     4  10  19  33  55  82 106 134 178 226 264 303
#     4   9  17  30  51  79 109 139 172 213 264 320
#     4  10  21  38  57  76 104 144 180 212 265 328
#     4  10  21  38  57  76 104 144 180 212 265 328
#     4   9  17  30  51  79 109 139 172 213 264 320
#
# _framework density 21.911572
#
# number of rings (size 3 to 8) (size 9 to 14) (size 15 to 20)
#    0.000    2.333    0.000    3.000    0.000    4.000 
#    0.000   10.000    0.000   20.000    0.000    0.000 
#    0.000    0.000    0.000    0.000    0.000    0.000 
#
# Total GULP energy -133751.832146 kJ/mol
# GULP energy per Si atom -5572.993006 kJ/mol
# Density = 2.186170 g / cm^3
# Si number density = 21.911572 Si / 1000 Ang^3
#
#
#
# Elastic Constant Matrix: (Units=GPa)
#
#
# Indices 1 2 3 4 5 6 
#
# 1 94.3542 55.9872 -3.7709 0.0000 0.0000 0.0000
# 2 55.9872 186.4211 20.6352 0.0000 0.0000 0.0000
# 3 -3.7709 20.6352 26.9607 0.0000 0.0000 0.0000
# 4 0.0000 0.0000 0.0000 14.9324 0.0000 0.0000
# 5 0.0000 0.0000 0.0000 0.0000 6.7847 0.0000
# 6 0.0000 0.0000 0.0000 0.0000 0.0000 23.4058
#
#
#
# Elastic Compliance Matrix: (Units=1/GPa)
#
#
# Indices 1 2 3 4 5 6 
#
# 1 0.013603 -0.004694 0.005495 0.000000 0.000000 0.000000
# 2 -0.004694 0.007480 -0.006382 0.000000 0.000000 0.000000
# 3 0.005495 -0.006382 0.042744 0.000000 0.000000 0.000000
# 4 0.000000 0.000000 0.000000 0.066969 0.000000 0.000000
# 5 0.000000 0.000000 0.000000 0.000000 0.147391 0.000000
# 6 0.000000 0.000000 0.000000 0.000000 0.000000 0.042724
#
#
# Mechanical properties :
#
#
# Convention : Reuss Voigt Hill
#
# Bulk Modulus (GPa) = 18.98735 50.38211 34.68473
# Shear Modulus (GPa) = 14.30095 24.68355 19.49225
#
# Velocity S-wave (km/s) = 2.55751 3.35999 2.98583
# Velocity P-wave (km/s) = 4.17197 6.17220 5.26789
#
# Compressibility (1/GPa) = 0.05266664
#
# Stress axis : x y z
#
# Youngs Moduli (GPa) = 73.51306 133.68615 23.39512
#
# Poissons Ratio (x) = 0.62747 -0.12856
# Poissons Ratio (y) = 0.34504 0.14930
# Poissons Ratio (z) = -0.40395 0.85314
#
# Static dielectric constant tensor:
#      x y z
#    x 1.787820 0.000000 0.000000 
#    y 0.000000 1.807620 0.000000 
#    z 0.000000 0.000000 1.840800 
# 
# From -- ./inp_files/13910.got.cif
#   From: 2010.05.17/outbox.cif.g08.bks.cpg/sg37_7_cif.got.tgz:13910.got - 2010.06.03 17:53:42.
