data_PCOD9353961
_publ_section_title
;
Structure prediction by ZEFSAII (Michael W. Deem and Ramdas Pophale) SiO2 
 PCOD9353961
Probable space group: C C C 2
;
_chemical_formula_sum "Si O2"
_cell_formula_units_Z 52
_cell_length_a 10.600100
_cell_length_b 30.641024
_cell_length_c 9.260960
_cell_angle_alpha 90.000000
_cell_angle_beta 90.000000
_cell_angle_gamma 90.000000
_cell_volume 3007.940531
_symmetry_space_group_name_H-M "C C C 2"
_symmetry_group_IT_number 37
_symmetry_cell_setting 'orthorhombic'
loop_
_space_group_symop_operation_xyz
x,y,z
-x,-y,z
-x,y,1/2+z
x,-y,1/2+z
1/2+x,1/2+y,z
1/2-x,1/2-y,z
1/2-x,1/2+y,1/2+z
1/2+x,1/2-y,1/2+z
loop_
_atom_site_type_symbol
_atom_site_label
_atom_site_fract_x
_atom_site_fract_y
_atom_site_fract_z
Si Si1 0.753959 0.041520 0.282900
Si Si2 0.866813 0.381902 0.774387
Si Si3 0.500000 0.500000 0.696331
Si Si4 0.867445 0.279711 0.118604
Si Si5 0.132555 0.279711 0.274059
Si Si6 0.753959 0.958480 0.109763
Si Si7 0.366813 0.881902 0.118275
O O1 0.706680 0.044860 0.446331
O O2 0.729204 0.084877 0.192382
O O3 0.902729 0.029852 0.284191
O O4 0.696522 1.000000 0.196331
O O5 0.837051 0.330867 0.749629
O O6 0.770795 0.415123 0.700280
O O7 1.000000 0.390362 0.696331
O O8 0.874747 0.389146 0.946331
O O9 0.597271 0.470148 0.608471
O O10 0.750000 0.250000 0.166252
O O11 0.837051 0.330867 0.143033
O O12 1.000000 0.269848 0.196331
O O13 0.884151 0.273653 0.946331
O O14 0.250000 0.250000 0.226410
#
# Coordination Sequence:
#
# PCOD9353961 Si02
#       7
#     8   8   4   8   8   8   8
#     4  10  20  35  55  77 105 139 176 217 265 315
#     4  10  20  35  56  79 108 141 179 223 269 320
#     4   8  22  36  56  72 106 140 178 218 262 320
#     4   9  19  37  58  82 113 146 184 230 278 329
#     4   9  19  37  58  82 113 146 184 230 278 329
#     4  10  20  35  55  77 105 139 176 217 265 315
#     4  10  20  35  56  79 108 141 179 223 269 320
#
# _framework density 17.287576000000001
#
# number of rings (size 3 to 8) (size 9 to 14) (size 15 to 20)
#    0.923    1.538    0.000    2.308    0.000    2.462 
#    2.769    3.077    0.000    0.000    0.000    0.000 
#    0.000    0.000    0.000    0.000    0.000    0.000 
#
# Total GULP energy -144735.441675 kJ/mol
# GULP energy per Si atom -5566.747757 kJ/mol
# Density = 1.724823 g / cm^3
# Si number density = 17.287576 Si / 1000 Ang^3
#
#
#
# Elastic Constant Matrix: (Units=GPa)
#
#
# Indices 1 2 3 4 5 6 
#
# 1 93.2372 78.7458 48.5808 0.0000 0.0000 0.0000
# 2 78.7458 95.8067 64.9404 0.0000 0.0000 0.0000
# 3 48.5808 64.9404 111.9983 0.0000 0.0000 0.0000
# 4 0.0000 0.0000 0.0000 26.4170 0.0000 0.0000
# 5 0.0000 0.0000 0.0000 0.0000 25.7316 0.0000
# 6 0.0000 0.0000 0.0000 0.0000 0.0000 38.8592
#
#
#
# Elastic Compliance Matrix: (Units=1/GPa)
#
#
# Indices 1 2 3 4 5 6 
#
# 1 0.035491 -0.030868 0.002503 0.000000 0.000000 0.000000
# 2 -0.030868 0.044043 -0.012148 0.000000 0.000000 0.000000
# 3 0.002503 -0.012148 0.014887 0.000000 0.000000 0.000000
# 4 0.000000 0.000000 0.000000 0.037854 0.000000 0.000000
# 5 0.000000 0.000000 0.000000 0.000000 0.038863 0.000000
# 6 0.000000 0.000000 0.000000 0.000000 0.000000 0.025734
#
#
# Mechanical properties :
#
#
# Convention : Reuss Voigt Hill
#
# Bulk Modulus (GPa) = 74.65139 76.17513 75.41326
# Shear Modulus (GPa) = 17.70768 25.45324 21.58046
#
# Velocity S-wave (km/s) = 3.20394 3.84127 3.53699
# Velocity P-wave (km/s) = 7.54737 7.98956 7.77161
#
# Compressibility (1/GPa) = 0.01339560
#
# Stress axis : x y z
#
# Youngs Moduli (GPa) = 28.17598 22.70494 67.17354
#
# Poissons Ratio (x) = 0.70086 -0.16817
# Poissons Ratio (y) = 0.86974 0.81605
# Poissons Ratio (z) = -0.07054 0.27583
#
# Static dielectric constant tensor:
#      x y z
#    x 1.582550 0.000000 0.000000 
#    y 0.000000 1.582040 0.000000 
#    z 0.000000 0.000000 1.590940 
# 
# From -- ./inp_files/3088.got.cif
#   From: 2010.05.17/outbox.cif.g08.bks.cpg/sg37_2_cif.got.tgz:3088.got - 2010.06.03 17:53:42.
