data_PCOD9353313
_publ_section_title
;
Structure prediction by ZEFSAII (Michael W. Deem and Ramdas Pophale) SiO2 
 PCOD9353313
Probable space group: C M C 21
;
_chemical_formula_sum "Si O2"
_cell_formula_units_Z 32
_cell_length_a 9.000000
_cell_length_b 30.000000
_cell_length_c 12.000000
_cell_angle_alpha 90.000000
_cell_angle_beta 90.000000
_cell_angle_gamma 90.000000
_cell_volume 3240.000000
_symmetry_space_group_name_H-M "C M C 21"
_symmetry_group_IT_number 36
_symmetry_cell_setting 'orthorhombic'
loop_
_space_group_symop_operation_xyz
x,y,z
-x,-y,1/2+z
x,-y,1/2+z
-x,y,z
1/2+x,1/2+y,z
1/2-x,1/2-y,1/2+z
1/2+x,1/2-y,1/2+z
1/2-x,1/2+y,z
loop_
_atom_site_type_symbol
_atom_site_label
_atom_site_fract_x
_atom_site_fract_y
_atom_site_fract_z
Si Si1 0.829893 0.666521 0.061480
Si Si2 0.332525 0.927999 0.670379
Si Si3 0.674123 0.470015 0.466139
Si Si4 0.676917 0.322611 0.201592
Si Si5 0.180011 0.725936 0.253636
Si Si6 0.176594 0.067667 0.401179
Si Si7 0.821829 0.389948 0.351674
Si Si8 0.324576 0.330962 0.948053
O O1 0.833620 0.624772 0.146476
O O2 0.763217 0.706099 0.134958
O O3 0.000000 0.679243 0.032929
O O4 0.765520 0.643766 0.950493
O O5 0.500000 0.944181 0.650322
O O6 0.222142 0.950058 0.583529
O O7 0.275370 0.936615 0.792159
O O8 0.500000 0.464293 0.445543
O O9 0.706752 0.522562 0.468186
O O10 0.759939 0.439120 0.376788
O O11 0.500000 0.329982 0.216650
O O12 0.722655 0.277593 0.265735
O O13 0.763582 0.366098 0.241762
O O14 0.702789 0.313304 0.071659
O O15 0.237167 0.695648 0.353952
O O16 0.000000 0.723969 0.249704
O O17 0.209161 0.116148 0.451121
O O18 0.000000 0.067573 0.373908
O O19 0.000000 0.391636 0.357584
O O20 0.500000 0.326369 0.923354
#
# Coordination Sequence:
#
# PCOD9353313 Si02
#       8
#     8   8   8   8   8   8   8   8
#     4   8  16  32  55  80 108 144 184 236 288 336
#     4  10  19  34  56  83 114 150 193 244 298 348
#     4  10  21  37  58  84 118 157 201 248 299 357
#     4  10  23  39  58  85 122 162 196 238 298 359
#     4  10  20  37  59  84 114 153 196 238 293 352
#     4  10  21  37  58  84 114 153 197 246 299 353
#     4  10  21  38  60  86 118 154 199 245 297 354
#     4  10  22  40  60  86 118 153 198 245 296 355
#
# _framework density 9.8765429999999999
#
# number of rings (size 3 to 8) (size 9 to 14) (size 15 to 20)
#    0.000    2.250    1.250    1.875    1.750    3.000 
#    0.000    3.125    0.000    0.000    0.000    0.000 
#    0.000    0.000    0.000    0.000    0.000    0.000 
#
# Total GULP energy -178347.162793 kJ/mol
# GULP energy per Si atom -5573.348837 kJ/mol
# Density = 0.985406 g / cm^3
# Si number density = 9.876543 Si / 1000 Ang^3
#
#
#
# Elastic Constant Matrix: (Units=GPa)
#
#
# Indices 1 2 3 4 5 6 
#
# 1 18.9435 42.0457 16.3895 0.0000 0.0000 0.0000
# 2 42.0457 98.8031 19.8799 0.0000 0.0000 0.0000
# 3 16.3895 19.8799 24.3008 0.0000 0.0000 0.0000
# 4 0.0000 0.0000 0.0000 17.0156 0.0000 0.0000
# 5 0.0000 0.0000 0.0000 0.0000 21.4249 0.0000
# 6 0.0000 0.0000 0.0000 0.0000 0.0000 22.2134
#
#
#
# Elastic Compliance Matrix: (Units=1/GPa)
#
#
# Indices 1 2 3 4 5 6 
#
# 1 -0.488649 0.169540 0.190870 0.000000 0.000000 0.000000
# 2 0.169540 -0.046708 -0.076135 0.000000 0.000000 0.000000
# 3 0.190870 -0.076135 -0.025296 0.000000 0.000000 0.000000
# 4 0.000000 0.000000 0.000000 0.058770 0.000000 0.000000
# 5 0.000000 0.000000 0.000000 0.000000 0.046675 0.000000
# 6 0.000000 0.000000 0.000000 0.000000 0.000000 0.045018
#
#
# Mechanical properties :
#
#
# Convention : Reuss Voigt Hill
#
# Bulk Modulus (GPa) = 126.62147 33.18641 79.90394
# Shear Modulus (GPa) = -5.12239 16.37960 5.62861
#
# Velocity S-wave (km/s) = -1.61209 2.88274 1.68987
# Velocity P-wave (km/s) = 7.79591 5.28368 6.65934
#
# Compressibility (1/GPa) = 0.00789755
#
# Stress axis : x y z
#
# Youngs Moduli (GPa) = -2.04646 -21.40961 -39.53206
#
# Poissons Ratio (x) = 3.62979 7.54547
# Poissons Ratio (y) = 0.34696 -3.00977
# Poissons Ratio (z) = 0.39061 -1.63002
#
# Static dielectric constant tensor:
#      x y z
#    x 1.668100 0.000000 0.000000 
#    y 0.000000 1.735390 0.000000 
#    z 0.000000 0.000000 1.705700 
# 
# From -- ./inp_files/7267.got.cif
#   From: 2010.05.17/outbox.ucp.g08.bks.cvg/sg36_4_cif.got.tgz:7267.got - 2010.06.11 10:37:26.
