data_PCOD9353660
_publ_section_title
;
Structure prediction by ZEFSAII (Michael W. Deem and Ramdas Pophale) SiO2 
 PCOD9353660
Probable space group: C C C 2
;
_chemical_formula_sum "Si O2"
_cell_formula_units_Z 52
_cell_length_a 8.515685
_cell_length_b 18.469231
_cell_length_c 14.225289
_cell_angle_alpha 90.000000
_cell_angle_beta 90.000000
_cell_angle_gamma 90.000000
_cell_volume 2237.327185
_symmetry_space_group_name_H-M "C C C 2"
_symmetry_group_IT_number 37
_symmetry_cell_setting 'orthorhombic'
loop_
_space_group_symop_operation_xyz
x,y,z
-x,-y,z
-x,y,1/2+z
x,-y,1/2+z
1/2+x,1/2+y,z
1/2-x,1/2-y,z
1/2-x,1/2+y,1/2+z
1/2+x,1/2-y,1/2+z
loop_
_atom_site_type_symbol
_atom_site_label
_atom_site_fract_x
_atom_site_fract_y
_atom_site_fract_z
Si Si1 0.572587 0.750252 0.056180
Si Si2 0.682639 0.049057 0.288267
Si Si3 0.576900 0.898573 0.593571
Si Si4 0.595019 0.789825 0.835316
Si Si5 0.879993 0.874559 0.480921
Si Si6 0.500000 0.500000 0.845123
Si Si7 0.750000 0.250000 0.844872
Si Si8 0.000000 0.500000 0.445701
O O1 0.750000 0.750000 0.093849
O O2 0.468853 0.814364 0.101450
O O3 0.491553 0.671910 0.050612
O O4 0.583164 0.768729 0.944869
O O5 0.592447 0.060118 0.191041
O O6 0.641386 0.126462 0.332908
O O7 0.634764 0.990040 0.367703
O O8 0.863315 0.030266 0.278074
O O9 0.744679 0.907844 0.544521
O O10 0.462493 0.935854 0.517926
O O11 0.750000 0.750000 0.793775
O O12 0.419489 0.769709 0.797110
O O13 0.964218 0.932922 0.415325
O O14 0.792363 0.817854 0.411542
#
# Coordination Sequence:
#
# PCOD9353660 Si02
#       8
#     8   8   8   8   8   4   4   4
#     4  10  20  40  72 105 140 192 241 300 378 447
#     4  12  26  44  71 108 142 193 253 305 374 456
#     4  12  24  44  74 102 144 195 242 306 372 455
#     4  10  20  39  68 101 144 189 246 305 372 442
#     4  11  21  41  70 101 145 195 238 298 383 441
#     4  12  26  44  70 108 154 200 248 316 384 460
#     4  10  18  40  72  98 140 204 242 300 388 446
#     4  12  24  50  68  98 148 192 238 302 376 450
#
# _framework density 23.24202
#
# number of rings (size 3 to 8) (size 9 to 14) (size 15 to 20)
#    0.000    0.923    6.154    3.231    0.000    1.846 
#    1.385    1.538    0.000    0.000    0.000    0.000 
#    0.000    0.000    0.000    0.000    0.000    0.000 
#
# Total GULP energy -144994.026625 kJ/mol
# GULP energy per Si atom -5576.693332 kJ/mol
# Density = 2.318912 g / cm^3
# Si number density = 23.242020 Si / 1000 Ang^3
#
#
#
# Elastic Constant Matrix: (Units=GPa)
#
#
# Indices 1 2 3 4 5 6 
#
# 1 116.6788 19.6451 17.0138 0.0000 0.0000 0.0000
# 2 19.6451 90.5228 25.5657 0.0000 0.0000 0.0000
# 3 17.0138 25.5657 99.7088 0.0000 0.0000 0.0000
# 4 0.0000 0.0000 0.0000 6.8507 0.0000 0.0000
# 5 0.0000 0.0000 0.0000 0.0000 11.7928 0.0000
# 6 0.0000 0.0000 0.0000 0.0000 0.0000 41.1468
#
#
#
# Elastic Compliance Matrix: (Units=1/GPa)
#
#
# Indices 1 2 3 4 5 6 
#
# 1 0.009009 -0.001640 -0.001117 0.000000 0.000000 0.000000
# 2 -0.001640 0.012208 -0.002850 0.000000 0.000000 0.000000
# 3 -0.001117 -0.002850 0.010951 0.000000 0.000000 0.000000
# 4 0.000000 0.000000 0.000000 0.145970 0.000000 0.000000
# 5 0.000000 0.000000 0.000000 0.000000 0.084797 0.000000
# 6 0.000000 0.000000 0.000000 0.000000 0.000000 0.024303
#
#
# Mechanical properties :
#
#
# Convention : Reuss Voigt Hill
#
# Bulk Modulus (GPa) = 47.72377 47.92884 47.82630
# Shear Modulus (GPa) = 16.36999 28.27046 22.32022
#
# Velocity S-wave (km/s) = 2.65680 3.49141 3.10230
# Velocity P-wave (km/s) = 5.47626 6.07615 5.78399
#
# Compressibility (1/GPa) = 0.02095392
#
# Stress axis : x y z
#
# Youngs Moduli (GPa) = 110.99412 81.91478 91.31904
#
# Poissons Ratio (x) = 0.13432 0.10199
# Poissons Ratio (y) = 0.18201 0.26029
# Poissons Ratio (z) = 0.12397 0.23348
#
# Static dielectric constant tensor:
#      x y z
#    x 2.105690 0.000000 0.000000 
#    y 0.000000 1.975970 0.000000 
#    z 0.000000 0.000000 1.872770 
# 
# From -- ./inp_files/10804.got.cif
#   From: 2010.05.17/outbox.cif.g08.bks.cpg/sg37_6_cif.got.tgz:10804.got - 2010.06.03 17:53:42.
