data_PCOD9353757
_publ_section_title
;
Structure prediction by ZEFSAII (Michael W. Deem and Ramdas Pophale) SiO2 
 PCOD9353757
Probable space group: C C C 2
;
_chemical_formula_sum "Si O2"
_cell_formula_units_Z 64
_cell_length_a 22.370513
_cell_length_b 9.845870
_cell_length_c 14.255670
_cell_angle_alpha 90.000000
_cell_angle_beta 90.000000
_cell_angle_gamma 90.000000
_cell_volume 3139.913428
_symmetry_space_group_name_H-M "C C C 2"
_symmetry_group_IT_number 37
_symmetry_cell_setting 'orthorhombic'
loop_
_space_group_symop_operation_xyz
x,y,z
-x,-y,z
-x,y,1/2+z
x,-y,1/2+z
1/2+x,1/2+y,z
1/2-x,1/2-y,z
1/2-x,1/2+y,1/2+z
1/2+x,1/2-y,1/2+z
loop_
_atom_site_type_symbol
_atom_site_label
_atom_site_fract_x
_atom_site_fract_y
_atom_site_fract_z
Si Si1 0.665330 0.185894 0.323370
Si Si2 0.751574 0.395000 0.503986
Si Si3 0.065173 0.525394 0.853552
Si Si4 0.829045 0.602739 0.614681
Si Si5 0.443320 0.909115 0.641413
Si Si6 0.891725 0.235490 0.966817
Si Si7 0.129604 0.050806 0.909067
Si Si8 0.979049 0.857273 0.036615
O O1 0.709100 0.137189 0.408482
O O2 0.687385 0.141072 0.221158
O O3 0.650337 0.346123 0.328145
O O4 0.601779 0.111770 0.338799
O O5 0.750000 0.250000 0.556546
O O6 0.779260 0.519054 0.559929
O O7 0.683427 0.428240 0.481749
O O8 0.054124 0.597248 0.753960
O O9 0.106522 0.623242 0.913043
O O10 0.000000 0.500000 0.896093
O O11 0.884816 0.496477 0.617320
O O12 0.850356 0.735245 0.556826
O O13 0.447865 0.760015 0.597521
O O14 0.500000 0.000000 0.612175
O O15 0.873978 0.111031 0.899458
O O16 0.959311 0.205144 0.998859
O O17 0.067426 0.100833 0.954890
O O18 0.000000 0.000000 0.084052
#
# Coordination Sequence:
#
# PCOD9353757 Si02
#       8
#     8   8   8   8   8   8   8   8
#     4  10  21  42  65  92 125 171 217 266 329 393
#     4  10  21  43  66  90 129 172 215 272 326 391
#     4  10  21  35  60  89 120 162 213 258 322 384
#     4  11  22  38  69  98 126 172 231 268 329 406
#     4  10  19  35  58  91 120 158 212 266 312 386
#     4  11  22  39  61  94 125 167 212 271 331 391
#     4  10  23  42  61  89 131 164 213 269 332 392
#     4  10  21  38  60  91 129 168 212 264 340 396
#
# _framework density 20.382728
#
# number of rings (size 3 to 8) (size 9 to 14) (size 15 to 20)
#    0.000    1.750    2.500    2.250    1.750    0.500 
#   11.250    3.125    0.000    0.000    0.000    0.000 
#    0.000    0.000    0.000    0.000    0.000    0.000 
#
# Total GULP energy -178499.140961 kJ/mol
# GULP energy per Si atom -5578.098155 kJ/mol
# Density = 2.033634 g / cm^3
# Si number density = 20.382728 Si / 1000 Ang^3
#
#
#
# Elastic Constant Matrix: (Units=GPa)
#
#
# Indices 1 2 3 4 5 6 
#
# 1 49.3607 10.5828 -8.9771 0.0000 0.0000 0.0000
# 2 10.5828 108.0201 38.9090 0.0000 0.0000 0.0000
# 3 -8.9771 38.9090 70.6903 0.0000 0.0000 0.0000
# 4 0.0000 0.0000 0.0000 25.5715 0.0000 0.0000
# 5 0.0000 0.0000 0.0000 0.0000 10.8371 0.0000
# 6 0.0000 0.0000 0.0000 0.0000 0.0000 32.4004
#
#
#
# Elastic Compliance Matrix: (Units=1/GPa)
#
#
# Indices 1 2 3 4 5 6 
#
# 1 0.022008 -0.003945 0.004966 0.000000 0.000000 0.000000
# 2 -0.003945 0.012254 -0.007246 0.000000 0.000000 0.000000
# 3 0.004966 -0.007246 0.018765 0.000000 0.000000 0.000000
# 4 0.000000 0.000000 0.000000 0.039106 0.000000 0.000000
# 5 0.000000 0.000000 0.000000 0.000000 0.092275 0.000000
# 6 0.000000 0.000000 0.000000 0.000000 0.000000 0.030864
#
#
# Mechanical properties :
#
#
# Convention : Reuss Voigt Hill
#
# Bulk Modulus (GPa) = 24.64391 34.34451 29.49421
# Shear Modulus (GPa) = 20.72562 26.26556 23.49559
#
# Velocity S-wave (km/s) = 3.19222 3.59363 3.39886
# Velocity P-wave (km/s) = 5.06990 5.83997 5.46851
#
# Compressibility (1/GPa) = 0.04057797
#
# Stress axis : x y z
#
# Youngs Moduli (GPa) = 45.43805 81.60630 53.29056
#
# Poissons Ratio (x) = 0.32193 -0.26465
# Poissons Ratio (y) = 0.17925 0.38613
# Poissons Ratio (z) = -0.22565 0.59130
#
# Static dielectric constant tensor:
#      x y z
#    x 1.735380 0.000000 0.000000 
#    y 0.000000 1.766030 0.000000 
#    z 0.000000 0.000000 1.748060 
# 
# From -- ./inp_files/10965.got.cif
#   From: 2010.05.17/outbox.cif.g08.bks.cpg/sg37_6_cif.got.tgz:10965.got - 2010.06.03 17:53:42.
