data_PCOD9353710
_publ_section_title
;
Structure prediction by ZEFSAII (Michael W. Deem and Ramdas Pophale) SiO2 
 PCOD9353710
Probable space group: C C C 2
;
_chemical_formula_sum "Si O2"
_cell_formula_units_Z 48
_cell_length_a 15.463512
_cell_length_b 26.115927
_cell_length_c 5.384480
_cell_angle_alpha 90.000000
_cell_angle_beta 90.000000
_cell_angle_gamma 90.000000
_cell_volume 2174.489675
_symmetry_space_group_name_H-M "C C C 2"
_symmetry_group_IT_number 37
_symmetry_cell_setting 'orthorhombic'
loop_
_space_group_symop_operation_xyz
x,y,z
-x,-y,z
-x,y,1/2+z
x,-y,1/2+z
1/2+x,1/2+y,z
1/2-x,1/2-y,z
1/2-x,1/2+y,1/2+z
1/2+x,1/2-y,1/2+z
loop_
_atom_site_type_symbol
_atom_site_label
_atom_site_fract_x
_atom_site_fract_y
_atom_site_fract_z
Si Si1 0.875774 0.861130 0.284850
Si Si2 0.831221 0.372502 0.775547
Si Si3 0.656351 0.814005 0.775443
Si Si4 0.096985 0.021410 0.259097
Si Si5 0.633550 0.302256 0.286058
Si Si6 0.534615 0.058055 0.922061
O O1 0.772005 0.870297 0.279159
O O2 0.912233 0.918144 0.290849
O O3 0.896431 0.828980 0.531685
O O4 0.897906 0.831364 0.032172
O O5 0.862326 0.348992 0.515037
O O6 0.869011 0.429049 0.830431
O O7 0.862527 0.337978 0.006747
O O8 0.614586 0.757982 0.797290
O O9 0.761293 0.806956 0.783436
O O10 0.140000 0.995196 0.499421
O O11 0.000000 0.000000 0.240022
O O12 0.479593 0.080515 0.694576
O O13 0.500000 0.000000 0.947424
#
# Coordination Sequence:
#
# PCOD9353710 Si02
#       6
#     8   8   8   8   8   8
#     4  10  19  33  54  86 115 141 184 228 273 322
#     4  10  19  33  54  83 112 148 185 232 269 322
#     4   9  17  30  52  84 116 145 179 222 282 330
#     4  10  21  38  56  80 107 149 187 220 277 331
#     4   9  17  30  52  84 120 142 173 227 280 330
#     4  10  21  38  54  75 104 151 194 227 283 329
#
# _framework density 22.074147
#
# number of rings (size 3 to 8) (size 9 to 14) (size 15 to 20)
#    0.000    2.333    0.000    3.000    0.000    4.000 
#    6.000    0.000    0.000    0.000   86.667    0.000 
#    0.000    0.000    0.000    0.000    0.000    1.000 
#
# Total GULP energy -133905.175682 kJ/mol
# GULP energy per Si atom -5579.382320 kJ/mol
# Density = 2.202390 g / cm^3
# Si number density = 22.074147 Si / 1000 Ang^3
#
#
#
# Elastic Constant Matrix: (Units=GPa)
#
#
# Indices 1 2 3 4 5 6 
#
# 1 38.0456 35.5618 20.4755 0.0000 0.0000 0.0000
# 2 35.5618 88.7070 8.1573 0.0000 0.0000 0.0000
# 3 20.4755 8.1573 150.8834 0.0000 0.0000 0.0000
# 4 0.0000 0.0000 0.0000 35.7342 0.0000 0.0000
# 5 0.0000 0.0000 0.0000 0.0000 -73.5842 0.0000
# 6 0.0000 0.0000 0.0000 0.0000 0.0000 110.5239
#
#
#
# Elastic Compliance Matrix: (Units=1/GPa)
#
#
# Indices 1 2 3 4 5 6 
#
# 1 0.045835 -0.017892 -0.005253 0.000000 0.000000 0.000000
# 2 -0.017892 0.018313 0.001438 0.000000 0.000000 0.000000
# 3 -0.005253 0.001438 0.007263 0.000000 0.000000 0.000000
# 4 0.000000 0.000000 0.000000 0.027984 0.000000 0.000000
# 5 0.000000 0.000000 0.000000 0.000000 -0.013590 0.000000
# 6 0.000000 0.000000 0.000000 0.000000 0.000000 0.009048
#
#
# Mechanical properties :
#
#
# Convention : Reuss Voigt Hill
#
# Bulk Modulus (GPa) = 35.71691 45.11392 40.41541
# Shear Modulus (GPa) = 33.87557 28.76419 31.31988
#
# Velocity S-wave (km/s) = 3.92168 3.61372 3.77085
# Velocity P-wave (km/s) = 6.05984 6.15580 6.10801
#
# Compressibility (1/GPa) = 0.02799795
#
# Stress axis : x y z
#
# Youngs Moduli (GPa) = 21.81748 54.60465 137.68961
#
# Poissons Ratio (x) = 0.97697 0.72324
# Poissons Ratio (y) = 0.39035 -0.19798
# Poissons Ratio (z) = 0.11460 -0.07852
#
# Static dielectric constant tensor:
#      x y z
#    x 1.832490 0.000000 0.000000 
#    y 0.000000 1.772170 0.000000 
#    z 0.000000 0.000000 1.947470 
# 
# From -- ./inp_files/796.got.cif
#   From: 2010.05.17/outbox.cif.g08.bks.cpg/sg37_1_cif.got.tgz:796.got - 2010.06.03 17:53:42.
