data_PCOD9353852
_publ_section_title
;
Structure prediction by ZEFSAII (Michael W. Deem and Ramdas Pophale) SiO2 
 PCOD9353852
Probable space group: C C C 2
;
_chemical_formula_sum "Si O2"
_cell_formula_units_Z 48
_cell_length_a 15.206126
_cell_length_b 17.803649
_cell_length_c 10.219164
_cell_angle_alpha 90.000000
_cell_angle_beta 90.000000
_cell_angle_gamma 90.000000
_cell_volume 2766.578370
_symmetry_space_group_name_H-M "C C C 2"
_symmetry_group_IT_number 37
_symmetry_cell_setting 'orthorhombic'
loop_
_space_group_symop_operation_xyz
x,y,z
-x,-y,z
-x,y,1/2+z
x,-y,1/2+z
1/2+x,1/2+y,z
1/2-x,1/2-y,z
1/2-x,1/2+y,1/2+z
1/2+x,1/2-y,1/2+z
loop_
_atom_site_type_symbol
_atom_site_label
_atom_site_fract_x
_atom_site_fract_y
_atom_site_fract_z
Si Si1 0.245162 0.637399 0.177990
Si Si2 0.712317 0.330345 0.880438
Si Si3 0.805935 0.985922 0.265374
Si Si4 0.913927 0.047213 0.509472
Si Si5 0.098552 0.247005 0.735570
Si Si6 0.014627 0.200344 0.469214
O O1 0.242541 0.549855 0.208568
O O2 0.164607 0.683424 0.236132
O O3 0.336894 0.673620 0.230988
O O4 0.247014 0.654957 0.023741
O O5 0.750000 0.250000 0.833617
O O6 0.731645 0.403270 0.793641
O O7 0.606803 0.327323 0.904731
O O8 0.879125 0.974367 0.152931
O O9 0.844525 0.021012 0.399648
O O10 0.948328 0.132378 0.503953
O O11 0.000000 0.000000 0.479222
O O12 0.042974 0.241970 0.601764
O O13 0.035865 0.247049 0.859668
#
# Coordination Sequence:
#
# PCOD9353852 Si02
#       6
#     8   8   8   8   8   8
#     4  10  19  39  58  84 121 167 192 231 302 374
#     4  11  21  38  60  86 119 161 198 235 299 363
#     4  12  22  36  57  89 123 154 195 240 296 365
#     4  12  22  31  54  91 125 148 182 239 308 365
#     4  10  20  35  61  83 119 158 201 234 298 356
#     4  11  20  34  57  90 117 153 194 243 292 365
#
# _framework density 17.349951000000001
#
# number of rings (size 3 to 8) (size 9 to 14) (size 15 to 20)
#    0.000    1.000    8.333    2.500    0.000    0.000 
#    0.000    3.333    0.000    1.000    0.000    0.000 
#    0.000    0.000    0.000    0.000    0.000    0.000 
#
# Total GULP energy -133882.621195 kJ/mol
# GULP energy per Si atom -5578.442550 kJ/mol
# Density = 1.731046 g / cm^3
# Si number density = 17.349951 Si / 1000 Ang^3
#
#
#
# Elastic Constant Matrix: (Units=GPa)
#
#
# Indices 1 2 3 4 5 6 
#
# 1 48.9106 32.9285 36.2162 0.0000 0.0000 0.0000
# 2 32.9285 115.4150 22.0044 0.0000 0.0000 0.0000
# 3 36.2162 22.0044 65.1454 0.0000 0.0000 0.0000
# 4 0.0000 0.0000 0.0000 5.1958 0.0000 0.0000
# 5 0.0000 0.0000 0.0000 0.0000 23.1144 0.0000
# 6 0.0000 0.0000 0.0000 0.0000 0.0000 19.0279
#
#
#
# Elastic Compliance Matrix: (Units=1/GPa)
#
#
# Indices 1 2 3 4 5 6 
#
# 1 0.040306 -0.007725 -0.019798 0.000000 0.000000 0.000000
# 2 -0.007725 0.010741 0.000666 0.000000 0.000000 0.000000
# 3 -0.019798 0.000666 0.026131 0.000000 0.000000 0.000000
# 4 0.000000 0.000000 0.000000 0.192464 0.000000 0.000000
# 5 0.000000 0.000000 0.000000 0.000000 0.043263 0.000000
# 6 0.000000 0.000000 0.000000 0.000000 0.000000 0.052554
#
#
# Mechanical properties :
#
#
# Convention : Reuss Voigt Hill
#
# Bulk Modulus (GPa) = 42.61551 45.75216 44.18383
# Shear Modulus (GPa) = 11.70976 18.68907 15.19941
#
# Velocity S-wave (km/s) = 2.60073 3.28561 2.96302
# Velocity P-wave (km/s) = 5.79949 6.38914 6.10144
#
# Compressibility (1/GPa) = 0.02346563
#
# Stress axis : x y z
#
# Youngs Moduli (GPa) = 24.81051 93.09873 38.26824
#
# Poissons Ratio (x) = 0.71917 0.75762
# Poissons Ratio (y) = 0.19166 -0.02550
# Poissons Ratio (z) = 0.49119 -0.06203
#
# Static dielectric constant tensor:
#      x y z
#    x 1.577060 0.000000 0.000000 
#    y 0.000000 1.655450 0.000000 
#    z 0.000000 0.000000 1.596930 
# 
# From -- ./inp_files/3502.got.cif
#   From: 2010.05.17/outbox.cif.g08.bks.cpg/sg37_2_cif.got.tgz:3502.got - 2010.06.03 17:53:42.
