data_PCOD9353996
_publ_section_title
;
Structure prediction by ZEFSAII (Michael W. Deem and Ramdas Pophale) SiO2 
 PCOD9353996
Probable space group: C C C 2
;
_chemical_formula_sum "Si O2"
_cell_formula_units_Z 64
_cell_length_a 19.510685
_cell_length_b 18.011374
_cell_length_c 8.201154
_cell_angle_alpha 90.000000
_cell_angle_beta 90.000000
_cell_angle_gamma 90.000000
_cell_volume 2882.002337
_symmetry_space_group_name_H-M "C C C 2"
_symmetry_group_IT_number 37
_symmetry_cell_setting 'orthorhombic'
loop_
_space_group_symop_operation_xyz
x,y,z
-x,-y,z
-x,y,1/2+z
x,-y,1/2+z
1/2+x,1/2+y,z
1/2-x,1/2-y,z
1/2-x,1/2+y,1/2+z
1/2+x,1/2-y,1/2+z
loop_
_atom_site_type_symbol
_atom_site_label
_atom_site_fract_x
_atom_site_fract_y
_atom_site_fract_z
Si Si1 0.205636 0.903425 0.304090
Si Si2 0.341568 0.948703 0.167246
Si Si3 0.908990 0.805559 0.729167
Si Si4 0.948818 0.356079 0.321595
Si Si5 0.586457 0.187014 0.688319
Si Si6 0.838107 0.060446 0.672163
Si Si7 0.459401 0.347766 0.088389
Si Si8 0.702844 0.898932 0.309387
O O1 0.286409 0.905561 0.279359
O O2 0.169083 0.831085 0.232245
O O3 0.188786 0.916816 0.493018
O O4 0.173353 0.974010 0.208810
O O5 0.415661 0.926293 0.232890
O O6 0.323968 0.034755 0.191612
O O7 0.323539 0.922965 0.986288
O O8 0.920304 0.717510 0.728155
O O9 0.958760 0.845194 0.600685
O O10 0.938194 0.836297 0.901504
O O11 0.926207 0.346464 0.508234
O O12 0.030660 0.351615 0.305580
O O13 0.567637 0.273330 0.677500
O O14 0.662812 0.173222 0.750095
O O15 0.917091 0.085360 0.669328
O O16 0.785005 0.101124 0.795000
#
# Coordination Sequence:
#
# PCOD9353996 Si02
#       8
#     8   8   8   8   8   8   8   8
#     4  10  20  36  55  79 108 142 179 220 265 313
#     4  11  22  37  56  80 107 140 177 219 265 315
#     4   9  20  36  56  79 108 142 178 218 265 314
#     4  10  20  37  57  80 108 140 176 219 264 314
#     4  10  20  37  57  80 108 140 176 219 264 314
#     4  10  20  36  55  79 108 142 179 220 265 313
#     4   9  20  36  56  79 108 142 178 218 265 314
#     4  11  22  37  56  80 107 140 177 219 265 315
#
# _framework density 22.206783999999999
#
# number of rings (size 3 to 8) (size 9 to 14) (size 15 to 20)
#    0.000    2.000    0.000    5.250    0.000    5.000 
#    0.000   10.000    0.000    0.000    0.000    0.000 
#    0.000    0.000    0.000    0.000    0.000    0.000 
#
# Total GULP energy -178759.530587 kJ/mol
# GULP energy per Si atom -5586.235331 kJ/mol
# Density = 2.215624 g / cm^3
# Si number density = 22.206784 Si / 1000 Ang^3
#
#
#
# Elastic Constant Matrix: (Units=GPa)
#
#
# Indices 1 2 3 4 5 6 
#
# 1 27.4328 -4.1509 -9.8610 0.0000 0.0000 0.0000
# 2 -4.1509 12.5601 -7.7817 0.0000 0.0000 0.0000
# 3 -9.8610 -7.7817 60.5952 0.0000 0.0000 0.0000
# 4 0.0000 0.0000 0.0000 14.7814 0.0000 0.0000
# 5 0.0000 0.0000 0.0000 0.0000 26.1333 0.0000
# 6 0.0000 0.0000 0.0000 0.0000 0.0000 37.1761
#
#
#
# Elastic Compliance Matrix: (Units=1/GPa)
#
#
# Indices 1 2 3 4 5 6 
#
# 1 0.042938 0.020120 0.009571 0.000000 0.000000 0.000000
# 2 0.020120 0.095927 0.015593 0.000000 0.000000 0.000000
# 3 0.009571 0.015593 0.020063 0.000000 0.000000 0.000000
# 4 0.000000 0.000000 0.000000 0.067653 0.000000 0.000000
# 5 0.000000 0.000000 0.000000 0.000000 0.038265 0.000000
# 6 0.000000 0.000000 0.000000 0.000000 0.000000 0.026899
#
#
# Mechanical properties :
#
#
# Convention : Reuss Voigt Hill
#
# Bulk Modulus (GPa) = 4.00806 6.33344 5.17075
# Shear Modulus (GPa) = 17.58451 23.77695 20.68073
#
# Velocity S-wave (km/s) = 2.81704 3.27572 3.05500
# Velocity P-wave (km/s) = 3.51991 4.14310 3.84416
#
# Compressibility (1/GPa) = 0.24949757
#
# Stress axis : x y z
#
# Youngs Moduli (GPa) = 23.28956 10.42457 49.84285
#
# Poissons Ratio (x) = -0.20974 -0.47706
# Poissons Ratio (y) = -0.46859 -0.77722
# Poissons Ratio (z) = -0.22291 -0.16255
#
# Static dielectric constant tensor:
#      x y z
#    x 1.822950 0.000000 0.000000 
#    y 0.000000 1.799810 0.000000 
#    z 0.000000 0.000000 1.828910 
# 
# From -- ./inp_files/4430.got.cif
#   From: 2010.05.17/outbox.cif.g08.bks.cpg/sg37_3_cif.got.tgz:4430.got - 2010.06.03 17:53:42.
