data_PCOD9353983
_publ_section_title
;
Structure prediction by ZEFSAII (Michael W. Deem and Ramdas Pophale) SiO2 
 PCOD9353983
Probable space group: C C C 2
;
_chemical_formula_sum "Si O2"
_cell_formula_units_Z 64
_cell_length_a 11.896611
_cell_length_b 11.623968
_cell_length_c 22.948381
_cell_angle_alpha 90.000000
_cell_angle_beta 90.000000
_cell_angle_gamma 90.000000
_cell_volume 3173.435812
_symmetry_space_group_name_H-M "C C C 2"
_symmetry_group_IT_number 37
_symmetry_cell_setting 'orthorhombic'
loop_
_space_group_symop_operation_xyz
x,y,z
-x,-y,z
-x,y,1/2+z
x,-y,1/2+z
1/2+x,1/2+y,z
1/2-x,1/2-y,z
1/2-x,1/2+y,1/2+z
1/2+x,1/2-y,1/2+z
loop_
_atom_site_type_symbol
_atom_site_label
_atom_site_fract_x
_atom_site_fract_y
_atom_site_fract_z
Si Si1 0.418475 0.709158 0.064480
Si Si2 0.959799 0.753781 0.238860
Si Si3 0.863922 0.680142 0.118768
Si Si4 0.684780 0.575372 0.319758
Si Si5 0.688043 0.364843 0.237737
Si Si6 0.376200 0.302658 0.430173
Si Si7 0.275540 0.926783 0.114092
Si Si8 0.946926 0.382013 0.844977
O O1 0.541859 0.747647 0.084288
O O2 0.347513 0.822611 0.085804
O O3 0.350828 0.599799 0.090997
O O4 0.416074 0.684973 0.995650
O O5 0.903148 0.686941 0.186085
O O6 0.874451 0.835383 0.275018
O O7 0.005583 0.665320 0.287008
O O8 0.063747 0.829047 0.216127
O O9 0.750000 0.750000 0.113842
O O10 0.835617 0.548317 0.101435
O O11 0.672537 0.452765 0.290131
O O12 0.632421 0.592524 0.384123
O O13 0.816426 0.602587 0.327084
O O14 0.750000 0.250000 0.257143
O O15 0.760538 0.414427 0.183895
O O16 0.250000 0.250000 0.433988
O O17 0.450989 0.209881 0.396194
O O18 0.000000 0.500000 0.864068
#
# Coordination Sequence:
#
# PCOD9353983 Si02
#       8
#     8   8   8   8   8   8   8   8
#     4  11  22  44  67  95 129 175 230 278 342 411
#     4  11  21  38  58  88 133 170 212 259 338 425
#     4  12  25  39  64  98 135 175 219 278 344 417
#     4  10  22  38  62  90 122 175 213 264 336 399
#     4  12  21  36  61  96 134 165 213 277 343 407
#     4   9  19  40  67  86 121 164 222 271 318 404
#     4  11  22  40  67  99 132 172 221 281 348 400
#     4  10  20  35  59  92 119 157 211 273 325 374
#
# _framework density 20.167417
#
# number of rings (size 3 to 8) (size 9 to 14) (size 15 to 20)
#    0.000    1.250    3.750    4.875    0.000    2.500 
#    0.000    0.000   11.000    0.000    0.000    0.000 
#    0.000    0.000    0.000    0.000    0.000    0.000 
#
# Total GULP energy -178608.480687 kJ/mol
# GULP energy per Si atom -5581.515021 kJ/mol
# Density = 2.012152 g / cm^3
# Si number density = 20.167417 Si / 1000 Ang^3
#
#
#
# Elastic Constant Matrix: (Units=GPa)
#
#
# Indices 1 2 3 4 5 6 
#
# 1 68.4062 18.1090 29.4228 0.0000 0.0000 0.0000
# 2 18.1090 78.8273 45.6856 0.0000 0.0000 0.0000
# 3 29.4228 45.6856 142.5282 0.0000 0.0000 0.0000
# 4 0.0000 0.0000 0.0000 18.2157 0.0000 0.0000
# 5 0.0000 0.0000 0.0000 0.0000 14.7452 0.0000
# 6 0.0000 0.0000 0.0000 0.0000 0.0000 29.6145
#
#
#
# Elastic Compliance Matrix: (Units=1/GPa)
#
#
# Indices 1 2 3 4 5 6 
#
# 1 0.016351 -0.002211 -0.002667 0.000000 0.000000 0.000000
# 2 -0.002211 0.015879 -0.004634 0.000000 0.000000 0.000000
# 3 -0.002667 -0.004634 0.009052 0.000000 0.000000 0.000000
# 4 0.000000 0.000000 0.000000 0.054898 0.000000 0.000000
# 5 0.000000 0.000000 0.000000 0.000000 0.067819 0.000000
# 6 0.000000 0.000000 0.000000 0.000000 0.000000 0.033767
#
#
# Mechanical properties :
#
#
# Convention : Reuss Voigt Hill
#
# Bulk Modulus (GPa) = 44.92370 52.91071 48.91720
# Shear Modulus (GPa) = 22.30080 25.61806 23.95943
#
# Velocity S-wave (km/s) = 3.32894 3.56795 3.45052
# Velocity P-wave (km/s) = 6.09094 6.57772 6.33900
#
# Compressibility (1/GPa) = 0.02225997
#
# Stress axis : x y z
#
# Youngs Moduli (GPa) = 61.15908 62.97527 110.47420
#
# Poissons Ratio (x) = 0.13922 0.29461
# Poissons Ratio (y) = 0.13520 0.51189
# Poissons Ratio (z) = 0.16310 0.29180
#
# Static dielectric constant tensor:
#      x y z
#    x 1.764200 0.000000 0.000000 
#    y 0.000000 1.734300 0.000000 
#    z 0.000000 0.000000 1.710260 
# 
# From -- ./inp_files/18744.got.cif
#   From: 2010.05.17/outbox.cif.g08.bks.cpg/sg37_10_cif.got.tgz:18744.got - 2010.06.03 17:53:42.
