data_PCOD9353403
_publ_section_title
;
Structure prediction by ZEFSAII (Michael W. Deem and Ramdas Pophale) SiO2 
 PCOD9353403
Probable space group: C M C 21
;
_chemical_formula_sum "Si O2"
_cell_formula_units_Z 32
_cell_length_a 15.000000
_cell_length_b 12.000000
_cell_length_c 18.000000
_cell_angle_alpha 90.000000
_cell_angle_beta 90.000000
_cell_angle_gamma 90.000000
_cell_volume 3240.000000
_symmetry_space_group_name_H-M "C M C 21"
_symmetry_group_IT_number 36
_symmetry_cell_setting 'orthorhombic'
loop_
_space_group_symop_operation_xyz
x,y,z
-x,-y,1/2+z
x,-y,1/2+z
-x,y,z
1/2+x,1/2+y,z
1/2-x,1/2-y,1/2+z
1/2+x,1/2-y,1/2+z
1/2-x,1/2+y,z
loop_
_atom_site_type_symbol
_atom_site_label
_atom_site_fract_x
_atom_site_fract_y
_atom_site_fract_z
Si Si1 0.165346 0.351480 0.611430
Si Si2 0.815823 0.177366 0.846468
Si Si3 0.395256 0.490300 0.225056
Si Si4 0.602525 0.964476 0.221725
Si Si5 0.897711 0.115196 0.563455
Si Si6 0.307950 0.730219 0.231313
Si Si7 0.247385 0.016773 0.976280
Si Si8 0.604247 0.089806 0.373670
O O1 0.112455 0.446869 0.655701
O O2 0.111712 0.247066 0.578479
O O3 0.230578 0.299360 0.673267
O O4 0.218502 0.412797 0.546397
O O5 0.731125 0.242823 0.812553
O O6 0.793070 0.104163 0.917665
O O7 0.884386 0.277560 0.862192
O O8 0.846834 0.091788 0.782516
O O9 0.500000 0.479179 0.238036
O O10 0.377217 0.447721 0.141385
O O11 0.367273 0.619015 0.233498
O O12 0.500000 0.937984 0.233602
O O13 0.633258 0.026146 0.297566
O O14 0.649423 0.847237 0.206485
O O15 0.000000 0.089444 0.542846
O O16 0.827191 0.070274 0.503892
O O17 0.330019 0.953344 0.937622
O O18 0.500000 0.064881 0.387915
#
# Coordination Sequence:
#
# PCOD9353403 Si02
#       8
#     8   8   8   8   8   8   8   8
#     4  12  23  42  70  97 130 178 224 276 338 400
#     4  12  23  42  70  97 130 178 224 276 338 400
#     4  11  23  41  68  99 130 171 226 279 331 394
#     4  11  23  41  68  99 130 171 226 279 331 394
#     4  11  24  44  67  97 133 173 226 279 335 405
#     4  12  21  40  67 100 130 176 220 278 326 404
#     4  12  26  44  64  98 140 180 216 278 352 404
#     4  11  24  44  67  97 133 173 226 279 335 405
#
# _framework density 9.8765429999999999
#
# number of rings (size 3 to 8) (size 9 to 14) (size 15 to 20)
#    0.000    0.500    5.000    4.125    0.000    4.000 
#    0.000    0.000    0.000    0.000    0.000    0.000 
#    0.000    0.000    0.000    0.000    0.000    0.000 
#
# Total GULP energy -178911.042992 kJ/mol
# GULP energy per Si atom -5590.970093 kJ/mol
# Density = 0.985406 g / cm^3
# Si number density = 9.876543 Si / 1000 Ang^3
#
#
#
# Elastic Constant Matrix: (Units=GPa)
#
#
# Indices 1 2 3 4 5 6 
#
# 1 65.7950 35.0094 23.2624 0.0000 0.0000 0.0000
# 2 35.0094 130.6632 13.6858 0.0000 0.0000 0.0000
# 3 23.2624 13.6858 49.3355 0.0000 0.0000 0.0000
# 4 0.0000 0.0000 0.0000 34.6137 0.0000 0.0000
# 5 0.0000 0.0000 0.0000 0.0000 26.9594 0.0000
# 6 0.0000 0.0000 0.0000 0.0000 0.0000 22.9461
#
#
#
# Elastic Compliance Matrix: (Units=1/GPa)
#
#
# Indices 1 2 3 4 5 6 
#
# 1 0.020662 -0.004651 -0.008452 0.000000 0.000000 0.000000
# 2 -0.004651 0.008929 -0.000284 0.000000 0.000000 0.000000
# 3 -0.008452 -0.000284 0.024333 0.000000 0.000000 0.000000
# 4 0.000000 0.000000 0.000000 0.028890 0.000000 0.000000
# 5 0.000000 0.000000 0.000000 0.000000 0.037093 0.000000
# 6 0.000000 0.000000 0.000000 0.000000 0.000000 0.043580
#
#
# Mechanical properties :
#
#
# Convention : Reuss Voigt Hill
#
# Bulk Modulus (GPa) = 36.83190 43.30100 40.06645
# Shear Modulus (GPa) = 25.08632 28.49293 26.78962
#
# Velocity S-wave (km/s) = 3.56757 3.80209 3.68669
# Velocity P-wave (km/s) = 5.97132 6.42209 6.20080
#
# Compressibility (1/GPa) = 0.02715038
#
# Stress axis : x y z
#
# Youngs Moduli (GPa) = 48.39877 111.99323 41.09561
#
# Poissons Ratio (x) = 0.52085 0.34735
# Poissons Ratio (y) = 0.22509 0.01167
# Poissons Ratio (z) = 0.40907 0.03182
#
# Static dielectric constant tensor:
#      x y z
#    x 1.710970 0.000000 0.000000 
#    y 0.000000 1.670350 0.000000 
#    z 0.000000 0.000000 1.675510 
# 
# From -- ./inp_files/14712.got.cif
#   From: 2010.05.17/outbox.ucp.g08.bks.cvg/sg36_8_cif.got.tgz:14712.got - 2010.06.11 10:37:26.
