data_PCOD9353341
_publ_section_title
;
Structure prediction by ZEFSAII (Michael W. Deem and Ramdas Pophale) SiO2 
 PCOD9353341
Probable space group: C M C 21
;
_chemical_formula_sum "Si O2"
_cell_formula_units_Z 32
_cell_length_a 9.000000
_cell_length_b 24.000000
_cell_length_c 15.000000
_cell_angle_alpha 90.000000
_cell_angle_beta 90.000000
_cell_angle_gamma 90.000000
_cell_volume 3240.000000
_symmetry_space_group_name_H-M "C M C 21"
_symmetry_group_IT_number 36
_symmetry_cell_setting 'orthorhombic'
loop_
_space_group_symop_operation_xyz
x,y,z
-x,-y,1/2+z
x,-y,1/2+z
-x,y,z
1/2+x,1/2+y,z
1/2-x,1/2-y,1/2+z
1/2+x,1/2-y,1/2+z
1/2-x,1/2+y,z
loop_
_atom_site_type_symbol
_atom_site_label
_atom_site_fract_x
_atom_site_fract_y
_atom_site_fract_z
Si Si1 0.822170 0.681000 0.209080
Si Si2 0.822497 0.393643 0.548528
Si Si3 0.178901 0.511972 0.458198
Si Si4 0.821237 0.788397 0.086937
Si Si5 0.678938 0.948863 0.289224
Si Si6 0.323147 0.342162 0.381114
Si Si7 0.322039 0.274377 0.877875
Si Si8 0.821263 0.405901 0.102748
O O1 0.792674 0.626221 0.148931
O O2 0.779503 0.734540 0.146755
O O3 0.740816 0.683380 0.303879
O O4 0.000000 0.684204 0.223889
O O5 0.790119 0.456769 0.518060
O O6 0.730312 0.354710 0.481800
O O7 0.000000 0.384317 0.532791
O O8 0.226901 0.497938 0.357094
O O9 0.234724 0.565858 0.511104
O O10 0.000000 0.517472 0.455977
O O11 0.751078 0.846136 0.120093
O O12 0.000000 0.791828 0.091201
O O13 0.779929 0.783710 0.981776
O O14 0.500000 0.943318 0.299711
O O15 0.756757 0.893463 0.325954
O O16 0.709055 0.948774 0.184124
O O17 0.500000 0.339606 0.374018
O O18 0.249450 0.284752 0.351561
O O19 0.500000 0.272034 0.873434
O O20 0.000000 0.398737 0.098618
#
# Coordination Sequence:
#
# PCOD9353341 Si02
#       8
#     8   8   8   8   8   8   8   8
#     4  10  20  36  57  84 111 142 184 228 276 335
#     4   9  17  35  58  78 107 142 176 223 282 327
#     4   8  16  33  56  81 107 138 180 228 274 325
#     4  10  22  39  56  77 114 153 181 220 280 337
#     4   9  18  34  56  80 109 146 184 228 284 328
#     4  11  20  31  53  82 109 139 185 233 269 320
#     4  11  22  37  54  77 112 152 184 220 280 339
#     4  10  20  35  56  83 109 142 190 232 271 327
#
# _framework density 9.8765429999999999
#
# number of rings (size 3 to 8) (size 9 to 14) (size 15 to 20)
#    0.000    2.250    1.250    3.000    0.000    4.500 
#    2.250    2.500    0.000    0.000    0.000    0.000 
#    0.000    0.000    0.000    0.000    0.000    0.000 
#
# Total GULP energy -178520.614926 kJ/mol
# GULP energy per Si atom -5578.769216 kJ/mol
# Density = 0.985406 g / cm^3
# Si number density = 9.876543 Si / 1000 Ang^3
#
#
#
# Elastic Constant Matrix: (Units=GPa)
#
#
# Indices 1 2 3 4 5 6 
#
# 1 18.3867 -6.2503 15.6734 0.0000 0.0000 0.0000
# 2 -6.2503 18.3696 -10.3873 0.0000 0.0000 0.0000
# 3 15.6734 -10.3873 75.8692 0.0000 0.0000 0.0000
# 4 0.0000 0.0000 0.0000 27.0031 0.0000 0.0000
# 5 0.0000 0.0000 0.0000 0.0000 27.6971 0.0000
# 6 0.0000 0.0000 0.0000 0.0000 0.0000 13.9039
#
#
#
# Elastic Compliance Matrix: (Units=1/GPa)
#
#
# Indices 1 2 3 4 5 6 
#
# 1 0.070647 0.017110 -0.012252 0.000000 0.000000 0.000000
# 2 0.017110 0.063150 0.005111 0.000000 0.000000 0.000000
# 3 -0.012252 0.005111 0.016411 0.000000 0.000000 0.000000
# 4 0.000000 0.000000 0.000000 0.037033 0.000000 0.000000
# 5 0.000000 0.000000 0.000000 0.000000 0.036105 0.000000
# 6 0.000000 0.000000 0.000000 0.000000 0.000000 0.071922
#
#
# Mechanical properties :
#
#
# Convention : Reuss Voigt Hill
#
# Bulk Modulus (GPa) = 5.87728 12.29965 9.08846
# Shear Modulus (GPa) = 15.05817 21.29349 18.17583
#
# Velocity S-wave (km/s) = 2.76401 3.28683 3.03669
# Velocity P-wave (km/s) = 3.62880 4.54362 4.11173
#
# Compressibility (1/GPa) = 0.17014685
#
# Stress axis : x y z
#
# Youngs Moduli (GPa) = 14.15478 15.83539 60.93306
#
# Poissons Ratio (x) = -0.27094 0.74656
# Poissons Ratio (y) = -0.24219 -0.31144
# Poissons Ratio (z) = 0.17343 -0.08094
#
# Static dielectric constant tensor:
#      x y z
#    x 1.651370 0.000000 0.000000 
#    y 0.000000 1.696500 0.000000 
#    z 0.000000 0.000000 1.753760 
# 
# From -- ./inp_files/10998.got.cif
#   From: 2010.05.17/outbox.ucp.g08.bks.cvg/sg36_6_cif.got.tgz:10998.got - 2010.06.11 10:37:26.
