data_PCOD9353887
_publ_section_title
;
Structure prediction by ZEFSAII (Michael W. Deem and Ramdas Pophale) SiO2 
 PCOD9353887
Probable space group: C C C 2
;
_chemical_formula_sum "Si O2"
_cell_formula_units_Z 52
_cell_length_a 8.214923
_cell_length_b 17.157177
_cell_length_c 17.707250
_cell_angle_alpha 90.000000
_cell_angle_beta 90.000000
_cell_angle_gamma 90.000000
_cell_volume 2495.746367
_symmetry_space_group_name_H-M "C C C 2"
_symmetry_group_IT_number 37
_symmetry_cell_setting 'orthorhombic'
loop_
_space_group_symop_operation_xyz
x,y,z
-x,-y,z
-x,y,1/2+z
x,-y,1/2+z
1/2+x,1/2+y,z
1/2-x,1/2-y,z
1/2-x,1/2+y,1/2+z
1/2+x,1/2-y,1/2+z
loop_
_atom_site_type_symbol
_atom_site_label
_atom_site_fract_x
_atom_site_fract_y
_atom_site_fract_z
Si Si1 0.750000 0.250000 0.189050
Si Si2 0.598782 0.921510 0.032259
Si Si3 0.633172 0.412054 0.138535
Si Si4 0.413115 0.800126 0.770755
Si Si5 0.661538 0.531356 0.463832
Si Si6 0.356988 0.178824 0.440279
Si Si7 0.263559 0.426775 0.184525
O O1 0.712222 0.327945 0.142569
O O2 0.582246 0.228991 0.234220
O O3 0.695231 0.894945 0.104967
O O4 0.500000 0.000000 0.054348
O O5 0.486548 0.855083 0.998656
O O6 0.719080 0.957878 0.970399
O O7 0.456919 0.408818 0.179223
O O8 0.737445 0.479076 0.180622
O O9 0.623753 0.440293 0.050810
O O10 0.250000 0.750000 0.750583
O O11 0.432936 0.796037 0.860916
O O12 0.351619 0.886066 0.745390
O O13 0.500000 0.500000 0.426533
O O14 0.740826 0.604882 0.424568
O O15 0.250000 0.250000 0.469729
#
# Coordination Sequence:
#
# PCOD9353887 Si02
#       7
#     4   8   8   8   8   8   8
#     4  12  26  42  68  96 136 174 218 272 344 394
#     4   9  19  38  62  92 127 162 210 271 315 387
#     4  10  21  40  69 101 126 171 215 279 336 391
#     4  11  25  47  63  95 139 178 219 284 324 396
#     4  10  19  41  65  93 128 164 215 271 325 394
#     4  10  24  44  61  89 134 174 219 269 332 392
#     4  10  20  42  67  95 131 166 224 274 329 391
#
# _framework density 20.835450999999999
#
# number of rings (size 3 to 8) (size 9 to 14) (size 15 to 20)
#    0.000    1.846    4.615    0.000    7.538    0.000 
#   16.615    0.000    0.000    0.000    0.000    0.000 
#    0.000    0.000    0.000    0.000    0.000    0.000 
#
# Total GULP energy -145024.275066 kJ/mol
# GULP energy per Si atom -5577.856733 kJ/mol
# Density = 2.078803 g / cm^3
# Si number density = 20.835451 Si / 1000 Ang^3
#
#
#
# Elastic Constant Matrix: (Units=GPa)
#
#
# Indices 1 2 3 4 5 6 
#
# 1 119.8089 45.2579 30.4594 0.0000 0.0000 0.0000
# 2 45.2579 117.3238 40.0993 0.0000 0.0000 0.0000
# 3 30.4594 40.0993 37.4834 0.0000 0.0000 0.0000
# 4 0.0000 0.0000 0.0000 -31.0502 0.0000 0.0000
# 5 0.0000 0.0000 0.0000 0.0000 20.9353 0.0000
# 6 0.0000 0.0000 0.0000 0.0000 0.0000 31.9146
#
#
#
# Elastic Compliance Matrix: (Units=1/GPa)
#
#
# Indices 1 2 3 4 5 6 
#
# 1 0.010764 -0.001833 -0.006786 0.000000 0.000000 0.000000
# 2 -0.001833 0.013748 -0.013218 0.000000 0.000000 0.000000
# 3 -0.006786 -0.013218 0.046334 0.000000 0.000000 0.000000
# 4 0.000000 0.000000 0.000000 -0.032206 0.000000 0.000000
# 5 0.000000 0.000000 0.000000 0.000000 0.047766 0.000000
# 6 0.000000 0.000000 0.000000 0.000000 0.000000 0.031334
#
#
# Mechanical properties :
#
#
# Convention : Reuss Voigt Hill
#
# Bulk Modulus (GPa) = 36.80348 56.24994 46.52671
# Shear Modulus (GPa) = 29.33020 14.94658 22.13839
#
# Velocity S-wave (km/s) = 3.75601 2.68127 3.26319
# Velocity P-wave (km/s) = 6.04255 6.05322 6.04789
#
# Compressibility (1/GPa) = 0.02717135
#
# Stress axis : x y z
#
# Youngs Moduli (GPa) = 92.89946 72.73648 21.58243
#
# Poissons Ratio (x) = 0.13332 0.14647
# Poissons Ratio (y) = 0.17027 0.28528
# Poissons Ratio (z) = 0.63045 0.96145
#
# Static dielectric constant tensor:
#      x y z
#    x 1.840090 0.000000 0.000000 
#    y 0.000000 1.751890 0.000000 
#    z 0.000000 0.000000 1.738600 
# 
# From -- ./inp_files/14660.got.cif
#   From: 2010.05.17/outbox.cif.g08.bks.cpg/sg37_8_cif.got.tgz:14660.got - 2010.06.03 17:53:42.
