data_PCOD9353048
_publ_section_title
;
Structure prediction by ZEFSAII (Michael W. Deem and Ramdas Pophale) SiO2 
 PCOD9353048
Probable space group: C M C 21
;
_chemical_formula_sum "Si O2"
_cell_formula_units_Z 40
_cell_length_a 22.287850
_cell_length_b 7.858966
_cell_length_c 9.201982
_cell_angle_alpha 90.000000
_cell_angle_beta 90.000000
_cell_angle_gamma 90.000000
_cell_volume 1611.814155
_symmetry_space_group_name_H-M "C M C 21"
_symmetry_group_IT_number 36
_symmetry_cell_setting 'orthorhombic'
loop_
_space_group_symop_operation_xyz
x,y,z
-x,-y,1/2+z
x,-y,1/2+z
-x,y,z
1/2+x,1/2+y,z
1/2-x,1/2-y,1/2+z
1/2+x,1/2-y,1/2+z
1/2-x,1/2+y,z
loop_
_atom_site_type_symbol
_atom_site_label
_atom_site_fract_x
_atom_site_fract_y
_atom_site_fract_z
Si Si1 0.114919 0.162805 0.799140
Si Si2 0.311993 0.138818 0.899737
Si Si3 0.768153 0.325803 0.712433
Si Si4 0.931242 0.142979 0.107965
Si Si5 0.932153 0.543525 0.823516
O O1 0.182830 0.177421 0.740456
O O2 0.082789 0.348256 0.783950
O O3 0.081363 0.011557 0.717064
O O4 0.112680 0.130993 0.971407
O O5 0.294560 0.287639 0.789139
O O6 0.381899 0.116631 0.934308
O O7 0.296620 0.977807 0.802160
O O8 0.271026 0.144559 0.041633
O O9 0.926308 0.325106 0.188782
O O10 0.000000 0.129712 0.053936
O O11 0.000000 0.554192 0.879099
#
# Coordination Sequence:
#
# PCOD9353048 Si02
#       5
#     8   8   8   8   8
#     4  11  27  45  73 111 153 196 253 312 377 452
#     4  11  26  47  74 111 143 198 245 312 381 445
#     4  11  27  46  77 108 150 194 253 315 379 452
#     4  11  25  45  73 107 148 201 249 307 376 450
#     4  10  25  47  75 109 152 197 252 310 377 453
#
# _framework density 24.816756000000002
#
# number of rings (size 3 to 8) (size 9 to 14) (size 15 to 20)
#    0.000    1.200    0.000    3.000   19.600    0.000 
#    0.000    1.000    0.000    0.000    0.000    0.000 
#    0.000    0.000    0.000    0.000    0.000    0.000 
#
# Total GULP energy -111999.376974 kJ/mol
# GULP energy per Si atom -5599.968849 kJ/mol
# Density = 2.476027 g / cm^3
# Si number density = 24.816756 Si / 1000 Ang^3
#
#
#
# Elastic Constant Matrix: (Units=GPa)
#
#
# Indices 1 2 3 4 5 6 
#
# 1 146.1557 40.4841 28.1982 0.0000 0.0000 0.0000
# 2 40.4841 133.7842 52.9096 0.0000 0.0000 0.0000
# 3 28.1982 52.9096 147.7720 0.0000 0.0000 0.0000
# 4 0.0000 0.0000 0.0000 41.2432 0.0000 0.0000
# 5 0.0000 0.0000 0.0000 0.0000 25.8479 0.0000
# 6 0.0000 0.0000 0.0000 0.0000 0.0000 9.1336
#
#
#
# Elastic Compliance Matrix: (Units=1/GPa)
#
#
# Indices 1 2 3 4 5 6 
#
# 1 0.007534 -0.001994 -0.000724 0.000000 0.000000 0.000000
# 2 -0.001994 0.009235 -0.002926 0.000000 0.000000 0.000000
# 3 -0.000724 -0.002926 0.007953 0.000000 0.000000 0.000000
# 4 0.000000 0.000000 0.000000 0.024246 0.000000 0.000000
# 5 0.000000 0.000000 0.000000 0.000000 0.038688 0.000000
# 6 0.000000 0.000000 0.000000 0.000000 0.000000 0.109486
#
#
# Mechanical properties :
#
#
# Convention : Reuss Voigt Hill
#
# Bulk Modulus (GPa) = 74.43302 74.54397 74.48849
# Shear Modulus (GPa) = 23.48434 35.65295 29.56865
#
# Velocity S-wave (km/s) = 3.07955 3.79443 3.45553
# Velocity P-wave (km/s) = 6.53475 7.02139 6.78244
#
# Compressibility (1/GPa) = 0.01343490
#
# Stress axis : x y z
#
# Youngs Moduli (GPa) = 132.73397 108.28042 125.73786
#
# Poissons Ratio (x) = 0.21586 0.09101
# Poissons Ratio (y) = 0.26461 0.36794
# Poissons Ratio (z) = 0.09608 0.31686
#
# Static dielectric constant tensor:
#      x y z
#    x 2.046920 0.000000 0.000000 
#    y 0.000000 1.817550 0.000000 
#    z 0.000000 0.000000 1.889910 
# 
# From -- ./inp_files/5466.got.cif
#   From: 2010.05.17/outbox.cif.g08.bks.cpg/sg36_3_cif.got.tgz:5466.got - 2010.06.03 17:41:39.
