data_PCOD9353954
_publ_section_title
;
Structure prediction by ZEFSAII (Michael W. Deem and Ramdas Pophale) SiO2 
 PCOD9353954
Probable space group: C C C 2
;
_chemical_formula_sum "Si O2"
_cell_formula_units_Z 56
_cell_length_a 13.770895
_cell_length_b 11.749900
_cell_length_c 18.662298
_cell_angle_alpha 90.000000
_cell_angle_beta 90.000000
_cell_angle_gamma 90.000000
_cell_volume 3019.683718
_symmetry_space_group_name_H-M "C C C 2"
_symmetry_group_IT_number 37
_symmetry_cell_setting 'orthorhombic'
loop_
_space_group_symop_operation_xyz
x,y,z
-x,-y,z
-x,y,1/2+z
x,-y,1/2+z
1/2+x,1/2+y,z
1/2-x,1/2-y,z
1/2-x,1/2+y,1/2+z
1/2+x,1/2-y,1/2+z
loop_
_atom_site_type_symbol
_atom_site_label
_atom_site_fract_x
_atom_site_fract_y
_atom_site_fract_z
Si Si1 0.410387 0.190871 0.530780
Si Si2 0.602655 0.181696 0.622164
Si Si3 0.716719 0.130321 0.170769
Si Si4 0.788369 0.378466 0.899370
Si Si5 0.901064 0.538657 0.263945
Si Si6 0.398174 0.452103 0.473427
Si Si7 0.313127 0.423249 0.107653
O O1 0.516241 0.166934 0.564852
O O2 0.335830 0.161633 0.595387
O O3 0.369826 0.120744 0.462482
O O4 0.407831 0.323922 0.506418
O O5 0.578214 0.124593 0.698239
O O6 0.628309 0.314030 0.635444
O O7 0.702312 0.120738 0.596341
O O8 0.750000 0.250000 0.201016
O O9 0.645100 0.069248 0.224842
O O10 0.799889 0.036299 0.155633
O O11 0.750000 0.250000 0.896915
O O12 0.830954 0.411187 0.823198
O O13 0.693162 0.449942 0.920202
O O14 0.000000 0.500000 0.300083
O O15 0.500000 0.500000 0.444090
O O16 0.366575 0.535559 0.536983
#
# Coordination Sequence:
#
# PCOD9353954 Si02
#       7
#     8   8   8   8   8   8   8
#     4  11  19  38  65  93 124 154 212 255 306 372
#     4  10  22  36  61  99 122 162 204 258 310 364
#     4  11  20  37  64  92 124 163 206 257 308 360
#     4  10  24  41  60  89 122 171 202 253 315 385
#     4  11  24  41  61  90 130 162 206 257 317 382
#     4  11  20  37  64  91 121 161 207 262 306 371
#     4  10  20  34  59  93 127 155 201 261 307 352
#
# _framework density 18.544988
#
# number of rings (size 3 to 8) (size 9 to 14) (size 15 to 20)
#    0.000    1.429    5.714    0.429    4.000    1.143 
#    0.000    2.857    3.143    3.429    0.000    0.000 
#    0.000    0.000    0.000    0.000    0.000    0.000 
#
# Total GULP energy -156151.826615 kJ/mol
# GULP energy per Si atom -5576.850951 kJ/mol
# Density = 1.850278 g / cm^3
# Si number density = 18.544988 Si / 1000 Ang^3
#
#
#
# Elastic Constant Matrix: (Units=GPa)
#
#
# Indices 1 2 3 4 5 6 
#
# 1 102.6428 34.4634 46.7405 0.0000 0.0000 0.0000
# 2 34.4634 98.6053 25.6684 0.0000 0.0000 0.0000
# 3 46.7405 25.6684 77.6205 0.0000 0.0000 0.0000
# 4 0.0000 0.0000 0.0000 1.7164 0.0000 0.0000
# 5 0.0000 0.0000 0.0000 0.0000 24.4630 0.0000
# 6 0.0000 0.0000 0.0000 0.0000 0.0000 18.7785
#
#
#
# Elastic Compliance Matrix: (Units=1/GPa)
#
#
# Indices 1 2 3 4 5 6 
#
# 1 0.014187 -0.002992 -0.007553 0.000000 0.000000 0.000000
# 2 -0.002992 0.011728 -0.002076 0.000000 0.000000 0.000000
# 3 -0.007553 -0.002076 0.018118 0.000000 0.000000 0.000000
# 4 0.000000 0.000000 0.000000 0.582630 0.000000 0.000000
# 5 0.000000 0.000000 0.000000 0.000000 0.040878 0.000000
# 6 0.000000 0.000000 0.000000 0.000000 0.000000 0.053252
#
#
# Mechanical properties :
#
#
# Convention : Reuss Voigt Hill
#
# Bulk Modulus (GPa) = 53.22312 54.73480 53.97896
# Shear Modulus (GPa) = 6.64629 20.45799 13.55214
#
# Velocity S-wave (km/s) = 1.89517 3.32498 2.70621
# Velocity P-wave (km/s) = 5.79229 6.65728 6.23979
#
# Compressibility (1/GPa) = 0.01878883
#
# Stress axis : x y z
#
# Youngs Moduli (GPa) = 70.48844 85.26780 55.19307
#
# Poissons Ratio (x) = 0.25513 0.41689
# Poissons Ratio (y) = 0.21091 0.11461
# Poissons Ratio (z) = 0.53242 0.17706
#
# Static dielectric constant tensor:
#      x y z
#    x 1.681840 0.000000 0.000000 
#    y 0.000000 1.661400 0.000000 
#    z 0.000000 0.000000 1.596370 
# 
# From -- ./inp_files/12157.got.cif
#   From: 2010.05.17/outbox.cif.g08.bks.cpg/sg37_7_cif.got.tgz:12157.got - 2010.06.03 17:53:42.
