data_PCOD9353934
_publ_section_title
;
Structure prediction by ZEFSAII (Michael W. Deem and Ramdas Pophale) SiO2 
 PCOD9353934
Probable space group: C C C 2
;
_chemical_formula_sum "Si O2"
_cell_formula_units_Z 52
_cell_length_a 19.820823
_cell_length_b 13.663310
_cell_length_c 9.223108
_cell_angle_alpha 90.000000
_cell_angle_beta 90.000000
_cell_angle_gamma 90.000000
_cell_volume 2497.784115
_symmetry_space_group_name_H-M "C C C 2"
_symmetry_group_IT_number 37
_symmetry_cell_setting 'orthorhombic'
loop_
_space_group_symop_operation_xyz
x,y,z
-x,-y,z
-x,y,1/2+z
x,-y,1/2+z
1/2+x,1/2+y,z
1/2-x,1/2-y,z
1/2-x,1/2+y,1/2+z
1/2+x,1/2-y,1/2+z
loop_
_atom_site_type_symbol
_atom_site_label
_atom_site_fract_x
_atom_site_fract_y
_atom_site_fract_z
Si Si1 0.000000 0.000000 0.796850
Si Si2 0.810544 0.668882 0.406981
Si Si3 0.047176 0.211139 0.902444
Si Si4 0.136952 0.933229 0.743141
Si Si5 0.674585 0.280291 0.194454
Si Si6 0.922106 0.271966 0.731687
Si Si7 0.791570 0.024420 0.021222
O O1 0.982021 0.900568 0.885518
O O2 0.065386 0.978502 0.698380
O O3 0.750000 0.750000 0.376427
O O4 0.842198 0.710098 0.557485
O O5 0.865275 0.651321 0.281097
O O6 0.775966 0.566219 0.451860
O O7 0.116759 0.219266 0.813412
O O8 0.990577 0.276790 0.822730
O O9 0.060018 0.248470 0.065435
O O10 0.118329 0.824164 0.785613
O O11 0.159426 0.988317 0.886592
O O12 0.196454 0.933443 0.625719
O O13 0.750000 0.250000 0.246641
O O14 0.682687 0.387376 0.123810
#
# Coordination Sequence:
#
# PCOD9353934 Si02
#       7
#     4   8   8   8   8   8   8
#     4  10  22  30  46  76 124 156 182 230 288 354
#     4   9  18  38  54  68 107 159 193 252 287 338
#     4  11  22  33  51  81 114 153 199 233 287 362
#     4  11  20  32  48  77 109 156 191 233 281 365
#     4   9  18  36  53  73 109 157 196 240 278 336
#     4  11  22  33  53  77 112 153 194 241 290 356
#     4  10  20  34  52  74 114 151 198 236 298 335
#
# _framework density 20.818452000000001
#
# number of rings (size 3 to 8) (size 9 to 14) (size 15 to 20)
#    0.000    2.154    4.615    1.846    2.154    3.692 
#    0.000    0.000    0.000    0.000    0.000    0.000 
#    0.000   33.231    0.000    0.000    0.000    0.000 
#
# Total GULP energy -144821.309816 kJ/mol
# GULP energy per Si atom -5570.050378 kJ/mol
# Density = 2.077107 g / cm^3
# Si number density = 20.818452 Si / 1000 Ang^3
#
#
#
# Elastic Constant Matrix: (Units=GPa)
#
#
# Indices 1 2 3 4 5 6 
#
# 1 138.6549 25.9807 83.2050 0.0000 0.0000 0.0000
# 2 25.9807 12.1095 3.7697 0.0000 0.0000 0.0000
# 3 83.2050 3.7697 121.7854 0.0000 0.0000 0.0000
# 4 0.0000 0.0000 0.0000 3.8407 0.0000 0.0000
# 5 0.0000 0.0000 0.0000 0.0000 41.4524 0.0000
# 6 0.0000 0.0000 0.0000 0.0000 0.0000 25.6100
#
#
#
# Elastic Compliance Matrix: (Units=1/GPa)
#
#
# Indices 1 2 3 4 5 6 
#
# 1 0.027677 -0.054015 -0.017237 0.000000 0.000000 0.000000
# 2 -0.054015 0.188799 0.031060 0.000000 0.000000 0.000000
# 3 -0.017237 0.031060 0.019027 0.000000 0.000000 0.000000
# 4 0.000000 0.000000 0.000000 0.260366 0.000000 0.000000
# 5 0.000000 0.000000 0.000000 0.000000 0.024124 0.000000
# 6 0.000000 0.000000 0.000000 0.000000 0.000000 0.039047
#
#
# Mechanical properties :
#
#
# Convention : Reuss Voigt Hill
#
# Bulk Modulus (GPa) = 6.44674 55.38452 30.91563
# Shear Modulus (GPa) = 7.23451 24.82025 16.02738
#
# Velocity S-wave (km/s) = 1.86617 3.45660 2.77765
# Velocity P-wave (km/s) = 2.78331 6.52627 5.01692
#
# Compressibility (1/GPa) = 0.15511709
#
# Stress axis : x y z
#
# Youngs Moduli (GPa) = 36.13075 5.29664 52.55821
#
# Poissons Ratio (x) = 0.28610 0.90597
# Poissons Ratio (y) = 1.95160 -1.63243
# Poissons Ratio (z) = 0.62280 -0.16451
#
# Static dielectric constant tensor:
#      x y z
#    x 1.837250 0.000000 0.000000 
#    y 0.000000 1.856340 0.000000 
#    z 0.000000 0.000000 1.770590 
# 
# From -- ./inp_files/4041.got.cif
#   From: 2010.05.17/outbox.cif.g08.bks.cpg/sg37_3_cif.got.tgz:4041.got - 2010.06.03 17:53:42.
