data_PCOD9353692
_publ_section_title
;
Structure prediction by ZEFSAII (Michael W. Deem and Ramdas Pophale) SiO2 
 PCOD9353692
Probable space group: C C C 2
;
_chemical_formula_sum "Si O2"
_cell_formula_units_Z 48
_cell_length_a 5.950184
_cell_length_b 21.514667
_cell_length_c 19.407605
_cell_angle_alpha 90.000000
_cell_angle_beta 90.000000
_cell_angle_gamma 90.000000
_cell_volume 2484.488374
_symmetry_space_group_name_H-M "C C C 2"
_symmetry_group_IT_number 37
_symmetry_cell_setting 'orthorhombic'
loop_
_space_group_symop_operation_xyz
x,y,z
-x,-y,z
-x,y,1/2+z
x,-y,1/2+z
1/2+x,1/2+y,z
1/2-x,1/2-y,z
1/2-x,1/2+y,1/2+z
1/2+x,1/2-y,1/2+z
loop_
_atom_site_type_symbol
_atom_site_label
_atom_site_fract_x
_atom_site_fract_y
_atom_site_fract_z
Si Si1 0.500000 0.500000 0.086990
Si Si2 0.378083 0.066863 0.796250
Si Si3 0.614393 0.685861 0.529325
Si Si4 0.828729 0.401438 0.144343
Si Si5 0.214052 0.609186 0.540684
Si Si6 0.656853 0.901230 0.424551
Si Si7 0.500000 0.500000 0.377633
O O1 0.697618 0.466257 0.129766
O O2 0.604866 0.554836 0.042617
O O3 0.341902 0.103940 0.725960
O O4 0.535093 0.103221 0.850773
O O5 0.141019 0.048740 0.831306
O O6 0.500000 0.000000 0.781910
O O7 0.750000 0.750000 0.531064
O O8 0.697127 0.649185 0.598153
O O9 0.345464 0.674254 0.531702
O O10 0.692637 0.652723 0.458117
O O11 0.075672 0.397335 0.111256
O O12 0.040916 0.594435 0.480378
O O13 0.810963 0.962091 0.418471
#
# Coordination Sequence:
#
# PCOD9353692 Si02
#       7
#     4   8   8   8   8   8   4
#     4  10  19  31  52  86 117 145 184 236 301 369
#     4  10  20  34  54  84 122 152 184 229 299 373
#     4  10  23  41  60  78 111 155 210 258 304 348
#     4  10  21  35  57  83 116 153 194 243 301 363
#     4  10  21  35  56  84 112 149 191 245 294 355
#     4  10  22  35  56  84 117 153 194 240 301 363
#     4  10  21  35  56  88 127 161 182 236 303 387
#
# _framework density 19.319873000000001
#
# number of rings (size 3 to 8) (size 9 to 14) (size 15 to 20)
#    0.000    2.000    0.000    3.000    0.000   26.667 
#    0.000    0.000   11.000    0.000    0.000    0.000 
#    0.000    0.000    0.000    0.000    0.000    0.000 
#
# Total GULP energy -133805.402701 kJ/mol
# GULP energy per Si atom -5575.225113 kJ/mol
# Density = 1.927590 g / cm^3
# Si number density = 19.319873 Si / 1000 Ang^3
#
#
#
# Elastic Constant Matrix: (Units=GPa)
#
#
# Indices 1 2 3 4 5 6 
#
# 1 116.1102 35.2227 37.9233 0.0000 0.0000 0.0000
# 2 35.2227 81.0455 42.8155 0.0000 0.0000 0.0000
# 3 37.9233 42.8155 122.5799 0.0000 0.0000 0.0000
# 4 0.0000 0.0000 0.0000 18.6677 0.0000 0.0000
# 5 0.0000 0.0000 0.0000 0.0000 25.2325 0.0000
# 6 0.0000 0.0000 0.0000 0.0000 0.0000 25.5423
#
#
#
# Elastic Compliance Matrix: (Units=1/GPa)
#
#
# Indices 1 2 3 4 5 6 
#
# 1 0.010302 -0.003426 -0.001991 0.000000 0.000000 0.000000
# 2 -0.003426 0.016270 -0.004623 0.000000 0.000000 0.000000
# 3 -0.001991 -0.004623 0.010389 0.000000 0.000000 0.000000
# 4 0.000000 0.000000 0.000000 0.053568 0.000000 0.000000
# 5 0.000000 0.000000 0.000000 0.000000 0.039631 0.000000
# 6 0.000000 0.000000 0.000000 0.000000 0.000000 0.039151
#
#
# Mechanical properties :
#
#
# Convention : Reuss Voigt Hill
#
# Bulk Modulus (GPa) = 59.23567 61.29539 60.26553
# Shear Modulus (GPa) = 25.63883 27.47343 26.55613
#
# Velocity S-wave (km/s) = 3.64685 3.77507 3.71151
# Velocity P-wave (km/s) = 6.96130 7.12720 7.04474
#
# Compressibility (1/GPa) = 0.01688172
#
# Stress axis : x y z
#
# Youngs Moduli (GPa) = 97.06987 61.46347 96.25971
#
# Poissons Ratio (x) = 0.21055 0.19162
# Poissons Ratio (y) = 0.33252 0.44501
# Poissons Ratio (z) = 0.19323 0.28415
#
# Static dielectric constant tensor:
#      x y z
#    x 1.771660 0.000000 0.000000 
#    y 0.000000 1.702810 0.000000 
#    z 0.000000 0.000000 1.680680 
# 
# From -- ./inp_files/15787.got.cif
#   From: 2010.05.17/outbox.cif.g08.bks.cpg/sg37_8_cif.got.tgz:15787.got - 2010.06.03 17:53:42.
