data_PCOD9353417
_publ_section_title
;
Structure prediction by ZEFSAII (Michael W. Deem and Ramdas Pophale) SiO2 
 PCOD9353417
Probable space group: C C C 2
;
_chemical_formula_sum "Si O2"
_cell_formula_units_Z 52
_cell_length_a 12.573808
_cell_length_b 18.038064
_cell_length_c 8.947735
_cell_angle_alpha 90.000000
_cell_angle_beta 90.000000
_cell_angle_gamma 90.000000
_cell_volume 2029.410305
_symmetry_space_group_name_H-M "C C C 2"
_symmetry_group_IT_number 37
_symmetry_cell_setting 'orthorhombic'
loop_
_space_group_symop_operation_xyz
x,y,z
-x,-y,z
-x,y,1/2+z
x,-y,1/2+z
1/2+x,1/2+y,z
1/2-x,1/2-y,z
1/2-x,1/2+y,1/2+z
1/2+x,1/2-y,1/2+z
loop_
_atom_site_type_symbol
_atom_site_label
_atom_site_fract_x
_atom_site_fract_y
_atom_site_fract_z
Si Si1 0.346658 0.485653 0.030060
Si Si2 0.020084 0.397769 0.491568
Si Si3 0.940110 0.744997 0.640930
Si Si4 0.724976 0.908355 0.292699
Si Si5 0.101174 0.897777 0.265441
Si Si6 0.355625 0.891681 0.279883
Si Si7 0.250000 0.250000 0.402583
O O1 0.263758 0.440783 0.135324
O O2 0.407672 0.538983 0.142937
O O3 0.286342 0.540089 0.913334
O O4 0.417619 0.430078 0.929816
O O5 0.986438 0.316129 0.558822
O O6 0.103048 0.401495 0.351984
O O7 0.089827 0.426735 0.631246
O O8 0.912752 0.429130 0.420622
O O9 0.961228 0.824672 0.712682
O O10 0.892003 0.693662 0.770902
O O11 0.849878 0.752795 0.514318
O O12 0.758916 0.823281 0.305809
O O13 0.229858 0.886996 0.269499
#
# Coordination Sequence:
#
# PCOD9353417 Si02
#       7
#     8   8   8   8   8   8   4
#     4  10  21  31  56  81 115 145 198 236 276 355
#     4   9  20  33  53  79 112 148 189 232 286 344
#     4   9  16  33  57  72 106 150 177 235 293 326
#     4  10  19  36  51  79 116 151 185 238 281 339
#     4  11  18  37  54  79 111 149 190 235 286 341
#     4  10  19  34  55  77 111 144 189 232 284 340
#     4  10  14  34  54  76 102 150 184 232 282 314
#
# _framework density 25.623208000000002
#
# number of rings (size 3 to 8) (size 9 to 14) (size 15 to 20)
#    0.923    1.231    4.615    0.000    2.154    0.000 
#    2.769    4.615    0.000    0.000    0.000    3.231 
#    0.000    0.000    0.000    0.000    0.000    0.000 
#
# Total GULP energy -145034.992675 kJ/mol
# GULP energy per Si atom -5578.268949 kJ/mol
# Density = 2.556489 g / cm^3
# Si number density = 25.623208 Si / 1000 Ang^3
#
#
#
# Elastic Constant Matrix: (Units=GPa)
#
#
# Indices 1 2 3 4 5 6 
#
# 1 58.7757 4.2826 39.5380 0.0000 0.0000 0.0000
# 2 4.2826 174.7611 70.2950 0.0000 0.0000 0.0000
# 3 39.5380 70.2950 136.7443 0.0000 0.0000 0.0000
# 4 0.0000 0.0000 0.0000 49.8917 0.0000 0.0000
# 5 0.0000 0.0000 0.0000 0.0000 20.2832 0.0000
# 6 0.0000 0.0000 0.0000 0.0000 0.0000 8.5476
#
#
#
# Elastic Compliance Matrix: (Units=1/GPa)
#
#
# Indices 1 2 3 4 5 6 
#
# 1 0.021984 0.002544 -0.007664 0.000000 0.000000 0.000000
# 2 0.002544 0.007508 -0.004595 0.000000 0.000000 0.000000
# 3 -0.007664 -0.004595 0.011891 0.000000 0.000000 0.000000
# 4 0.000000 0.000000 0.000000 0.020043 0.000000 0.000000
# 5 0.000000 0.000000 0.000000 0.000000 0.049302 0.000000
# 6 0.000000 0.000000 0.000000 0.000000 0.000000 0.116993
#
#
# Mechanical properties :
#
#
# Convention : Reuss Voigt Hill
#
# Bulk Modulus (GPa) = 45.55261 66.50138 56.02700
# Shear Modulus (GPa) = 19.64871 32.82220 26.23545
#
# Velocity S-wave (km/s) = 2.77218 3.58293 3.20331
# Velocity P-wave (km/s) = 5.29746 6.56707 5.96613
#
# Compressibility (1/GPa) = 0.02195264
#
# Stress axis : x y z
#
# Youngs Moduli (GPa) = 45.48729 133.18918 84.09578
#
# Poissons Ratio (x) = -0.33885 0.64454
# Poissons Ratio (y) = -0.11572 0.38644
# Poissons Ratio (z) = 0.34863 0.61204
#
# Static dielectric constant tensor:
#      x y z
#    x 2.525330 0.000000 0.000000 
#    y 0.000000 2.096500 0.000000 
#    z 0.000000 0.000000 1.998150 
# 
# From -- ./inp_files/4048.got.cif
#   From: 2010.05.17/outbox.cif.g08.bks.cpg/sg37_3_cif.got.tgz:4048.got - 2010.06.03 17:53:42.
