data_PCOD9353121
_publ_section_title
;
Structure prediction by ZEFSAII (Michael W. Deem and Ramdas Pophale) SiO2 
 PCOD9353121
Probable space group: C M C 21
;
_chemical_formula_sum "Si O2"
_cell_formula_units_Z 60
_cell_length_a 19.032708
_cell_length_b 7.554586
_cell_length_c 16.966221
_cell_angle_alpha 90.000000
_cell_angle_beta 90.000000
_cell_angle_gamma 90.000000
_cell_volume 2439.475012
_symmetry_space_group_name_H-M "C M C 21"
_symmetry_group_IT_number 36
_symmetry_cell_setting 'orthorhombic'
loop_
_space_group_symop_operation_xyz
x,y,z
-x,-y,1/2+z
x,-y,1/2+z
-x,y,z
1/2+x,1/2+y,z
1/2-x,1/2-y,1/2+z
1/2+x,1/2-y,1/2+z
1/2-x,1/2+y,z
loop_
_atom_site_type_symbol
_atom_site_label
_atom_site_fract_x
_atom_site_fract_y
_atom_site_fract_z
Si Si1 0.500000 0.837107 0.241861
Si Si2 0.600666 0.148652 0.213433
Si Si3 0.156766 0.499026 0.963489
Si Si4 0.244051 0.240313 0.184148
Si Si5 0.202759 0.986169 0.563453
Si Si6 0.137421 0.203047 0.328020
Si Si7 0.083356 0.171391 0.882110
Si Si8 0.923776 0.215718 0.552423
O O1 0.561817 0.732177 0.289168
O O2 0.560932 0.965446 0.202918
O O3 0.684010 0.133253 0.203687
O O4 0.582402 0.223120 0.298919
O O5 0.574099 0.281622 0.146488
O O6 0.151936 0.640125 0.891167
O O7 0.125511 0.309553 0.938388
O O8 0.234871 0.500691 0.000362
O O9 0.107414 0.595859 0.027359
O O10 0.280943 0.415796 0.147544
O O11 0.196903 0.225138 0.261235
O O12 0.199370 0.203107 0.103818
O O13 0.131924 0.066861 0.530861
O O14 0.128515 0.006346 0.364747
O O15 0.000000 0.146579 0.904329
O O16 0.000000 0.189550 0.517296
#
# Coordination Sequence:
#
# PCOD9353121 Si02
#       8
#     4   8   8   8   8   8   8   8
#     4  12  22  44  80 116 156 200 260 330 380 470
#     4  11  21  45  79 110 149 203 261 311 389 458
#     4  12  27  48  76 110 162 209 245 319 404 475
#     4  11  25  48  75 113 150 203 263 327 378 463
#     4  11  24  50  75 113 154 196 267 326 378 471
#     4  12  27  47  80 114 157 203 265 321 390 468
#     4  12  25  48  76 113 153 201 259 326 385 467
#     4  11  24  45  80 110 147 205 255 319 394 464
#
# _framework density 24.595455000000001
#
# number of rings (size 3 to 8) (size 9 to 14) (size 15 to 20)
#    0.000    0.533    6.000    2.800    0.933    2.133 
#    6.000    0.000    0.000    0.000    0.000    0.000 
#    0.000    0.000    0.000    0.000    0.000    0.000 
#
# Total GULP energy -167105.454092 kJ/mol
# GULP energy per Si atom -5570.181803 kJ/mol
# Density = 2.453947 g / cm^3
# Si number density = 24.595455 Si / 1000 Ang^3
#
#
#
# Elastic Constant Matrix: (Units=GPa)
#
#
# Indices 1 2 3 4 5 6 
#
# 1 187.8930 13.7979 15.9285 0.0000 0.0000 0.0000
# 2 13.7979 46.2472 -13.5629 0.0000 0.0000 0.0000
# 3 15.9285 -13.5629 60.7698 0.0000 0.0000 0.0000
# 4 0.0000 0.0000 0.0000 12.0804 0.0000 0.0000
# 5 0.0000 0.0000 0.0000 0.0000 -72.4049 0.0000
# 6 0.0000 0.0000 0.0000 0.0000 0.0000 15.4110
#
#
#
# Elastic Compliance Matrix: (Units=1/GPa)
#
#
# Indices 1 2 3 4 5 6 
#
# 1 0.005658 -0.002272 -0.001990 0.000000 0.000000 0.000000
# 2 -0.002272 0.024049 0.005963 0.000000 0.000000 0.000000
# 3 -0.001990 0.005963 0.018308 0.000000 0.000000 0.000000
# 4 0.000000 0.000000 0.000000 0.082779 0.000000 0.000000
# 5 0.000000 0.000000 0.000000 0.000000 -0.013811 0.000000
# 6 0.000000 0.000000 0.000000 0.000000 0.000000 0.064889
#
#
# Mechanical properties :
#
#
# Convention : Reuss Voigt Hill
#
# Bulk Modulus (GPa) = 19.44853 36.35966 27.90410
# Shear Modulus (GPa) = 25.56133 9.60040 17.58086
#
# Velocity S-wave (km/s) = 3.22727 1.97783 2.67648
# Velocity P-wave (km/s) = 4.67028 4.47559 4.57397
#
# Compressibility (1/GPa) = 0.05141778
#
# Stress axis : x y z
#
# Youngs Moduli (GPa) = 176.75077 41.58114 54.62106
#
# Poissons Ratio (x) = 0.09445 0.10869
# Poissons Ratio (y) = 0.40150 -0.32570
# Poissons Ratio (z) = 0.35172 -0.24794
#
# Static dielectric constant tensor:
#      x y z
#    x 2.198010 0.000000 0.000000 
#    y 0.000000 2.487040 0.000000 
#    z 0.000000 0.000000 1.994450 
# 
# From -- ./inp_files/14878.got.cif
#   From: 2010.05.17/outbox.cif.g08.bks.cpg/sg36_8_cif.got.tgz:14878.got - 2010.06.03 17:41:39.
