data_PCOD9353671
_publ_section_title
;
Structure prediction by ZEFSAII (Michael W. Deem and Ramdas Pophale) SiO2 
 PCOD9353671
Probable space group: C C C 2
;
_chemical_formula_sum "Si O2"
_cell_formula_units_Z 64
_cell_length_a 26.909194
_cell_length_b 18.910241
_cell_length_c 8.900357
_cell_angle_alpha 90.000000
_cell_angle_beta 90.000000
_cell_angle_gamma 90.000000
_cell_volume 4529.029821
_symmetry_space_group_name_H-M "C C C 2"
_symmetry_group_IT_number 37
_symmetry_cell_setting 'orthorhombic'
loop_
_space_group_symop_operation_xyz
x,y,z
-x,-y,z
-x,y,1/2+z
x,-y,1/2+z
1/2+x,1/2+y,z
1/2-x,1/2-y,z
1/2-x,1/2+y,1/2+z
1/2+x,1/2-y,1/2+z
loop_
_atom_site_type_symbol
_atom_site_label
_atom_site_fract_x
_atom_site_fract_y
_atom_site_fract_z
Si Si1 0.254071 0.077098 0.846200
Si Si2 0.447743 0.922618 0.847110
Si Si3 0.847336 0.341495 0.205684
Si Si4 0.803729 0.210847 0.354341
Si Si5 0.947743 0.422618 0.207358
Si Si6 0.847336 0.658505 0.348784
Si Si7 0.754071 0.422902 0.708268
Si Si8 0.196271 0.210847 0.200127
O O1 0.305568 0.110893 0.787071
O O2 0.210014 0.131864 0.803039
O O3 0.247472 0.000000 0.777234
O O4 0.255789 0.074540 0.027234
O O5 0.500000 0.898271 0.777234
O O6 0.401677 0.871603 0.812722
O O7 0.437618 0.000000 0.777234
O O8 0.452376 0.929061 0.027234
O O9 0.838945 0.260843 0.257504
O O10 0.901677 0.371603 0.241746
O O11 0.839573 0.347172 0.027234
O O12 0.750000 0.250000 0.353432
O O13 0.820869 0.209373 0.527234
O O14 0.805568 0.610893 0.267397
O O15 0.838945 0.739157 0.296964
O O16 0.710014 0.368136 0.751429
O O17 0.250000 0.250000 0.201036
#
# Coordination Sequence:
#
# PCOD9353671 Si02
#       8
#     8   8   8   8   8   8   8   8
#     4  10  19  29  42  61  84 111 141 170 203 242
#     4  10  20  31  43  60  81 107 139 173 207 241
#     4  10  19  29  43  62  82 108 141 172 205 244
#     4   8  16  29  42  58  81 108 137 168 202 241
#     4  10  20  31  43  60  81 107 139 173 207 241
#     4  10  19  29  43  62  82 108 141 172 205 244
#     4  10  19  29  42  61  84 111 141 170 203 242
#     4   8  16  29  42  58  81 108 137 168 202 241
#
# _framework density 14.131061000000001
#
# number of rings (size 3 to 8) (size 9 to 14) (size 15 to 20)
#    0.000    2.500    0.000    5.250    0.000   11.500 
#    0.000    0.000    0.000    0.000    0.000    0.000 
#    0.000    1.000    0.000   11.000    0.000    8.000 
#
# Total GULP energy -178314.624412 kJ/mol
# GULP energy per Si atom -5572.332013 kJ/mol
# Density = 1.409890 g / cm^3
# Si number density = 14.131061 Si / 1000 Ang^3
#
#
#
# Elastic Constant Matrix: (Units=GPa)
#
#
# Indices 1 2 3 4 5 6 
#
# 1 85.2899 60.4874 47.7363 0.0000 0.0000 0.0000
# 2 60.4874 123.0363 47.5647 0.0000 0.0000 0.0000
# 3 47.7363 47.5647 59.8063 0.0000 0.0000 0.0000
# 4 0.0000 0.0000 0.0000 29.7648 0.0000 0.0000
# 5 0.0000 0.0000 0.0000 0.0000 6.9918 0.0000
# 6 0.0000 0.0000 0.0000 0.0000 0.0000 24.4321
#
#
#
# Elastic Compliance Matrix: (Units=1/GPa)
#
#
# Indices 1 2 3 4 5 6 
#
# 1 0.024252 -0.006410 -0.014259 0.000000 0.000000 0.000000
# 2 -0.006410 0.013430 -0.005565 0.000000 0.000000 0.000000
# 3 -0.014259 -0.005565 0.032528 0.000000 0.000000 0.000000
# 4 0.000000 0.000000 0.000000 0.033597 0.000000 0.000000
# 5 0.000000 0.000000 0.000000 0.000000 0.143024 0.000000
# 6 0.000000 0.000000 0.000000 0.000000 0.000000 0.040930
#
#
# Mechanical properties :
#
#
# Convention : Reuss Voigt Hill
#
# Bulk Modulus (GPa) = 56.36497 64.41214 60.38856
# Shear Modulus (GPa) = 14.44493 19.72734 17.08614
#
# Velocity S-wave (km/s) = 3.20067 3.74040 3.48101
# Velocity P-wave (km/s) = 7.32345 8.02091 7.68010
#
# Compressibility (1/GPa) = 0.01774151
#
# Stress axis : x y z
#
# Youngs Moduli (GPa) = 41.23451 74.45797 30.74293
#
# Poissons Ratio (x) = 0.47729 0.43837
# Poissons Ratio (y) = 0.26432 0.17108
# Poissons Ratio (z) = 0.58797 0.41435
#
# Static dielectric constant tensor:
#      x y z
#    x 1.446300 0.000000 0.000000 
#    y 0.000000 1.476600 0.000000 
#    z 0.000000 0.000000 1.474670 
# 
# From -- ./inp_files/4199.got.cif
#   From: 2010.05.17/outbox.cif.g08.bks.cpg/sg37_3_cif.got.tgz:4199.got - 2010.06.03 17:53:42.
