data_PCOD9353164
_publ_section_title
;
Structure prediction by ZEFSAII (Michael W. Deem and Ramdas Pophale) SiO2 
 PCOD9353164
Probable space group: C M C 21
;
_chemical_formula_sum "Si O2"
_cell_formula_units_Z 64
_cell_length_a 8.498343
_cell_length_b 14.521578
_cell_length_c 23.140159
_cell_angle_alpha 90.000000
_cell_angle_beta 90.000000
_cell_angle_gamma 90.000000
_cell_volume 2855.711998
_symmetry_space_group_name_H-M "C M C 21"
_symmetry_group_IT_number 36
_symmetry_cell_setting 'orthorhombic'
loop_
_space_group_symop_operation_xyz
x,y,z
-x,-y,1/2+z
x,-y,1/2+z
-x,y,z
1/2+x,1/2+y,z
1/2-x,1/2-y,1/2+z
1/2+x,1/2-y,1/2+z
1/2-x,1/2+y,z
loop_
_atom_site_type_symbol
_atom_site_label
_atom_site_fract_x
_atom_site_fract_y
_atom_site_fract_z
Si Si1 0.191437 0.313879 0.742910
Si Si2 0.819200 0.842688 0.497459
Si Si3 0.810006 0.107705 0.773008
Si Si4 0.182645 0.060824 0.647171
Si Si5 0.815985 0.721156 0.117125
Si Si6 0.820562 0.473002 0.029971
Si Si7 0.681902 0.333727 0.947801
Si Si8 0.188042 0.548112 0.342853
O O1 0.240428 0.213723 0.766914
O O2 0.242056 0.325851 0.676563
O O3 0.240542 0.390647 0.787919
O O4 0.000000 0.312635 0.740575
O O5 0.785775 0.801902 0.561399
O O6 0.713611 0.933821 0.495109
O O7 0.775574 0.761489 0.453541
O O8 0.000000 0.869806 0.491332
O O9 0.758947 0.057747 0.713109
O O10 0.000000 0.106004 0.773519
O O11 0.746369 0.054013 0.828240
O O12 0.186926 0.170152 0.632059
O O13 0.000000 0.031366 0.644166
O O14 0.281854 0.011791 0.597385
O O15 0.000000 0.697027 0.105311
O O16 0.000000 0.443629 0.022567
O O17 0.709252 0.392984 0.005875
O O18 0.500000 0.312242 0.940750
O O19 0.742328 0.400903 0.897980
O O20 0.000000 0.549146 0.346946
#
# Coordination Sequence:
#
# PCOD9353164 Si02
#       8
#     8   8   8   8   8   8   8   8
#     4   8  18  37  61  88 123 166 205 247 305 369
#     4  12  25  41  63  95 128 166 210 260 317 382
#     4   9  19  38  61  89 124 167 209 251 309 374
#     4   9  18  35  61  91 130 168 205 256 315 374
#     4   9  17  35  62  91 127 169 206 251 310 373
#     4  12  25  41  64  94 126 165 212 263 320 381
#     4  12  26  47  67  88 124 169 216 270 321 375
#     4  11  23  40  63  92 124 164 213 264 313 372
#
# _framework density 22.411224000000001
#
# number of rings (size 3 to 8) (size 9 to 14) (size 15 to 20)
#    0.000    1.750    1.250    5.250    1.750    1.500 
#    0.000    7.500    0.000    0.000    0.000    0.000 
#    0.000    0.000    0.000    0.000    0.000    0.000 
#
# Total GULP energy -178993.685543 kJ/mol
# GULP energy per Si atom -5593.552673 kJ/mol
# Density = 2.236021 g / cm^3
# Si number density = 22.411224 Si / 1000 Ang^3
#
#
#
# Elastic Constant Matrix: (Units=GPa)
#
#
# Indices 1 2 3 4 5 6 
#
# 1 42.9185 -10.7757 -1.0706 0.0000 0.0000 0.0000
# 2 -10.7757 50.1229 -2.2910 0.0000 0.0000 0.0000
# 3 -1.0706 -2.2910 36.8252 0.0000 0.0000 0.0000
# 4 0.0000 0.0000 0.0000 27.4243 0.0000 0.0000
# 5 0.0000 0.0000 0.0000 0.0000 27.3774 0.0000
# 6 0.0000 0.0000 0.0000 0.0000 0.0000 24.3165
#
#
#
# Elastic Compliance Matrix: (Units=1/GPa)
#
#
# Indices 1 2 3 4 5 6 
#
# 1 0.024670 0.005352 0.001050 0.000000 0.000000 0.000000
# 2 0.005352 0.021169 0.001473 0.000000 0.000000 0.000000
# 3 0.001050 0.001473 0.027277 0.000000 0.000000 0.000000
# 4 0.000000 0.000000 0.000000 0.036464 0.000000 0.000000
# 5 0.000000 0.000000 0.000000 0.000000 0.036527 0.000000
# 6 0.000000 0.000000 0.000000 0.000000 0.000000 0.041124
#
#
# Mechanical properties :
#
#
# Convention : Reuss Voigt Hill
#
# Bulk Modulus (GPa) = 11.25307 11.28802 11.27054
# Shear Modulus (GPa) = 24.86279 25.42390 25.14335
#
# Velocity S-wave (km/s) = 3.33436 3.37178 3.35312
# Velocity P-wave (km/s) = 4.45601 4.49514 4.47562
#
# Compressibility (1/GPa) = 0.08886466
#
# Stress axis : x y z
#
# Youngs Moduli (GPa) = 40.53538 47.23940 36.66036
#
# Poissons Ratio (x) = -0.25281 -0.03850
# Poissons Ratio (y) = -0.21693 -0.05398
# Poissons Ratio (z) = -0.04257 -0.06956
#
# Static dielectric constant tensor:
#      x y z
#    x 1.756140 0.000000 0.000000 
#    y 0.000000 1.846150 0.000000 
#    z 0.000000 0.000000 1.853770 
# 
# From -- ./inp_files/16563.got.cif
#   From: 2010.05.17/outbox.cif.g08.bks.cpg/sg36_9_cif.got.tgz:16563.got - 2010.06.03 17:41:39.
