data_PCOD9353270
_publ_section_title
;
Structure prediction by ZEFSAII (Michael W. Deem and Ramdas Pophale) SiO2 
 PCOD9353270
Probable space group: C M C 21
;
_chemical_formula_sum "Si O2"
_cell_formula_units_Z 48
_cell_length_a 9.853858
_cell_length_b 9.372058
_cell_length_c 24.534517
_cell_angle_alpha 90.000000
_cell_angle_beta 90.000000
_cell_angle_gamma 90.000000
_cell_volume 2265.785430
_symmetry_space_group_name_H-M "C M C 21"
_symmetry_group_IT_number 36
_symmetry_cell_setting 'orthorhombic'
loop_
_space_group_symop_operation_xyz
x,y,z
-x,-y,1/2+z
x,-y,1/2+z
-x,y,z
1/2+x,1/2+y,z
1/2-x,1/2-y,1/2+z
1/2+x,1/2-y,1/2+z
1/2-x,1/2+y,z
loop_
_atom_site_type_symbol
_atom_site_label
_atom_site_fract_x
_atom_site_fract_y
_atom_site_fract_z
Si Si1 0.000000 0.594857 0.869670
Si Si2 0.738511 0.960392 0.182340
Si Si3 0.156456 0.207883 0.107549
Si Si4 0.500000 0.393776 0.254718
Si Si5 0.000000 0.941797 0.864658
Si Si6 0.259855 0.561635 0.937376
Si Si7 0.500000 0.929889 0.757711
Si Si8 0.335082 0.687479 0.507529
O O1 0.874355 0.533101 0.903112
O O2 0.000000 0.538119 0.808209
O O3 0.000000 0.769227 0.869860
O O4 0.665447 0.825152 0.155470
O O5 0.866958 0.913270 0.217966
O O6 0.794167 0.061065 0.134242
O O7 0.631470 0.042675 0.220254
O O8 0.262956 0.259506 0.062112
O O9 0.000000 0.198325 0.087884
O O10 0.500000 0.510436 0.302243
O O11 0.500000 0.233195 0.277902
O O12 0.124153 0.015981 0.895843
O O13 0.292572 0.472196 0.991913
O O14 0.233564 0.720717 0.958976
O O15 0.500000 0.703271 0.508370
#
# Coordination Sequence:
#
# PCOD9353270 Si02
#       8
#     4   8   8   4   4   8   4   8
#     4  12  28  48  73 108 146 186 243 298 351 430
#     4  12  26  48  72 106 152 180 238 300 356 430
#     4  12  28  46  75 108 142 192 237 296 361 424
#     4  12  28  46  75 108 142 192 237 296 361 424
#     4  12  28  48  73 108 146 186 243 298 351 430
#     4  12  24  50  72 104 150 184 228 306 356 416
#     4  12  28  46  75 108 142 192 237 296 361 424
#     4  12  28  48  73 108 146 186 243 298 351 430
#
# _framework density 21.184708000000001
#
# number of rings (size 3 to 8) (size 9 to 14) (size 15 to 20)
#    0.000    0.000    6.667    2.000    9.333    5.333 
#    0.000    0.000    0.000    0.000    0.000    0.000 
#    0.000    0.000    0.000    0.000    0.000    0.000 
#
# Total GULP energy -134198.383567 kJ/mol
# GULP energy per Si atom -5591.599315 kJ/mol
# Density = 2.113649 g / cm^3
# Si number density = 21.184708 Si / 1000 Ang^3
#
#
#
# Elastic Constant Matrix: (Units=GPa)
#
#
# Indices 1 2 3 4 5 6 
#
# 1 169.9343 37.3266 32.2080 0.0000 0.0000 0.0000
# 2 37.3266 72.1478 4.1747 0.0000 0.0000 0.0000
# 3 32.2080 4.1747 79.0209 0.0000 0.0000 0.0000
# 4 0.0000 0.0000 0.0000 40.0128 0.0000 0.0000
# 5 0.0000 0.0000 0.0000 0.0000 29.3699 0.0000
# 6 0.0000 0.0000 0.0000 0.0000 0.0000 23.4366
#
#
#
# Elastic Compliance Matrix: (Units=1/GPa)
#
#
# Indices 1 2 3 4 5 6 
#
# 1 0.007186 -0.003559 -0.002741 0.000000 0.000000 0.000000
# 2 -0.003559 0.015666 0.000623 0.000000 0.000000 0.000000
# 3 -0.002741 0.000623 0.013739 0.000000 0.000000 0.000000
# 4 0.000000 0.000000 0.000000 0.024992 0.000000 0.000000
# 5 0.000000 0.000000 0.000000 0.000000 0.034048 0.000000
# 6 0.000000 0.000000 0.000000 0.000000 0.000000 0.042668
#
#
# Mechanical properties :
#
#
# Convention : Reuss Voigt Hill
#
# Bulk Modulus (GPa) = 39.62461 52.05794 45.84128
# Shear Modulus (GPa) = 31.63243 35.05678 33.34460
#
# Velocity S-wave (km/s) = 3.86835 4.07236 3.97166
# Velocity P-wave (km/s) = 6.22070 6.83658 6.53590
#
# Compressibility (1/GPa) = 0.02523684
#
# Stress axis : x y z
#
# Youngs Moduli (GPa) = 139.16193 63.83357 72.78500
#
# Poissons Ratio (x) = 0.22719 0.19949
# Poissons Ratio (y) = 0.49529 -0.04535
# Poissons Ratio (z) = 0.38142 -0.03977
#
# Static dielectric constant tensor:
#      x y z
#    x 1.729300 0.000000 0.000000 
#    y 0.000000 1.743770 0.000000 
#    z 0.000000 0.000000 1.769100 
# 
# From -- ./inp_files/16842.got.cif
#   From: 2010.05.17/outbox.cif.g08.bks.cpg/sg36_9_cif.got.tgz:16842.got - 2010.06.03 17:41:39.
