data_PCOD9353410
_publ_section_title
;
Structure prediction by ZEFSAII (Michael W. Deem and Ramdas Pophale) SiO2 
 PCOD9353410
Probable space group: C C C 2
;
_chemical_formula_sum "Si O2"
_cell_formula_units_Z 56
_cell_length_a 6.764131
_cell_length_b 32.011749
_cell_length_c 9.010386
_cell_angle_alpha 90.000000
_cell_angle_beta 90.000000
_cell_angle_gamma 90.000000
_cell_volume 1951.033872
_symmetry_space_group_name_H-M "C C C 2"
_symmetry_group_IT_number 37
_symmetry_cell_setting 'orthorhombic'
loop_
_space_group_symop_operation_xyz
x,y,z
-x,-y,z
-x,y,1/2+z
x,-y,1/2+z
1/2+x,1/2+y,z
1/2-x,1/2-y,z
1/2-x,1/2+y,1/2+z
1/2+x,1/2-y,1/2+z
loop_
_atom_site_type_symbol
_atom_site_label
_atom_site_fract_x
_atom_site_fract_y
_atom_site_fract_z
Si Si1 0.726950 0.988222 0.117000
Si Si2 0.109253 0.216955 0.693666
Si Si3 0.996570 0.710971 0.872388
Si Si4 0.800677 0.411119 0.408090
Si Si5 0.155136 0.870181 0.114722
Si Si6 0.763917 0.936878 0.402528
Si Si7 0.105277 0.339653 0.127694
O O1 0.815899 0.964356 0.258631
O O2 0.500000 0.000000 0.158918
O O3 0.747024 0.954904 0.984462
O O4 0.787374 0.031321 0.040886
O O5 0.250000 0.250000 0.599177
O O6 0.969671 0.243468 0.802309
O O7 0.279905 0.201102 0.802926
O O8 0.037596 0.174338 0.620909
O O9 0.135147 0.675825 0.796640
O O10 0.928158 0.703922 0.039601
O O11 0.673785 0.397981 0.264457
O O12 0.037528 0.419633 0.371452
O O13 0.783134 0.375573 0.537067
O O14 0.385040 0.857580 0.110072
O O15 0.121918 0.897171 0.968182
#
# Coordination Sequence:
#
# PCOD9353410 Si02
#       7
#     8   8   8   8   8   8   8
#     4  10  18  25  33  48  78 101 127 164 201 207
#     4   7  14  29  36  53  71 103 118 168 200 251
#     4   8  16  24  42  51  75  90 131 162 204 226
#     4  10  16  23  33  52  71  97 127 164 188 219
#     4  10  17  25  40  53  72  98 139 164 195 228
#     4  10  18  24  34  50  72  99 132 165 188 218
#     4  10  14  24  36  60  66  96 128 168 185 233
#
# _framework density 28.702731
#
# number of rings (size 3 to 8) (size 9 to 14) (size 15 to 20)
#    0.857    1.714    2.857    4.714    2.000    0.000 
#    0.000    0.000    0.000    8.571    0.000    0.000 
#    0.000    0.000    0.000    0.000    0.000   17.143 
#
# Total GULP energy -156035.609191 kJ/mol
# GULP energy per Si atom -5572.700328 kJ/mol
# Density = 2.863740 g / cm^3
# Si number density = 28.702731 Si / 1000 Ang^3
#
#
#
# Elastic Constant Matrix: (Units=GPa)
#
#
# Indices 1 2 3 4 5 6 
#
# 1 67.1701 24.4744 15.3022 0.0000 0.0000 0.0000
# 2 24.4744 193.4174 71.6218 0.0000 0.0000 0.0000
# 3 15.3022 71.6218 143.9369 0.0000 0.0000 0.0000
# 4 0.0000 0.0000 0.0000 38.7547 0.0000 0.0000
# 5 0.0000 0.0000 0.0000 0.0000 2.1105 0.0000
# 6 0.0000 0.0000 0.0000 0.0000 0.0000 38.2424
#
#
#
# Elastic Compliance Matrix: (Units=1/GPa)
#
#
# Indices 1 2 3 4 5 6 
#
# 1 0.015688 -0.001676 -0.000834 0.000000 0.000000 0.000000
# 2 -0.001676 0.006517 -0.003065 0.000000 0.000000 0.000000
# 3 -0.000834 -0.003065 0.008561 0.000000 0.000000 0.000000
# 4 0.000000 0.000000 0.000000 0.025803 0.000000 0.000000
# 5 0.000000 0.000000 0.000000 0.000000 0.473832 0.000000
# 6 0.000000 0.000000 0.000000 0.000000 0.000000 0.026149
#
#
# Mechanical properties :
#
#
# Convention : Reuss Voigt Hill
#
# Bulk Modulus (GPa) = 50.97620 69.70236 60.33928
# Shear Modulus (GPa) = 8.70717 35.36325 22.03521
#
# Velocity S-wave (km/s) = 1.74360 3.51387 2.77375
# Velocity P-wave (km/s) = 4.67463 6.38749 5.59697
#
# Compressibility (1/GPa) = 0.01961700
#
# Stress axis : x y z
#
# Youngs Moduli (GPa) = 63.74162 153.44198 116.80807
#
# Poissons Ratio (x) = 0.25724 0.09738
# Poissons Ratio (y) = 0.10686 0.35797
# Poissons Ratio (z) = 0.05314 0.47024
#
# Static dielectric constant tensor:
#      x y z
#    x 2.352730 0.000000 0.000000 
#    y 0.000000 2.397600 0.000000 
#    z 0.000000 0.000000 2.277930 
# 
# From -- ./inp_files/3805.got.cif
#   From: 2010.05.17/outbox.cif.g08.bks.cpg/sg37_2_cif.got.tgz:3805.got - 2010.06.03 17:53:42.
