data_PCOD9353968
_publ_section_title
;
Structure prediction by ZEFSAII (Michael W. Deem and Ramdas Pophale) SiO2 
 PCOD9353968
Probable space group: C C C 2
;
_chemical_formula_sum "Si O2"
_cell_formula_units_Z 64
_cell_length_a 11.441673
_cell_length_b 11.441663
_cell_length_c 24.355923
_cell_angle_alpha 90.000000
_cell_angle_beta 90.000000
_cell_angle_gamma 90.000000
_cell_volume 3188.476908
_symmetry_space_group_name_H-M "C C C 2"
_symmetry_group_IT_number 37
_symmetry_cell_setting 'orthorhombic'
loop_
_space_group_symop_operation_xyz
x,y,z
-x,-y,z
-x,y,1/2+z
x,-y,1/2+z
1/2+x,1/2+y,z
1/2-x,1/2-y,z
1/2-x,1/2+y,1/2+z
1/2+x,1/2-y,1/2+z
loop_
_atom_site_type_symbol
_atom_site_label
_atom_site_fract_x
_atom_site_fract_y
_atom_site_fract_z
Si Si1 0.398383 0.898383 0.363420
Si Si2 0.503969 0.306563 0.664493
Si Si3 0.598666 0.901335 0.737324
Si Si4 0.562322 0.740682 0.428215
Si Si5 0.244937 0.556276 0.541687
Si Si6 0.740683 0.562322 0.428215
Si Si7 0.943724 0.744937 0.041687
Si Si8 0.806563 0.003970 0.664493
O O1 0.371901 0.871902 0.300258
O O2 0.450922 0.787215 0.395184
O O3 0.500000 0.000000 0.364737
O O4 0.287216 0.950921 0.395184
O O5 0.458102 0.209150 0.706289
O O6 0.509574 0.252339 0.603458
O O7 0.408707 0.408708 0.663577
O O8 0.629022 0.370978 0.676137
O O9 0.500000 0.000000 0.738098
O O10 0.709150 0.958103 0.706289
O O11 0.617494 0.617493 0.410835
O O12 0.662018 0.837982 0.419491
O O13 0.533827 0.737922 0.492761
O O14 0.262077 0.466172 0.492761
O O15 0.123071 0.623071 0.533373
O O16 0.347974 0.652026 0.537069
O O17 0.252339 0.509575 0.603458
#
# Coordination Sequence:
#
# PCOD9353968 Si02
#       8
#     8   8   8   8   8   8   8   8
#     4   9  20  39  57  83 119 153 199 254 297 354
#     4  10  22  40  60  86 122 160 202 255 311 371
#     4  11  23  39  63  89 117 161 209 254 309 364
#     4  10  20  35  58  86 115 153 197 245 304 363
#     4  10  20  35  57  86 119 152 190 242 302 364
#     4  10  20  35  58  86 115 153 197 245 304 363
#     4  10  20  35  57  86 119 152 190 242 302 364
#     4  10  22  40  60  86 122 160 202 255 311 371
#
# _framework density 20.072279000000002
#
# number of rings (size 3 to 8) (size 9 to 14) (size 15 to 20)
#    0.000    2.000    1.250    1.875    1.750    4.000 
#    0.000    5.000    0.000    0.000    0.000    0.000 
#    0.000    0.000    0.000    0.000    0.000    0.000 
#
# Total GULP energy -178672.130478 kJ/mol
# GULP energy per Si atom -5583.504077 kJ/mol
# Density = 2.002659 g / cm^3
# Si number density = 20.072279 Si / 1000 Ang^3
#
#
#
# Elastic Constant Matrix: (Units=GPa)
#
#
# Indices 1 2 3 4 5 6 
#
# 1 67.4448 51.3738 50.4876 0.0000 0.0000 0.0000
# 2 51.3738 67.4415 50.4864 0.0000 0.0000 0.0000
# 3 50.4876 50.4864 129.2459 0.0000 0.0000 0.0000
# 4 0.0000 0.0000 0.0000 -43.7831 0.0000 0.0000
# 5 0.0000 0.0000 0.0000 0.0000 -43.7843 0.0000
# 6 0.0000 0.0000 0.0000 0.0000 0.0000 31.1990
#
#
#
# Elastic Compliance Matrix: (Units=1/GPa)
#
#
# Indices 1 2 3 4 5 6 
#
# 1 0.037414 -0.024816 -0.004921 0.000000 0.000000 0.000000
# 2 -0.024816 0.037415 -0.004921 0.000000 0.000000 0.000000
# 3 -0.004921 -0.004921 0.011582 0.000000 0.000000 0.000000
# 4 0.000000 0.000000 0.000000 -0.022840 0.000000 0.000000
# 5 0.000000 0.000000 0.000000 0.000000 -0.022839 0.000000
# 6 0.000000 0.000000 0.000000 0.000000 0.000000 0.032052
#
#
# Mechanical properties :
#
#
# Convention : Reuss Voigt Hill
#
# Bulk Modulus (GPa) = 58.50072 63.20309 60.85190
# Shear Modulus (GPa) = 33.82970 -3.82137 15.00416
#
# Velocity S-wave (km/s) = 4.10981 -1.38128 2.73702
# Velocity P-wave (km/s) = 7.19229 5.38630 6.35379
#
# Compressibility (1/GPa) = 0.01709381
#
# Stress axis : x y z
#
# Youngs Moduli (GPa) = 26.72832 26.72697 86.34062
#
# Poissons Ratio (x) = 0.66325 0.42491
# Poissons Ratio (y) = 0.66329 0.42492
# Poissons Ratio (z) = 0.13154 0.13154
#
# Static dielectric constant tensor:
#      x y z
#    x 1.714260 0.000000 0.000000 
#    y 0.000000 1.714260 0.000000 
#    z 0.000000 0.000000 1.677000 
# 
# From -- ./inp_files/18720.got.cif
#   From: 2010.05.17/outbox.cif.g08.bks.cpg/sg37_10_cif.got.tgz:18720.got - 2010.06.03 17:53:42.
