data_PCOD9353913
_publ_section_title
;
Structure prediction by ZEFSAII (Michael W. Deem and Ramdas Pophale) SiO2 
 PCOD9353913
Probable space group: C C C 2
;
_chemical_formula_sum "Si O2"
_cell_formula_units_Z 48
_cell_length_a 17.726011
_cell_length_b 12.645534
_cell_length_c 9.216514
_cell_angle_alpha 90.000000
_cell_angle_beta 90.000000
_cell_angle_gamma 90.000000
_cell_volume 2065.926542
_symmetry_space_group_name_H-M "C C C 2"
_symmetry_group_IT_number 37
_symmetry_cell_setting 'orthorhombic'
loop_
_space_group_symop_operation_xyz
x,y,z
-x,-y,z
-x,y,1/2+z
x,-y,1/2+z
1/2+x,1/2+y,z
1/2-x,1/2-y,z
1/2-x,1/2+y,1/2+z
1/2+x,1/2-y,1/2+z
loop_
_atom_site_type_symbol
_atom_site_label
_atom_site_fract_x
_atom_site_fract_y
_atom_site_fract_z
Si Si1 0.853516 0.665487 0.726250
Si Si2 0.250000 0.750000 0.973615
Si Si3 0.651365 0.696471 0.226250
Si Si4 0.000000 0.000000 0.476250
Si Si5 0.402759 0.925136 0.726250
Si Si6 0.972438 0.148298 0.226250
Si Si7 0.500000 0.000000 0.476250
Si Si8 0.750000 0.250000 0.478885
O O1 0.806225 0.690443 0.582050
O O2 0.869912 0.542111 0.726250
O O3 0.926261 0.743056 0.726250
O O4 0.806225 0.690443 0.870450
O O5 0.300804 0.673976 0.870832
O O6 0.649229 0.824695 0.226250
O O7 0.563879 0.663003 0.226250
O O8 0.699196 0.673976 0.081667
O O9 0.954858 0.077619 0.368033
O O10 0.045142 0.077619 0.584467
O O11 0.452509 0.925051 0.581167
O O12 0.452509 0.925051 0.871333
#
# Coordination Sequence:
#
# PCOD9353913 Si02
#       8
#     8   4   8   4   8   8   4   4
#     4  11  23  43  67  95 130 165 207 262 318 379
#     4  10  24  42  58  90 134 170 204 250 314 370
#     4  11  23  43  67  95 130 165 207 262 318 379
#     4  10  24  40  60  98 124 162 228 270 304 348
#     4  11  22  38  64 100 130 159 202 252 326 393
#     4  11  22  43  70  92 124 165 218 267 304 370
#     4  10  20  32  56 100 132 152 192 250 312 374
#     4  10  24  42  58  90 134 170 204 250 314 370
#
# _framework density 23.234127999999998
#
# number of rings (size 3 to 8) (size 9 to 14) (size 15 to 20)
#    0.000    1.333    0.000    6.000    0.000    2.667 
#    0.000   33.333    0.000    0.000    0.000    0.000 
#    0.000    0.000    0.000    0.000    0.000    0.000 
#
# Total GULP energy -134214.627308 kJ/mol
# GULP energy per Si atom -5592.276138 kJ/mol
# Density = 2.318125 g / cm^3
# Si number density = 23.234128 Si / 1000 Ang^3
#
#
#
# Elastic Constant Matrix: (Units=GPa)
#
#
# Indices 1 2 3 4 5 6 
#
# 1 124.8672 24.5739 54.1552 0.0000 0.0000 0.0000
# 2 24.5739 90.2967 19.3054 0.0000 0.0000 0.0000
# 3 54.1552 19.3054 171.4700 0.0000 0.0000 0.0000
# 4 0.0000 0.0000 0.0000 17.9788 0.0000 0.0000
# 5 0.0000 0.0000 0.0000 0.0000 33.5072 0.0000
# 6 0.0000 0.0000 0.0000 0.0000 0.0000 12.1917
#
#
#
# Elastic Compliance Matrix: (Units=1/GPa)
#
#
# Indices 1 2 3 4 5 6 
#
# 1 0.009626 -0.002018 -0.002813 0.000000 0.000000 0.000000
# 2 -0.002018 0.011771 -0.000688 0.000000 0.000000 0.000000
# 3 -0.002813 -0.000688 0.006798 0.000000 0.000000 0.000000
# 4 0.000000 0.000000 0.000000 0.055621 0.000000 0.000000
# 5 0.000000 0.000000 0.000000 0.000000 0.029844 0.000000
# 6 0.000000 0.000000 0.000000 0.000000 0.000000 0.082023
#
#
# Mechanical properties :
#
#
# Convention : Reuss Voigt Hill
#
# Bulk Modulus (GPa) = 58.28690 64.74477 61.51583
# Shear Modulus (GPa) = 23.53612 31.97549 27.75581
#
# Velocity S-wave (km/s) = 3.18622 3.71378 3.46007
# Velocity P-wave (km/s) = 6.21910 6.80561 6.51895
#
# Compressibility (1/GPa) = 0.01715651
#
# Stress axis : x y z
#
# Youngs Moduli (GPa) = 103.88946 84.95524 147.10770
#
# Poissons Ratio (x) = 0.17146 0.41379
# Poissons Ratio (y) = 0.20967 0.10119
# Poissons Ratio (z) = 0.29222 0.05844
#
# Static dielectric constant tensor:
#      x y z
#    x 1.926760 0.000000 0.000000 
#    y 0.000000 1.853630 0.000000 
#    z 0.000000 0.000000 1.895030 
# 
# From -- ./inp_files/3993.got.cif
#   From: 2010.05.17/outbox.cif.g08.bks.cpg/sg37_2_cif.got.tgz:3993.got - 2010.06.03 17:53:42.
