data_PCOD9353321
_publ_section_title
;
Structure prediction by ZEFSAII (Michael W. Deem and Ramdas Pophale) SiO2 
 PCOD9353321
Probable space group: C M C 21
;
_chemical_formula_sum "Si O2"
_cell_formula_units_Z 32
_cell_length_a 9.000000
_cell_length_b 24.000000
_cell_length_c 15.000000
_cell_angle_alpha 90.000000
_cell_angle_beta 90.000000
_cell_angle_gamma 90.000000
_cell_volume 3240.000000
_symmetry_space_group_name_H-M "C M C 21"
_symmetry_group_IT_number 36
_symmetry_cell_setting 'orthorhombic'
loop_
_space_group_symop_operation_xyz
x,y,z
-x,-y,1/2+z
x,-y,1/2+z
-x,y,z
1/2+x,1/2+y,z
1/2-x,1/2-y,1/2+z
1/2+x,1/2-y,1/2+z
1/2-x,1/2+y,z
loop_
_atom_site_type_symbol
_atom_site_label
_atom_site_fract_x
_atom_site_fract_y
_atom_site_fract_z
Si Si1 0.674708 0.955499 0.535530
Si Si2 0.820442 0.801250 0.323687
Si Si3 0.675541 0.408999 0.221509
Si Si4 0.320845 0.425797 0.019360
Si Si5 0.821853 0.797352 0.713673
Si Si6 0.662167 0.985064 0.740901
Si Si7 0.169010 0.623152 0.355209
Si Si8 0.320500 0.663559 0.015437
O O1 0.500000 0.957855 0.511730
O O2 0.748175 0.897617 0.506161
O O3 0.758017 0.011608 0.504430
O O4 0.685733 0.957706 0.643837
O O5 0.770458 0.860936 0.285863
O O6 0.746970 0.757612 0.257191
O O7 0.780769 0.799500 0.428628
O O8 0.000000 0.796009 0.318319
O O9 0.500000 0.402866 0.216344
O O10 0.715935 0.469110 0.258548
O O11 0.729237 0.408408 0.119153
O O12 0.500000 0.426683 0.014527
O O13 0.252566 0.383240 0.948359
O O14 0.760040 0.843724 0.781122
O O15 0.776984 0.810317 0.611247
O O16 0.000000 0.795689 0.715892
O O17 0.500000 0.013161 0.737182
O O18 0.659817 0.938564 0.815048
O O19 0.000000 0.645113 0.364559
O O20 0.500000 0.657071 0.015353
#
# Coordination Sequence:
#
# PCOD9353321 Si02
#       8
#     8   8   8   8   8   8   8   8
#     4  10  19  35  58  87 122 161 202 246 301 361
#     4  10  23  43  64  88 118 158 203 250 305 363
#     4   9  20  38  59  85 120 159 200 244 300 358
#     4  10  21  36  56  88 127 166 205 250 301 360
#     4  11  24  42  63  89 120 158 204 254 306 362
#     4   9  19  34  55  84 119 155 195 242 296 353
#     4  11  22  38  59  88 121 161 205 248 301 362
#     4  10  22  40  62  89 119 154 200 252 306 363
#
# _framework density 9.8765429999999999
#
# number of rings (size 3 to 8) (size 9 to 14) (size 15 to 20)
#    0.000    2.000    1.250    1.500    1.750    4.500 
#    0.000    2.500    0.000    0.000    0.000    0.000 
#    0.000    0.000    0.000    0.000    0.000    0.000 
#
# Total GULP energy -178533.372697 kJ/mol
# GULP energy per Si atom -5579.167897 kJ/mol
# Density = 0.985406 g / cm^3
# Si number density = 9.876543 Si / 1000 Ang^3
#
#
#
# Elastic Constant Matrix: (Units=GPa)
#
#
# Indices 1 2 3 4 5 6 
#
# 1 36.5464 15.2614 26.8470 0.0000 0.0000 0.0000
# 2 15.2614 55.8221 39.6525 0.0000 0.0000 0.0000
# 3 26.8470 39.6525 40.4032 0.0000 0.0000 0.0000
# 4 0.0000 0.0000 0.0000 11.3468 0.0000 0.0000
# 5 0.0000 0.0000 0.0000 0.0000 21.3072 0.0000
# 6 0.0000 0.0000 0.0000 0.0000 0.0000 29.1914
#
#
#
# Elastic Compliance Matrix: (Units=1/GPa)
#
#
# Indices 1 2 3 4 5 6 
#
# 1 0.087436 0.057337 -0.114371 0.000000 0.000000 0.000000
# 2 0.057337 0.096749 -0.133051 0.000000 0.000000 0.000000
# 3 -0.114371 -0.133051 0.231325 0.000000 0.000000 0.000000
# 4 0.000000 0.000000 0.000000 0.088131 0.000000 0.000000
# 5 0.000000 0.000000 0.000000 0.000000 0.046932 0.000000
# 6 0.000000 0.000000 0.000000 0.000000 0.000000 0.034257
#
#
# Mechanical properties :
#
#
# Convention : Reuss Voigt Hill
#
# Bulk Modulus (GPa) = 28.29488 32.92149 30.60819
# Shear Modulus (GPa) = 5.11887 15.76981 10.44434
#
# Velocity S-wave (km/s) = 1.61154 2.82857 2.30194
# Velocity P-wave (km/s) = 4.22115 5.23167 4.75334
#
# Compressibility (1/GPa) = 0.03534208
#
# Stress axis : x y z
#
# Youngs Moduli (GPa) = 11.43696 10.33603 4.32292
#
# Poissons Ratio (x) = -0.59264 0.49442
# Poissons Ratio (y) = -0.65577 0.57517
# Poissons Ratio (z) = 1.30806 1.37521
#
# Static dielectric constant tensor:
#      x y z
#    x 1.683750 0.000000 0.000000 
#    y 0.000000 1.718290 0.000000 
#    z 0.000000 0.000000 1.699310 
# 
# From -- ./inp_files/11002.got.cif
#   From: 2010.05.17/outbox.ucp.g08.bks.cvg/sg36_6_cif.got.tgz:11002.got - 2010.06.11 10:37:26.
