data_PCOD9353498
_publ_section_title
;
Structure prediction by ZEFSAII (Michael W. Deem and Ramdas Pophale) SiO2 
 PCOD9353498
Probable space group: C C C 2
;
_chemical_formula_sum "Si O2"
_cell_formula_units_Z 56
_cell_length_a 11.448243
_cell_length_b 11.503883
_cell_length_c 19.847705
_cell_angle_alpha 90.000000
_cell_angle_beta 90.000000
_cell_angle_gamma 90.000000
_cell_volume 2613.927824
_symmetry_space_group_name_H-M "C C C 2"
_symmetry_group_IT_number 37
_symmetry_cell_setting 'orthorhombic'
loop_
_space_group_symop_operation_xyz
x,y,z
-x,-y,z
-x,y,1/2+z
x,-y,1/2+z
1/2+x,1/2+y,z
1/2-x,1/2-y,z
1/2-x,1/2+y,1/2+z
1/2+x,1/2-y,1/2+z
loop_
_atom_site_type_symbol
_atom_site_label
_atom_site_fract_x
_atom_site_fract_y
_atom_site_fract_z
Si Si1 0.464208 0.778047 0.155890
Si Si2 0.877160 0.069878 0.066454
Si Si3 0.634593 0.033877 0.239722
Si Si4 0.729240 0.369995 0.363575
Si Si5 0.986880 0.135112 0.785394
Si Si6 0.880997 0.077136 0.918694
Si Si7 0.798023 0.619936 0.128558
O O1 0.401185 0.675111 0.116952
O O2 0.368550 0.866355 0.183574
O O3 0.525433 0.717987 0.221537
O O4 0.562730 0.855463 0.117770
O O5 0.776515 0.975367 0.085995
O O6 0.864063 0.128062 0.992222
O O7 0.000000 0.000000 0.066350
O O8 0.681861 0.088516 0.307194
O O9 0.500000 0.000000 0.249534
O O10 0.706871 0.929711 0.205617
O O11 0.750000 0.250000 0.401305
O O12 0.611082 0.343740 0.321578
O O13 0.716164 0.478939 0.411275
O O14 0.894327 0.144313 0.847484
O O15 0.000000 0.000000 0.762843
O O16 0.000000 0.000000 0.920063
O O17 0.750000 0.750000 0.120791
#
# Coordination Sequence:
#
# PCOD9353498 Si02
#       7
#     8   8   8   8   8   8   8
#     4  11  21  38  62  88 124 162 206 269 319 371
#     4  11  21  39  59  90 130 163 209 263 324 375
#     4  10  23  38  55  88 128 152 200 265 322 368
#     4  10  17  33  60  87 109 161 202 245 314 374
#     4   9  18  32  57  90 118 151 200 257 304 363
#     4   8  20  35  54  90 125 150 203 256 304 379
#     4  11  24  36  58  93 115 162 206 258 320 387
#
# _framework density 21.423697000000001
#
# number of rings (size 3 to 8) (size 9 to 14) (size 15 to 20)
#    0.000    2.286    2.857    1.286    4.000    0.571 
#    2.571    0.000    0.000    9.429    0.000    0.000 
#    0.000    0.000    0.000    0.000    0.000    0.000 
#
# Total GULP energy -155950.458983 kJ/mol
# GULP energy per Si atom -5569.659249 kJ/mol
# Density = 2.137494 g / cm^3
# Si number density = 21.423697 Si / 1000 Ang^3
#
#
#
# Elastic Constant Matrix: (Units=GPa)
#
#
# Indices 1 2 3 4 5 6 
#
# 1 43.5892 19.8081 27.1536 0.0000 0.0000 0.0000
# 2 19.8081 90.8113 44.1310 0.0000 0.0000 0.0000
# 3 27.1536 44.1310 104.0092 0.0000 0.0000 0.0000
# 4 0.0000 0.0000 0.0000 0.8308 0.0000 0.0000
# 5 0.0000 0.0000 0.0000 0.0000 8.2855 0.0000
# 6 0.0000 0.0000 0.0000 0.0000 0.0000 24.3884
#
#
#
# Elastic Compliance Matrix: (Units=1/GPa)
#
#
# Indices 1 2 3 4 5 6 
#
# 1 0.028131 -0.003234 -0.005972 0.000000 0.000000 0.000000
# 2 -0.003234 0.014244 -0.005199 0.000000 0.000000 0.000000
# 3 -0.005972 -0.005199 0.013380 0.000000 0.000000 0.000000
# 4 0.000000 0.000000 0.000000 1.203682 0.000000 0.000000
# 5 0.000000 0.000000 0.000000 0.000000 0.120692 0.000000
# 6 0.000000 0.000000 0.000000 0.000000 0.000000 0.041003
#
#
# Mechanical properties :
#
#
# Convention : Reuss Voigt Hill
#
# Bulk Modulus (GPa) = 37.11370 46.73281 41.92325
# Shear Modulus (GPa) = 3.42718 16.52207 9.97463
#
# Velocity S-wave (km/s) = 1.26617 2.78007 2.16009
# Velocity P-wave (km/s) = 4.41575 5.67151 5.08256
#
# Compressibility (1/GPa) = 0.02694423
#
# Stress axis : x y z
#
# Youngs Moduli (GPa) = 35.54760 70.20515 74.73963
#
# Poissons Ratio (x) = 0.22703 0.44635
# Poissons Ratio (y) = 0.11496 0.38860
# Poissons Ratio (z) = 0.21229 0.36503
#
# Static dielectric constant tensor:
#      x y z
#    x 1.858890 0.000000 0.000000 
#    y 0.000000 1.820500 0.000000 
#    z 0.000000 0.000000 1.800540 
# 
# From -- ./inp_files/16857.got.cif
#   From: 2010.05.17/outbox.cif.g08.bks.cpg/sg37_9_cif.got.tgz:16857.got - 2010.06.03 17:53:42.
