data_PCOD9353804
_publ_section_title
;
Structure prediction by ZEFSAII (Michael W. Deem and Ramdas Pophale) SiO2 
 PCOD9353804
Probable space group: C C C 2
;
_chemical_formula_sum "Si O2"
_cell_formula_units_Z 64
_cell_length_a 15.193904
_cell_length_b 8.877696
_cell_length_c 24.031389
_cell_angle_alpha 90.000000
_cell_angle_beta 90.000000
_cell_angle_gamma 90.000000
_cell_volume 3241.518622
_symmetry_space_group_name_H-M "C C C 2"
_symmetry_group_IT_number 37
_symmetry_cell_setting 'orthorhombic'
loop_
_space_group_symop_operation_xyz
x,y,z
-x,-y,z
-x,y,1/2+z
x,-y,1/2+z
1/2+x,1/2+y,z
1/2-x,1/2-y,z
1/2-x,1/2+y,1/2+z
1/2+x,1/2-y,1/2+z
loop_
_atom_site_type_symbol
_atom_site_label
_atom_site_fract_x
_atom_site_fract_y
_atom_site_fract_z
Si Si1 0.991899 0.253561 0.811000
Si Si2 0.491882 0.828032 0.937220
Si Si3 0.569418 0.899738 0.701815
Si Si4 0.644691 0.506740 0.820473
Si Si5 0.828563 0.132539 0.438745
Si Si6 0.751834 0.931336 0.217733
Si Si7 0.404407 0.419477 0.645453
Si Si8 0.907399 0.091229 0.015706
O O1 0.973367 0.329131 0.870780
O O2 0.017342 0.355262 0.758847
O O3 0.075864 0.142716 0.814571
O O4 0.908666 0.143721 0.804364
O O5 0.582772 0.733454 0.940057
O O6 0.500000 0.000000 0.956293
O O7 0.423508 0.734808 0.975553
O O8 0.592335 0.740034 0.675788
O O9 0.500000 0.000000 0.667642
O O10 0.656892 0.998776 0.705586
O O11 0.673824 0.526657 0.883976
O O12 0.722408 0.507541 0.776669
O O13 0.750000 0.250000 0.438600
O O14 0.834325 0.018617 0.489985
O O15 0.750000 0.750000 0.220849
O O16 0.827050 0.982640 0.173809
O O17 0.500000 0.500000 0.652251
O O18 0.389345 0.385635 0.580409
O O19 0.000000 0.000000 0.012895
#
# Coordination Sequence:
#
# PCOD9353804 Si02
#       8
#     8   8   8   8   8   8   8   8
#     4  10  19  36  63  89 127 168 206 260 325 388
#     4  10  20  37  62  91 124 164 215 262 317 381
#     4  12  25  41  64  96 128 169 220 267 328 392
#     4  10  20  36  61  90 127 166 206 260 325 391
#     4  10  21  38  62  90 126 169 213 262 323 382
#     4  12  26  42  63  95 132 169 217 270 327 389
#     4  11  23  43  69  92 130 171 220 270 328 383
#     4   9  20  42  65  90 122 172 216 262 313 387
#
# _framework density 19.743832999999999
#
# number of rings (size 3 to 8) (size 9 to 14) (size 15 to 20)
#    0.000    1.500    2.500    3.000    3.500    1.000 
#    0.000    5.625    0.000    0.000    0.000    0.000 
#    0.000    0.000    0.000    0.000    0.000    0.000 
#
# Total GULP energy -178519.202773 kJ/mol
# GULP energy per Si atom -5578.725087 kJ/mol
# Density = 1.969889 g / cm^3
# Si number density = 19.743833 Si / 1000 Ang^3
#
#
#
# Elastic Constant Matrix: (Units=GPa)
#
#
# Indices 1 2 3 4 5 6 
#
# 1 76.4002 34.0969 26.0977 0.0000 0.0000 0.0000
# 2 34.0969 116.8497 55.3397 0.0000 0.0000 0.0000
# 3 26.0977 55.3397 113.1974 0.0000 0.0000 0.0000
# 4 0.0000 0.0000 0.0000 -7.7697 0.0000 0.0000
# 5 0.0000 0.0000 0.0000 0.0000 8.6745 0.0000
# 6 0.0000 0.0000 0.0000 0.0000 0.0000 16.8097
#
#
#
# Elastic Compliance Matrix: (Units=1/GPa)
#
#
# Indices 1 2 3 4 5 6 
#
# 1 0.015311 -0.003638 -0.001751 0.000000 0.000000 0.000000
# 2 -0.003638 0.012001 -0.005028 0.000000 0.000000 0.000000
# 3 -0.001751 -0.005028 0.011696 0.000000 0.000000 0.000000
# 4 0.000000 0.000000 0.000000 -0.128705 0.000000 0.000000
# 5 0.000000 0.000000 0.000000 0.000000 0.115281 0.000000
# 6 0.000000 0.000000 0.000000 0.000000 0.000000 0.059490
#
#
# Mechanical properties :
#
#
# Convention : Reuss Voigt Hill
#
# Bulk Modulus (GPa) = 55.02846 59.72398 57.37622
# Shear Modulus (GPa) = 44.65603 16.27043 30.46323
#
# Velocity S-wave (km/s) = 4.76097 2.87379 3.93227
# Velocity P-wave (km/s) = 7.62589 6.42858 7.05269
#
# Compressibility (1/GPa) = 0.01817242
#
# Stress axis : x y z
#
# Youngs Moduli (GPa) = 65.31273 83.32625 85.49904
#
# Poissons Ratio (x) = 0.30317 0.14973
# Poissons Ratio (y) = 0.23763 0.42991
# Poissons Ratio (z) = 0.11438 0.41898
#
# Static dielectric constant tensor:
#      x y z
#    x 1.701580 0.000000 0.000000 
#    y 0.000000 1.697210 0.000000 
#    z 0.000000 0.000000 1.714150 
# 
# From -- ./inp_files/18905.got.cif
#   From: 2010.05.17/outbox.cif.g08.bks.cpg/sg37_10_cif.got.tgz:18905.got - 2010.06.03 17:53:42.
