data_PCOD9353823
_publ_section_title
;
Structure prediction by ZEFSAII (Michael W. Deem and Ramdas Pophale) SiO2 
 PCOD9353823
Probable space group: C C C 2
;
_chemical_formula_sum "Si O2"
_cell_formula_units_Z 48
_cell_length_a 4.963367
_cell_length_b 30.703781
_cell_length_c 14.856776
_cell_angle_alpha 90.000000
_cell_angle_beta 90.000000
_cell_angle_gamma 90.000000
_cell_volume 2264.085503
_symmetry_space_group_name_H-M "C C C 2"
_symmetry_group_IT_number 37
_symmetry_cell_setting 'orthorhombic'
loop_
_space_group_symop_operation_xyz
x,y,z
-x,-y,z
-x,y,1/2+z
x,-y,1/2+z
1/2+x,1/2+y,z
1/2-x,1/2-y,z
1/2-x,1/2+y,1/2+z
1/2+x,1/2-y,1/2+z
loop_
_atom_site_type_symbol
_atom_site_label
_atom_site_fract_x
_atom_site_fract_y
_atom_site_fract_z
Si Si1 0.491051 0.173123 0.381180
Si Si2 0.750000 0.750000 0.259174
Si Si3 0.500000 0.000000 0.257991
Si Si4 0.500000 0.500000 0.122777
Si Si5 0.491058 0.673123 0.999588
Si Si6 0.750000 0.750000 0.621593
Si Si7 0.991731 0.094159 0.626837
Si Si8 0.991731 0.405841 0.253931
O O1 0.338590 0.210939 0.325528
O O2 0.249996 0.153650 0.440384
O O3 0.581260 0.135024 0.314732
O O4 0.749996 0.187816 0.440384
O O5 0.500000 0.750001 0.190384
O O6 0.521413 0.047198 0.304054
O O7 0.250000 0.000000 0.190384
O O8 0.521412 0.547198 0.076714
O O9 0.338597 0.710939 0.055239
O O10 0.581264 0.635024 0.066037
O O11 0.288807 0.096271 0.669318
O O12 0.788807 0.096271 0.711450
#
# Coordination Sequence:
#
# PCOD9353823 Si02
#       8
#     8   4   4   4   8   4   8   8
#     4  12  25  41  61  91 126 157 194 255 321 371
#     4  12  25  44  67  88 112 158 212 254 299 372
#     4   8  16  30  56  86 116 154 204 252 288 338
#     4   8  16  30  56  86 116 154 204 252 288 338
#     4  12  25  41  61  91 126 157 194 255 321 371
#     4  12  25  44  67  88 112 158 212 254 299 372
#     4  10  19  37  61  88 119 161 208 248 292 361
#     4  10  19  37  61  88 119 161 208 248 292 361
#
# _framework density 21.200614000000002
#
# number of rings (size 3 to 8) (size 9 to 14) (size 15 to 20)
#    0.000    1.333    0.000    6.500    0.000    1.333 
#    0.000    1.667    0.000    0.000    0.000    0.000 
#    0.000    0.000    0.000    0.000    0.000    0.000 
#
# Total GULP energy -133754.077292 kJ/mol
# GULP energy per Si atom -5573.086554 kJ/mol
# Density = 2.115236 g / cm^3
# Si number density = 21.200614 Si / 1000 Ang^3
#
#
#
# Elastic Constant Matrix: (Units=GPa)
#
#
# Indices 1 2 3 4 5 6 
#
# 1 127.9400 14.3840 11.3258 0.0000 0.0000 0.0000
# 2 14.3840 167.1048 50.6727 0.0000 0.0000 0.0000
# 3 11.3258 50.6727 52.2580 0.0000 0.0000 0.0000
# 4 0.0000 0.0000 0.0000 -72.5709 0.0000 0.0000
# 5 0.0000 0.0000 0.0000 0.0000 39.8010 0.0000
# 6 0.0000 0.0000 0.0000 0.0000 0.0000 25.2740
#
#
#
# Elastic Compliance Matrix: (Units=1/GPa)
#
#
# Indices 1 2 3 4 5 6 
#
# 1 0.007975 -0.000230 -0.001505 0.000000 0.000000 0.000000
# 2 -0.000230 0.008483 -0.008176 0.000000 0.000000 0.000000
# 3 -0.001505 -0.008176 0.027390 0.000000 0.000000 0.000000
# 4 0.000000 0.000000 0.000000 -0.013780 0.000000 0.000000
# 5 0.000000 0.000000 0.000000 0.000000 0.025125 0.000000
# 6 0.000000 0.000000 0.000000 0.000000 0.000000 0.039566
#
#
# Mechanical properties :
#
#
# Convention : Reuss Voigt Hill
#
# Bulk Modulus (GPa) = 41.62220 55.56311 48.59266
# Shear Modulus (GPa) = 40.78550 16.56217 28.67383
#
# Velocity S-wave (km/s) = 4.39086 2.79805 3.68163
# Velocity P-wave (km/s) = 6.73657 6.05838 6.40645
#
# Compressibility (1/GPa) = 0.02402564
#
# Stress axis : x y z
#
# Youngs Moduli (GPa) = 125.38729 117.87711 36.50931
#
# Poissons Ratio (x) = 0.02711 0.05496
# Poissons Ratio (y) = 0.02884 0.29851
# Poissons Ratio (z) = 0.18877 0.96379
#
# Static dielectric constant tensor:
#      x y z
#    x 1.885090 0.000000 0.000000 
#    y 0.000000 1.871870 0.000000 
#    z 0.000000 0.000000 2.062750 
# 
# From -- ./inp_files/9816.got.cif
#   From: 2010.05.17/outbox.cif.g08.bks.cpg/sg37_5_cif.got.tgz:9816.got - 2010.06.03 17:53:42.
