data_PCOD9353874
_publ_section_title
;
Structure prediction by ZEFSAII (Michael W. Deem and Ramdas Pophale) SiO2 
 PCOD9353874
Probable space group: C C C 2
;
_chemical_formula_sum "Si O2"
_cell_formula_units_Z 56
_cell_length_a 14.783490
_cell_length_b 18.642912
_cell_length_c 10.040641
_cell_angle_alpha 90.000000
_cell_angle_beta 90.000000
_cell_angle_gamma 90.000000
_cell_volume 2767.273988
_symmetry_space_group_name_H-M "C C C 2"
_symmetry_group_IT_number 37
_symmetry_cell_setting 'orthorhombic'
loop_
_space_group_symop_operation_xyz
x,y,z
-x,-y,z
-x,y,1/2+z
x,-y,1/2+z
1/2+x,1/2+y,z
1/2-x,1/2-y,z
1/2-x,1/2+y,1/2+z
1/2+x,1/2-y,1/2+z
loop_
_atom_site_type_symbol
_atom_site_label
_atom_site_fract_x
_atom_site_fract_y
_atom_site_fract_z
Si Si1 0.561169 0.390591 0.535810
Si Si2 0.509185 0.740256 0.684920
Si Si3 0.173042 0.552601 0.999936
Si Si4 0.125870 0.048255 0.559326
Si Si5 0.147918 0.582534 0.307007
Si Si6 0.336400 0.346870 0.783936
Si Si7 0.524221 0.834032 0.423214
O O1 0.540155 0.333700 0.649425
O O2 0.614431 0.463094 0.569772
O O3 0.462091 0.418363 0.489640
O O4 0.616644 0.348477 0.425797
O O5 0.615364 0.718550 0.706666
O O6 0.502640 0.797331 0.565089
O O7 0.464231 0.771126 0.816879
O O8 0.279433 0.570304 0.995512
O O9 0.164220 0.479872 0.915245
O O10 0.109301 0.613792 0.939753
O O11 0.145179 0.548955 0.157326
O O12 0.130606 0.081659 0.706609
O O13 0.229718 0.640689 0.299801
O O14 0.057712 0.621064 0.357747
#
# Coordination Sequence:
#
# PCOD9353874 Si02
#       7
#     8   8   8   8   8   8   8
#     4  10  19  40  67  98 131 175 226 288 344 410
#     4  11  24  44  69  99 138 186 232 276 358 418
#     4  11  24  45  68 105 133 182 234 291 345 416
#     4   9  21  38  66 101 132 174 224 294 350 403
#     4  11  25  44  72  99 137 186 237 293 345 406
#     4  10  21  43  68  97 137 180 236 282 350 422
#     4  12  25  45  68  98 141 187 231 284 344 426
#
# _framework density 20.236522000000001
#
# number of rings (size 3 to 8) (size 9 to 14) (size 15 to 20)
#    0.000    1.429    4.286    0.429    2.000    6.286 
#    2.571    0.000    3.143    0.000    0.000    0.000 
#    0.000    0.000    0.000    0.000    0.000    0.000 
#
# Total GULP energy -156222.407597 kJ/mol
# GULP energy per Si atom -5579.371700 kJ/mol
# Density = 2.019046 g / cm^3
# Si number density = 20.236522 Si / 1000 Ang^3
#
#
#
# Elastic Constant Matrix: (Units=GPa)
#
#
# Indices 1 2 3 4 5 6 
#
# 1 115.6884 40.3205 42.6226 0.0000 0.0000 0.0000
# 2 40.3205 39.0758 35.6328 0.0000 0.0000 0.0000
# 3 42.6226 35.6328 91.5325 0.0000 0.0000 0.0000
# 4 0.0000 0.0000 0.0000 38.2686 0.0000 0.0000
# 5 0.0000 0.0000 0.0000 0.0000 20.7394 0.0000
# 6 0.0000 0.0000 0.0000 0.0000 0.0000 41.3195
#
#
#
# Elastic Compliance Matrix: (Units=1/GPa)
#
#
# Indices 1 2 3 4 5 6 
#
# 1 0.013605 -0.012808 -0.001349 0.000000 0.000000 0.000000
# 2 -0.012808 0.051734 -0.014175 0.000000 0.000000 0.000000
# 3 -0.001349 -0.014175 0.017072 0.000000 0.000000 0.000000
# 4 0.000000 0.000000 0.000000 0.026131 0.000000 0.000000
# 5 0.000000 0.000000 0.000000 0.000000 0.048217 0.000000
# 6 0.000000 0.000000 0.000000 0.000000 0.000000 0.024202
#
#
# Mechanical properties :
#
#
# Convention : Reuss Voigt Hill
#
# Bulk Modulus (GPa) = 38.84220 53.71651 46.27936
# Shear Modulus (GPa) = 20.30812 28.58021 24.44417
#
# Velocity S-wave (km/s) = 3.17130 3.76215 3.47929
# Velocity P-wave (km/s) = 5.71361 6.74341 6.24976
#
# Compressibility (1/GPa) = 0.02574519
#
# Stress axis : x y z
#
# Youngs Moduli (GPa) = 73.50300 19.32982 58.57661
#
# Poissons Ratio (x) = 0.24758 0.07903
# Poissons Ratio (y) = 0.94142 0.83034
# Poissons Ratio (z) = 0.09917 0.27401
#
# Static dielectric constant tensor:
#      x y z
#    x 1.735080 0.000000 0.000000 
#    y 0.000000 1.729220 0.000000 
#    z 0.000000 0.000000 1.736770 
# 
# From -- ./inp_files/3637.got.cif
#   From: 2010.05.17/outbox.cif.g08.bks.cpg/sg37_2_cif.got.tgz:3637.got - 2010.06.03 17:53:42.
