data_PCOD9353783
_publ_section_title
;
Structure prediction by ZEFSAII (Michael W. Deem and Ramdas Pophale) SiO2 
 PCOD9353783
Probable space group: C C C 2
;
_chemical_formula_sum "Si O2"
_cell_formula_units_Z 64
_cell_length_a 5.322082
_cell_length_b 25.686480
_cell_length_c 19.292352
_cell_angle_alpha 90.000000
_cell_angle_beta 90.000000
_cell_angle_gamma 90.000000
_cell_volume 2637.371646
_symmetry_space_group_name_H-M "C C C 2"
_symmetry_group_IT_number 37
_symmetry_cell_setting 'orthorhombic'
loop_
_space_group_symop_operation_xyz
x,y,z
-x,-y,z
-x,y,1/2+z
x,-y,1/2+z
1/2+x,1/2+y,z
1/2-x,1/2-y,z
1/2-x,1/2+y,1/2+z
1/2+x,1/2-y,1/2+z
loop_
_atom_site_type_symbol
_atom_site_label
_atom_site_fract_x
_atom_site_fract_y
_atom_site_fract_z
Si Si1 0.967940 0.862698 0.185490
Si Si2 0.763798 0.387064 0.934814
Si Si3 0.750556 0.515891 0.343850
Si Si4 0.245525 0.937123 0.477538
Si Si5 0.993002 0.718449 0.880744
Si Si6 0.526863 0.180686 0.229582
Si Si7 0.505227 0.263181 0.098404
Si Si8 0.241229 0.969963 0.632738
O O1 0.764156 0.835960 0.235830
O O2 0.812368 0.912729 0.162424
O O3 0.255855 0.862183 0.212218
O O4 0.993246 0.822472 0.121515
O O5 0.758056 0.424350 0.866520
O O6 0.480768 0.395566 0.963823
O O7 0.896629 0.332636 0.919091
O O8 0.974850 0.413958 0.982334
O O9 0.500000 0.500000 0.306153
O O10 0.745396 0.478175 0.413079
O O11 0.000000 0.500000 0.305007
O O12 0.211210 0.964880 0.549859
O O13 0.250000 0.750000 0.871637
O O14 0.750000 0.750000 0.909377
O O15 0.900582 0.701665 0.804165
O O16 0.522832 0.224219 0.166826
O O17 0.750000 0.250000 0.055359
O O18 0.250000 0.250000 0.062153
O O19 0.500000 0.000000 0.646445
O O20 0.000000 0.000000 0.658344
#
# Coordination Sequence:
#
# PCOD9353783 Si02
#       8
#     8   8   8   8   8   8   8   8
#     4  10  20  34  56  85 117 150 191 249 304 348
#     4  10  20  34  56  85 118 150 192 248 302 350
#     4   8  14  27  49  74 101 135 180 233 282 328
#     4  10  19  36  59  84 113 152 199 249 295 353
#     4  12  23  37  60  91 120 157 204 251 303 368
#     4  10  19  36  59  84 113 150 199 250 296 354
#     4   8  14  27  49  73 100 133 177 229 276 324
#     4  12  23  37  60  92 121 157 206 251 300 367
#
# _framework density 24.266582
#
# number of rings (size 3 to 8) (size 9 to 14) (size 15 to 20)
#    0.000    2.000    0.000    7.500    0.000    0.000 
#    0.000    0.000    0.000   22.500    0.000    0.000 
#    0.000    0.000    0.000    0.000    0.000    0.000 
#
# Total GULP energy -178520.471562 kJ/mol
# GULP energy per Si atom -5578.764736 kJ/mol
# Density = 2.421135 g / cm^3
# Si number density = 24.266582 Si / 1000 Ang^3
#
#
#
# Elastic Constant Matrix: (Units=GPa)
#
#
# Indices 1 2 3 4 5 6 
#
# 1 227.1391 51.2922 7.8300 0.0000 0.0000 0.0000
# 2 51.2922 109.3240 18.6655 0.0000 0.0000 0.0000
# 3 7.8300 18.6655 89.2533 0.0000 0.0000 0.0000
# 4 0.0000 0.0000 0.0000 29.0680 0.0000 0.0000
# 5 0.0000 0.0000 0.0000 0.0000 -33.1390 0.0000
# 6 0.0000 0.0000 0.0000 0.0000 0.0000 53.8805
#
#
#
# Elastic Compliance Matrix: (Units=1/GPa)
#
#
# Indices 1 2 3 4 5 6 
#
# 1 0.004925 -0.002320 0.000053 0.000000 0.000000 0.000000
# 2 -0.002320 0.010578 -0.002009 0.000000 0.000000 0.000000
# 3 0.000053 -0.002009 0.011620 0.000000 0.000000 0.000000
# 4 0.000000 0.000000 0.000000 0.034402 0.000000 0.000000
# 5 0.000000 0.000000 0.000000 0.000000 -0.030176 0.000000
# 6 0.000000 0.000000 0.000000 0.000000 0.000000 0.018560
#
#
# Mechanical properties :
#
#
# Convention : Reuss Voigt Hill
#
# Bulk Modulus (GPa) = 53.84467 64.58799 59.21633
# Shear Modulus (GPa) = 77.34034 33.15714 55.24874
#
# Velocity S-wave (km/s) = 5.65158 3.70046 4.77670
# Velocity P-wave (km/s) = 8.05134 6.70311 7.40796
#
# Compressibility (1/GPa) = 0.01857194
#
# Stress axis : x y z
#
# Youngs Moduli (GPa) = 203.06403 94.53257 86.06221
#
# Poissons Ratio (x) = 0.21927 -0.00457
# Poissons Ratio (y) = 0.47102 0.17288
# Poissons Ratio (z) = -0.01078 0.18989
#
# Static dielectric constant tensor:
#      x y z
#    x 2.095880 0.000000 0.000000 
#    y 0.000000 2.128330 0.000000 
#    z 0.000000 0.000000 1.917500 
# 
# From -- ./inp_files/18154.got.cif
#   From: 2010.05.17/outbox.cif.g08.bks.cpg/sg37_10_cif.got.tgz:18154.got - 2010.06.03 17:53:42.
