data_PCOD9353698
_publ_section_title
;
Structure prediction by ZEFSAII (Michael W. Deem and Ramdas Pophale) SiO2 
 PCOD9353698
Probable space group: C C C 2
;
_chemical_formula_sum "Si O2"
_cell_formula_units_Z 40
_cell_length_a 9.682687
_cell_length_b 21.926377
_cell_length_c 7.070730
_cell_angle_alpha 90.000000
_cell_angle_beta 90.000000
_cell_angle_gamma 90.000000
_cell_volume 1501.160139
_symmetry_space_group_name_H-M "C C C 2"
_symmetry_group_IT_number 37
_symmetry_cell_setting 'orthorhombic'
loop_
_space_group_symop_operation_xyz
x,y,z
-x,-y,z
-x,y,1/2+z
x,-y,1/2+z
1/2+x,1/2+y,z
1/2-x,1/2-y,z
1/2-x,1/2+y,1/2+z
1/2+x,1/2-y,1/2+z
loop_
_atom_site_type_symbol
_atom_site_label
_atom_site_fract_x
_atom_site_fract_y
_atom_site_fract_z
Si Si1 0.044127 0.298009 0.420460
Si Si2 0.699097 0.560902 0.677153
Si Si3 0.869311 0.166861 0.904676
Si Si4 0.499021 0.889375 0.665340
Si Si5 0.690624 0.576825 0.106643
O O1 0.030939 0.224652 0.420215
O O2 0.210139 0.309962 0.430565
O O3 0.996930 0.310399 0.666565
O O4 0.989009 0.371549 0.413552
O O5 0.626680 0.607325 0.536118
O O6 0.864021 0.569439 0.648862
O O7 0.650650 0.491735 0.659306
O O8 0.672744 0.583458 0.886102
O O9 0.873707 0.135841 0.701734
O O10 0.350949 0.920929 0.669792
#
# Coordination Sequence:
#
# PCOD9353698 Si02
#       5
#     8   8   8   8   8
#     4   9  18  35  49  73 106 139 176 214 250 310
#     4  11  20  32  52  79 109 140 171 207 261 313
#     4   9  20  35  49  72 110 140 174 215 250 305
#     4  10  19  32  52  76 107 140 170 210 262 314
#     4  11  20  32  52  79 109 140 171 207 261 313
#
# _framework density 26.646059999999999
#
# number of rings (size 3 to 8) (size 9 to 14) (size 15 to 20)
#    0.000    2.000    4.000    0.600    0.000    1.600 
#    3.600    4.000    0.000    0.000    0.000    4.200 
#    0.000    0.000    0.000    0.000    0.000    0.000 
#
# Total GULP energy -111592.579958 kJ/mol
# GULP energy per Si atom -5579.628998 kJ/mol
# Density = 2.658541 g / cm^3
# Si number density = 26.646060 Si / 1000 Ang^3
#
#
#
# Elastic Constant Matrix: (Units=GPa)
#
#
# Indices 1 2 3 4 5 6 
#
# 1 118.3853 23.2407 -13.1487 0.0000 0.0000 0.0000
# 2 23.2407 195.7493 50.9973 0.0000 0.0000 0.0000
# 3 -13.1487 50.9973 142.7307 0.0000 0.0000 0.0000
# 4 0.0000 0.0000 0.0000 1063.0019 0.0000 0.0000
# 5 0.0000 0.0000 0.0000 0.0000 28.4800 0.0000
# 6 0.0000 0.0000 0.0000 0.0000 0.0000 18.5371
#
#
#
# Elastic Compliance Matrix: (Units=1/GPa)
#
#
# Indices 1 2 3 4 5 6 
#
# 1 0.008867 -0.001395 0.001315 0.000000 0.000000 0.000000
# 2 -0.001395 0.005853 -0.002220 0.000000 0.000000 0.000000
# 3 0.001315 -0.002220 0.007920 0.000000 0.000000 0.000000
# 4 0.000000 0.000000 0.000000 0.000941 0.000000 0.000000
# 5 0.000000 0.000000 0.000000 0.000000 0.035112 0.000000
# 6 0.000000 0.000000 0.000000 0.000000 0.000000 0.053946
#
#
# Mechanical properties :
#
#
# Convention : Reuss Voigt Hill
#
# Bulk Modulus (GPa) = 55.43017 64.33819 59.88418
# Shear Modulus (GPa) = 40.56731 248.38885 144.47808
#
# Velocity S-wave (km/s) = 3.90609 9.66541 7.37149
# Velocity P-wave (km/s) = 6.41802 12.19665 9.74549
#
# Compressibility (1/GPa) = 0.01804072
#
# Stress axis : x y z
#
# Youngs Moduli (GPa) = 112.77712 170.86645 126.25531
#
# Poissons Ratio (x) = 0.23844 -0.16608
# Poissons Ratio (y) = 0.15738 0.28024
# Poissons Ratio (z) = -0.14835 0.37926
#
# Static dielectric constant tensor:
#      x y z
#    x 2.031090 0.000000 0.000000 
#    y 0.000000 0.022170 0.000000 
#    z 0.000000 0.000000 3.094770 
# 
# From -- ./inp_files/2703.got.cif
#   From: 2010.05.17/outbox.cif.g08.bks.cpg/sg37_2_cif.got.tgz:2703.got - 2010.06.03 17:53:42.
