data_PCOD9353963
_publ_section_title
;
Structure prediction by ZEFSAII (Michael W. Deem and Ramdas Pophale) SiO2 
 PCOD9353963
Probable space group: C C C 2
;
_chemical_formula_sum "Si O2"
_cell_formula_units_Z 64
_cell_length_a 18.620829
_cell_length_b 17.247868
_cell_length_c 9.452127
_cell_angle_alpha 90.000000
_cell_angle_beta 90.000000
_cell_angle_gamma 90.000000
_cell_volume 3035.735854
_symmetry_space_group_name_H-M "C C C 2"
_symmetry_group_IT_number 37
_symmetry_cell_setting 'orthorhombic'
loop_
_space_group_symop_operation_xyz
x,y,z
-x,-y,z
-x,y,1/2+z
x,-y,1/2+z
1/2+x,1/2+y,z
1/2-x,1/2-y,z
1/2-x,1/2+y,1/2+z
1/2+x,1/2-y,1/2+z
loop_
_atom_site_type_symbol
_atom_site_label
_atom_site_fract_x
_atom_site_fract_y
_atom_site_fract_z
Si Si1 0.178367 0.133835 0.500000
Si Si2 0.811333 0.143628 0.321422
Si Si3 0.175974 0.583491 0.487361
Si Si4 0.302023 0.063813 0.314432
Si Si5 0.091125 0.261631 0.999749
Si Si6 0.329416 0.235636 0.278420
Si Si7 0.981886 0.850797 0.570926
Si Si8 0.948897 0.929881 0.840835
O O1 0.208862 0.150530 0.656604
O O2 0.228110 0.079545 0.402269
O O3 0.172407 0.213577 0.416347
O O4 0.094245 0.114370 0.518140
O O5 0.743328 0.128063 0.417792
O O6 0.859857 0.213586 0.386605
O O7 0.864112 0.068602 0.320138
O O8 0.161430 0.509160 0.389280
O O9 0.200293 0.554788 0.643974
O O10 0.112120 0.647585 0.490077
O O11 0.340880 0.147116 0.322303
O O12 0.117560 0.237918 0.156838
O O13 0.008492 0.231914 0.009104
O O14 0.250000 0.250000 0.213005
O O15 0.976362 0.860387 0.738226
O O16 0.039883 0.908023 0.503406
O O17 0.000000 0.000000 0.803702
#
# Coordination Sequence:
#
# PCOD9353963 Si02
#       8
#     8   8   8   8   8   8   8   8
#     4  10  20  35  56  86 119 150 198 244 294 357
#     4  10  21  34  53  82 114 154 195 241 291 344
#     4  11  22  38  58  85 119 151 202 248 307 354
#     4  10  22  36  56  86 117 153 190 251 309 355
#     4  10  20  37  57  79 112 159 201 244 289 356
#     4   9  18  35  58  82 109 151 194 250 303 353
#     4  10  21  36  55  81 112 157 203 234 283 354
#     4  10  21  35  51  78 115 157 195 238 287 345
#
# _framework density 21.082203
#
# number of rings (size 3 to 8) (size 9 to 14) (size 15 to 20)
#    0.000    2.000    0.000    4.500    1.750    5.000 
#    2.250    0.000    0.000    0.750    0.000    3.500 
#    0.000    0.000    0.000    0.000    0.000    0.000 
#
# Total GULP energy -178167.979680 kJ/mol
# GULP energy per Si atom -5567.749365 kJ/mol
# Density = 2.103422 g / cm^3
# Si number density = 21.082203 Si / 1000 Ang^3
#
#
#
# Elastic Constant Matrix: (Units=GPa)
#
#
# Indices 1 2 3 4 5 6 
#
# 1 35.5504 6.7402 5.2396 0.0000 0.0000 0.0000
# 2 6.7402 93.0079 35.6687 0.0000 0.0000 0.0000
# 3 5.2396 35.6687 132.2417 0.0000 0.0000 0.0000
# 4 0.0000 0.0000 0.0000 26.6579 0.0000 0.0000
# 5 0.0000 0.0000 0.0000 0.0000 19.0013 0.0000
# 6 0.0000 0.0000 0.0000 0.0000 0.0000 28.4997
#
#
#
# Elastic Compliance Matrix: (Units=1/GPa)
#
#
# Indices 1 2 3 4 5 6 
#
# 1 0.028569 -0.001825 -0.000640 0.000000 0.000000 0.000000
# 2 -0.001825 0.012109 -0.003194 0.000000 0.000000 0.000000
# 3 -0.000640 -0.003194 0.008449 0.000000 0.000000 0.000000
# 4 0.000000 0.000000 0.000000 0.037512 0.000000 0.000000
# 5 0.000000 0.000000 0.000000 0.000000 0.052628 0.000000
# 6 0.000000 0.000000 0.000000 0.000000 0.000000 0.035088
#
#
# Mechanical properties :
#
#
# Convention : Reuss Voigt Hill
#
# Bulk Modulus (GPa) = 26.44806 39.56633 33.00719
# Shear Modulus (GPa) = 25.21741 29.04187 27.12964
#
# Velocity S-wave (km/s) = 3.46229 3.71557 3.59116
# Velocity P-wave (km/s) = 5.34375 6.10046 5.73460
#
# Compressibility (1/GPa) = 0.03780995
#
# Stress axis : x y z
#
# Youngs Moduli (GPa) = 35.00247 82.58434 118.36165
#
# Poissons Ratio (x) = 0.15072 0.07572
# Poissons Ratio (y) = 0.06388 0.37801
# Poissons Ratio (z) = 0.02239 0.26375
#
# Static dielectric constant tensor:
#      x y z
#    x 1.861110 0.000000 0.000000 
#    y 0.000000 1.837370 0.000000 
#    z 0.000000 0.000000 1.776460 
# 
# From -- ./inp_files/4446.got.cif
#   From: 2010.05.17/outbox.cif.g08.bks.cpg/sg37_3_cif.got.tgz:4446.got - 2010.06.03 17:53:42.
