data_PCOD9353373
_publ_section_title
;
Structure prediction by ZEFSAII (Michael W. Deem and Ramdas Pophale) SiO2 
 PCOD9353373
Probable space group: C M C 21
;
_chemical_formula_sum "Si O2"
_cell_formula_units_Z 32
_cell_length_a 9.000000
_cell_length_b 30.000000
_cell_length_c 12.000000
_cell_angle_alpha 90.000000
_cell_angle_beta 90.000000
_cell_angle_gamma 90.000000
_cell_volume 3240.000000
_symmetry_space_group_name_H-M "C M C 21"
_symmetry_group_IT_number 36
_symmetry_cell_setting 'orthorhombic'
loop_
_space_group_symop_operation_xyz
x,y,z
-x,-y,1/2+z
x,-y,1/2+z
-x,y,z
1/2+x,1/2+y,z
1/2-x,1/2-y,1/2+z
1/2+x,1/2-y,1/2+z
1/2-x,1/2+y,z
loop_
_atom_site_type_symbol
_atom_site_label
_atom_site_fract_x
_atom_site_fract_y
_atom_site_fract_z
Si Si1 0.177824 0.402701 0.098460
Si Si2 0.820083 0.478634 0.943118
Si Si3 0.682298 0.074673 0.996969
Si Si4 0.173833 0.818889 0.013518
Si Si5 0.678961 0.146017 0.829143
Si Si6 0.175536 0.687299 0.291618
Si Si7 0.679657 0.084363 0.245819
Si Si8 0.823529 0.732249 0.708601
O O1 0.274968 0.370262 0.021382
O O2 0.210180 0.386570 0.223649
O O3 0.000000 0.395104 0.078992
O O4 0.209371 0.452963 0.059679
O O5 0.768826 0.529317 0.937285
O O6 0.764134 0.447425 0.843555
O O7 0.000000 0.480406 0.934918
O O8 0.500000 0.075848 0.995429
O O9 0.733497 0.119765 0.936977
O O10 0.731315 0.071117 0.123825
O O11 0.284767 0.795090 0.098315
O O12 0.000000 0.813664 0.039715
O O13 0.216569 0.800935 0.893455
O O14 0.500000 0.149100 0.834963
O O15 0.727989 0.196407 0.803384
O O16 0.208919 0.636575 0.260752
O O17 0.224407 0.723735 0.202776
O O18 0.000000 0.690480 0.317812
O O19 0.500000 0.080281 0.247665
O O20 0.000000 0.740646 0.717567
#
# Coordination Sequence:
#
# PCOD9353373 Si02
#       8
#     8   8   8   8   8   8   8   8
#     4   9  16  30  50  73 104 139 175 226 278 323
#     4   9  16  26  45  72 105 143 179 221 274 334
#     4   9  17  27  44  75 111 144 181 222 278 341
#     4  11  21  35  55  80 106 141 188 235 285 337
#     4   8  16  29  46  70 106 144 177 226 279 326
#     4  11  21  36  56  80 114 149 187 235 290 343
#     4   9  18  30  45  73 112 147 179 227 282 333
#     4  10  21  37  56  81 112 147 192 236 288 345
#
# _framework density 9.8765429999999999
#
# number of rings (size 3 to 8) (size 9 to 14) (size 15 to 20)
#    0.000    2.500    1.250    2.625    1.750    1.000 
#    0.000    2.500    0.000    0.000    0.000   10.500 
#    0.000    0.000    0.000    0.000    0.000    0.000 
#
# Total GULP energy -178157.648710 kJ/mol
# GULP energy per Si atom -5567.426522 kJ/mol
# Density = 0.985406 g / cm^3
# Si number density = 9.876543 Si / 1000 Ang^3
#
#
#
# Elastic Constant Matrix: (Units=GPa)
#
#
# Indices 1 2 3 4 5 6 
#
# 1 25.2373 12.8012 0.8981 0.0000 0.0000 0.0000
# 2 12.8012 68.9257 23.5465 0.0000 0.0000 0.0000
# 3 0.8981 23.5465 45.1566 0.0000 0.0000 0.0000
# 4 0.0000 0.0000 0.0000 12.6337 0.0000 0.0000
# 5 0.0000 0.0000 0.0000 0.0000 11.2228 0.0000
# 6 0.0000 0.0000 0.0000 0.0000 0.0000 15.4148
#
#
#
# Elastic Compliance Matrix: (Units=1/GPa)
#
#
# Indices 1 2 3 4 5 6 
#
# 1 0.044377 -0.009661 0.004155 0.000000 0.000000 0.000000
# 2 -0.009661 0.019756 -0.010110 0.000000 0.000000 0.000000
# 3 0.004155 -0.010110 0.027334 0.000000 0.000000 0.000000
# 4 0.000000 0.000000 0.000000 0.079153 0.000000 0.000000
# 5 0.000000 0.000000 0.000000 0.000000 0.089105 0.000000
# 6 0.000000 0.000000 0.000000 0.000000 0.000000 0.064873
#
#
# Mechanical properties :
#
#
# Convention : Reuss Voigt Hill
#
# Bulk Modulus (GPa) = 16.60148 23.75679 20.17914
# Shear Modulus (GPa) = 13.30113 14.65917 13.98015
#
# Velocity S-wave (km/s) = 2.59775 2.72714 2.66323
# Velocity P-wave (km/s) = 4.17379 4.68715 4.43790
#
# Compressibility (1/GPa) = 0.06023560
#
# Stress axis : x y z
#
# Youngs Moduli (GPa) = 22.53437 50.61648 36.58437
#
# Poissons Ratio (x) = 0.48903 -0.15202
# Poissons Ratio (y) = 0.21771 0.36985
# Poissons Ratio (z) = -0.09364 0.51171
#
# Static dielectric constant tensor:
#      x y z
#    x 1.642820 0.000000 0.000000 
#    y 0.000000 1.742350 0.000000 
#    z 0.000000 0.000000 1.754020 
# 
# From -- ./inp_files/7233.got.cif
#   From: 2010.05.17/outbox.ucp.g08.bks.cvg/sg36_4_cif.got.tgz:7233.got - 2010.06.11 10:37:26.
