data_PCOD9353858
_publ_section_title
;
Structure prediction by ZEFSAII (Michael W. Deem and Ramdas Pophale) SiO2 
 PCOD9353858
Probable space group: C C C 2
;
_chemical_formula_sum "Si O2"
_cell_formula_units_Z 64
_cell_length_a 9.512440
_cell_length_b 17.704873
_cell_length_c 19.939060
_cell_angle_alpha 90.000000
_cell_angle_beta 90.000000
_cell_angle_gamma 90.000000
_cell_volume 3358.067538
_symmetry_space_group_name_H-M "C C C 2"
_symmetry_group_IT_number 37
_symmetry_cell_setting 'orthorhombic'
loop_
_space_group_symop_operation_xyz
x,y,z
-x,-y,z
-x,y,1/2+z
x,-y,1/2+z
1/2+x,1/2+y,z
1/2-x,1/2-y,z
1/2-x,1/2+y,1/2+z
1/2+x,1/2-y,1/2+z
loop_
_atom_site_type_symbol
_atom_site_label
_atom_site_fract_x
_atom_site_fract_y
_atom_site_fract_z
Si Si1 0.642465 0.593211 0.384100
Si Si2 0.479934 0.766829 0.036380
Si Si3 0.350377 0.532289 0.575874
Si Si4 0.841267 0.920465 0.921092
Si Si5 0.817011 0.667033 0.145399
Si Si6 0.885196 0.299984 0.392997
Si Si7 0.147605 0.322840 0.293769
Si Si8 0.793937 0.867125 0.534315
O O1 0.658103 0.504165 0.392279
O O2 0.477162 0.615347 0.383365
O O3 0.746865 0.617045 0.326302
O O4 0.692861 0.627179 0.454301
O O5 0.585322 0.811918 0.083400
O O6 0.340699 0.816021 0.043435
O O7 0.430392 0.682142 0.057445
O O8 0.546242 0.767734 0.961820
O O9 0.500000 0.500000 0.600655
O O10 0.368862 0.568390 0.500989
O O11 0.278334 0.595603 0.622496
O O12 0.273352 0.451231 0.563660
O O13 0.694730 0.878282 0.910675
O O14 0.750000 0.750000 0.155896
O O15 0.887439 0.653247 0.217710
O O16 0.750000 0.250000 0.371804
O O17 0.008701 0.309619 0.338667
O O18 0.250000 0.250000 0.295998
#
# Coordination Sequence:
#
# PCOD9353858 Si02
#       8
#     8   8   8   8   8   8   8   8
#     4  10  19  39  62  89 127 162 208 256 326 373
#     4  11  21  37  63  93 123 163 218 267 327 377
#     4  11  20  38  62  96 127 159 211 269 326 377
#     4  10  20  35  63  97 124 155 210 279 310 371
#     4  11  25  42  63  90 129 171 210 265 329 395
#     4  12  23  36  65  96 124 164 221 273 318 374
#     4  11  24  44  62  87 130 175 210 259 325 401
#     4  10  20  35  62  94 121 162 208 272 314 379
#
# _framework density 19.058579999999999
#
# number of rings (size 3 to 8) (size 9 to 14) (size 15 to 20)
#    0.000    1.250    5.000    3.375    0.000    1.000 
#    4.500    2.500    0.000    0.000    0.000    0.000 
#    0.000    0.000    0.000    0.000    0.000    0.000 
#
# Total GULP energy -178212.037897 kJ/mol
# GULP energy per Si atom -5569.126184 kJ/mol
# Density = 1.901520 g / cm^3
# Si number density = 19.058580 Si / 1000 Ang^3
#
#
#
# Elastic Constant Matrix: (Units=GPa)
#
#
# Indices 1 2 3 4 5 6 
#
# 1 99.4786 50.8894 50.8883 0.0000 0.0000 0.0000
# 2 50.8894 95.3529 37.3603 0.0000 0.0000 0.0000
# 3 50.8883 37.3603 105.4725 0.0000 0.0000 0.0000
# 4 0.0000 0.0000 0.0000 20.4563 0.0000 0.0000
# 5 0.0000 0.0000 0.0000 0.0000 20.1751 0.0000
# 6 0.0000 0.0000 0.0000 0.0000 0.0000 41.2682
#
#
#
# Elastic Compliance Matrix: (Units=1/GPa)
#
#
# Indices 1 2 3 4 5 6 
#
# 1 0.016188 -0.006478 -0.005516 0.000000 0.000000 0.000000
# 2 -0.006478 0.014770 -0.002106 0.000000 0.000000 0.000000
# 3 -0.005516 -0.002106 0.012888 0.000000 0.000000 0.000000
# 4 0.000000 0.000000 0.000000 0.048885 0.000000 0.000000
# 5 0.000000 0.000000 0.000000 0.000000 0.049566 0.000000
# 6 0.000000 0.000000 0.000000 0.000000 0.000000 0.024232
#
#
# Mechanical properties :
#
#
# Convention : Reuss Voigt Hill
#
# Bulk Modulus (GPa) = 63.91356 64.28666 64.10011
# Shear Modulus (GPa) = 25.00691 27.12431 26.06561
#
# Velocity S-wave (km/s) = 3.62623 3.77663 3.70220
# Velocity P-wave (km/s) = 7.15128 7.26785 7.20980
#
# Compressibility (1/GPa) = 0.01564613
#
# Stress axis : x y z
#
# Youngs Moduli (GPa) = 61.77401 67.70465 77.58939
#
# Poissons Ratio (x) = 0.43862 0.42796
# Poissons Ratio (y) = 0.40020 0.16341
# Poissons Ratio (z) = 0.34072 0.14259
#
# Static dielectric constant tensor:
#      x y z
#    x 1.684220 0.000000 0.000000 
#    y 0.000000 1.708490 0.000000 
#    z 0.000000 0.000000 1.671060 
# 
# From -- ./inp_files/16566.got.cif
#   From: 2010.05.17/outbox.cif.g08.bks.cpg/sg37_9_cif.got.tgz:16566.got - 2010.06.03 17:53:42.
