data_PCOD9353078
_publ_section_title
;
Structure prediction by ZEFSAII (Michael W. Deem and Ramdas Pophale) SiO2 
 PCOD9353078
Probable space group: C M C 21
;
_chemical_formula_sum "Si O2"
_cell_formula_units_Z 56
_cell_length_a 22.282248
_cell_length_b 6.737180
_cell_length_c 12.715736
_cell_angle_alpha 90.000000
_cell_angle_beta 90.000000
_cell_angle_gamma 90.000000
_cell_volume 1908.880129
_symmetry_space_group_name_H-M "C M C 21"
_symmetry_group_IT_number 36
_symmetry_cell_setting 'orthorhombic'
loop_
_space_group_symop_operation_xyz
x,y,z
-x,-y,1/2+z
x,-y,1/2+z
-x,y,z
1/2+x,1/2+y,z
1/2-x,1/2-y,1/2+z
1/2+x,1/2-y,1/2+z
1/2-x,1/2+y,z
loop_
_atom_site_type_symbol
_atom_site_label
_atom_site_fract_x
_atom_site_fract_y
_atom_site_fract_z
Si Si1 0.936591 0.770983 0.787390
Si Si2 0.105381 0.650043 0.248048
Si Si3 0.257202 0.012877 0.286837
Si Si4 0.335688 0.384476 0.622332
Si Si5 0.397275 0.820151 0.511568
Si Si6 0.570940 0.714752 0.963351
Si Si7 0.258688 0.239676 0.955277
O O1 0.937442 0.534673 0.768511
O O2 0.879818 0.827725 0.718245
O O3 0.000000 0.860625 0.753073
O O4 0.929508 0.782170 0.912825
O O5 0.172981 0.563397 0.259565
O O6 0.091464 0.726999 0.133005
O O7 0.093479 0.800081 0.343083
O O8 0.212253 0.987827 0.187682
O O9 0.244204 0.009952 0.422881
O O10 0.260546 0.762122 0.316586
O O11 0.386846 0.420706 0.534782
O O12 0.291208 0.252115 0.549171
O O13 0.326406 0.789618 0.494412
O O14 0.413599 0.056826 0.498870
O O15 0.500000 0.686188 0.973152
#
# Coordination Sequence:
#
# PCOD9353078 Si02
#       7
#     8   8   8   8   8   8   8
#     4  11  23  39  63  97 139 185 236 287 348 418
#     4  11  20  36  62 101 137 176 228 296 352 399
#     4  12  24  41  65 100 144 181 228 286 345 421
#     4  12  23  40  64  94 135 186 226 280 362 418
#     4  11  20  36  62 101 137 176 228 296 352 399
#     4  11  23  39  63  97 139 185 236 287 348 418
#     4  12  24  41  65 100 144 181 228 286 345 421
#
# _framework density 29.336573000000001
#
# number of rings (size 3 to 8) (size 9 to 14) (size 15 to 20)
#    0.000    0.571    8.571    2.143    0.000    2.857 
#    0.000    0.000    0.000    3.429    0.000    0.000 
#    0.000    0.000    0.000    0.000    0.000    0.000 
#
# Total GULP energy -156904.278210 kJ/mol
# GULP energy per Si atom -5603.724222 kJ/mol
# Density = 2.926980 g / cm^3
# Si number density = 29.336573 Si / 1000 Ang^3
#
#
#
# Elastic Constant Matrix: (Units=GPa)
#
#
# Indices 1 2 3 4 5 6 
#
# 1 271.9423 48.6399 95.3116 0.0000 0.0000 0.0000
# 2 48.6399 159.3448 75.5237 0.0000 0.0000 0.0000
# 3 95.3116 75.5237 269.2370 0.0000 0.0000 0.0000
# 4 0.0000 0.0000 0.0000 60.4987 0.0000 0.0000
# 5 0.0000 0.0000 0.0000 0.0000 -33.2983 0.0000
# 6 0.0000 0.0000 0.0000 0.0000 0.0000 38.5093
#
#
#
# Elastic Compliance Matrix: (Units=1/GPa)
#
#
# Indices 1 2 3 4 5 6 
#
# 1 0.004260 -0.000675 -0.001319 0.000000 0.000000 0.000000
# 2 -0.000675 0.007345 -0.001821 0.000000 0.000000 0.000000
# 3 -0.001319 -0.001821 0.004692 0.000000 0.000000 0.000000
# 4 0.000000 0.000000 0.000000 0.016529 0.000000 0.000000
# 5 0.000000 0.000000 0.000000 0.000000 -0.030032 0.000000
# 6 0.000000 0.000000 0.000000 0.000000 0.000000 0.025968
#
#
# Mechanical properties :
#
#
# Convention : Reuss Voigt Hill
#
# Bulk Modulus (GPa) = 115.38715 126.60825 120.99770
# Shear Modulus (GPa) = 127.28381 45.21187 86.24784
#
# Velocity S-wave (km/s) = 6.59406 3.93000 5.42801
# Velocity P-wave (km/s) = 9.86879 7.99025 8.97878
#
# Compressibility (1/GPa) = 0.00866648
#
# Stress axis : x y z
#
# Youngs Moduli (GPa) = 234.72871 136.14544 213.13302
#
# Poissons Ratio (x) = 0.09196 0.28106
# Poissons Ratio (y) = 0.15854 0.38817
# Poissons Ratio (z) = 0.30953 0.24796
#
# Static dielectric constant tensor:
#      x y z
#    x 2.120900 0.000000 0.000000 
#    y 0.000000 2.563700 0.000000 
#    z 0.000000 0.000000 2.218180 
# 
# From -- ./inp_files/9217.got.cif
#   From: 2010.05.17/outbox.cif.g08.bks.cpg/sg36_5_cif.got.tgz:9217.got - 2010.06.03 17:41:39.
