data_PCOD9353856
_publ_section_title
;
Structure prediction by ZEFSAII (Michael W. Deem and Ramdas Pophale) SiO2 
 PCOD9353856
Probable space group: C C C 2
;
_chemical_formula_sum "Si O2"
_cell_formula_units_Z 60
_cell_length_a 15.100027
_cell_length_b 14.134154
_cell_length_c 14.211351
_cell_angle_alpha 90.000000
_cell_angle_beta 90.000000
_cell_angle_gamma 90.000000
_cell_volume 3033.073319
_symmetry_space_group_name_H-M "C C C 2"
_symmetry_group_IT_number 37
_symmetry_cell_setting 'orthorhombic'
loop_
_space_group_symop_operation_xyz
x,y,z
-x,-y,z
-x,y,1/2+z
x,-y,1/2+z
1/2+x,1/2+y,z
1/2-x,1/2-y,z
1/2-x,1/2+y,1/2+z
1/2+x,1/2-y,1/2+z
loop_
_atom_site_type_symbol
_atom_site_label
_atom_site_fract_x
_atom_site_fract_y
_atom_site_fract_z
Si Si1 0.333095 0.584956 0.239290
Si Si2 0.682234 0.135886 0.376961
Si Si3 0.909402 0.456834 0.948640
Si Si4 0.699104 0.368927 0.724484
Si Si5 0.931490 0.740345 0.718922
Si Si6 0.386089 0.189535 0.292773
Si Si7 0.750000 0.750000 0.049662
Si Si8 0.202751 0.660743 0.076178
O O1 0.278319 0.610453 0.333866
O O2 0.340139 0.472970 0.228741
O O3 0.422010 0.646514 0.229208
O O4 0.269510 0.624997 0.156423
O O5 0.629741 0.201299 0.303817
O O6 0.692825 0.185863 0.478058
O O7 0.626885 0.040216 0.383705
O O8 0.920181 0.361844 0.886665
O O9 0.000000 0.500000 0.990225
O O10 0.830943 0.428159 0.018280
O O11 0.652617 0.296038 0.796823
O O12 0.803547 0.370005 0.751686
O O13 0.696765 0.318290 0.621923
O O14 0.884198 0.703616 0.625408
O O15 0.028976 0.699428 0.726669
O O16 0.250000 0.750000 0.025417
#
# Coordination Sequence:
#
# PCOD9353856 Si02
#       8
#     8   8   8   8   8   8   4   8
#     4  10  19  39  61  86 112 165 207 242 314 378
#     4  11  19  34  59  87 118 150 197 253 303 372
#     4  12  23  35  57  93 122 160 204 250 319 368
#     4  10  23  39  61  85 123 167 206 250 321 377
#     4  10  20  39  60  84 120 153 202 258 307 364
#     4  10  22  39  56  86 121 160 199 258 309 379
#     4  10  20  36  58  92 116 150 204 268 296 364
#     4   9  22  37  58  85 121 161 200 254 312 377
#
# _framework density 19.781915000000001
#
# number of rings (size 3 to 8) (size 9 to 14) (size 15 to 20)
#    0.000    1.867    4.000    1.600    1.867    3.733 
#    0.000    0.000    0.000    0.000    6.933    0.000 
#    0.000    0.000    0.000    0.000    0.000    0.000 
#
# Total GULP energy -167204.867185 kJ/mol
# GULP energy per Si atom -5573.495573 kJ/mol
# Density = 1.973689 g / cm^3
# Si number density = 19.781915 Si / 1000 Ang^3
#
#
#
# Elastic Constant Matrix: (Units=GPa)
#
#
# Indices 1 2 3 4 5 6 
#
# 1 39.7414 -2.2818 0.0624 0.0000 0.0000 0.0000
# 2 -2.2818 113.4061 12.4656 0.0000 0.0000 0.0000
# 3 0.0624 12.4656 41.9251 0.0000 0.0000 0.0000
# 4 0.0000 0.0000 0.0000 25.3004 0.0000 0.0000
# 5 0.0000 0.0000 0.0000 0.0000 3.5103 0.0000
# 6 0.0000 0.0000 0.0000 0.0000 0.0000 16.0935
#
#
#
# Elastic Compliance Matrix: (Units=1/GPa)
#
#
# Indices 1 2 3 4 5 6 
#
# 1 0.025193 0.000528 -0.000195 0.000000 0.000000 0.000000
# 2 0.000528 0.009127 -0.002714 0.000000 0.000000 0.000000
# 3 -0.000195 -0.002714 0.024659 0.000000 0.000000 0.000000
# 4 0.000000 0.000000 0.000000 0.039525 0.000000 0.000000
# 5 0.000000 0.000000 0.000000 0.000000 0.284876 0.000000
# 6 0.000000 0.000000 0.000000 0.000000 0.000000 0.062137
#
#
# Mechanical properties :
#
#
# Convention : Reuss Voigt Hill
#
# Bulk Modulus (GPa) = 18.44403 23.95168 21.19785
# Shear Modulus (GPa) = 10.67573 21.30260 15.98917
#
# Velocity S-wave (km/s) = 2.32560 3.28513 2.84610
# Velocity P-wave (km/s) = 4.06880 5.15011 4.64106
#
# Compressibility (1/GPa) = 0.05421808
#
# Stress axis : x y z
#
# Youngs Moduli (GPa) = 39.69311 109.56653 40.55237
#
# Poissons Ratio (x) = -0.05788 0.00789
# Poissons Ratio (y) = -0.02097 0.11008
# Poissons Ratio (z) = 0.00772 0.29742
#
# Static dielectric constant tensor:
#      x y z
#    x 1.710570 0.000000 0.000000 
#    y 0.000000 1.714660 0.000000 
#    z 0.000000 0.000000 1.711560 
# 
# From -- ./inp_files/12263.got.cif
#   From: 2010.05.17/outbox.cif.g08.bks.cpg/sg37_7_cif.got.tgz:12263.got - 2010.06.03 17:53:42.
