data_PCOD9353392
_publ_section_title
;
Structure prediction by ZEFSAII (Michael W. Deem and Ramdas Pophale) SiO2 
 PCOD9353392
Probable space group: C M C 21
;
_chemical_formula_sum "Si O2"
_cell_formula_units_Z 28
_cell_length_a 15.000000
_cell_length_b 12.000000
_cell_length_c 15.000000
_cell_angle_alpha 90.000000
_cell_angle_beta 90.000000
_cell_angle_gamma 90.000000
_cell_volume 2700.000000
_symmetry_space_group_name_H-M "C M C 21"
_symmetry_group_IT_number 36
_symmetry_cell_setting 'orthorhombic'
loop_
_space_group_symop_operation_xyz
x,y,z
-x,-y,1/2+z
x,-y,1/2+z
-x,y,z
1/2+x,1/2+y,z
1/2-x,1/2-y,1/2+z
1/2+x,1/2-y,1/2+z
1/2-x,1/2+y,z
loop_
_atom_site_type_symbol
_atom_site_label
_atom_site_fract_x
_atom_site_fract_y
_atom_site_fract_z
Si Si1 0.684320 0.497629 0.658240
Si Si2 0.893904 0.750567 0.834333
Si Si3 0.396965 0.155033 0.022622
Si Si4 0.315760 0.071930 0.514606
Si Si5 0.604457 0.747188 0.135750
Si Si6 0.605890 0.272274 0.202042
Si Si7 0.225972 0.609455 0.313438
O O1 0.725420 0.534920 0.563949
O O2 0.635331 0.380488 0.643302
O O3 0.623272 0.596243 0.696108
O O4 0.762118 0.475608 0.731426
O O5 0.880042 0.700880 0.734949
O O6 0.827713 0.854683 0.834229
O O7 0.000000 0.775481 0.839193
O O8 0.865030 0.683328 0.922677
O O9 0.500000 0.185559 0.021326
O O10 0.360130 0.222113 0.107027
O O11 0.384525 0.025232 0.040161
O O12 0.344441 0.187000 0.559316
O O13 0.311660 0.073748 0.408289
O O14 0.500000 0.752049 0.117367
O O15 0.500000 0.249055 0.213873
O O16 0.666103 0.211200 0.275962
#
# Coordination Sequence:
#
# PCOD9353392 Si02
#       7
#     8   8   8   8   8   8   8
#     4  11  23  43  67  98 125 176 221 274 327 392
#     4   9  20  39  65  91 126 170 218 268 324 394
#     4  10  22  40  64  96 132 174 221 269 330 398
#     4  12  25  38  65  97 134 174 217 274 329 394
#     4  10  23  43  65  93 129 169 218 271 328 389
#     4  11  24  44  68  98 135 173 221 277 331 395
#     4  11  25  41  66  95 137 174 221 275 338 390
#
# _framework density 10.370369999999999
#
# number of rings (size 3 to 8) (size 9 to 14) (size 15 to 20)
#    0.000    1.429    1.429    3.429    6.000    1.714 
#    0.000    0.714    0.000    3.429    0.000    0.000 
#    0.000    0.000    0.000    0.000    0.000    0.000 
#
# Total GULP energy -156179.781618 kJ/mol
# GULP energy per Si atom -5577.849344 kJ/mol
# Density = 1.034677 g / cm^3
# Si number density = 10.370370 Si / 1000 Ang^3
#
#
#
# Elastic Constant Matrix: (Units=GPa)
#
#
# Indices 1 2 3 4 5 6 
#
# 1 45.2806 25.2834 19.5356 0.0000 0.0000 0.0000
# 2 25.2834 96.9512 31.4799 0.0000 0.0000 0.0000
# 3 19.5356 31.4799 99.7752 0.0000 0.0000 0.0000
# 4 0.0000 0.0000 0.0000 22.8518 0.0000 0.0000
# 5 0.0000 0.0000 0.0000 0.0000 21.9487 0.0000
# 6 0.0000 0.0000 0.0000 0.0000 0.0000 24.6175
#
#
#
# Elastic Compliance Matrix: (Units=1/GPa)
#
#
# Indices 1 2 3 4 5 6 
#
# 1 0.026842 -0.005898 -0.003395 0.000000 0.000000 0.000000
# 2 -0.005898 0.012788 -0.002880 0.000000 0.000000 0.000000
# 3 -0.003395 -0.002880 0.011596 0.000000 0.000000 0.000000
# 4 0.000000 0.000000 0.000000 0.043760 0.000000 0.000000
# 5 0.000000 0.000000 0.000000 0.000000 0.045561 0.000000
# 6 0.000000 0.000000 0.000000 0.000000 0.000000 0.040622
#
#
# Mechanical properties :
#
#
# Convention : Reuss Voigt Hill
#
# Bulk Modulus (GPa) = 37.20115 43.84498 40.52306
# Shear Modulus (GPa) = 23.31291 24.93081 24.12186
#
# Velocity S-wave (km/s) = 3.35627 3.47078 3.41401
# Velocity P-wave (km/s) = 5.74409 6.10305 5.92629
#
# Compressibility (1/GPa) = 0.02688089
#
# Stress axis : x y z
#
# Youngs Moduli (GPa) = 37.25459 78.20083 86.23790
#
# Poissons Ratio (x) = 0.46121 0.29276
# Poissons Ratio (y) = 0.21972 0.24835
# Poissons Ratio (z) = 0.12647 0.22520
#
# Static dielectric constant tensor:
#      x y z
#    x 1.758230 0.000000 0.000000 
#    y 0.000000 1.734330 0.000000 
#    z 0.000000 0.000000 1.779570 
# 
# From -- ./inp_files/12157.got.cif
#   From: 2010.05.17/outbox.ucp.g08.bks.cvg/sg36_7_cif.got.tgz:12157.got - 2010.06.11 10:37:26.
