data_PCOD9353950
_publ_section_title
;
Structure prediction by ZEFSAII (Michael W. Deem and Ramdas Pophale) SiO2 
 PCOD9353950
Probable space group: C C C 2
;
_chemical_formula_sum "Si O2"
_cell_formula_units_Z 44
_cell_length_a 7.923410
_cell_length_b 27.192255
_cell_length_c 8.917195
_cell_angle_alpha 90.000000
_cell_angle_beta 90.000000
_cell_angle_gamma 90.000000
_cell_volume 1921.257684
_symmetry_space_group_name_H-M "C C C 2"
_symmetry_group_IT_number 37
_symmetry_cell_setting 'orthorhombic'
loop_
_space_group_symop_operation_xyz
x,y,z
-x,-y,z
-x,y,1/2+z
x,-y,1/2+z
1/2+x,1/2+y,z
1/2-x,1/2-y,z
1/2-x,1/2+y,1/2+z
1/2+x,1/2-y,1/2+z
loop_
_atom_site_type_symbol
_atom_site_label
_atom_site_fract_x
_atom_site_fract_y
_atom_site_fract_z
Si Si1 0.237167 0.165736 0.247330
Si Si2 0.522005 0.668114 0.524036
Si Si3 0.250000 0.250000 0.453025
Si Si4 0.413389 0.064055 0.190772
Si Si5 0.767389 0.010739 0.419749
Si Si6 0.183468 0.930451 0.154379
O O1 0.066640 0.161431 0.348879
O O2 0.328665 0.209589 0.337556
O O3 0.337038 0.115449 0.244518
O O4 0.167742 0.174374 0.080627
O O5 0.621882 0.718930 0.553008
O O6 0.604880 0.620389 0.601365
O O7 0.613158 0.071724 0.172844
O O8 0.344116 0.023461 0.307870
O O9 0.341262 0.045596 0.030763
O O10 0.874596 0.046584 0.312393
O O11 0.850995 0.971402 0.529527
#
# Coordination Sequence:
#
# PCOD9353950 Si02
#       6
#     8   8   4   8   8   8
#     4  10  23  44  64  89 124 157 197 257 312 369
#     4  10  23  44  64  89 124 157 197 257 312 369
#     4   8  22  44  64  82 122 152 200 246 312 378
#     4  11  20  36  61  91 124 166 209 254 292 358
#     4  10  20  34  58  90 128 168 211 248 294 342
#     4  11  20  36  61  91 124 166 209 254 292 358
#
# _framework density 22.901665000000001
#
# number of rings (size 3 to 8) (size 9 to 14) (size 15 to 20)
#    1.091    0.727    1.818    4.364    2.545    1.455 
#    0.000    6.364    0.000    0.000    0.000    0.000 
#    0.000    0.000    0.000    0.000    0.000    0.000 
#
# Total GULP energy -122725.059640 kJ/mol
# GULP energy per Si atom -5578.411802 kJ/mol
# Density = 2.284954 g / cm^3
# Si number density = 22.901665 Si / 1000 Ang^3
#
#
#
# Elastic Constant Matrix: (Units=GPa)
#
#
# Indices 1 2 3 4 5 6 
#
# 1 28.1305 9.9925 3.5304 0.0000 0.0000 0.0000
# 2 9.9925 139.3650 10.4456 0.0000 0.0000 0.0000
# 3 3.5304 10.4456 94.1417 0.0000 0.0000 0.0000
# 4 0.0000 0.0000 0.0000 35.8622 0.0000 0.0000
# 5 0.0000 0.0000 0.0000 0.0000 20.1034 0.0000
# 6 0.0000 0.0000 0.0000 0.0000 0.0000 21.5214
#
#
#
# Elastic Compliance Matrix: (Units=1/GPa)
#
#
# Indices 1 2 3 4 5 6 
#
# 1 0.036588 -0.002542 -0.001090 0.000000 0.000000 0.000000
# 2 -0.002542 0.007412 -0.000727 0.000000 0.000000 0.000000
# 3 -0.001090 -0.000727 0.010744 0.000000 0.000000 0.000000
# 4 0.000000 0.000000 0.000000 0.027885 0.000000 0.000000
# 5 0.000000 0.000000 0.000000 0.000000 0.049743 0.000000
# 6 0.000000 0.000000 0.000000 0.000000 0.000000 0.046465
#
#
# Mechanical properties :
#
#
# Convention : Reuss Voigt Hill
#
# Bulk Modulus (GPa) = 21.72663 34.39713 28.06188
# Shear Modulus (GPa) = 24.64307 31.34197 27.99252
#
# Velocity S-wave (km/s) = 3.28386 3.70340 3.49992
# Velocity P-wave (km/s) = 4.88731 5.77399 5.34906
#
# Compressibility (1/GPa) = 0.04602647
#
# Stress axis : x y z
#
# Youngs Moduli (GPa) = 27.33119 134.91379 93.07657
#
# Poissons Ratio (x) = 0.34291 0.10146
# Poissons Ratio (y) = 0.06947 0.06768
# Poissons Ratio (z) = 0.02979 0.09810
#
# Static dielectric constant tensor:
#      x y z
#    x 1.897290 0.000000 0.000000 
#    y 0.000000 1.853270 0.000000 
#    z 0.000000 0.000000 1.882740 
# 
# From -- ./inp_files/2900.got.cif
#   From: 2010.05.17/outbox.cif.g08.bks.cpg/sg37_2_cif.got.tgz:2900.got - 2010.06.03 17:53:42.
