data_PCOD9353094
_publ_section_title
;
Structure prediction by ZEFSAII (Michael W. Deem and Ramdas Pophale) SiO2 
 PCOD9353094
Probable space group: C M C 21
;
_chemical_formula_sum "Si O2"
_cell_formula_units_Z 64
_cell_length_a 8.728164
_cell_length_b 18.818619
_cell_length_c 21.502853
_cell_angle_alpha 90.000000
_cell_angle_beta 90.000000
_cell_angle_gamma 90.000000
_cell_volume 3531.886458
_symmetry_space_group_name_H-M "C M C 21"
_symmetry_group_IT_number 36
_symmetry_cell_setting 'orthorhombic'
loop_
_space_group_symop_operation_xyz
x,y,z
-x,-y,1/2+z
x,-y,1/2+z
-x,y,z
1/2+x,1/2+y,z
1/2-x,1/2-y,1/2+z
1/2+x,1/2-y,1/2+z
1/2-x,1/2+y,z
loop_
_atom_site_type_symbol
_atom_site_label
_atom_site_fract_x
_atom_site_fract_y
_atom_site_fract_z
Si Si1 0.176867 0.833942 0.934280
Si Si2 0.176671 0.338748 0.429018
Si Si3 0.813866 0.670856 0.063708
Si Si4 0.814716 0.835549 0.795819
Si Si5 0.181531 0.329385 0.064293
Si Si6 0.686081 0.168757 0.793274
Si Si7 0.817564 0.082127 0.677512
Si Si8 0.183524 0.575234 0.182294
O O1 0.175927 0.747603 0.930311
O O2 0.230401 0.857883 0.866080
O O3 0.000000 0.855737 0.943611
O O4 0.274017 0.853423 0.994483
O O5 0.241830 0.358676 0.496479
O O6 0.242643 0.357418 0.361471
O O7 0.000000 0.363101 0.428346
O O8 0.746767 0.749554 0.072492
O O9 0.774184 0.620776 0.121121
O O10 0.000000 0.677115 0.060556
O O11 0.774573 0.752323 0.786677
O O12 0.739681 0.882643 0.742912
O O13 0.000000 0.840402 0.792727
O O14 0.255685 0.379460 0.115818
O O15 0.000000 0.328414 0.071858
O O16 0.500000 0.164593 0.792899
O O17 0.753201 0.124178 0.737133
O O18 0.000000 0.084292 0.678096
O O19 0.758566 0.001782 0.679711
O O20 0.000000 0.568256 0.183462
#
# Coordination Sequence:
#
# PCOD9353094 Si02
#       8
#     8   8   8   8   8   8   8   8
#     4   8  15  31  54  80 109 139 172 211 260 315
#     4   7  12  27  53  81 107 134 164 206 260 312
#     4   9  18  35  58  83 109 138 173 213 264 321
#     4   9  18  34  58  84 110 141 174 213 264 320
#     4  11  21  34  56  84 110 137 175 220 264 314
#     4   9  17  33  58  84 108 136 173 216 262 315
#     4  12  25  39  53  71 104 147 185 224 270 319
#     4  11  23  37  54  77 107 142 182 227 268 314
#
# _framework density 18.120628
#
# number of rings (size 3 to 8) (size 9 to 14) (size 15 to 20)
#    0.000    2.500    0.000    5.625    0.000    4.000 
#    0.000    6.250    0.000    4.500    0.000    0.000 
#    0.000    0.000    0.000    0.000    0.000    0.000 
#
# Total GULP energy -178444.618412 kJ/mol
# GULP energy per Si atom -5576.394325 kJ/mol
# Density = 1.807938 g / cm^3
# Si number density = 18.120628 Si / 1000 Ang^3
#
#
#
# Elastic Constant Matrix: (Units=GPa)
#
#
# Indices 1 2 3 4 5 6 
#
# 1 55.0069 43.4270 59.2233 0.0000 0.0000 0.0000
# 2 43.4270 84.6254 87.3361 0.0000 0.0000 0.0000
# 3 59.2233 87.3361 201.0288 0.0000 0.0000 0.0000
# 4 0.0000 0.0000 0.0000 -8.4027 0.0000 0.0000
# 5 0.0000 0.0000 0.0000 0.0000 27.8226 0.0000
# 6 0.0000 0.0000 0.0000 0.0000 0.0000 3408.0347
#
#
#
# Elastic Compliance Matrix: (Units=1/GPa)
#
#
# Indices 1 2 3 4 5 6 
#
# 1 0.032415 -0.012289 -0.004211 0.000000 0.000000 0.000000
# 2 -0.012289 0.026080 -0.007710 0.000000 0.000000 0.000000
# 3 -0.004211 -0.007710 0.009564 0.000000 0.000000 0.000000
# 4 0.000000 0.000000 0.000000 -0.119009 0.000000 0.000000
# 5 0.000000 0.000000 0.000000 0.000000 0.035942 0.000000
# 6 0.000000 0.000000 0.000000 0.000000 0.000000 0.000293
#
#
# Mechanical properties :
#
#
# Convention : Reuss Voigt Hill
#
# Bulk Modulus (GPa) = 50.91552 80.07040 65.49296
# Shear Modulus (GPa) = 124.22101 695.53588 409.87845
#
# Velocity S-wave (km/s) = 8.28861 19.61300 15.05608
# Velocity P-wave (km/s) = 10.94352 23.60458 18.39751
#
# Compressibility (1/GPa) = 0.01964038
#
# Stress axis : x y z
#
# Youngs Moduli (GPa) = 30.85034 38.34375 104.55350
#
# Poissons Ratio (x) = 0.47119 0.44024
# Poissons Ratio (y) = 0.37911 0.80611
# Poissons Ratio (z) = 0.12990 0.29563
#
# Static dielectric constant tensor:
#      x y z
#    x 1.609610 0.000000 0.000000 
#    y 0.000000 1.582570 0.000000 
#    z 0.000000 0.000000 1.655280 
# 
# From -- ./inp_files/15686.got.cif
#   From: 2010.05.17/outbox.cif.g08.bks.cpg/sg36_8_cif.got.tgz:15686.got - 2010.06.03 17:41:39.
