data_PCOD9353807
_publ_section_title
;
Structure prediction by ZEFSAII (Michael W. Deem and Ramdas Pophale) SiO2 
 PCOD9353807
Probable space group: C C C 2
;
_chemical_formula_sum "Si O2"
_cell_formula_units_Z 64
_cell_length_a 8.741871
_cell_length_b 15.758285
_cell_length_c 24.234799
_cell_angle_alpha 90.000000
_cell_angle_beta 90.000000
_cell_angle_gamma 90.000000
_cell_volume 3338.510653
_symmetry_space_group_name_H-M "C C C 2"
_symmetry_group_IT_number 37
_symmetry_cell_setting 'orthorhombic'
loop_
_space_group_symop_operation_xyz
x,y,z
-x,-y,z
-x,y,1/2+z
x,-y,1/2+z
1/2+x,1/2+y,z
1/2-x,1/2-y,z
1/2-x,1/2+y,1/2+z
1/2+x,1/2-y,1/2+z
loop_
_atom_site_type_symbol
_atom_site_label
_atom_site_fract_x
_atom_site_fract_y
_atom_site_fract_z
Si Si1 0.067845 0.648271 0.105840
Si Si2 0.064488 0.750000 0.303834
Si Si3 0.068354 0.090478 0.991918
Si Si4 0.931646 0.590478 0.991918
Si Si5 0.434157 0.409287 0.728225
Si Si6 0.565843 0.909287 0.728225
Si Si7 0.567464 0.750000 0.426260
Si Si8 0.932155 0.148271 0.105840
O O1 0.019623 0.613118 0.165435
O O2 0.047063 0.750000 0.105209
O O3 0.250000 0.632050 0.098487
O O4 0.977567 0.607220 0.055511
O O5 0.250000 0.750000 0.309385
O O6 0.020344 0.833189 0.268804
O O7 0.020344 0.666811 0.268804
O O8 0.988925 0.750000 0.363443
O O9 0.997043 0.167096 0.956997
O O10 0.250000 0.090380 0.985883
O O11 0.000000 0.000000 0.974778
O O12 0.022433 0.107220 0.055511
O O13 0.000000 0.500000 0.974778
O O14 0.002957 0.667096 0.956997
O O15 0.500000 0.500000 0.744555
O O16 0.250000 0.412590 0.728548
O O17 0.480377 0.386882 0.665435
O O18 0.500000 0.000000 0.744555
O O19 0.750000 0.750000 0.429789
#
# Coordination Sequence:
#
# PCOD9353807 Si02
#       8
#     8   8   8   8   8   8   8   8
#     4  10  19  36  63  93 128 167 204 248 307 370
#     4  10  22  43  64  85 119 164 210 254 307 368
#     4  12  25  42  65  95 127 165 208 255 312 372
#     4  12  25  42  65  95 127 165 208 255 312 372
#     4  10  21  38  62  91 124 164 204 249 305 364
#     4  10  21  38  62  91 124 164 204 249 305 364
#     4  12  26  45  66  91 123 162 210 264 315 368
#     4  10  19  36  63  93 128 167 204 248 307 370
#
# _framework density 19.170224999999999
#
# number of rings (size 3 to 8) (size 9 to 14) (size 15 to 20)
#    0.000    1.250    2.500    4.125    0.000    5.000 
#    0.000    2.500    0.000    0.000    0.000    0.000 
#    0.000    0.000    0.000    0.000    0.000    0.000 
#
# Total GULP energy -179001.865922 kJ/mol
# GULP energy per Si atom -5593.808310 kJ/mol
# Density = 1.912659 g / cm^3
# Si number density = 19.170225 Si / 1000 Ang^3
#
#
#
# Elastic Constant Matrix: (Units=GPa)
#
#
# Indices 1 2 3 4 5 6 
#
# 1 99.5219 76.2327 64.0054 0.0000 0.0000 0.0000
# 2 76.2327 195.3102 93.9672 0.0000 0.0000 0.0000
# 3 64.0054 93.9672 151.4030 0.0000 0.0000 0.0000
# 4 0.0000 0.0000 0.0000 -6.7849 0.0000 0.0000
# 5 0.0000 0.0000 0.0000 0.0000 35.0241 0.0000
# 6 0.0000 0.0000 0.0000 0.0000 0.0000 33.0579
#
#
#
# Elastic Compliance Matrix: (Units=1/GPa)
#
#
# Indices 1 2 3 4 5 6 
#
# 1 0.015940 -0.004248 -0.004102 0.000000 0.000000 0.000000
# 2 -0.004248 0.008432 -0.003437 0.000000 0.000000 0.000000
# 3 -0.004102 -0.003437 0.010472 0.000000 0.000000 0.000000
# 4 0.000000 0.000000 0.000000 -0.147385 0.000000 0.000000
# 5 0.000000 0.000000 0.000000 0.000000 0.028552 0.000000
# 6 0.000000 0.000000 0.000000 0.000000 0.000000 0.030250
#
#
# Mechanical properties :
#
#
# Convention : Reuss Voigt Hill
#
# Bulk Modulus (GPa) = 88.73584 101.62729 95.18156
# Shear Modulus (GPa) = -189.34007 26.39476 -81.47266
#
# Velocity S-wave (km/s) = -9.94898 3.71463 -6.52624
# Velocity P-wave (km/s) = 9.25135 8.45732 2.65153
#
# Compressibility (1/GPa) = 0.01126940
#
# Stress axis : x y z
#
# Youngs Moduli (GPa) = 62.73423 118.59687 95.48895
#
# Poissons Ratio (x) = 0.50381 0.39171
# Poissons Ratio (y) = 0.26650 0.32823
# Poissons Ratio (z) = 0.25735 0.40766
#
# Static dielectric constant tensor:
#      x y z
#    x 1.643580 0.000000 0.000000 
#    y 0.000000 1.651070 0.000000 
#    z 0.000000 0.000000 1.643690 
# 
# From -- ./inp_files/18444.got.cif
#   From: 2010.05.17/outbox.cif.g08.bks.cpg/sg37_10_cif.got.tgz:18444.got - 2010.06.03 17:53:42.
