data_PCOD9353221
_publ_section_title
;
Structure prediction by ZEFSAII (Michael W. Deem and Ramdas Pophale) SiO2 
 PCOD9353221
Probable space group: C M C 21
;
_chemical_formula_sum "Si O2"
_cell_formula_units_Z 40
_cell_length_a 13.840664
_cell_length_b 14.744111
_cell_length_c 8.008585
_cell_angle_alpha 90.000000
_cell_angle_beta 90.000000
_cell_angle_gamma 90.000000
_cell_volume 1634.298217
_symmetry_space_group_name_H-M "C M C 21"
_symmetry_group_IT_number 36
_symmetry_cell_setting 'orthorhombic'
loop_
_space_group_symop_operation_xyz
x,y,z
-x,-y,1/2+z
x,-y,1/2+z
-x,y,z
1/2+x,1/2+y,z
1/2-x,1/2-y,1/2+z
1/2+x,1/2-y,1/2+z
1/2-x,1/2+y,z
loop_
_atom_site_type_symbol
_atom_site_label
_atom_site_fract_x
_atom_site_fract_y
_atom_site_fract_z
Si Si1 0.500000 0.976837 0.854180
Si Si2 0.787993 0.076680 0.008567
Si Si3 0.290560 0.105815 0.387225
Si Si4 0.000000 0.637135 0.055014
Si Si5 0.830557 0.267831 0.435858
Si Si6 0.500000 0.466027 0.523615
Si Si7 0.000000 0.858057 0.848932
O O1 0.598151 0.924115 0.903078
O O2 0.500000 0.955432 0.656482
O O3 0.500000 0.085887 0.876598
O O4 0.752020 0.101147 0.196595
O O5 0.721311 0.138289 0.887912
O O6 0.900857 0.081665 0.965950
O O7 0.765216 0.972030 0.985299
O O8 0.258885 0.201270 0.465760
O O9 0.093693 0.698509 0.078035
O O10 0.907391 0.207305 0.333128
O O11 0.500000 0.575955 0.510130
O O12 0.500000 0.438854 0.717529
#
# Coordination Sequence:
#
# PCOD9353221 Si02
#       7
#     4   8   8   4   8   4   4
#     4  12  22  49  72 106 135 194 238 289 356 439
#     4  12  25  46  73 104 146 188 241 299 360 420
#     4  12  25  46  73 104 146 188 241 299 360 420
#     4  11  24  46  76 100 147 187 244 290 362 429
#     4  11  24  45  68 106 148 187 226 307 352 420
#     4  12  22  49  72 106 135 194 238 289 356 439
#     4  11  24  46  76 100 147 187 244 290 362 429
#
# _framework density 24.475337
#
# number of rings (size 3 to 8) (size 9 to 14) (size 15 to 20)
#    0.000    0.400    8.000    0.000    0.000    2.400 
#    7.200    0.000    0.000    0.000    0.000    0.000 
#    0.000    0.000    0.000    0.000    0.000    0.000 
#
# Total GULP energy -111394.977420 kJ/mol
# GULP energy per Si atom -5569.748871 kJ/mol
# Density = 2.441963 g / cm^3
# Si number density = 24.475337 Si / 1000 Ang^3
#
#
#
# Elastic Constant Matrix: (Units=GPa)
#
#
# Indices 1 2 3 4 5 6 
#
# 1 208.5566 12.1033 -2.4654 0.0000 0.0000 0.0000
# 2 12.1033 95.1626 6.3496 0.0000 0.0000 0.0000
# 3 -2.4654 6.3496 24.0572 0.0000 0.0000 0.0000
# 4 0.0000 0.0000 0.0000 9.6801 0.0000 0.0000
# 5 0.0000 0.0000 0.0000 0.0000 24.8428 0.0000
# 6 0.0000 0.0000 0.0000 0.0000 0.0000 22.6509
#
#
#
# Elastic Compliance Matrix: (Units=1/GPa)
#
#
# Indices 1 2 3 4 5 6 
#
# 1 0.004841 -0.000660 0.000670 0.000000 0.000000 0.000000
# 2 -0.000660 0.010787 -0.002915 0.000000 0.000000 0.000000
# 3 0.000670 -0.002915 0.042406 0.000000 0.000000 0.000000
# 4 0.000000 0.000000 0.000000 0.103305 0.000000 0.000000
# 5 0.000000 0.000000 0.000000 0.000000 0.040253 0.000000
# 6 0.000000 0.000000 0.000000 0.000000 0.000000 0.044148
#
#
# Mechanical properties :
#
#
# Convention : Reuss Voigt Hill
#
# Bulk Modulus (GPa) = 19.14826 39.97239 29.56033
# Shear Modulus (GPa) = 18.59032 32.22068 25.40550
#
# Velocity S-wave (km/s) = 2.75899 3.63223 3.22530
# Velocity P-wave (km/s) = 4.24144 5.82735 5.09646
#
# Compressibility (1/GPa) = 0.05222405
#
# Stress axis : x y z
#
# Youngs Moduli (GPa) = 206.56399 92.70580 23.58175
#
# Poissons Ratio (x) = 0.06123 -0.01581
# Poissons Ratio (y) = 0.13643 0.06873
# Poissons Ratio (z) = -0.13849 0.27021
#
# Static dielectric constant tensor:
#      x y z
#    x 2.026280 0.000000 0.000000 
#    y 0.000000 1.924020 0.000000 
#    z 0.000000 0.000000 2.196960 
# 
# From -- ./inp_files/3846.got.cif
#   From: 2010.05.17/outbox.cif.g08.bks.cpg/sg36_2_cif.got.tgz:3846.got - 2010.06.03 17:41:39.
