data_PCOD9353972
_publ_section_title
;
Structure prediction by ZEFSAII (Michael W. Deem and Ramdas Pophale) SiO2 
 PCOD9353972
Probable space group: C C C 2
;
_chemical_formula_sum "Si O2"
_cell_formula_units_Z 64
_cell_length_a 8.581922
_cell_length_b 23.219277
_cell_length_c 16.225261
_cell_angle_alpha 90.000000
_cell_angle_beta 90.000000
_cell_angle_gamma 90.000000
_cell_volume 3233.143250
_symmetry_space_group_name_H-M "C C C 2"
_symmetry_group_IT_number 37
_symmetry_cell_setting 'orthorhombic'
loop_
_space_group_symop_operation_xyz
x,y,z
-x,-y,z
-x,y,1/2+z
x,-y,1/2+z
1/2+x,1/2+y,z
1/2-x,1/2-y,z
1/2-x,1/2+y,1/2+z
1/2+x,1/2-y,1/2+z
loop_
_atom_site_type_symbol
_atom_site_label
_atom_site_fract_x
_atom_site_fract_y
_atom_site_fract_z
Si Si1 0.324082 0.509321 0.474420
Si Si2 0.393248 0.091475 0.155224
Si Si3 0.814266 0.189134 0.574656
Si Si4 0.393248 0.091476 0.492179
Si Si5 0.175917 0.009322 0.672981
Si Si6 0.303718 0.132611 0.729797
Si Si7 0.185735 0.810866 0.072747
Si Si8 0.803717 0.632611 0.917605
O O1 0.500000 0.500000 0.443856
O O2 0.192705 0.462669 0.451271
O O3 0.328494 0.500000 0.573700
O O4 0.273927 0.572432 0.446603
O O5 0.262667 0.136393 0.124635
O O6 0.512949 0.122386 0.215870
O O7 0.307294 0.037330 0.196130
O O8 0.500001 0.075938 0.073701
O O9 0.750000 0.250000 0.606249
O O10 0.753541 0.180035 0.481708
O O11 0.000000 0.186752 0.573703
O O12 0.262666 0.136393 0.522768
O O13 0.512950 0.122388 0.431533
O O14 0.226072 0.072433 0.700799
O O15 0.000000 0.000000 0.703545
O O16 0.246465 0.180035 0.665694
O O17 0.265818 0.144973 0.823701
O O18 0.250000 0.750000 0.041152
#
# Coordination Sequence:
#
# PCOD9353972 Si02
#       8
#     8   8   8   8   8   8   8   8
#     4  11  20  34  58  86 120 160 200 241 292 355
#     4  10  20  35  58  85 117 156 202 240 287 354
#     4  11  22  41  67  90 113 157 207 245 287 355
#     4  10  20  35  58  85 117 156 202 240 287 354
#     4  11  20  34  58  86 120 160 200 241 292 355
#     4  11  24  38  59  92 125 157 194 248 306 349
#     4  11  22  41  67  90 113 157 207 245 287 355
#     4  11  24  38  59  92 125 157 194 248 306 349
#
# _framework density 19.794979000000001
#
# number of rings (size 3 to 8) (size 9 to 14) (size 15 to 20)
#    0.000    1.250    5.000    4.500    0.000    3.000 
#    0.000    3.750    0.000    3.000    0.000    0.000 
#    0.000    0.000    0.000    0.000    0.000    0.000 
#
# Total GULP energy -178729.622842 kJ/mol
# GULP energy per Si atom -5585.300714 kJ/mol
# Density = 1.974992 g / cm^3
# Si number density = 19.794979 Si / 1000 Ang^3
#
#
#
# Elastic Constant Matrix: (Units=GPa)
#
#
# Indices 1 2 3 4 5 6 
#
# 1 132.1122 17.4618 -27.8970 0.0000 0.0000 0.0000
# 2 17.4618 68.8956 -24.1944 0.0000 0.0000 0.0000
# 3 -27.8970 -24.1944 25.9181 0.0000 0.0000 0.0000
# 4 0.0000 0.0000 0.0000 13.3284 0.0000 0.0000
# 5 0.0000 0.0000 0.0000 0.0000 3.0852 0.0000
# 6 0.0000 0.0000 0.0000 0.0000 0.0000 25.3169
#
#
#
# Elastic Compliance Matrix: (Units=1/GPa)
#
#
# Indices 1 2 3 4 5 6 
#
# 1 0.009951 0.001844 0.012431 0.000000 0.000000 0.000000
# 2 0.001844 0.021935 0.022461 0.000000 0.000000 0.000000
# 3 0.012431 0.022461 0.072930 0.000000 0.000000 0.000000
# 4 0.000000 0.000000 0.000000 0.075028 0.000000 0.000000
# 5 0.000000 0.000000 0.000000 0.000000 0.324132 0.000000
# 6 0.000000 0.000000 0.000000 0.000000 0.000000 0.039499
#
#
# Mechanical properties :
#
#
# Convention : Reuss Voigt Hill
#
# Bulk Modulus (GPa) = 5.60892 17.51851 11.56372
# Shear Modulus (GPa) = 9.44406 25.78311 17.61359
#
# Velocity S-wave (km/s) = 2.18662 3.61294 2.98619
# Velocity P-wave (km/s) = 3.03558 5.12578 4.21239
#
# Compressibility (1/GPa) = 0.17828730
#
# Stress axis : x y z
#
# Youngs Moduli (GPa) = 100.49563 45.58910 13.71169
#
# Poissons Ratio (x) = -0.08405 -0.17046
# Poissons Ratio (y) = -0.18527 -0.30797
# Poissons Ratio (z) = -1.24930 -1.02396
#
# Static dielectric constant tensor:
#      x y z
#    x 1.710740 0.000000 0.000000 
#    y 0.000000 1.680460 0.000000 
#    z 0.000000 0.000000 1.711400 
# 
# From -- ./inp_files/14747.got.cif
#   From: 2010.05.17/outbox.cif.g08.bks.cpg/sg37_8_cif.got.tgz:14747.got - 2010.06.03 17:53:42.
