data_PCOD9353789
_publ_section_title
;
Structure prediction by ZEFSAII (Michael W. Deem and Ramdas Pophale) SiO2 
 PCOD9353789
Probable space group: C C C 2
;
_chemical_formula_sum "Si O2"
_cell_formula_units_Z 56
_cell_length_a 15.702821
_cell_length_b 4.888899
_cell_length_c 31.002493
_cell_angle_alpha 90.000000
_cell_angle_beta 90.000000
_cell_angle_gamma 90.000000
_cell_volume 2380.046069
_symmetry_space_group_name_H-M "C C C 2"
_symmetry_group_IT_number 37
_symmetry_cell_setting 'orthorhombic'
loop_
_space_group_symop_operation_xyz
x,y,z
-x,-y,z
-x,y,1/2+z
x,-y,1/2+z
1/2+x,1/2+y,z
1/2-x,1/2-y,z
1/2-x,1/2+y,1/2+z
1/2+x,1/2-y,1/2+z
loop_
_atom_site_type_symbol
_atom_site_label
_atom_site_fract_x
_atom_site_fract_y
_atom_site_fract_z
Si Si1 0.146667 0.229760 0.504040
Si Si2 0.334449 0.582306 0.641190
Si Si3 0.097343 0.443021 0.595485
Si Si4 0.646416 0.233110 0.450048
Si Si5 0.600629 0.946922 0.312052
Si Si6 0.058921 0.757615 0.724000
Si Si7 0.162246 0.080100 0.858694
O O1 0.250000 0.250000 0.510552
O O2 0.103408 0.327543 0.547604
O O3 0.124881 0.427639 0.463771
O O4 0.119842 0.931436 0.488746
O O5 0.250000 0.750000 0.654609
O O6 0.350167 0.269076 0.626250
O O7 0.395559 0.632597 0.681681
O O8 0.360670 0.760225 0.599497
O O9 0.000000 0.500000 0.608478
O O10 0.750000 0.250000 0.450690
O O11 0.615993 0.343603 0.403738
O O12 0.616081 0.838687 0.263997
O O13 0.646088 0.736642 0.345923
O O14 0.500000 0.000000 0.319477
O O15 0.631738 0.254122 0.317391
O O16 0.000000 0.500000 0.712614
O O17 0.000000 0.000000 0.741310
O O18 0.250000 0.250000 0.865409
#
# Coordination Sequence:
#
# PCOD9353789 Si02
#       7
#     8   8   8   8   8   8   8
#     4  10  19  36  60  85 117 160 210 257 307 371
#     4  12  25  42  66  95 124 160 211 262 312 374
#     4  12  25  42  63  92 129 166 204 255 321 385
#     4   9  19  35  58  86 118 159 205 257 314 369
#     4  11  23  41  62  90 127 168 206 253 320 385
#     4  11  23  43  66  89 124 166 206 250 313 381
#     4  11  22  39  64  93 124 163 214 264 312 373
#
# _framework density 23.528953999999999
#
# number of rings (size 3 to 8) (size 9 to 14) (size 15 to 20)
#    0.000    1.143    0.000    8.143    0.000    4.571 
#    0.000    4.286    0.000    0.000    0.000    0.000 
#    0.000    0.000    0.000    0.000    0.000    0.000 
#
# Total GULP energy -156155.925807 kJ/mol
# GULP energy per Si atom -5576.997350 kJ/mol
# Density = 2.347540 g / cm^3
# Si number density = 23.528954 Si / 1000 Ang^3
#
#
#
# Elastic Constant Matrix: (Units=GPa)
#
#
# Indices 1 2 3 4 5 6 
#
# 1 38.7416 7.2066 0.4290 0.0000 0.0000 0.0000
# 2 7.2066 116.6075 11.3642 0.0000 0.0000 0.0000
# 3 0.4290 11.3642 111.9566 0.0000 0.0000 0.0000
# 4 0.0000 0.0000 0.0000 25.1135 0.0000 0.0000
# 5 0.0000 0.0000 0.0000 0.0000 3.6993 0.0000
# 6 0.0000 0.0000 0.0000 0.0000 0.0000 30.6554
#
#
#
# Elastic Compliance Matrix: (Units=1/GPa)
#
#
# Indices 1 2 3 4 5 6 
#
# 1 0.026113 -0.001620 0.000064 0.000000 0.000000 0.000000
# 2 -0.001620 0.008762 -0.000883 0.000000 0.000000 0.000000
# 3 0.000064 -0.000883 0.009021 0.000000 0.000000 0.000000
# 4 0.000000 0.000000 0.000000 0.039819 0.000000 0.000000
# 5 0.000000 0.000000 0.000000 0.000000 0.270324 0.000000
# 6 0.000000 0.000000 0.000000 0.000000 0.000000 0.032621
#
#
# Mechanical properties :
#
#
# Convention : Reuss Voigt Hill
#
# Bulk Modulus (GPa) = 25.62900 33.92282 29.77591
# Shear Modulus (GPa) = 12.35959 28.44736 20.40348
#
# Velocity S-wave (km/s) = 2.29441 3.48089 2.94796
# Velocity P-wave (km/s) = 4.23501 5.53211 4.92644
#
# Compressibility (1/GPa) = 0.03901830
#
# Stress axis : x y z
#
# Youngs Moduli (GPa) = 38.29557 114.12954 110.84714
#
# Poissons Ratio (x) = 0.18490 -0.00714
# Poissons Ratio (y) = 0.06204 0.09790
# Poissons Ratio (z) = -0.00247 0.10080
#
# Static dielectric constant tensor:
#      x y z
#    x 2.079630 0.000000 0.000000 
#    y 0.000000 1.951240 0.000000 
#    z 0.000000 0.000000 1.866550 
# 
# From -- ./inp_files/20544.got.cif
#   From: 2010.05.17/outbox.cif.g08.bks.cpg/sg37_11_cif.got.tgz:20544.got - 2010.06.03 17:53:42.
