data_PCOD9353752
_publ_section_title
;
Structure prediction by ZEFSAII (Michael W. Deem and Ramdas Pophale) SiO2 
 PCOD9353752
Probable space group: C C C 2
;
_chemical_formula_sum "Si O2"
_cell_formula_units_Z 64
_cell_length_a 5.175090
_cell_length_b 24.414435
_cell_length_c 21.077195
_cell_angle_alpha 90.000000
_cell_angle_beta 90.000000
_cell_angle_gamma 90.000000
_cell_volume 2663.038216
_symmetry_space_group_name_H-M "C C C 2"
_symmetry_group_IT_number 37
_symmetry_cell_setting 'orthorhombic'
loop_
_space_group_symop_operation_xyz
x,y,z
-x,-y,z
-x,y,1/2+z
x,-y,1/2+z
1/2+x,1/2+y,z
1/2-x,1/2-y,z
1/2-x,1/2+y,1/2+z
1/2+x,1/2-y,1/2+z
loop_
_atom_site_type_symbol
_atom_site_label
_atom_site_fract_x
_atom_site_fract_y
_atom_site_fract_z
Si Si1 0.688010 0.348822 0.012180
Si Si2 0.957582 0.410079 0.653515
Si Si3 0.863580 0.397962 0.789613
Si Si4 0.809382 0.951361 0.033121
Si Si5 0.367820 0.674131 0.276035
Si Si6 0.424741 0.908513 0.425228
Si Si7 0.045123 0.838002 0.142416
Si Si8 0.089143 0.799281 0.406942
O O1 0.469180 0.394638 0.025692
O O2 0.652931 0.314587 0.076392
O O3 0.649191 0.310887 0.951252
O O4 0.923624 0.384853 0.987009
O O5 0.908964 0.432260 0.724827
O O6 0.883752 0.445728 0.592559
O O7 0.750183 0.359596 0.645290
O O8 0.251917 0.389053 0.650528
O O9 0.571677 0.376035 0.784919
O O10 0.075278 0.348610 0.781478
O O11 0.919204 0.420454 0.860579
O O12 0.712709 0.958777 0.960363
O O13 0.000000 0.000000 0.049095
O O14 0.414714 0.696535 0.205967
O O15 0.454878 0.712806 0.333481
O O16 0.238877 0.857484 0.407298
O O17 0.250000 0.750000 0.435584
#
# Coordination Sequence:
#
# PCOD9353752 Si02
#       8
#     8   8   8   8   8   8   8   8
#     4  10  19  35  57  84 114 159 200 248 314 365
#     4   9  17  32  53  85 112 152 196 247 302 359
#     4   9  17  31  56  82 109 148 198 240 295 368
#     4  10  21  35  56  90 121 158 206 259 304 372
#     4   9  17  32  53  82 107 150 195 243 297 356
#     4  10  19  35  57  85 114 161 203 247 313 368
#     4   9  17  31  56  80 112 148 200 243 298 368
#     4  10  21  35  56  83 120 154 204 253 305 367
#
# _framework density 24.032699000000001
#
# number of rings (size 3 to 8) (size 9 to 14) (size 15 to 20)
#    0.000    2.500    2.500    0.000    0.000    1.000 
#    0.000    0.000    2.750    0.750   26.000    0.000 
#    0.000    0.000    0.000    0.000    0.000    0.000 
#
# Total GULP energy -178158.855561 kJ/mol
# GULP energy per Si atom -5567.464236 kJ/mol
# Density = 2.397800 g / cm^3
# Si number density = 24.032699 Si / 1000 Ang^3
#
#
#
# Elastic Constant Matrix: (Units=GPa)
#
#
# Indices 1 2 3 4 5 6 
#
# 1 81.6037 5.6817 13.8258 0.0000 0.0000 0.0000
# 2 5.6817 39.0980 11.2279 0.0000 0.0000 0.0000
# 3 13.8258 11.2279 195.3012 0.0000 0.0000 0.0000
# 4 0.0000 0.0000 0.0000 -5.6542 0.0000 0.0000
# 5 0.0000 0.0000 0.0000 0.0000 36.7263 0.0000
# 6 0.0000 0.0000 0.0000 0.0000 0.0000 21.2865
#
#
#
# Elastic Compliance Matrix: (Units=1/GPa)
#
#
# Indices 1 2 3 4 5 6 
#
# 1 0.012499 -0.001589 -0.000794 0.000000 0.000000 0.000000
# 2 -0.001589 0.026208 -0.001394 0.000000 0.000000 0.000000
# 3 -0.000794 -0.001394 0.005257 0.000000 0.000000 0.000000
# 4 0.000000 0.000000 0.000000 -0.176859 0.000000 0.000000
# 5 0.000000 0.000000 0.000000 0.000000 0.027228 0.000000
# 6 0.000000 0.000000 0.000000 0.000000 0.000000 0.046978
#
#
# Mechanical properties :
#
#
# Convention : Reuss Voigt Hill
#
# Bulk Modulus (GPa) = 27.46395 41.94152 34.70273
# Shear Modulus (GPa) = -128.20807 29.48955 -49.35926
#
# Velocity S-wave (km/s) = -7.31185 3.50674 -4.53685
# Velocity P-wave (km/s) = 7.73509 5.82117 3.60178
#
# Compressibility (1/GPa) = 0.03641137
#
# Stress axis : x y z
#
# Youngs Moduli (GPa) = 80.00387 38.15634 190.23605
#
# Poissons Ratio (x) = 0.06061 0.15096
# Poissons Ratio (y) = 0.12709 0.26523
# Poissons Ratio (z) = 0.06349 0.05320
#
# Static dielectric constant tensor:
#      x y z
#    x 2.022130 0.000000 0.000000 
#    y 0.000000 1.930860 0.000000 
#    z 0.000000 0.000000 2.113930 
# 
# From -- ./inp_files/16014.got.cif
#   From: 2010.05.17/outbox.cif.g08.bks.cpg/sg37_9_cif.got.tgz:16014.got - 2010.06.03 17:53:42.
