data_PCOD9353356
_publ_section_title
;
Structure prediction by ZEFSAII (Michael W. Deem and Ramdas Pophale) SiO2 
 PCOD9353356
Probable space group: C M C 21
;
_chemical_formula_sum "Si O2"
_cell_formula_units_Z 24
_cell_length_a 9.000000
_cell_length_b 18.000000
_cell_length_c 15.000000
_cell_angle_alpha 90.000000
_cell_angle_beta 90.000000
_cell_angle_gamma 90.000000
_cell_volume 2430.000000
_symmetry_space_group_name_H-M "C M C 21"
_symmetry_group_IT_number 36
_symmetry_cell_setting 'orthorhombic'
loop_
_space_group_symop_operation_xyz
x,y,z
-x,-y,1/2+z
x,-y,1/2+z
-x,y,z
1/2+x,1/2+y,z
1/2-x,1/2-y,1/2+z
1/2+x,1/2-y,1/2+z
1/2-x,1/2+y,z
loop_
_atom_site_type_symbol
_atom_site_label
_atom_site_fract_x
_atom_site_fract_y
_atom_site_fract_z
Si Si1 0.335051 0.656609 0.325640
Si Si2 0.674678 0.415972 0.172753
Si Si3 0.329842 0.087018 0.484232
Si Si4 0.823831 0.566074 0.186465
Si Si5 0.829043 0.668614 0.819798
Si Si6 0.328507 0.086693 0.989253
O O1 0.500000 0.628402 0.301930
O O2 0.283238 0.627675 0.420540
O O3 0.213393 0.628789 0.256237
O O4 0.339775 0.744279 0.327814
O O5 0.500000 0.418748 0.154909
O O6 0.734526 0.492908 0.214244
O O7 0.722366 0.352620 0.239999
O O8 0.770813 0.406372 0.083917
O O9 0.500000 0.112993 0.475625
O O10 0.328080 0.999419 0.462064
O O11 0.000000 0.549816 0.180777
O O12 0.766309 0.589609 0.088665
O O13 0.763450 0.634579 0.910442
O O14 0.000000 0.639372 0.805636
O O15 0.500000 0.111718 0.997517
#
# Coordination Sequence:
#
# PCOD9353356 Si02
#       6
#     8   8   8   8   8   8
#     4  11  23  36  54  85 120 152 189 236 284 332
#     4  11  22  37  59  86 114 145 190 243 287 333
#     4  10  20  37  61  84 109 148 194 235 284 345
#     4  10  20  37  60  83 111 150 194 236 285 343
#     4  10  21  38  57  81 117 154 188 230 284 342
#     4   8  17  35  59  81 101 139 191 234 274 329
#
# _framework density 9.8765429999999999
#
# number of rings (size 3 to 8) (size 9 to 14) (size 15 to 20)
#    0.000    2.000    0.000    5.000    0.000    4.000 
#    0.000    5.833    0.000    0.000    0.000    0.000 
#    0.000    0.000    0.000    0.000    0.000    0.000 
#
# Total GULP energy -133810.591140 kJ/mol
# GULP energy per Si atom -5575.441297 kJ/mol
# Density = 0.985406 g / cm^3
# Si number density = 9.876543 Si / 1000 Ang^3
#
#
#
# Elastic Constant Matrix: (Units=GPa)
#
#
# Indices 1 2 3 4 5 6 
#
# 1 40.3319 1.3442 2.0617 0.0000 0.0000 0.0000
# 2 1.3442 34.3606 47.6753 0.0000 0.0000 0.0000
# 3 2.0617 47.6753 19.2036 0.0000 0.0000 0.0000
# 4 0.0000 0.0000 0.0000 60.4747 0.0000 0.0000
# 5 0.0000 0.0000 0.0000 0.0000 32.1651 0.0000
# 6 0.0000 0.0000 0.0000 0.0000 0.0000 46.3681
#
#
#
# Elastic Compliance Matrix: (Units=1/GPa)
#
#
# Indices 1 2 3 4 5 6 
#
# 1 0.024826 -0.001115 0.000104 0.000000 0.000000 0.000000
# 2 -0.001115 -0.011855 0.029551 0.000000 0.000000 0.000000
# 3 0.000104 0.029551 -0.021301 0.000000 0.000000 0.000000
# 4 0.000000 0.000000 0.000000 0.016536 0.000000 0.000000
# 5 0.000000 0.000000 0.000000 0.000000 0.031090 0.000000
# 6 0.000000 0.000000 0.000000 0.000000 0.000000 0.021567
#
#
# Mechanical properties :
#
#
# Convention : Reuss Voigt Hill
#
# Bulk Modulus (GPa) = 20.51326 21.78427 21.14876
# Shear Modulus (GPa) = 249.57487 30.65591 140.11539
#
# Velocity S-wave (km/s) = 11.25262 3.94376 8.43133
# Velocity P-wave (km/s) = 13.38791 5.63825 10.27195
#
# Compressibility (1/GPa) = 0.04874896
#
# Stress axis : x y z
#
# Youngs Moduli (GPa) = 40.28015 -84.35450 -46.94685
#
# Poissons Ratio (x) = -0.09409 0.00488
# Poissons Ratio (y) = 0.04493 1.38731
# Poissons Ratio (z) = -0.00419 2.49273
#
# Static dielectric constant tensor:
#      x y z
#    x 1.681520 0.000000 0.000000 
#    y 0.000000 1.675480 0.000000 
#    z 0.000000 0.000000 1.725400 
# 
# From -- ./inp_files/10367.got.cif
#   From: 2010.05.17/outbox.ucp.g08.bks.cvg/sg36_6_cif.got.tgz:10367.got - 2010.06.11 10:37:26.
