data_PCOD9353659
_publ_section_title
;
Structure prediction by ZEFSAII (Michael W. Deem and Ramdas Pophale) SiO2 
 PCOD9353659
Probable space group: C C C 2
;
_chemical_formula_sum "Si O2"
_cell_formula_units_Z 44
_cell_length_a 14.405642
_cell_length_b 12.403721
_cell_length_c 13.156324
_cell_angle_alpha 90.000000
_cell_angle_beta 90.000000
_cell_angle_gamma 90.000000
_cell_volume 2350.818864
_symmetry_space_group_name_H-M "C C C 2"
_symmetry_group_IT_number 37
_symmetry_cell_setting 'orthorhombic'
loop_
_space_group_symop_operation_xyz
x,y,z
-x,-y,z
-x,y,1/2+z
x,-y,1/2+z
1/2+x,1/2+y,z
1/2-x,1/2-y,z
1/2-x,1/2+y,1/2+z
1/2+x,1/2-y,1/2+z
loop_
_atom_site_type_symbol
_atom_site_label
_atom_site_fract_x
_atom_site_fract_y
_atom_site_fract_z
Si Si1 0.908696 0.745632 0.315380
Si Si2 0.752601 0.096658 0.760536
Si Si3 0.484834 0.880577 0.146591
Si Si4 0.925361 0.695072 0.948833
Si Si5 0.691480 0.140834 0.255292
Si Si6 0.750000 0.250000 0.571434
O O1 0.847927 0.852142 0.300377
O O2 0.832163 0.649372 0.325552
O O3 0.963503 0.709750 0.213700
O O4 0.986111 0.755941 0.401573
O O5 0.739869 0.148620 0.647823
O O6 0.749302 0.968941 0.757296
O O7 0.375815 0.858636 0.157322
O O8 0.500000 0.000000 0.191397
O O9 0.530234 0.878418 0.036150
O O10 0.876177 0.637543 0.853658
O O11 0.841660 0.759757 0.002746
O O12 0.750000 0.250000 0.259865
#
# Coordination Sequence:
#
# PCOD9353659 Si02
#       6
#     8   8   8   8   8   4
#     4   9  20  36  63  89 122 156 204 251 313 364
#     4  10  19  42  61  88 125 168 194 261 325 367
#     4  11  20  37  62  93 119 158 208 264 303 367
#     4  11  21  36  62  96 119 160 213 258 305 374
#     4  11  24  40  62  91 125 162 210 257 312 369
#     4  10  18  40  68  88 122 170 212 250 318 376
#
# _framework density 18.716881999999998
#
# number of rings (size 3 to 8) (size 9 to 14) (size 15 to 20)
#    0.000    1.818    6.364    0.000    2.545    0.000 
#    3.273    3.636    4.000    0.000    0.000    0.000 
#    0.000    0.000    0.000    0.000    0.000    0.000 
#
# Total GULP energy -122568.006183 kJ/mol
# GULP energy per Si atom -5571.273008 kJ/mol
# Density = 1.867428 g / cm^3
# Si number density = 18.716882 Si / 1000 Ang^3
#
#
#
# Elastic Constant Matrix: (Units=GPa)
#
#
# Indices 1 2 3 4 5 6 
#
# 1 138.5585 70.4205 45.5387 0.0000 0.0000 0.0000
# 2 70.4205 135.8521 21.1320 0.0000 0.0000 0.0000
# 3 45.5387 21.1320 56.9499 0.0000 0.0000 0.0000
# 4 0.0000 0.0000 0.0000 6.2938 0.0000 0.0000
# 5 0.0000 0.0000 0.0000 0.0000 44.4597 0.0000
# 6 0.0000 0.0000 0.0000 0.0000 0.0000 25.0364
#
#
#
# Elastic Compliance Matrix: (Units=1/GPa)
#
#
# Indices 1 2 3 4 5 6 
#
# 1 0.012537 -0.005242 -0.008080 0.000000 0.000000 0.000000
# 2 -0.005242 0.010003 0.000480 0.000000 0.000000 0.000000
# 3 -0.008080 0.000480 0.023842 0.000000 0.000000 0.000000
# 4 0.000000 0.000000 0.000000 0.158887 0.000000 0.000000
# 5 0.000000 0.000000 0.000000 0.000000 0.022492 0.000000
# 6 0.000000 0.000000 0.000000 0.000000 0.000000 0.039942
#
#
# Mechanical properties :
#
#
# Convention : Reuss Voigt Hill
#
# Bulk Modulus (GPa) = 48.31275 67.28256 57.79765
# Shear Modulus (GPa) = 16.65074 28.10926 22.38000
#
# Velocity S-wave (km/s) = 2.98587 3.87953 3.46166
# Velocity P-wave (km/s) = 6.14456 7.48954 6.85014
#
# Compressibility (1/GPa) = 0.02069847
#
# Stress axis : x y z
#
# Youngs Moduli (GPa) = 79.76606 99.96533 41.94267
#
# Poissons Ratio (x) = 0.52399 0.33888
# Poissons Ratio (y) = 0.41811 -0.02011
# Poissons Ratio (z) = 0.64448 -0.04793
#
# Static dielectric constant tensor:
#      x y z
#    x 1.691430 0.000000 0.000000 
#    y 0.000000 1.628820 0.000000 
#    z 0.000000 0.000000 1.696610 
# 
# From -- ./inp_files/12039.got.cif
#   From: 2010.05.17/outbox.cif.g08.bks.cpg/sg37_7_cif.got.tgz:12039.got - 2010.06.03 17:53:42.
