data_PCOD9353836
_publ_section_title
;
Structure prediction by ZEFSAII (Michael W. Deem and Ramdas Pophale) SiO2 
 PCOD9353836
Probable space group: C C C 2
;
_chemical_formula_sum "Si O2"
_cell_formula_units_Z 60
_cell_length_a 9.872025
_cell_length_b 24.065793
_cell_length_c 13.812532
_cell_angle_alpha 90.000000
_cell_angle_beta 90.000000
_cell_angle_gamma 90.000000
_cell_volume 3281.555249
_symmetry_space_group_name_H-M "C C C 2"
_symmetry_group_IT_number 37
_symmetry_cell_setting 'orthorhombic'
loop_
_space_group_symop_operation_xyz
x,y,z
-x,-y,z
-x,y,1/2+z
x,-y,1/2+z
1/2+x,1/2+y,z
1/2-x,1/2-y,z
1/2-x,1/2+y,1/2+z
1/2+x,1/2-y,1/2+z
loop_
_atom_site_type_symbol
_atom_site_label
_atom_site_fract_x
_atom_site_fract_y
_atom_site_fract_z
Si Si1 0.706395 0.597481 0.896410
Si Si2 0.411338 0.591323 0.816634
Si Si3 0.494457 0.879561 0.391262
Si Si4 0.162564 0.368003 0.076313
Si Si5 0.287330 0.187213 0.268438
Si Si6 0.656871 0.481709 0.986880
Si Si7 0.500000 0.000000 0.820251
Si Si8 0.262273 0.981458 0.680610
O O1 0.570435 0.598267 0.835169
O O2 0.841216 0.621638 0.847437
O O3 0.726052 0.533496 0.930903
O O4 0.709834 0.629393 0.000872
O O5 0.342717 0.647658 0.782284
O O6 0.347205 0.571785 0.919115
O O7 0.364560 0.543311 0.741494
O O8 0.464727 0.866061 0.503578
O O9 0.596897 0.839784 0.336294
O O10 0.532923 0.944365 0.379803
O O11 0.168645 0.320875 0.156649
O O12 0.168458 0.426309 0.134106
O O13 0.250000 0.250000 0.291385
O O14 0.500000 0.500000 0.996909
O O15 0.718679 0.479187 0.093040
O O16 0.628339 0.991372 0.750114
#
# Coordination Sequence:
#
# PCOD9353836 Si02
#       8
#     8   8   8   8   8   8   4   8
#     4   8  18  35  61  86 120 154 197 247 305 379
#     4  10  19  38  59  87 120 162 210 243 310 369
#     4  10  21  38  61  92 123 162 205 254 321 378
#     4   8  19  40  59  84 122 156 205 246 320 366
#     4  11  23  43  65  88 118 165 214 259 308 378
#     4   9  18  33  53  85 125 166 199 239 309 378
#     4  12  20  32  56  92 128 164 202 256 318 386
#     4  10  20  31  53  89 128 170 197 241 313 380
#
# _framework density 18.284013000000002
#
# number of rings (size 3 to 8) (size 9 to 14) (size 15 to 20)
#    0.800    1.600    2.667    0.800    0.000    4.267 
#    2.400    0.667    0.000    0.000    0.000    0.000 
#    0.000    0.000    0.000    0.000    0.000    0.000 
#
# Total GULP energy -167062.466226 kJ/mol
# GULP energy per Si atom -5568.748874 kJ/mol
# Density = 1.824240 g / cm^3
# Si number density = 18.284013 Si / 1000 Ang^3
#
#
#
# Elastic Constant Matrix: (Units=GPa)
#
#
# Indices 1 2 3 4 5 6 
#
# 1 76.5844 26.7380 36.5444 0.0000 0.0000 0.0000
# 2 26.7380 82.1395 34.0836 0.0000 0.0000 0.0000
# 3 36.5444 34.0836 90.4759 0.0000 0.0000 0.0000
# 4 0.0000 0.0000 0.0000 14.8814 0.0000 0.0000
# 5 0.0000 0.0000 0.0000 0.0000 35.6513 0.0000
# 6 0.0000 0.0000 0.0000 0.0000 0.0000 18.3709
#
#
#
# Elastic Compliance Matrix: (Units=1/GPa)
#
#
# Indices 1 2 3 4 5 6 
#
# 1 0.016836 -0.003151 -0.005613 0.000000 0.000000 0.000000
# 2 -0.003151 0.015020 -0.004385 0.000000 0.000000 0.000000
# 3 -0.005613 -0.004385 0.014972 0.000000 0.000000 0.000000
# 4 0.000000 0.000000 0.000000 0.067198 0.000000 0.000000
# 5 0.000000 0.000000 0.000000 0.000000 0.028049 0.000000
# 6 0.000000 0.000000 0.000000 0.000000 0.000000 0.054434
#
#
# Mechanical properties :
#
#
# Convention : Reuss Voigt Hill
#
# Bulk Modulus (GPa) = 48.71328 49.32574 49.01951
# Shear Modulus (GPa) = 21.77205 23.90296 22.83751
#
# Velocity S-wave (km/s) = 3.45450 3.61960 3.53801
# Velocity P-wave (km/s) = 6.52777 6.67119 6.59987
#
# Compressibility (1/GPa) = 0.02052828
#
# Stress axis : x y z
#
# Youngs Moduli (GPa) = 59.39579 66.57819 66.79161
#
# Poissons Ratio (x) = 0.20981 0.37492
# Poissons Ratio (y) = 0.18718 0.29291
# Poissons Ratio (z) = 0.33340 0.29197
#
# Static dielectric constant tensor:
#      x y z
#    x 1.689250 0.000000 0.000000 
#    y 0.000000 1.611080 0.000000 
#    z 0.000000 0.000000 1.668790 
# 
# From -- ./inp_files/11856.got.cif
#   From: 2010.05.17/outbox.cif.g08.bks.cpg/sg37_6_cif.got.tgz:11856.got - 2010.06.03 17:53:42.
