data_PCOD9353617
_publ_section_title
;
Structure prediction by ZEFSAII (Michael W. Deem and Ramdas Pophale) SiO2 
 PCOD9353617
Probable space group: C C C 2
;
_chemical_formula_sum "Si O2"
_cell_formula_units_Z 36
_cell_length_a 18.805427
_cell_length_b 8.067885
_cell_length_c 9.306522
_cell_angle_alpha 90.000000
_cell_angle_beta 90.000000
_cell_angle_gamma 90.000000
_cell_volume 1411.985726
_symmetry_space_group_name_H-M "C C C 2"
_symmetry_group_IT_number 37
_symmetry_cell_setting 'orthorhombic'
loop_
_space_group_symop_operation_xyz
x,y,z
-x,-y,z
-x,y,1/2+z
x,-y,1/2+z
1/2+x,1/2+y,z
1/2-x,1/2-y,z
1/2-x,1/2+y,1/2+z
1/2+x,1/2-y,1/2+z
loop_
_atom_site_type_symbol
_atom_site_label
_atom_site_fract_x
_atom_site_fract_y
_atom_site_fract_z
Si Si1 0.832255 0.699919 0.331280
Si Si2 0.134743 0.434146 0.031346
Si Si3 0.865812 0.033850 0.183711
Si Si4 0.750000 0.750000 0.828546
Si Si5 0.062649 0.872786 0.437684
O O1 0.750000 0.750000 0.353997
O O2 0.843141 0.575086 0.196703
O O3 0.868220 0.619187 0.470114
O O4 0.869667 0.861840 0.270556
O O5 0.067641 0.313623 0.999213
O O6 0.197823 0.351319 0.934898
O O7 0.795017 0.129828 0.225917
O O8 0.926488 0.137753 0.266169
O O9 0.873165 0.968588 0.023003
O O10 0.000000 0.000000 0.470174
#
# Coordination Sequence:
#
# PCOD9353617 Si02
#       5
#     8   8   8   4   8
#     4  11  21  38  58  95 137 171 208 274 344 410
#     4  10  22  37  61  93 134 172 218 275 333 405
#     4  10  22  37  64  96 128 174 220 281 345 395
#     4  10  18  36  60  98 132 164 224 272 336 416
#     4  10  22  43  64  90 127 178 234 273 324 408
#
# _framework density 25.496009999999998
#
# number of rings (size 3 to 8) (size 9 to 14) (size 15 to 20)
#    0.000    1.778    3.333    0.667    0.000    3.556 
#    4.000    1.111    0.000    5.333    0.000    0.000 
#    0.000    0.000    0.000    0.000    0.000    0.000 
#
# Total GULP energy -100589.361734 kJ/mol
# GULP energy per Si atom -5588.297874 kJ/mol
# Density = 2.543798 g / cm^3
# Si number density = 25.496010 Si / 1000 Ang^3
#
#
#
# Elastic Constant Matrix: (Units=GPa)
#
#
# Indices 1 2 3 4 5 6 
#
# 1 45.6199 14.1314 -4.5337 0.0000 0.0000 0.0000
# 2 14.1314 63.3920 25.5740 0.0000 0.0000 0.0000
# 3 -4.5337 25.5740 138.5837 0.0000 0.0000 0.0000
# 4 0.0000 0.0000 0.0000 57.6009 0.0000 0.0000
# 5 0.0000 0.0000 0.0000 0.0000 12.7564 0.0000
# 6 0.0000 0.0000 0.0000 0.0000 0.0000 33.5876
#
#
#
# Elastic Compliance Matrix: (Units=1/GPa)
#
#
# Indices 1 2 3 4 5 6 
#
# 1 0.024008 -0.006125 0.001916 0.000000 0.000000 0.000000
# 2 -0.006125 0.018606 -0.003634 0.000000 0.000000 0.000000
# 3 0.001916 -0.003634 0.007949 0.000000 0.000000 0.000000
# 4 0.000000 0.000000 0.000000 0.017361 0.000000 0.000000
# 5 0.000000 0.000000 0.000000 0.000000 0.078392 0.000000
# 6 0.000000 0.000000 0.000000 0.000000 0.000000 0.029773
#
#
# Mechanical properties :
#
#
# Convention : Reuss Voigt Hill
#
# Bulk Modulus (GPa) = 28.67196 35.32654 31.99925
# Shear Modulus (GPa) = 24.58201 34.95058 29.76629
#
# Velocity S-wave (km/s) = 3.10845 3.70648 3.42056
# Velocity P-wave (km/s) = 4.91460 5.67478 5.30832
#
# Compressibility (1/GPa) = 0.03487728
#
# Stress axis : x y z
#
# Youngs Moduli (GPa) = 41.65307 53.74551 125.80006
#
# Poissons Ratio (x) = 0.32917 -0.24099
# Poissons Ratio (y) = 0.25511 0.45715
# Poissons Ratio (z) = -0.07979 0.19531
#
# Static dielectric constant tensor:
#      x y z
#    x 2.072570 0.000000 0.000000 
#    y 0.000000 2.068380 0.000000 
#    z 0.000000 0.000000 1.989420 
# 
# From -- ./inp_files/2133.got.cif
#   From: 2010.05.17/outbox.cif.g08.bks.cpg/sg37_2_cif.got.tgz:2133.got - 2010.06.03 17:53:42.
