data_PCOD9353735
_publ_section_title
;
Structure prediction by ZEFSAII (Michael W. Deem and Ramdas Pophale) SiO2 
 PCOD9353735
Probable space group: C C C 2
;
_chemical_formula_sum "Si O2"
_cell_formula_units_Z 64
_cell_length_a 12.114846
_cell_length_b 12.402308
_cell_length_c 21.433637
_cell_angle_alpha 90.000000
_cell_angle_beta 90.000000
_cell_angle_gamma 90.000000
_cell_volume 3220.447930
_symmetry_space_group_name_H-M "C C C 2"
_symmetry_group_IT_number 37
_symmetry_cell_setting 'orthorhombic'
loop_
_space_group_symop_operation_xyz
x,y,z
-x,-y,z
-x,y,1/2+z
x,-y,1/2+z
1/2+x,1/2+y,z
1/2-x,1/2-y,z
1/2-x,1/2+y,1/2+z
1/2+x,1/2-y,1/2+z
loop_
_atom_site_type_symbol
_atom_site_label
_atom_site_fract_x
_atom_site_fract_y
_atom_site_fract_z
Si Si1 0.448518 0.886093 0.028440
Si Si2 0.964901 0.804122 0.222526
Si Si3 0.856506 0.705483 0.107435
Si Si4 0.672263 0.565513 0.325852
Si Si5 0.703896 0.365144 0.252439
Si Si6 0.379853 0.264646 0.417054
Si Si7 0.369029 0.978946 0.155507
Si Si8 0.065104 0.612143 0.813339
O O1 0.551958 0.829262 0.059781
O O2 0.371552 0.919214 0.087841
O O3 0.500000 0.000000 0.001703
O O4 0.398561 0.796260 0.982658
O O5 0.906490 0.788644 0.156751
O O6 0.893836 0.877327 0.269415
O O7 0.966475 0.685892 0.254663
O O8 0.089014 0.846610 0.216142
O O9 0.750000 0.750000 0.074217
O O10 0.822246 0.598102 0.145048
O O11 0.671794 0.439117 0.311286
O O12 0.616006 0.612410 0.389303
O O13 0.802759 0.592814 0.316775
O O14 0.750000 0.250000 0.272482
O O15 0.796452 0.419391 0.207531
O O16 0.250000 0.250000 0.405446
O O17 0.454915 0.191443 0.371697
O O18 0.500000 0.000000 0.169367
O O19 0.000000 0.500000 0.816226
#
# Coordination Sequence:
#
# PCOD9353735 Si02
#       8
#     8   8   8   8   8   8   8   8
#     4   9  19  35  58  85 112 146 199 259 299 342
#     4  11  21  33  53  83 123 157 186 233 293 364
#     4  10  19  34  57  84 116 157 193 230 293 365
#     4  10  22  37  54  82 116 158 200 238 297 365
#     4  12  22  33  54  86 123 157 190 239 304 367
#     4   9  19  36  59  82 108 149 199 249 295 350
#     4   9  20  36  55  87 122 152 191 244 298 352
#     4  10  19  34  58  83 108 148 198 242 288 347
#
# _framework density 19.873011999999999
#
# number of rings (size 3 to 8) (size 9 to 14) (size 15 to 20)
#    0.000    2.250    0.000    6.375    0.000    4.000 
#    0.000    0.000    0.000   31.500    0.000    0.000 
#    0.000    0.000    0.000    0.000    0.000    0.000 
#
# Total GULP energy -178170.459533 kJ/mol
# GULP energy per Si atom -5567.826860 kJ/mol
# Density = 1.982778 g / cm^3
# Si number density = 19.873012 Si / 1000 Ang^3
#
#
#
# Elastic Constant Matrix: (Units=GPa)
#
#
# Indices 1 2 3 4 5 6 
#
# 1 89.2106 35.4970 15.2408 0.0000 0.0000 0.0000
# 2 35.4970 105.4294 33.4138 0.0000 0.0000 0.0000
# 3 15.2408 33.4138 63.7340 0.0000 0.0000 0.0000
# 4 0.0000 0.0000 0.0000 10.3355 0.0000 0.0000
# 5 0.0000 0.0000 0.0000 0.0000 15.8331 0.0000
# 6 0.0000 0.0000 0.0000 0.0000 0.0000 21.6295
#
#
#
# Elastic Compliance Matrix: (Units=1/GPa)
#
#
# Indices 1 2 3 4 5 6 
#
# 1 0.012994 -0.004066 -0.000976 0.000000 0.000000 0.000000
# 2 -0.004066 0.012647 -0.005658 0.000000 0.000000 0.000000
# 3 -0.000976 -0.005658 0.018890 0.000000 0.000000 0.000000
# 4 0.000000 0.000000 0.000000 0.096754 0.000000 0.000000
# 5 0.000000 0.000000 0.000000 0.000000 0.063159 0.000000
# 6 0.000000 0.000000 0.000000 0.000000 0.000000 0.046233
#
#
# Mechanical properties :
#
#
# Convention : Reuss Voigt Hill
#
# Bulk Modulus (GPa) = 43.23080 47.40857 45.31968
# Shear Modulus (GPa) = 17.87072 21.17443 19.52257
#
# Velocity S-wave (km/s) = 3.00200 3.26772 3.13767
# Velocity P-wave (km/s) = 5.81521 6.17615 5.99840
#
# Compressibility (1/GPa) = 0.02313166
#
# Stress axis : x y z
#
# Youngs Moduli (GPa) = 76.95944 79.06899 52.93802
#
# Poissons Ratio (x) = 0.32147 0.05165
# Poissons Ratio (y) = 0.31289 0.29954
# Poissons Ratio (z) = 0.07509 0.44740
#
# Static dielectric constant tensor:
#      x y z
#    x 1.715130 0.000000 0.000000 
#    y 0.000000 1.790320 0.000000 
#    z 0.000000 0.000000 1.768690 
# 
# From -- ./inp_files/18742.got.cif
#   From: 2010.05.17/outbox.cif.g08.bks.cpg/sg37_10_cif.got.tgz:18742.got - 2010.06.03 17:53:42.
