data_PCOD9353237
_publ_section_title
;
Structure prediction by ZEFSAII (Michael W. Deem and Ramdas Pophale) SiO2 
 PCOD9353237
Probable space group: C M C 21
;
_chemical_formula_sum "Si O2"
_cell_formula_units_Z 40
_cell_length_a 22.726308
_cell_length_b 7.900005
_cell_length_c 8.131535
_cell_angle_alpha 90.000000
_cell_angle_beta 90.000000
_cell_angle_gamma 90.000000
_cell_volume 1459.919098
_symmetry_space_group_name_H-M "C M C 21"
_symmetry_group_IT_number 36
_symmetry_cell_setting 'orthorhombic'
loop_
_space_group_symop_operation_xyz
x,y,z
-x,-y,1/2+z
x,-y,1/2+z
-x,y,z
1/2+x,1/2+y,z
1/2-x,1/2-y,1/2+z
1/2+x,1/2-y,1/2+z
1/2-x,1/2+y,z
loop_
_atom_site_type_symbol
_atom_site_label
_atom_site_fract_x
_atom_site_fract_y
_atom_site_fract_z
Si Si1 0.111996 0.402332 0.369200
Si Si2 0.066982 0.911060 0.084709
Si Si3 0.262449 0.175933 0.906436
Si Si4 0.434553 0.789727 0.030780
Si Si5 0.690023 0.465681 0.700567
O O1 0.178618 0.434940 0.429195
O O2 0.079871 0.582014 0.385340
O O3 0.108094 0.334254 0.183249
O O4 0.081374 0.256650 0.479521
O O5 0.000000 0.892684 0.151400
O O6 0.065093 0.092251 0.989087
O O7 0.125164 0.957446 0.188820
O O8 0.294533 0.352299 0.861596
O O9 0.230878 0.125947 0.736478
O O10 0.213886 0.138980 0.044392
O O11 0.500000 0.828911 0.094605
#
# Coordination Sequence:
#
# PCOD9353237 Si02
#       5
#     8   8   8   8   8
#     4  12  25  49  76 111 155 201 255 324 386 460
#     4  11  26  49  76 112 157 202 257 319 386 465
#     4  12  26  47  75 111 150 198 261 317 391 462
#     4  11  25  45  75 112 150 203 259 314 389 465
#     4  12  26  48  76 112 150 204 256 320 392 460
#
# _framework density 27.398779000000001
#
# number of rings (size 3 to 8) (size 9 to 14) (size 15 to 20)
#    0.000    0.400    2.000    6.600    2.800    1.600 
#    0.000    2.000    0.000    0.000    0.000    0.000 
#    0.000    0.000    0.000    0.000    0.000    0.000 
#
# Total GULP energy -111869.386775 kJ/mol
# GULP energy per Si atom -5593.469339 kJ/mol
# Density = 2.733642 g / cm^3
# Si number density = 27.398779 Si / 1000 Ang^3
#
#
#
# Elastic Constant Matrix: (Units=GPa)
#
#
# Indices 1 2 3 4 5 6 
#
# 1 234.1332 40.5895 52.2799 0.0000 0.0000 0.0000
# 2 40.5895 67.3215 6.7245 0.0000 0.0000 0.0000
# 3 52.2799 6.7245 97.6940 0.0000 0.0000 0.0000
# 4 0.0000 0.0000 0.0000 39.8894 0.0000 0.0000
# 5 0.0000 0.0000 0.0000 0.0000 51.1778 0.0000
# 6 0.0000 0.0000 0.0000 0.0000 0.0000 45.8760
#
#
#
# Elastic Compliance Matrix: (Units=1/GPa)
#
#
# Indices 1 2 3 4 5 6 
#
# 1 0.005385 -0.002980 -0.002677 0.000000 0.000000 0.000000
# 2 -0.002980 0.016605 0.000451 0.000000 0.000000 0.000000
# 3 -0.002677 0.000451 0.011637 0.000000 0.000000 0.000000
# 4 0.000000 0.000000 0.000000 0.025069 0.000000 0.000000
# 5 0.000000 0.000000 0.000000 0.000000 0.019540 0.000000
# 6 0.000000 0.000000 0.000000 0.000000 0.000000 0.021798
#
#
# Mechanical properties :
#
#
# Convention : Reuss Voigt Hill
#
# Bulk Modulus (GPa) = 43.06919 66.48181 54.77550
# Shear Modulus (GPa) = 42.30679 47.35896 44.83288
#
# Velocity S-wave (km/s) = 3.93378 4.16204 4.04952
# Velocity P-wave (km/s) = 6.03211 6.88578 6.47303
#
# Compressibility (1/GPa) = 0.02321845
#
# Stress axis : x y z
#
# Youngs Moduli (GPa) = 185.69015 60.22126 85.92965
#
# Poissons Ratio (x) = 0.17943 0.23002
# Poissons Ratio (y) = 0.55327 -0.03880
# Poissons Ratio (z) = 0.49706 -0.02719
#
# Static dielectric constant tensor:
#      x y z
#    x 2.084620 0.000000 0.000000 
#    y 0.000000 2.262810 0.000000 
#    z 0.000000 0.000000 2.127860 
# 
# From -- ./inp_files/5465.got.cif
#   From: 2010.05.17/outbox.cif.g08.bks.cpg/sg36_3_cif.got.tgz:5465.got - 2010.06.03 17:41:39.
