data_PCOD9353074
_publ_section_title
;
Structure prediction by ZEFSAII (Michael W. Deem and Ramdas Pophale) SiO2 
 PCOD9353074
Probable space group: C M C 21
;
_chemical_formula_sum "Si O2"
_cell_formula_units_Z 52
_cell_length_a 7.538921
_cell_length_b 20.109201
_cell_length_c 13.359885
_cell_angle_alpha 90.000000
_cell_angle_beta 90.000000
_cell_angle_gamma 90.000000
_cell_volume 2025.380980
_symmetry_space_group_name_H-M "C M C 21"
_symmetry_group_IT_number 36
_symmetry_cell_setting 'orthorhombic'
loop_
_space_group_symop_operation_xyz
x,y,z
-x,-y,1/2+z
x,-y,1/2+z
-x,y,z
1/2+x,1/2+y,z
1/2-x,1/2-y,1/2+z
1/2+x,1/2-y,1/2+z
1/2-x,1/2+y,z
loop_
_atom_site_type_symbol
_atom_site_label
_atom_site_fract_x
_atom_site_fract_y
_atom_site_fract_z
Si Si1 0.784541 0.411404 0.253680
Si Si2 0.207434 0.699804 0.241406
Si Si3 0.287205 0.792036 0.402966
Si Si4 0.309318 0.366821 0.038620
Si Si5 0.213862 0.611555 0.073619
Si Si6 0.285357 0.993351 0.929363
Si Si7 0.500000 0.223134 0.611942
O O1 0.731509 0.348347 0.321690
O O2 0.703591 0.407101 0.144525
O O3 0.742170 0.474660 0.322175
O O4 0.000000 0.407439 0.240352
O O5 0.230383 0.721903 0.356024
O O6 0.345502 0.747198 0.186391
O O7 0.000000 0.711705 0.217215
O O8 0.251019 0.628485 0.189408
O O9 0.500000 0.793711 0.407899
O O10 0.220320 0.824883 0.507073
O O11 0.500000 0.333243 0.032483
O O12 0.152817 0.315777 0.048390
O O13 0.288678 0.421577 0.953041
O O14 0.275215 0.545792 0.015802
O O15 0.000000 0.608449 0.064949
O O16 0.500000 0.989369 0.934604
#
# Coordination Sequence:
#
# PCOD9353074 Si02
#       7
#     8   8   8   8   8   8   4
#     4   9  16  32  58  83 108 146 190 234 283 329
#     4  11  20  35  59  87 113 148 193 238 280 339
#     4   9  15  32  55  82 111 144 183 237 280 323
#     4  12  22  35  59  88 116 149 192 238 284 341
#     4   8  18  34  59  84 114 151 187 230 287 337
#     4   9  18  36  60  84 118 153 186 234 289 339
#     4  12  22  38  56  86 118 150 190 238 298 322
#
# _framework density 25.674182999999999
#
# number of rings (size 3 to 8) (size 9 to 14) (size 15 to 20)
#    0.000    2.154    3.846    2.308    0.000    0.615 
#    2.769    1.538    3.385    0.000    0.000    0.000 
#    0.000    0.000    0.000    0.000    0.000    0.000 
#
# Total GULP energy -144867.236197 kJ/mol
# GULP energy per Si atom -5571.816777 kJ/mol
# Density = 2.561575 g / cm^3
# Si number density = 25.674183 Si / 1000 Ang^3
#
#
#
# Elastic Constant Matrix: (Units=GPa)
#
#
# Indices 1 2 3 4 5 6 
#
# 1 137.1342 7.5512 12.8971 0.0000 0.0000 0.0000
# 2 7.5512 76.4691 13.5431 0.0000 0.0000 0.0000
# 3 12.8971 13.5431 77.3967 0.0000 0.0000 0.0000
# 4 0.0000 0.0000 0.0000 42.4795 0.0000 0.0000
# 5 0.0000 0.0000 0.0000 0.0000 13.5656 0.0000
# 6 0.0000 0.0000 0.0000 0.0000 0.0000 -87.1995
#
#
#
# Elastic Compliance Matrix: (Units=1/GPa)
#
#
# Indices 1 2 3 4 5 6 
#
# 1 0.007429 -0.000531 -0.001145 0.000000 0.000000 0.000000
# 2 -0.000531 0.013533 -0.002280 0.000000 0.000000 0.000000
# 3 -0.001145 -0.002280 0.013510 0.000000 0.000000 0.000000
# 4 0.000000 0.000000 0.000000 0.023541 0.000000 0.000000
# 5 0.000000 0.000000 0.000000 0.000000 0.073716 0.000000
# 6 0.000000 0.000000 0.000000 0.000000 0.000000 -0.011468
#
#
# Mechanical properties :
#
#
# Convention : Reuss Voigt Hill
#
# Bulk Modulus (GPa) = 37.64849 39.88697 38.76773
# Shear Modulus (GPa) = 36.48946 10.90306 23.69626
#
# Velocity S-wave (km/s) = 3.77404 2.06299 3.04132
# Velocity P-wave (km/s) = 5.80405 4.60913 5.24076
#
# Compressibility (1/GPa) = 0.02656149
#
# Stress axis : x y z
#
# Youngs Moduli (GPa) = 134.60678 73.89168 74.01839
#
# Poissons Ratio (x) = 0.03922 0.08476
# Poissons Ratio (y) = 0.07145 0.16874
# Poissons Ratio (z) = 0.15413 0.16845
#
# Static dielectric constant tensor:
#      x y z
#    x 1.948570 0.000000 0.000000 
#    y 0.000000 2.066850 0.000000 
#    z 0.000000 0.000000 2.066480 
# 
# From -- ./inp_files/10800.got.cif
#   From: 2010.05.17/outbox.cif.g08.bks.cpg/sg36_6_cif.got.tgz:10800.got - 2010.06.03 17:41:39.
