data_PCOD9353935
_publ_section_title
;
Structure prediction by ZEFSAII (Michael W. Deem and Ramdas Pophale) SiO2 
 PCOD9353935
Probable space group: C C C 2
;
_chemical_formula_sum "Si O2"
_cell_formula_units_Z 44
_cell_length_a 24.341083
_cell_length_b 9.423118
_cell_length_c 8.575650
_cell_angle_alpha 90.000000
_cell_angle_beta 90.000000
_cell_angle_gamma 90.000000
_cell_volume 1966.987385
_symmetry_space_group_name_H-M "C C C 2"
_symmetry_group_IT_number 37
_symmetry_cell_setting 'orthorhombic'
loop_
_space_group_symop_operation_xyz
x,y,z
-x,-y,z
-x,y,1/2+z
x,-y,1/2+z
1/2+x,1/2+y,z
1/2-x,1/2-y,z
1/2-x,1/2+y,1/2+z
1/2+x,1/2-y,1/2+z
loop_
_atom_site_type_symbol
_atom_site_label
_atom_site_fract_x
_atom_site_fract_y
_atom_site_fract_z
Si Si1 0.770531 0.450161 0.663990
Si Si2 0.250000 0.250000 0.430378
Si Si3 0.559274 0.173109 0.649619
Si Si4 0.330581 0.745666 0.172929
Si Si5 0.439938 0.851032 0.025129
Si Si6 0.167343 0.800322 0.523356
O O1 0.778488 0.369698 0.828064
O O2 0.796892 0.604638 0.682817
O O3 0.806713 0.357125 0.544939
O O4 0.708194 0.401910 0.619528
O O5 0.296693 0.323176 0.532776
O O6 0.561885 0.161240 0.837520
O O7 0.497846 0.206000 0.590841
O O8 0.605776 0.281092 0.587833
O O9 0.567622 0.016027 0.575030
O O10 0.329831 0.670157 0.339218
O O11 0.391193 0.770834 0.112115
#
# Coordination Sequence:
#
# PCOD9353935 Si02
#       6
#     8   4   8   8   8   8
#     4  10  21  35  52  76 110 152 190 238 281 335
#     4  10  22  34  52  80 106 148 200 228 290 338
#     4  11  20  34  49  80 110 147 187 223 280 355
#     4  12  21  36  56  80 114 155 187 239 285 341
#     4  11  21  31  53  76 110 151 180 226 290 338
#     4  10  20  34  52  76 110 148 190 228 278 338
#
# _framework density 22.369233000000001
#
# number of rings (size 3 to 8) (size 9 to 14) (size 15 to 20)
#    0.000    1.455    1.818    8.727    0.000    0.000 
#    0.000    0.000    0.000    0.000    0.000    1.273 
#    0.000   14.545    0.000    1.818    0.000    0.000 
#
# Total GULP energy -122896.117630 kJ/mol
# GULP energy per Si atom -5586.187165 kJ/mol
# Density = 2.231832 g / cm^3
# Si number density = 22.369233 Si / 1000 Ang^3
#
#
#
# Elastic Constant Matrix: (Units=GPa)
#
#
# Indices 1 2 3 4 5 6 
#
# 1 163.7007 -0.5917 41.7921 0.0000 0.0000 0.0000
# 2 -0.5917 50.3735 1.8172 0.0000 0.0000 0.0000
# 3 41.7921 1.8172 171.8344 0.0000 0.0000 0.0000
# 4 0.0000 0.0000 0.0000 7.8858 0.0000 0.0000
# 5 0.0000 0.0000 0.0000 0.0000 39.2520 0.0000
# 6 0.0000 0.0000 0.0000 0.0000 0.0000 22.1844
#
#
#
# Elastic Compliance Matrix: (Units=1/GPa)
#
#
# Indices 1 2 3 4 5 6 
#
# 1 0.006514 0.000134 -0.001586 0.000000 0.000000 0.000000
# 2 0.000134 0.019862 -0.000243 0.000000 0.000000 0.000000
# 3 -0.001586 -0.000243 0.006208 0.000000 0.000000 0.000000
# 4 0.000000 0.000000 0.000000 0.126810 0.000000 0.000000
# 5 0.000000 0.000000 0.000000 0.000000 0.025476 0.000000
# 6 0.000000 0.000000 0.000000 0.000000 0.000000 0.045077
#
#
# Mechanical properties :
#
#
# Convention : Reuss Voigt Hill
#
# Bulk Modulus (GPa) = 34.25275 52.43820 43.34547
# Shear Modulus (GPa) = 20.57039 36.72384 28.64712
#
# Velocity S-wave (km/s) = 3.03575 4.05620 3.58250
# Velocity P-wave (km/s) = 5.25675 6.74018 6.04415
#
# Compressibility (1/GPa) = 0.02919474
#
# Stress axis : x y z
#
# Youngs Moduli (GPa) = 153.51510 50.34732 161.08813
#
# Poissons Ratio (x) = -0.00673 0.25544
# Poissons Ratio (y) = -0.02053 0.03907
# Poissons Ratio (z) = 0.24343 0.01221
#
# Static dielectric constant tensor:
#      x y z
#    x 1.882330 0.000000 0.000000 
#    y 0.000000 1.953600 0.000000 
#    z 0.000000 0.000000 1.856840 
# 
# From -- ./inp_files/4563.got.cif
#   From: 2010.05.17/outbox.cif.g08.bks.cpg/sg37_3_cif.got.tgz:4563.got - 2010.06.03 17:53:42.
