data_PCOD9353993
_publ_section_title
;
Structure prediction by ZEFSAII (Michael W. Deem and Ramdas Pophale) SiO2 
 PCOD9353993
Probable space group: C C C 2
;
_chemical_formula_sum "Si O2"
_cell_formula_units_Z 44
_cell_length_a 16.256196
_cell_length_b 19.301472
_cell_length_c 8.183248
_cell_angle_alpha 90.000000
_cell_angle_beta 90.000000
_cell_angle_gamma 90.000000
_cell_volume 2567.645548
_symmetry_space_group_name_H-M "C C C 2"
_symmetry_group_IT_number 37
_symmetry_cell_setting 'orthorhombic'
loop_
_space_group_symop_operation_xyz
x,y,z
-x,-y,z
-x,y,1/2+z
x,-y,1/2+z
1/2+x,1/2+y,z
1/2-x,1/2-y,z
1/2-x,1/2+y,1/2+z
1/2+x,1/2-y,1/2+z
loop_
_atom_site_type_symbol
_atom_site_label
_atom_site_fract_x
_atom_site_fract_y
_atom_site_fract_z
Si Si1 0.750000 0.250000 0.327191
Si Si2 0.335241 0.594005 0.976413
Si Si3 0.566698 0.279382 0.883020
Si Si4 0.807480 0.687741 0.504956
Si Si5 0.895669 0.823135 0.011711
Si Si6 0.907284 0.028870 0.649013
O O1 0.799687 0.299127 0.199414
O O2 0.811362 0.204475 0.435428
O O3 0.388129 0.664221 0.002170
O O4 0.376409 0.561094 0.817191
O O5 0.241310 0.618500 0.959863
O O6 0.349624 0.536085 0.110183
O O7 0.592308 0.295820 0.697332
O O8 0.602844 0.205357 0.937923
O O9 0.470904 0.292364 0.907400
O O10 0.750000 0.750000 0.431309
O O11 0.902096 0.906839 0.022019
O O12 0.000000 0.000000 0.655918
#
# Coordination Sequence:
#
# PCOD9353993 Si02
#       6
#     4   8   8   8   8   8
#     4  10  22  34  56  76 110 148 198 238 282 328
#     4  10  21  32  51  74 110 149 179 220 270 333
#     4  10  20  36  53  75 113 146 186 230 280 326
#     4   8  19  36  52  68 108 143 190 230 276 313
#     4  11  23  33  56  82 113 148 189 229 283 346
#     4  11  22  32  50  79 118 152 183 215 281 349
#
# _framework density 17.136320999999999
#
# number of rings (size 3 to 8) (size 9 to 14) (size 15 to 20)
#    0.545    1.455    1.818    1.636   11.455    0.000 
#    0.000    0.000    0.000    0.000    0.000    1.273 
#    0.000    0.000    0.000    0.000    0.000    0.000 
#
# Total GULP energy -122565.757746 kJ/mol
# GULP energy per Si atom -5571.170807 kJ/mol
# Density = 1.709732 g / cm^3
# Si number density = 17.136321 Si / 1000 Ang^3
#
#
#
# Elastic Constant Matrix: (Units=GPa)
#
#
# Indices 1 2 3 4 5 6 
#
# 1 54.2309 53.6516 24.2825 0.0000 0.0000 0.0000
# 2 53.6516 83.8261 23.8733 0.0000 0.0000 0.0000
# 3 24.2825 23.8733 56.9894 0.0000 0.0000 0.0000
# 4 0.0000 0.0000 0.0000 13.9871 0.0000 0.0000
# 5 0.0000 0.0000 0.0000 0.0000 26.8491 0.0000
# 6 0.0000 0.0000 0.0000 0.0000 0.0000 38.6640
#
#
#
# Elastic Compliance Matrix: (Units=1/GPa)
#
#
# Indices 1 2 3 4 5 6 
#
# 1 0.054713 -0.032223 -0.009814 0.000000 0.000000 0.000000
# 2 -0.032223 0.032523 0.000106 0.000000 0.000000 0.000000
# 3 -0.009814 0.000106 0.021685 0.000000 0.000000 0.000000
# 4 0.000000 0.000000 0.000000 0.071494 0.000000 0.000000
# 5 0.000000 0.000000 0.000000 0.000000 0.037245 0.000000
# 6 0.000000 0.000000 0.000000 0.000000 0.000000 0.025864
#
#
# Mechanical properties :
#
#
# Convention : Reuss Voigt Hill
#
# Bulk Modulus (GPa) = 39.90791 44.29570 42.10181
# Shear Modulus (GPa) = 14.89248 22.11599 18.50424
#
# Velocity S-wave (km/s) = 2.95118 3.59638 3.28963
# Velocity P-wave (km/s) = 5.91199 6.56889 6.24908
#
# Compressibility (1/GPa) = 0.02505769
#
# Stress axis : x y z
#
# Youngs Moduli (GPa) = 18.27719 30.74716 46.11583
#
# Poissons Ratio (x) = 0.99077 0.45258
# Poissons Ratio (y) = 0.58895 -0.00487
# Poissons Ratio (z) = 0.17937 -0.00325
#
# Static dielectric constant tensor:
#      x y z
#    x 1.615660 0.000000 0.000000 
#    y 0.000000 1.614170 0.000000 
#    z 0.000000 0.000000 1.645220 
# 
# From -- ./inp_files/3445.got.cif
#   From: 2010.05.17/outbox.cif.g08.bks.cpg/sg37_2_cif.got.tgz:3445.got - 2010.06.03 17:53:42.
