data_PCOD9353638
_publ_section_title
;
Structure prediction by ZEFSAII (Michael W. Deem and Ramdas Pophale) SiO2 
 PCOD9353638
Probable space group: C C C 2
;
_chemical_formula_sum "Si O2"
_cell_formula_units_Z 56
_cell_length_a 10.801249
_cell_length_b 12.325494
_cell_length_c 19.945345
_cell_angle_alpha 90.000000
_cell_angle_beta 90.000000
_cell_angle_gamma 90.000000
_cell_volume 2655.338335
_symmetry_space_group_name_H-M "C C C 2"
_symmetry_group_IT_number 37
_symmetry_cell_setting 'orthorhombic'
loop_
_space_group_symop_operation_xyz
x,y,z
-x,-y,z
-x,y,1/2+z
x,-y,1/2+z
1/2+x,1/2+y,z
1/2-x,1/2-y,z
1/2-x,1/2+y,1/2+z
1/2+x,1/2-y,1/2+z
loop_
_atom_site_type_symbol
_atom_site_label
_atom_site_fract_x
_atom_site_fract_y
_atom_site_fract_z
Si Si1 0.233035 0.983101 0.502180
Si Si2 0.535631 0.375416 0.586827
Si Si3 0.374597 0.774475 0.703962
Si Si4 0.414199 0.106237 0.770434
Si Si5 0.884739 0.802612 0.471044
Si Si6 0.128166 0.322096 0.917425
Si Si7 0.145743 0.504558 0.138197
O O1 0.142184 0.890848 0.531117
O O2 0.346849 0.927758 0.463794
O O3 0.149242 0.068751 0.460664
O O4 0.284153 0.036194 0.571028
O O5 0.500000 0.500000 0.602464
O O6 0.582182 0.315005 0.651695
O O7 0.431915 0.305905 0.548347
O O8 0.250000 0.750000 0.744399
O O9 0.490241 0.801289 0.749292
O O10 0.334300 0.880582 0.661177
O O11 0.359105 0.137770 0.840870
O O12 0.332897 0.078298 0.704356
O O13 0.500000 0.000000 0.779612
O O14 0.750000 0.750000 0.461638
O O15 0.997197 0.740451 0.431960
O O16 0.250000 0.250000 0.928969
O O17 0.000000 0.500000 0.123676
#
# Coordination Sequence:
#
# PCOD9353638 Si02
#       7
#     8   8   8   8   8   8   8
#     4  11  23  42  72  99 144 174 239 298 354 415
#     4  10  21  40  61  98 141 173 220 294 343 410
#     4  10  18  37  67  93 126 183 225 278 350 419
#     4   9  24  44  63  98 137 175 241 283 343 433
#     4  11  27  40  65 111 131 177 238 299 346 420
#     4  12  26  48  71  95 144 200 228 283 374 435
#     4   9  20  37  66 101 133 176 230 288 353 411
#
# _framework density 21.089593000000001
#
# number of rings (size 3 to 8) (size 9 to 14) (size 15 to 20)
#    0.000    2.000    2.857    0.857    8.000    0.571 
#    7.714    0.000    0.000    0.000    0.000    0.000 
#    0.000    0.000    0.000    0.000    0.000    0.000 
#
# Total GULP energy -155946.647289 kJ/mol
# GULP energy per Si atom -5569.523117 kJ/mol
# Density = 2.104159 g / cm^3
# Si number density = 21.089593 Si / 1000 Ang^3
#
#
#
# Elastic Constant Matrix: (Units=GPa)
#
#
# Indices 1 2 3 4 5 6 
#
# 1 102.1993 31.6928 43.7460 0.0000 0.0000 0.0000
# 2 31.6928 48.2548 49.5183 0.0000 0.0000 0.0000
# 3 43.7460 49.5183 106.9457 0.0000 0.0000 0.0000
# 4 0.0000 0.0000 0.0000 16.4008 0.0000 0.0000
# 5 0.0000 0.0000 0.0000 0.0000 14.2084 0.0000
# 6 0.0000 0.0000 0.0000 0.0000 0.0000 19.6320
#
#
#
# Elastic Compliance Matrix: (Units=1/GPa)
#
#
# Indices 1 2 3 4 5 6 
#
# 1 0.012636 -0.005706 -0.002527 0.000000 0.000000 0.000000
# 2 -0.005706 0.042061 -0.017141 0.000000 0.000000 0.000000
# 3 -0.002527 -0.017141 0.018321 0.000000 0.000000 0.000000
# 4 0.000000 0.000000 0.000000 0.060973 0.000000 0.000000
# 5 0.000000 0.000000 0.000000 0.000000 0.070381 0.000000
# 6 0.000000 0.000000 0.000000 0.000000 0.000000 0.050937
#
#
# Mechanical properties :
#
#
# Convention : Reuss Voigt Hill
#
# Bulk Modulus (GPa) = 44.90384 56.36820 50.63602
# Shear Modulus (GPa) = 15.95003 18.87777 17.41390
#
# Velocity S-wave (km/s) = 2.75307 2.99511 2.87664
# Velocity P-wave (km/s) = 5.60750 6.22470 5.92414
#
# Compressibility (1/GPa) = 0.02226981
#
# Stress axis : x y z
#
# Youngs Moduli (GPa) = 79.13999 23.77503 54.58304
#
# Poissons Ratio (x) = 0.13567 0.13791
# Poissons Ratio (y) = 0.45159 0.93561
# Poissons Ratio (z) = 0.19995 0.40753
#
# Static dielectric constant tensor:
#      x y z
#    x 1.903400 0.000000 0.000000 
#    y 0.000000 1.864800 0.000000 
#    z 0.000000 0.000000 1.737570 
# 
# From -- ./inp_files/16858.got.cif
#   From: 2010.05.17/outbox.cif.g08.bks.cpg/sg37_9_cif.got.tgz:16858.got - 2010.06.03 17:53:42.
