data_PCOD9353970
_publ_section_title
;
Structure prediction by ZEFSAII (Michael W. Deem and Ramdas Pophale) SiO2 
 PCOD9353970
Probable space group: C C C 2
;
_chemical_formula_sum "Si O2"
_cell_formula_units_Z 64
_cell_length_a 10.154224
_cell_length_b 11.418152
_cell_length_c 24.229705
_cell_angle_alpha 90.000000
_cell_angle_beta 90.000000
_cell_angle_gamma 90.000000
_cell_volume 2809.251920
_symmetry_space_group_name_H-M "C C C 2"
_symmetry_group_IT_number 37
_symmetry_cell_setting 'orthorhombic'
loop_
_space_group_symop_operation_xyz
x,y,z
-x,-y,z
-x,y,1/2+z
x,-y,1/2+z
1/2+x,1/2+y,z
1/2-x,1/2-y,z
1/2-x,1/2+y,1/2+z
1/2+x,1/2-y,1/2+z
loop_
_atom_site_type_symbol
_atom_site_label
_atom_site_fract_x
_atom_site_fract_y
_atom_site_fract_z
Si Si1 0.471197 0.799606 0.509730
Si Si2 0.788612 0.551972 0.143273
Si Si3 0.812913 0.122640 0.816391
Si Si4 0.552641 0.698263 0.745520
Si Si5 0.820766 0.428296 0.259838
Si Si6 0.794015 0.486873 0.022116
Si Si7 0.458004 0.276521 0.129859
Si Si8 0.632661 0.651271 0.437787
O O1 0.585882 0.897804 0.510731
O O2 0.487740 0.721087 0.565030
O O3 0.501798 0.717641 0.457948
O O4 0.339407 0.878505 0.511396
O O5 0.813438 0.481247 0.198486
O O6 0.771789 0.477660 0.087684
O O7 0.660982 0.635484 0.143913
O O8 0.909208 0.642780 0.137124
O O9 0.750000 0.250000 0.816563
O O10 0.873797 0.101101 0.876444
O O11 0.925874 0.132138 0.769556
O O12 0.696423 0.032872 0.802562
O O13 0.682850 0.638598 0.767807
O O14 0.562542 0.834498 0.763357
O O15 0.559263 0.697129 0.678726
O O16 0.677466 0.444498 0.982763
O O17 0.750000 0.750000 0.437669
#
# Coordination Sequence:
#
# PCOD9353970 Si02
#       8
#     8   8   8   8   8   8   8   8
#     4   9  18  34  56  83 116 153 196 248 304 366
#     4  10  20  35  57  87 122 155 193 247 305 364
#     4  11  23  41  63  89 121 161 207 260 307 362
#     4  11  24  40  60  87 120 161 204 253 314 373
#     4  11  24  40  60  87 120 161 204 253 314 373
#     4   9  18  34  56  83 116 153 196 248 304 366
#     4  10  20  35  57  87 122 155 193 247 305 364
#     4   9  20  37  59  85 115 153 203 252 301 361
#
# _framework density 22.781865
#
# number of rings (size 3 to 8) (size 9 to 14) (size 15 to 20)
#    0.000    2.000    1.250    1.875    1.750    4.000 
#    0.000    5.000    0.000    3.000    0.000    0.000 
#    0.000    0.000    0.000    0.000    0.000    0.000 
#
# Total GULP energy -178764.238761 kJ/mol
# GULP energy per Si atom -5586.382461 kJ/mol
# Density = 2.273001 g / cm^3
# Si number density = 22.781865 Si / 1000 Ang^3
#
#
#
# Elastic Constant Matrix: (Units=GPa)
#
#
# Indices 1 2 3 4 5 6 
#
# 1 26.0448 1.3128 0.5030 0.0000 0.0000 0.0000
# 2 1.3128 62.2523 26.1428 0.0000 0.0000 0.0000
# 3 0.5030 26.1428 111.6910 0.0000 0.0000 0.0000
# 4 0.0000 0.0000 0.0000 9.6899 0.0000 0.0000
# 5 0.0000 0.0000 0.0000 0.0000 23.0353 0.0000
# 6 0.0000 0.0000 0.0000 0.0000 0.0000 22.1102
#
#
#
# Elastic Compliance Matrix: (Units=1/GPa)
#
#
# Indices 1 2 3 4 5 6 
#
# 1 0.038436 -0.000818 0.000018 0.000000 0.000000 0.000000
# 2 -0.000818 0.017832 -0.004170 0.000000 0.000000 0.000000
# 3 0.000018 -0.004170 0.009929 0.000000 0.000000 0.000000
# 4 0.000000 0.000000 0.000000 0.103200 0.000000 0.000000
# 5 0.000000 0.000000 0.000000 0.000000 0.043412 0.000000
# 6 0.000000 0.000000 0.000000 0.000000 0.000000 0.045228
#
#
# Mechanical properties :
#
#
# Convention : Reuss Voigt Hill
#
# Bulk Modulus (GPa) = 17.77534 28.43390 23.10462
# Shear Modulus (GPa) = 17.43799 22.43571 19.93685
#
# Velocity S-wave (km/s) = 2.76965 3.14157 2.96145
# Velocity P-wave (km/s) = 4.24821 5.06629 4.67518
#
# Compressibility (1/GPa) = 0.05625773
#
# Stress axis : x y z
#
# Youngs Moduli (GPa) = 26.01705 56.07838 100.71232
#
# Poissons Ratio (x) = 0.04589 -0.00186
# Poissons Ratio (y) = 0.02129 0.41999
# Poissons Ratio (z) = -0.00048 0.23386
#
# Static dielectric constant tensor:
#      x y z
#    x 1.846700 0.000000 0.000000 
#    y 0.000000 1.898300 0.000000 
#    z 0.000000 0.000000 1.831610 
# 
# From -- ./inp_files/18726.got.cif
#   From: 2010.05.17/outbox.cif.g08.bks.cpg/sg37_10_cif.got.tgz:18726.got - 2010.06.03 17:53:42.
