data_PCOD9353684
_publ_section_title
;
Structure prediction by ZEFSAII (Michael W. Deem and Ramdas Pophale) SiO2 
 PCOD9353684
Probable space group: C C C 2
;
_chemical_formula_sum "Si O2"
_cell_formula_units_Z 64
_cell_length_a 14.203481
_cell_length_b 5.281925
_cell_length_c 35.555217
_cell_angle_alpha 90.000000
_cell_angle_beta 90.000000
_cell_angle_gamma 90.000000
_cell_volume 2667.413583
_symmetry_space_group_name_H-M "C C C 2"
_symmetry_group_IT_number 37
_symmetry_cell_setting 'orthorhombic'
loop_
_space_group_symop_operation_xyz
x,y,z
-x,-y,z
-x,y,1/2+z
x,-y,1/2+z
1/2+x,1/2+y,z
1/2-x,1/2-y,z
1/2-x,1/2+y,1/2+z
1/2+x,1/2-y,1/2+z
loop_
_atom_site_type_symbol
_atom_site_label
_atom_site_fract_x
_atom_site_fract_y
_atom_site_fract_z
Si Si1 0.613756 0.008306 0.121280
Si Si2 0.385110 0.501286 0.991273
Si Si3 0.114890 0.498715 0.445919
Si Si4 0.614770 0.010036 0.360149
Si Si5 0.854851 0.328186 0.704471
Si Si6 0.145149 0.828186 0.232721
Si Si7 0.385230 0.510036 0.577043
Si Si8 0.613756 0.491694 0.815912
O O1 0.642434 0.277829 0.104071
O O2 0.500000 0.000000 0.123647
O O3 0.648345 0.940242 0.162764
O O4 0.641826 0.780315 0.093865
O O5 0.500000 0.500000 0.992792
O O6 0.357771 0.250001 0.968596
O O7 0.357488 0.750001 0.968596
O O8 0.351363 0.512904 0.034232
O O9 0.148638 0.487095 0.402961
O O10 0.000000 0.500000 0.444400
O O11 0.641826 0.280315 0.343327
O O12 0.500000 0.000000 0.361277
O O13 0.642434 0.777829 0.333121
O O14 0.750000 0.250000 0.717430
O O15 0.899281 0.548310 0.730057
O O16 0.899281 0.048310 0.707136
O O17 0.250000 0.750000 0.219762
O O18 0.148344 0.940241 0.274428
O O19 0.500000 0.500000 0.575916
O O20 0.500000 0.500000 0.813546
#
# Coordination Sequence:
#
# PCOD9353684 Si02
#       8
#     8   8   8   8   8   8   8   8
#     4  10  19  31  48  69  95 125 155 193 238 283
#     4   9  15  23  37  58  88 126 159 185 221 272
#     4   9  15  23  37  58  88 126 159 185 221 272
#     4   9  17  28  42  65  96 126 157 193 233 276
#     4  10  21  36  52  70  93 121 154 195 239 283
#     4  10  21  36  52  70  93 121 154 195 239 283
#     4   9  17  28  42  65  96 126 157 193 233 276
#     4  10  19  31  48  69  95 125 155 193 238 283
#
# _framework density 23.993276999999999
#
# number of rings (size 3 to 8) (size 9 to 14) (size 15 to 20)
#    0.000    2.500    0.000    3.000    0.000    7.000 
#    0.000    0.000    0.000    0.000    0.000    0.000 
#    0.000   15.000    0.000    0.000    0.000    0.000 
#
# Total GULP energy -178969.229061 kJ/mol
# GULP energy per Si atom -5592.788408 kJ/mol
# Density = 2.393867 g / cm^3
# Si number density = 23.993277 Si / 1000 Ang^3
#
#
#
# Elastic Constant Matrix: (Units=GPa)
#
#
# Indices 1 2 3 4 5 6 
#
# 1 84.4037 -0.1428 0.6485 0.0000 0.0000 0.0000
# 2 -0.1428 218.0974 85.2175 0.0000 0.0000 0.0000
# 3 0.6485 85.2175 182.5311 0.0000 0.0000 0.0000
# 4 0.0000 0.0000 0.0000 48.6079 0.0000 0.0000
# 5 0.0000 0.0000 0.0000 0.0000 10.4190 0.0000
# 6 0.0000 0.0000 0.0000 0.0000 0.0000 -20.9242
#
#
#
# Elastic Compliance Matrix: (Units=1/GPa)
#
#
# Indices 1 2 3 4 5 6 
#
# 1 0.011848 0.000030 -0.000056 0.000000 0.000000 0.000000
# 2 0.000030 0.005608 -0.002618 0.000000 0.000000 0.000000
# 3 -0.000056 -0.002618 0.006701 0.000000 0.000000 0.000000
# 4 0.000000 0.000000 0.000000 0.020573 0.000000 0.000000
# 5 0.000000 0.000000 0.000000 0.000000 0.095979 0.000000
# 6 0.000000 0.000000 0.000000 0.000000 0.000000 -0.047792
#
#
# Mechanical properties :
#
#
# Convention : Reuss Voigt Hill
#
# Bulk Modulus (GPa) = 52.99903 72.94206 62.97054
# Shear Modulus (GPa) = 47.84847 34.24114 41.04481
#
# Velocity S-wave (km/s) = 4.47054 3.78181 4.14052
# Velocity P-wave (km/s) = 6.98461 7.03822 7.01146
#
# Compressibility (1/GPa) = 0.01886827
#
# Stress axis : x y z
#
# Youngs Moduli (GPa) = 84.40030 178.30999 149.22812
#
# Poissons Ratio (x) = -0.00528 0.00834
# Poissons Ratio (y) = -0.00250 0.39074
# Poissons Ratio (z) = 0.00472 0.46688
#
# Static dielectric constant tensor:
#      x y z
#    x 2.009250 0.000000 0.000000 
#    y 0.000000 1.961340 0.000000 
#    z 0.000000 0.000000 1.841720 
# 
# From -- ./inp_files/20054.got.cif
#   From: 2010.05.17/outbox.cif.g08.bks.cpg/sg37_11_cif.got.tgz:20054.got - 2010.06.03 17:53:42.
