data_PCOD9353497
_publ_section_title
;
Structure prediction by ZEFSAII (Michael W. Deem and Ramdas Pophale) SiO2 
 PCOD9353497
Probable space group: C C C 2
;
_chemical_formula_sum "Si O2"
_cell_formula_units_Z 48
_cell_length_a 7.495088
_cell_length_b 18.545063
_cell_length_c 19.054148
_cell_angle_alpha 90.000000
_cell_angle_beta 90.000000
_cell_angle_gamma 90.000000
_cell_volume 2648.467107
_symmetry_space_group_name_H-M "C C C 2"
_symmetry_group_IT_number 37
_symmetry_cell_setting 'orthorhombic'
loop_
_space_group_symop_operation_xyz
x,y,z
-x,-y,z
-x,y,1/2+z
x,-y,1/2+z
1/2+x,1/2+y,z
1/2-x,1/2-y,z
1/2-x,1/2+y,1/2+z
1/2+x,1/2-y,1/2+z
loop_
_atom_site_type_symbol
_atom_site_label
_atom_site_fract_x
_atom_site_fract_y
_atom_site_fract_z
Si Si1 0.495409 0.414721 0.275540
Si Si2 0.798259 0.665172 0.184002
Si Si3 0.015696 0.671081 0.909115
Si Si4 0.929728 0.843577 0.422500
Si Si5 0.767644 0.837232 0.025916
Si Si6 0.336906 0.829920 0.258805
O O1 0.500000 0.500000 0.271119
O O2 0.498106 0.388204 0.356122
O O3 0.543120 0.359506 0.492306
O O4 0.674452 0.382420 0.242413
O O5 0.750000 0.750000 0.190564
O O6 0.675767 0.621053 0.238196
O O7 0.005903 0.662503 0.202919
O O8 0.760523 0.638316 0.105278
O O9 0.029414 0.758657 0.909166
O O10 0.217213 0.645939 0.923668
O O11 0.885135 0.643171 0.969922
O O12 0.930472 0.653132 0.833753
O O13 0.750000 0.750000 0.029437
O O14 0.250000 0.750000 0.261735
#
# Coordination Sequence:
#
# PCOD9353497 Si02
#       6
#     8   8   8   8   8   8
#     4  12  25  39  60  91 125 164 207 257 310 364
#     4  11  22  39  62  92 125 160 209 257 306 372
#     4  10  17  32  62  90 114 153 202 249 297 356
#     4  10  18  34  58  87 122 155 193 248 305 357
#     4   9  19  34  56  92 124 149 198 261 302 355
#     4  12  20  36  66  90 118 162 211 252 299 358
#
# _framework density 18.123691000000001
#
# number of rings (size 3 to 8) (size 9 to 14) (size 15 to 20)
#    0.000    1.333    6.667    0.500    0.000    2.000 
#    3.000    0.833    0.000    2.000    0.000    0.000 
#    0.000    0.000    0.000    0.000    0.000    0.000 
#
# Total GULP energy -133907.790806 kJ/mol
# GULP energy per Si atom -5579.491284 kJ/mol
# Density = 1.808244 g / cm^3
# Si number density = 18.123691 Si / 1000 Ang^3
#
#
#
# Elastic Constant Matrix: (Units=GPa)
#
#
# Indices 1 2 3 4 5 6 
#
# 1 139.0590 42.3871 36.5301 0.0000 0.0000 0.0000
# 2 42.3871 63.1129 22.5752 0.0000 0.0000 0.0000
# 3 36.5301 22.5752 100.9210 0.0000 0.0000 0.0000
# 4 0.0000 0.0000 0.0000 -34.9903 0.0000 0.0000
# 5 0.0000 0.0000 0.0000 0.0000 44.8758 0.0000
# 6 0.0000 0.0000 0.0000 0.0000 0.0000 13.9381
#
#
#
# Elastic Compliance Matrix: (Units=1/GPa)
#
#
# Indices 1 2 3 4 5 6 
#
# 1 0.009463 -0.005576 -0.002178 0.000000 0.000000 0.000000
# 2 -0.005576 0.020509 -0.002569 0.000000 0.000000 0.000000
# 3 -0.002178 -0.002569 0.011272 0.000000 0.000000 0.000000
# 4 0.000000 0.000000 0.000000 -0.028579 0.000000 0.000000
# 5 0.000000 0.000000 0.000000 0.000000 0.022284 0.000000
# 6 0.000000 0.000000 0.000000 0.000000 0.000000 0.071746
#
#
# Mechanical properties :
#
#
# Convention : Reuss Voigt Hill
#
# Bulk Modulus (GPa) = 48.55172 56.23086 52.39129
# Shear Modulus (GPa) = 37.25598 18.20474 27.73036
#
# Velocity S-wave (km/s) = 4.53885 3.17278 3.91584
# Velocity P-wave (km/s) = 7.36990 6.67200 7.02962
#
# Compressibility (1/GPa) = 0.02059659
#
# Stress axis : x y z
#
# Youngs Moduli (GPa) = 105.67356 48.75963 88.71714
#
# Poissons Ratio (x) = 0.27191 0.19322
# Poissons Ratio (y) = 0.58928 0.22793
# Poissons Ratio (z) = 0.23015 0.12527
#
# Static dielectric constant tensor:
#      x y z
#    x 1.636270 0.000000 0.000000 
#    y 0.000000 2.140570 0.000000 
#    z 0.000000 0.000000 1.626150 
# 
# From -- ./inp_files/14606.got.cif
#   From: 2010.05.17/outbox.cif.g08.bks.cpg/sg37_8_cif.got.tgz:14606.got - 2010.06.03 17:53:42.
