data_PCOD9353131
_publ_section_title
;
Structure prediction by ZEFSAII (Michael W. Deem and Ramdas Pophale) SiO2 
 PCOD9353131
Probable space group: C M C 21
;
_chemical_formula_sum "Si O2"
_cell_formula_units_Z 48
_cell_length_a 8.211663
_cell_length_b 29.469592
_cell_length_c 8.255930
_cell_angle_alpha 90.000000
_cell_angle_beta 90.000000
_cell_angle_gamma 90.000000
_cell_volume 1997.888482
_symmetry_space_group_name_H-M "C M C 21"
_symmetry_group_IT_number 36
_symmetry_cell_setting 'orthorhombic'
loop_
_space_group_symop_operation_xyz
x,y,z
-x,-y,1/2+z
x,-y,1/2+z
-x,y,z
1/2+x,1/2+y,z
1/2-x,1/2-y,1/2+z
1/2+x,1/2-y,1/2+z
1/2-x,1/2+y,z
loop_
_atom_site_type_symbol
_atom_site_label
_atom_site_fract_x
_atom_site_fract_y
_atom_site_fract_z
Si Si1 0.197944 0.598162 0.505760
Si Si2 0.304260 0.183294 0.685415
Si Si3 0.195542 0.265835 0.858040
Si Si4 0.812601 0.066213 0.984436
Si Si5 0.808086 0.488433 0.179286
Si Si6 0.196039 0.648676 0.171444
O O1 0.254116 0.632618 0.647319
O O2 0.250825 0.547540 0.543139
O O3 0.238939 0.620826 0.335664
O O4 0.000000 0.596768 0.510759
O O5 0.500000 0.181508 0.689928
O O6 0.249603 0.214459 0.832321
O O7 0.251266 0.211913 0.526473
O O8 0.253946 0.300473 0.715925
O O9 0.000000 0.267238 0.856235
O O10 0.759559 0.117429 0.026608
O O11 0.000000 0.065698 0.939001
O O12 0.783295 0.035052 0.144151
O O13 0.715700 0.039584 0.844550
O O14 0.000000 0.498373 0.163050
O O15 0.000000 0.650077 0.156105
#
# Coordination Sequence:
#
# PCOD9353131 Si02
#       6
#     8   8   8   8   8   8
#     4   8  17  35  59  81 102 137 187 233 267 317
#     4   9  18  34  54  78 109 142 179 227 279 324
#     4   9  19  34  53  79 109 143 185 229 271 325
#     4  12  25  39  56  85 119 144 176 230 288 329
#     4  11  22  39  62  84 108 147 193 226 267 335
#     4   9  18  37  60  79 105 145 190 229 270 328
#
# _framework density 24.025365000000001
#
# number of rings (size 3 to 8) (size 9 to 14) (size 15 to 20)
#    0.000    2.333    0.000    5.000    0.000    4.000 
#    0.000   10.000    0.000    0.000    0.000    0.000 
#    0.000    0.000    0.000    0.000    0.000    0.000 
#
# Total GULP energy -134106.012297 kJ/mol
# GULP energy per Si atom -5587.750512 kJ/mol
# Density = 2.397068 g / cm^3
# Si number density = 24.025365 Si / 1000 Ang^3
#
#
#
# Elastic Constant Matrix: (Units=GPa)
#
#
# Indices 1 2 3 4 5 6 
#
# 1 27.5444 -0.6917 -10.7251 0.0000 0.0000 0.0000
# 2 -0.6917 115.1375 -10.3752 0.0000 0.0000 0.0000
# 3 -10.7251 -10.3752 56.8006 0.0000 0.0000 0.0000
# 4 0.0000 0.0000 0.0000 41.6442 0.0000 0.0000
# 5 0.0000 0.0000 0.0000 0.0000 17.7848 0.0000
# 6 0.0000 0.0000 0.0000 0.0000 0.0000 -6.7307
#
#
#
# Elastic Compliance Matrix: (Units=1/GPa)
#
#
# Indices 1 2 3 4 5 6 
#
# 1 0.039282 0.000919 0.007585 0.000000 0.000000 0.000000
# 2 0.000919 0.008852 0.001791 0.000000 0.000000 0.000000
# 3 0.007585 0.001791 0.019365 0.000000 0.000000 0.000000
# 4 0.000000 0.000000 0.000000 0.024013 0.000000 0.000000
# 5 0.000000 0.000000 0.000000 0.000000 0.056228 0.000000
# 6 0.000000 0.000000 0.000000 0.000000 0.000000 -0.148574
#
#
# Mechanical properties :
#
#
# Convention : Reuss Voigt Hill
#
# Bulk Modulus (GPa) = 11.35220 17.32207 14.33713
# Shear Modulus (GPa) = 629.88682 25.29130 327.58906
#
# Velocity S-wave (km/s) = 16.20941 3.24804 11.68963
# Velocity P-wave (km/s) = 18.84309 4.61432 13.71776
#
# Compressibility (1/GPa) = 0.08808867
#
# Stress axis : x y z
#
# Youngs Moduli (GPa) = 25.45722 112.96700 51.64031
#
# Poissons Ratio (x) = -0.10387 -0.39170
# Poissons Ratio (y) = -0.02341 -0.09246
# Poissons Ratio (z) = -0.19310 -0.20227
#
# Static dielectric constant tensor:
#      x y z
#    x 1.828110 0.000000 0.000000 
#    y 0.000000 1.917850 0.000000 
#    z 0.000000 0.000000 2.039090 
# 
# From -- ./inp_files/2650.got.cif
#   From: 2010.05.17/outbox.cif.g08.bks.cpg/sg36_2_cif.got.tgz:2650.got - 2010.06.03 17:41:39.
