data_PCOD9353753
_publ_section_title
;
Structure prediction by ZEFSAII (Michael W. Deem and Ramdas Pophale) SiO2 
 PCOD9353753
Probable space group: C C C 2
;
_chemical_formula_sum "Si O2"
_cell_formula_units_Z 48
_cell_length_a 8.718882
_cell_length_b 15.520262
_cell_length_c 16.816377
_cell_angle_alpha 90.000000
_cell_angle_beta 90.000000
_cell_angle_gamma 90.000000
_cell_volume 2275.580919
_symmetry_space_group_name_H-M "C C C 2"
_symmetry_group_IT_number 37
_symmetry_cell_setting 'orthorhombic'
loop_
_space_group_symop_operation_xyz
x,y,z
-x,-y,z
-x,y,1/2+z
x,-y,1/2+z
1/2+x,1/2+y,z
1/2-x,1/2-y,z
1/2-x,1/2+y,1/2+z
1/2+x,1/2-y,1/2+z
loop_
_atom_site_type_symbol
_atom_site_label
_atom_site_fract_x
_atom_site_fract_y
_atom_site_fract_z
Si Si1 0.180988 0.998151 0.424160
Si Si2 0.120985 0.072829 0.750267
Si Si3 0.074642 0.755124 0.781223
Si Si4 0.353464 0.182487 0.451447
Si Si5 0.903140 0.416061 0.537199
Si Si6 0.551217 0.087200 0.206054
O O1 0.260951 0.093647 0.429542
O O2 0.195015 0.957702 0.335178
O O3 0.246122 0.936165 0.493414
O O4 0.000000 0.000000 0.436023
O O5 0.266003 0.082239 0.691212
O O6 0.018960 0.158286 0.763423
O O7 0.000000 0.000000 0.724943
O O8 0.250000 0.750000 0.747906
O O9 0.096665 0.736199 0.874173
O O10 0.978588 0.674459 0.751146
O O11 0.250000 0.250000 0.499728
O O12 0.506588 0.161613 0.498426
O O13 0.000000 0.500000 0.512354
O O14 0.935218 0.411261 0.630759
O O15 0.500000 0.000000 0.250669
#
# Coordination Sequence:
#
# PCOD9353753 Si02
#       6
#     8   8   8   8   8   8
#     4  10  19  37  62  90 118 152 199 252 307 361
#     4  11  22  38  65  94 121 156 203 258 309 358
#     4  11  22  38  59  90 122 155 200 249 299 359
#     4  10  19  35  58  83 117 153 195 246 297 353
#     4   9  21  38  57  83 117 159 198 237 299 367
#     4  11  22  40  59  84 123 163 201 244 302 364
#
# _framework density 21.093516000000001
#
# number of rings (size 3 to 8) (size 9 to 14) (size 15 to 20)
#    0.000    1.667    0.000    7.500    0.000    2.667 
#    0.000   18.333    0.000    0.000    0.000    0.000 
#    0.000    0.000    0.000    0.000    0.000    0.000 
#
# Total GULP energy -133722.522736 kJ/mol
# GULP energy per Si atom -5571.771781 kJ/mol
# Density = 2.104551 g / cm^3
# Si number density = 21.093516 Si / 1000 Ang^3
#
#
#
# Elastic Constant Matrix: (Units=GPa)
#
#
# Indices 1 2 3 4 5 6 
#
# 1 80.5751 25.0806 17.0631 0.0000 0.0000 0.0000
# 2 25.0806 130.8975 -2.7003 0.0000 0.0000 0.0000
# 3 17.0631 -2.7003 20.8455 0.0000 0.0000 0.0000
# 4 0.0000 0.0000 0.0000 1255.8094 0.0000 0.0000
# 5 0.0000 0.0000 0.0000 0.0000 134.3711 0.0000
# 6 0.0000 0.0000 0.0000 0.0000 0.0000 37.0924
#
#
#
# Elastic Compliance Matrix: (Units=1/GPa)
#
#
# Indices 1 2 3 4 5 6 
#
# 1 0.016420 -0.003432 -0.013885 0.000000 0.000000 0.000000
# 2 -0.003432 0.008378 0.003895 0.000000 0.000000 0.000000
# 3 -0.013885 0.003895 0.059842 0.000000 0.000000 0.000000
# 4 0.000000 0.000000 0.000000 0.000796 0.000000 0.000000
# 5 0.000000 0.000000 0.000000 0.000000 0.007442 0.000000
# 6 0.000000 0.000000 0.000000 0.000000 0.000000 0.026960
#
#
# Mechanical properties :
#
#
# Convention : Reuss Voigt Hill
#
# Bulk Modulus (GPa) = 17.30280 34.57831 25.94056
# Shear Modulus (GPa) = 30.13017 298.31290 164.22154
#
# Velocity S-wave (km/s) = 3.78353 11.90508 8.83307
# Velocity P-wave (km/s) = 5.22566 14.33189 10.78681
#
# Compressibility (1/GPa) = 0.05779411
#
# Stress axis : x y z
#
# Youngs Moduli (GPa) = 60.90304 119.36600 16.71072
#
# Poissons Ratio (x) = 0.40972 0.23203
# Poissons Ratio (y) = 0.20905 -0.06509
# Poissons Ratio (z) = 0.84563 -0.46492
#
# Static dielectric constant tensor:
#      x y z
#    x 0.364220 0.000000 0.000000 
#    y 0.000000 1.286060 0.000000 
#    z 0.000000 0.000000 1.823020 
# 
# From -- ./inp_files/14528.got.cif
#   From: 2010.05.17/outbox.cif.g08.bks.cpg/sg37_8_cif.got.tgz:14528.got - 2010.06.03 17:53:42.
