data_PCOD9353834
_publ_section_title
;
Structure prediction by ZEFSAII (Michael W. Deem and Ramdas Pophale) SiO2 
 PCOD9353834
Probable space group: C C C 2
;
_chemical_formula_sum "Si O2"
_cell_formula_units_Z 56
_cell_length_a 5.609476
_cell_length_b 27.822481
_cell_length_c 14.703689
_cell_angle_alpha 90.000000
_cell_angle_beta 90.000000
_cell_angle_gamma 90.000000
_cell_volume 2294.797970
_symmetry_space_group_name_H-M "C C C 2"
_symmetry_group_IT_number 37
_symmetry_cell_setting 'orthorhombic'
loop_
_space_group_symop_operation_xyz
x,y,z
-x,-y,z
-x,y,1/2+z
x,-y,1/2+z
1/2+x,1/2+y,z
1/2-x,1/2-y,z
1/2-x,1/2+y,1/2+z
1/2+x,1/2-y,1/2+z
loop_
_atom_site_type_symbol
_atom_site_label
_atom_site_fract_x
_atom_site_fract_y
_atom_site_fract_z
Si Si1 0.486097 0.669324 0.640690
Si Si2 0.750000 0.750000 0.049882
Si Si3 0.245035 0.476745 0.357909
Si Si4 0.959785 0.298372 0.908560
Si Si5 0.253535 0.013671 0.062713
Si Si6 0.750000 0.750000 0.746359
Si Si7 0.132204 0.124789 0.325949
Si Si8 0.197695 0.882225 0.481826
O O1 0.269585 0.704731 0.615329
O O2 0.674705 0.706483 0.680870
O O3 0.425777 0.634474 0.722327
O O4 0.509064 0.640480 0.547018
O O5 0.980785 0.743033 0.984187
O O6 0.500000 0.500000 0.327065
O O7 0.251104 0.483404 0.467900
O O8 0.202775 0.421027 0.334442
O O9 0.000000 0.500000 0.326003
O O10 0.063784 0.274074 0.816900
O O11 0.109778 0.341802 0.955234
O O12 0.726270 0.325924 0.871950
O O13 0.500000 0.000000 0.111062
O O14 0.271500 0.069525 0.033154
O O15 0.000000 0.000000 0.107481
O O16 0.909840 0.106511 0.384191
#
# Coordination Sequence:
#
# PCOD9353834 Si02
#       8
#     8   4   8   8   8   4   8   8
#     4  11  25  42  64 100 137 175 234 295 342 421
#     4   9  22  44  59 100 134 172 239 282 339 424
#     4  10  20  37  68  99 132 179 227 286 349 420
#     4  10  22  40  69  90 130 185 227 281 346 418
#     4  10  19  37  66  96 133 177 221 284 346 416
#     4  11  22  42  61  94 136 182 229 290 349 408
#     4  12  23  42  70  96 134 186 227 287 359 416
#     4  11  23  43  64 102 133 177 235 279 352 420
#
# _framework density 24.403017999999999
#
# number of rings (size 3 to 8) (size 9 to 14) (size 15 to 20)
#    0.000    1.429    4.286    2.571    2.000    0.000 
#    0.000    1.429    0.000    0.000    0.000    1.000 
#    0.000    0.000    0.000    0.000    0.000    0.000 
#
# Total GULP energy -156155.661547 kJ/mol
# GULP energy per Si atom -5576.987912 kJ/mol
# Density = 2.434748 g / cm^3
# Si number density = 24.403018 Si / 1000 Ang^3
#
#
#
# Elastic Constant Matrix: (Units=GPa)
#
#
# Indices 1 2 3 4 5 6 
#
# 1 104.1951 16.6254 6.8405 0.0000 0.0000 0.0000
# 2 16.6254 107.6039 6.0997 0.0000 0.0000 0.0000
# 3 6.8405 6.0997 110.9142 0.0000 0.0000 0.0000
# 4 0.0000 0.0000 0.0000 196.0401 0.0000 0.0000
# 5 0.0000 0.0000 0.0000 0.0000 1.6650 0.0000
# 6 0.0000 0.0000 0.0000 0.0000 0.0000 39.1000
#
#
#
# Elastic Compliance Matrix: (Units=1/GPa)
#
#
# Indices 1 2 3 4 5 6 
#
# 1 0.009871 -0.001495 -0.000527 0.000000 0.000000 0.000000
# 2 -0.001495 0.009549 -0.000433 0.000000 0.000000 0.000000
# 3 -0.000527 -0.000433 0.009072 0.000000 0.000000 0.000000
# 4 0.000000 0.000000 0.000000 0.005101 0.000000 0.000000
# 5 0.000000 0.000000 0.000000 0.000000 0.600604 0.000000
# 6 0.000000 0.000000 0.000000 0.000000 0.000000 0.025575
#
#
# Mechanical properties :
#
#
# Convention : Reuss Voigt Hill
#
# Bulk Modulus (GPa) = 42.40454 42.42716 42.41585
# Shear Modulus (GPa) = 7.43448 66.90419 37.16933
#
# Velocity S-wave (km/s) = 1.74733 5.24174 3.90698
# Velocity P-wave (km/s) = 4.63523 7.35243 6.14588
#
# Compressibility (1/GPa) = 0.02358238
#
# Stress axis : x y z
#
# Youngs Moduli (GPa) = 101.31181 104.72404 110.22611
#
# Poissons Ratio (x) = 0.15658 0.05804
# Poissons Ratio (y) = 0.15148 0.04772
# Poissons Ratio (z) = 0.05334 0.04534
#
# Static dielectric constant tensor:
#      x y z
#    x 2.105110 0.000000 0.000000 
#    y 0.000000 -0.081090 0.000000 
#    z 0.000000 0.000000 1.889280 
# 
# From -- ./inp_files/9956.got.cif
#   From: 2010.05.17/outbox.cif.g08.bks.cpg/sg37_5_cif.got.tgz:9956.got - 2010.06.03 17:53:42.
