data_PCOD9353810
_publ_section_title
;
Structure prediction by ZEFSAII (Michael W. Deem and Ramdas Pophale) SiO2 
 PCOD9353810
Probable space group: C C C 2
;
_chemical_formula_sum "Si O2"
_cell_formula_units_Z 48
_cell_length_a 14.055271
_cell_length_b 7.456215
_cell_length_c 17.696773
_cell_angle_alpha 90.000000
_cell_angle_beta 90.000000
_cell_angle_gamma 90.000000
_cell_volume 1854.606281
_symmetry_space_group_name_H-M "C C C 2"
_symmetry_group_IT_number 37
_symmetry_cell_setting 'orthorhombic'
loop_
_space_group_symop_operation_xyz
x,y,z
-x,-y,z
-x,y,1/2+z
x,-y,1/2+z
1/2+x,1/2+y,z
1/2-x,1/2-y,z
1/2-x,1/2+y,1/2+z
1/2+x,1/2-y,1/2+z
loop_
_atom_site_type_symbol
_atom_site_label
_atom_site_fract_x
_atom_site_fract_y
_atom_site_fract_z
Si Si1 0.114388 0.958516 0.364660
Si Si2 0.111876 0.322547 0.291081
Si Si3 0.969074 0.710153 0.591091
Si Si4 0.848162 0.775682 0.023961
Si Si5 0.846195 0.626492 0.457739
Si Si6 0.891628 0.684430 0.739806
O O1 0.148378 0.902998 0.449115
O O2 0.143882 0.798323 0.309677
O O3 0.152138 0.129294 0.315518
O O4 0.000000 0.000000 0.369423
O O5 0.111441 0.402099 0.375161
O O6 0.151705 0.485047 0.241051
O O7 0.005910 0.306762 0.257574
O O8 0.920640 0.729716 0.510055
O O9 0.893141 0.758916 0.655152
O O10 0.000000 0.500000 0.603817
O O11 0.067304 0.815371 0.581621
O O12 0.750000 0.750000 0.067885
O O13 0.850893 0.572952 0.991265
O O14 0.750000 0.750000 0.457595
#
# Coordination Sequence:
#
# PCOD9353810 Si02
#       6
#     8   8   8   8   8   8
#     4  10  20  36  63  99 130 170 229 283 338 408
#     4  10  19  36  64  93 129 168 226 277 334 401
#     4  10  21  39  70  92 134 189 221 277 358 412
#     4  11  23  40  64 101 137 176 230 289 342 412
#     4  11  23  41  68  99 133 182 230 282 345 412
#     4  10  19  38  66  96 130 179 220 281 347 414
#
# _framework density 25.881502999999999
#
# number of rings (size 3 to 8) (size 9 to 14) (size 15 to 20)
#    0.000    1.667    3.333    3.000    4.667    0.000 
#    0.000   14.167    0.000    0.000    0.000    0.000 
#    0.000    0.000    0.000    0.000    0.000    0.000 
#
# Total GULP energy -133731.165571 kJ/mol
# GULP energy per Si atom -5572.131899 kJ/mol
# Density = 2.582260 g / cm^3
# Si number density = 25.881503 Si / 1000 Ang^3
#
#
#
# Elastic Constant Matrix: (Units=GPa)
#
#
# Indices 1 2 3 4 5 6 
#
# 1 91.9489 1.6093 17.8935 0.0000 0.0000 0.0000
# 2 1.6093 135.0119 1.7952 0.0000 0.0000 0.0000
# 3 17.8935 1.7952 75.8944 0.0000 0.0000 0.0000
# 4 0.0000 0.0000 0.0000 11.5305 0.0000 0.0000
# 5 0.0000 0.0000 0.0000 0.0000 -1.0767 0.0000
# 6 0.0000 0.0000 0.0000 0.0000 0.0000 16.3900
#
#
#
# Elastic Compliance Matrix: (Units=1/GPa)
#
#
# Indices 1 2 3 4 5 6 
#
# 1 0.011400 -0.000100 -0.002685 0.000000 0.000000 0.000000
# 2 -0.000100 0.007410 -0.000152 0.000000 0.000000 0.000000
# 3 -0.002685 -0.000152 0.013813 0.000000 0.000000 0.000000
# 4 0.000000 0.000000 0.000000 0.086726 0.000000 0.000000
# 5 0.000000 0.000000 0.000000 0.000000 -0.928771 0.000000
# 6 0.000000 0.000000 0.000000 0.000000 0.000000 0.061013
#
#
# Mechanical properties :
#
#
# Convention : Reuss Voigt Hill
#
# Bulk Modulus (GPa) = 37.38544 38.38350 37.88447
# Shear Modulus (GPa) = -6.81553 24.13924 8.66185
#
# Velocity S-wave (km/s) = -1.62452 3.05730 1.83139
# Velocity P-wave (km/s) = 3.31020 5.22737 4.37509
#
# Compressibility (1/GPa) = 0.02674838
#
# Stress axis : x y z
#
# Youngs Moduli (GPa) = 87.71974 134.95344 72.39603
#
# Poissons Ratio (x) = 0.01352 0.19441
# Poissons Ratio (y) = 0.00879 0.01098
# Poissons Ratio (z) = 0.23556 0.02047
#
# Static dielectric constant tensor:
#      x y z
#    x 2.164820 0.000000 0.000000 
#    y 0.000000 2.172720 0.000000 
#    z 0.000000 0.000000 1.986330 
# 
# From -- ./inp_files/15222.got.cif
#   From: 2010.05.17/outbox.cif.g08.bks.cpg/sg37_8_cif.got.tgz:15222.got - 2010.06.03 17:53:42.
