data_PCOD9353602
_publ_section_title
;
Structure prediction by ZEFSAII (Michael W. Deem and Ramdas Pophale) SiO2 
 PCOD9353602
Probable space group: C C C 2
;
_chemical_formula_sum "Si O2"
_cell_formula_units_Z 64
_cell_length_a 11.299058
_cell_length_b 11.786331
_cell_length_c 23.418931
_cell_angle_alpha 90.000000
_cell_angle_beta 90.000000
_cell_angle_gamma 90.000000
_cell_volume 3118.802965
_symmetry_space_group_name_H-M "C C C 2"
_symmetry_group_IT_number 37
_symmetry_cell_setting 'orthorhombic'
loop_
_space_group_symop_operation_xyz
x,y,z
-x,-y,z
-x,y,1/2+z
x,-y,1/2+z
1/2+x,1/2+y,z
1/2-x,1/2-y,z
1/2-x,1/2+y,1/2+z
1/2+x,1/2-y,1/2+z
loop_
_atom_site_type_symbol
_atom_site_label
_atom_site_fract_x
_atom_site_fract_y
_atom_site_fract_z
Si Si1 0.936356 0.781574 0.526120
Si Si2 0.862364 0.475163 0.389070
Si Si3 0.225207 0.440660 0.513225
Si Si4 0.633745 0.452756 0.334889
Si Si5 0.005682 0.696694 0.645862
Si Si6 0.371703 0.733371 0.430292
Si Si7 0.396705 0.593130 0.208914
Si Si8 0.317729 0.990697 0.635281
O O1 0.849229 0.673737 0.524310
O O2 0.860316 0.896038 0.516661
O O3 0.003367 0.766953 0.586205
O O4 0.021900 0.766403 0.473152
O O5 0.823264 0.511551 0.453408
O O6 0.756395 0.521101 0.348542
O O7 0.866747 0.339043 0.387587
O O8 0.000000 0.500000 0.377578
O O9 0.203581 0.521197 0.567262
O O10 0.500000 0.500000 0.331297
O O11 0.625851 0.375685 0.391015
O O12 0.653127 0.397004 0.273135
O O13 0.953562 0.787619 0.690022
O O14 0.913460 0.592102 0.641527
O O15 0.128166 0.628901 0.656962
O O16 0.250000 0.750000 0.464600
O O17 0.500000 0.500000 0.208433
O O18 0.296587 0.542071 0.166914
#
# Coordination Sequence:
#
# PCOD9353602 Si02
#       8
#     8   8   8   8   8   8   8   8
#     4  10  18  35  58  91 129 171 209 254 330 399
#     4  11  21  38  62  96 129 159 216 277 320 385
#     4  10  19  33  62  90 131 167 206 266 326 400
#     4  10  24  46  65  83 128 178 218 266 337 404
#     4  10  21  39  65  93 128 170 220 276 329 403
#     4  10  21  37  58  90 121 162 208 263 319 383
#     4  11  24  46  65  91 131 173 220 284 338 404
#     4  10  21  39  65  97 126 169 223 270 336 401
#
# _framework density 20.520693000000001
#
# number of rings (size 3 to 8) (size 9 to 14) (size 15 to 20)
#    0.000    1.750    2.500    1.875    1.750    3.500 
#   11.250    0.000    0.000    0.000    0.000    0.000 
#    0.000    0.000    0.000    0.000    0.000    0.000 
#
# Total GULP energy -178212.724482 kJ/mol
# GULP energy per Si atom -5569.147640 kJ/mol
# Density = 2.047399 g / cm^3
# Si number density = 20.520693 Si / 1000 Ang^3
#
#
#
# Elastic Constant Matrix: (Units=GPa)
#
#
# Indices 1 2 3 4 5 6 
#
# 1 119.4150 37.2441 34.8381 0.0000 0.0000 0.0000
# 2 37.2441 51.8885 16.4166 0.0000 0.0000 0.0000
# 3 34.8381 16.4166 95.5369 0.0000 0.0000 0.0000
# 4 0.0000 0.0000 0.0000 37.1932 0.0000 0.0000
# 5 0.0000 0.0000 0.0000 0.0000 11.1842 0.0000
# 6 0.0000 0.0000 0.0000 0.0000 0.0000 24.6348
#
#
#
# Elastic Compliance Matrix: (Units=1/GPa)
#
#
# Indices 1 2 3 4 5 6 
#
# 1 0.011521 -0.007339 -0.002940 0.000000 0.000000 0.000000
# 2 -0.007339 0.025055 -0.001629 0.000000 0.000000 0.000000
# 3 -0.002940 -0.001629 0.011819 0.000000 0.000000 0.000000
# 4 0.000000 0.000000 0.000000 0.026887 0.000000 0.000000
# 5 0.000000 0.000000 0.000000 0.000000 0.089412 0.000000
# 6 0.000000 0.000000 0.000000 0.000000 0.000000 0.040593
#
#
# Mechanical properties :
#
#
# Convention : Reuss Voigt Hill
#
# Bulk Modulus (GPa) = 40.68548 49.31534 45.00041
# Shear Modulus (GPa) = 21.07071 26.49189 23.78130
#
# Velocity S-wave (km/s) = 3.20785 3.59692 3.40795
# Velocity P-wave (km/s) = 5.79569 6.42920 6.12065
#
# Compressibility (1/GPa) = 0.02457879
#
# Stress axis : x y z
#
# Youngs Moduli (GPa) = 86.79892 39.91160 84.60810
#
# Poissons Ratio (x) = 0.29292 0.24875
# Poissons Ratio (y) = 0.63703 0.13784
# Poissons Ratio (z) = 0.25519 0.06502
#
# Static dielectric constant tensor:
#      x y z
#    x 1.874710 0.000000 0.000000 
#    y 0.000000 1.759790 0.000000 
#    z 0.000000 0.000000 1.707420 
# 
# From -- ./inp_files/18763.got.cif
#   From: 2010.05.17/outbox.cif.g08.bks.cpg/sg37_10_cif.got.tgz:18763.got - 2010.06.03 17:53:42.
