data_PCOD9353574
_publ_section_title
;
Structure prediction by ZEFSAII (Michael W. Deem and Ramdas Pophale) SiO2 
 PCOD9353574
Probable space group: C C C 2
;
_chemical_formula_sum "Si O2"
_cell_formula_units_Z 64
_cell_length_a 16.740959
_cell_length_b 12.575105
_cell_length_c 17.142710
_cell_angle_alpha 90.000000
_cell_angle_beta 90.000000
_cell_angle_gamma 90.000000
_cell_volume 3608.871605
_symmetry_space_group_name_H-M "C C C 2"
_symmetry_group_IT_number 37
_symmetry_cell_setting 'orthorhombic'
loop_
_space_group_symop_operation_xyz
x,y,z
-x,-y,z
-x,y,1/2+z
x,-y,1/2+z
1/2+x,1/2+y,z
1/2-x,1/2-y,z
1/2-x,1/2+y,1/2+z
1/2+x,1/2-y,1/2+z
loop_
_atom_site_type_symbol
_atom_site_label
_atom_site_fract_x
_atom_site_fract_y
_atom_site_fract_z
Si Si1 0.624712 0.007750 0.150310
Si Si2 0.957787 0.892873 0.712541
Si Si3 0.513582 0.162623 0.901372
Si Si4 0.226175 0.129205 0.713504
Si Si5 0.486418 0.162623 0.213908
Si Si6 0.542213 0.392873 0.402739
Si Si7 0.124712 0.507750 0.464970
Si Si8 0.773825 0.129205 0.401775
O O1 0.593244 0.896602 0.185522
O O2 0.711044 0.046700 0.178010
O O3 0.560807 0.095175 0.180469
O O4 0.620896 1.000000 0.057640
O O5 0.865101 0.889433 0.689363
O O6 0.002533 0.784570 0.688967
O O7 0.958712 0.893462 0.807640
O O8 0.000000 0.000000 0.685019
O O9 0.509622 0.156932 0.807640
O O10 0.502533 0.284570 0.926313
O O11 0.593244 0.103398 0.929758
O O12 0.439193 0.095175 0.934811
O O13 0.250000 0.250000 0.692365
O O14 0.231147 0.121467 0.807640
O O15 0.500000 0.500000 0.430260
O O16 0.634899 0.389433 0.425916
O O17 0.211044 0.546700 0.437270
O O18 0.750000 0.250000 0.422914
#
# Coordination Sequence:
#
# PCOD9353574 Si02
#       8
#     8   8   8   8   8   8   8   8
#     4  11  21  33  53  81 117 142 180 232 283 324
#     4   9  18  33  57  85 109 134 176 232 280 322
#     4  10  18  33  58  84 107 142 188 231 274 326
#     4  10  18  34  59  83 105 142 192 231 265 324
#     4  10  18  33  58  84 107 142 188 231 274 326
#     4   9  18  33  57  85 109 134 176 232 280 322
#     4  11  21  33  53  81 117 142 180 232 283 324
#     4  10  18  34  59  83 105 142 192 231 265 324
#
# _framework density 17.734076000000002
#
# number of rings (size 3 to 8) (size 9 to 14) (size 15 to 20)
#    0.000    2.000    2.500    4.500    0.000    0.000 
#    0.000    3.750    0.000    6.000    0.000    0.000 
#    0.000    0.000    0.000    0.000    0.000    0.000 
#
# Total GULP energy -178561.904032 kJ/mol
# GULP energy per Si atom -5580.059501 kJ/mol
# Density = 1.769371 g / cm^3
# Si number density = 17.734076 Si / 1000 Ang^3
#
#
#
# Elastic Constant Matrix: (Units=GPa)
#
#
# Indices 1 2 3 4 5 6 
#
# 1 131.9503 105.5378 33.0881 0.0000 0.0000 0.0000
# 2 105.5378 174.2918 40.6379 0.0000 0.0000 0.0000
# 3 33.0881 40.6379 60.0145 0.0000 0.0000 0.0000
# 4 0.0000 0.0000 0.0000 -11.8748 0.0000 0.0000
# 5 0.0000 0.0000 0.0000 0.0000 10.9006 0.0000
# 6 0.0000 0.0000 0.0000 0.0000 0.0000 35.3131
#
#
#
# Elastic Compliance Matrix: (Units=1/GPa)
#
#
# Indices 1 2 3 4 5 6 
#
# 1 0.015010 -0.008502 -0.002519 0.000000 0.000000 0.000000
# 2 -0.008502 0.011629 -0.003187 0.000000 0.000000 0.000000
# 3 -0.002519 -0.003187 0.020209 0.000000 0.000000 0.000000
# 4 0.000000 0.000000 0.000000 -0.084212 0.000000 0.000000
# 5 0.000000 0.000000 0.000000 0.000000 0.091738 0.000000
# 6 0.000000 0.000000 0.000000 0.000000 0.000000 0.028318
#
#
# Mechanical properties :
#
#
# Convention : Reuss Voigt Hill
#
# Bulk Modulus (GPa) = 54.24973 80.53160 67.39066
# Shear Modulus (GPa) = 42.64335 19.33395 30.98865
#
# Velocity S-wave (km/s) = 4.90899 3.30542 4.18473
# Velocity P-wave (km/s) = 7.92389 7.75093 7.83789
#
# Compressibility (1/GPa) = 0.01843327
#
# Stress axis : x y z
#
# Youngs Moduli (GPa) = 66.62145 85.99537 49.48237
#
# Poissons Ratio (x) = 0.73111 0.12464
# Poissons Ratio (y) = 0.56640 0.15769
# Poissons Ratio (z) = 0.16781 0.27405
#
# Static dielectric constant tensor:
#      x y z
#    x 1.592160 0.000000 0.000000 
#    y 0.000000 1.608410 0.000000 
#    z 0.000000 0.000000 1.582540 
# 
# From -- ./inp_files/12705.got.cif
#   From: 2010.05.17/outbox.cif.g08.bks.cpg/sg37_7_cif.got.tgz:12705.got - 2010.06.03 17:53:42.
