data_PCOD9353381
_publ_section_title
;
Structure prediction by ZEFSAII (Michael W. Deem and Ramdas Pophale) SiO2 
 PCOD9353381
Probable space group: C M C 21
;
_chemical_formula_sum "Si O2"
_cell_formula_units_Z 32
_cell_length_a 9.000000
_cell_length_b 15.000000
_cell_length_c 24.000000
_cell_angle_alpha 90.000000
_cell_angle_beta 90.000000
_cell_angle_gamma 90.000000
_cell_volume 3240.000000
_symmetry_space_group_name_H-M "C M C 21"
_symmetry_group_IT_number 36
_symmetry_cell_setting 'orthorhombic'
loop_
_space_group_symop_operation_xyz
x,y,z
-x,-y,1/2+z
x,-y,1/2+z
-x,y,z
1/2+x,1/2+y,z
1/2-x,1/2-y,1/2+z
1/2+x,1/2-y,1/2+z
1/2-x,1/2+y,z
loop_
_atom_site_type_symbol
_atom_site_label
_atom_site_fract_x
_atom_site_fract_y
_atom_site_fract_z
Si Si1 0.323867 0.907456 0.946790
Si Si2 0.325924 0.349966 0.832400
Si Si3 0.321590 0.401212 0.467780
Si Si4 0.822402 0.001940 0.653603
Si Si5 0.177077 0.362124 0.072160
Si Si6 0.677279 0.004757 0.769847
Si Si7 0.820004 0.832551 0.589900
Si Si8 0.324979 0.846188 0.359161
O O1 0.500000 0.909264 0.934614
O O2 0.236886 0.870046 0.893980
O O3 0.261651 0.005933 0.957912
O O4 0.301566 0.857319 0.005517
O O5 0.500000 0.373409 0.829922
O O6 0.237569 0.408841 0.788416
O O7 0.310035 0.244552 0.824670
O O8 0.500000 0.412151 0.467460
O O9 0.275445 0.363829 0.527967
O O10 0.270869 0.342352 0.415303
O O11 0.769284 0.061220 0.601748
O O12 0.000000 0.004660 0.658676
O O13 0.747888 0.030951 0.711043
O O14 0.773276 0.902037 0.636751
O O15 0.225273 0.268646 0.098468
O O16 0.000000 0.376914 0.080961
O O17 0.500000 0.005690 0.765550
O O18 0.719445 0.071533 0.820110
O O19 0.000000 0.832902 0.589223
O O20 0.500000 0.855962 0.374098
#
# Coordination Sequence:
#
# PCOD9353381 Si02
#       8
#     8   8   8   8   8   8   8   8
#     4  11  21  35  59  91 126 159 193 241 299 357
#     4  11  23  40  63  91 120 157 199 245 301 358
#     4  11  20  35  62  91 122 160 199 240 294 359
#     4  11  23  41  62  86 118 154 202 255 299 349
#     4  10  21  39  62  87 119 159 198 237 294 361
#     4  11  24  43  63  85 118 159 202 249 302 360
#     4   9  20  38  60  87 120 157 194 239 298 353
#     4  10  23  41  61  88 123 157 195 246 303 357
#
# _framework density 9.8765429999999999
#
# number of rings (size 3 to 8) (size 9 to 14) (size 15 to 20)
#    0.000    1.500    2.500    2.625    0.000    4.000 
#    0.000    7.500    0.000    0.000    0.000    0.000 
#    0.000    0.000    0.000    0.000    0.000    0.000 
#
# Total GULP energy -178741.456924 kJ/mol
# GULP energy per Si atom -5585.670529 kJ/mol
# Density = 0.985406 g / cm^3
# Si number density = 9.876543 Si / 1000 Ang^3
#
#
#
# Elastic Constant Matrix: (Units=GPa)
#
#
# Indices 1 2 3 4 5 6 
#
# 1 41.0825 3.8775 18.2897 0.0000 0.0000 0.0000
# 2 3.8775 53.6788 -12.5155 0.0000 0.0000 0.0000
# 3 18.2897 -12.5155 55.5361 0.0000 0.0000 0.0000
# 4 0.0000 0.0000 0.0000 12.9626 0.0000 0.0000
# 5 0.0000 0.0000 0.0000 0.0000 29.1291 0.0000
# 6 0.0000 0.0000 0.0000 0.0000 0.0000 21.4206
#
#
#
# Elastic Compliance Matrix: (Units=1/GPa)
#
#
# Indices 1 2 3 4 5 6 
#
# 1 0.029585 -0.004653 -0.010792 0.000000 0.000000 0.000000
# 2 -0.004653 0.020394 0.006128 0.000000 0.000000 0.000000
# 3 -0.010792 0.006128 0.022941 0.000000 0.000000 0.000000
# 4 0.000000 0.000000 0.000000 0.077145 0.000000 0.000000
# 5 0.000000 0.000000 0.000000 0.000000 0.034330 0.000000
# 6 0.000000 0.000000 0.000000 0.000000 0.000000 0.046684
#
#
# Mechanical properties :
#
#
# Convention : Reuss Voigt Hill
#
# Bulk Modulus (GPa) = 18.42043 18.84452 18.63248
# Shear Modulus (GPa) = 18.67005 22.07886 20.37445
#
# Velocity S-wave (km/s) = 3.07770 3.34689 3.21511
# Velocity P-wave (km/s) = 4.68777 4.94938 4.82035
#
# Compressibility (1/GPa) = 0.05428755
#
# Stress axis : x y z
#
# Youngs Moduli (GPa) = 33.80105 49.03318 43.58923
#
# Poissons Ratio (x) = 0.22816 0.47041
# Poissons Ratio (y) = 0.15728 -0.26714
# Poissons Ratio (z) = 0.36477 -0.30050
#
# Static dielectric constant tensor:
#      x y z
#    x 1.655240 0.000000 0.000000 
#    y 0.000000 1.737150 0.000000 
#    z 0.000000 0.000000 1.679450 
# 
# From -- ./inp_files/16634.got.cif
#   From: 2010.05.17/outbox.ucp.g08.bks.cvg/sg36_9_cif.got.tgz:16634.got - 2010.06.11 10:37:26.
