data_PCOD9353828
_publ_section_title
;
Structure prediction by ZEFSAII (Michael W. Deem and Ramdas Pophale) SiO2 
 PCOD9353828
Probable space group: C C C 2
;
_chemical_formula_sum "Si O2"
_cell_formula_units_Z 52
_cell_length_a 4.961301
_cell_length_b 27.125084
_cell_length_c 18.498383
_cell_angle_alpha 90.000000
_cell_angle_beta 90.000000
_cell_angle_gamma 90.000000
_cell_volume 2489.432959
_symmetry_space_group_name_H-M "C C C 2"
_symmetry_group_IT_number 37
_symmetry_cell_setting 'orthorhombic'
loop_
_space_group_symop_operation_xyz
x,y,z
-x,-y,z
-x,y,1/2+z
x,-y,1/2+z
1/2+x,1/2+y,z
1/2-x,1/2-y,z
1/2-x,1/2+y,1/2+z
1/2+x,1/2-y,1/2+z
loop_
_atom_site_type_symbol
_atom_site_label
_atom_site_fract_x
_atom_site_fract_y
_atom_site_fract_z
Si Si1 0.331367 0.566930 0.543600
Si Si2 0.172644 0.396329 0.614970
Si Si3 0.024844 0.944374 0.242187
Si Si4 0.998857 0.421947 0.834102
Si Si5 0.204346 0.694638 0.004689
Si Si6 0.716385 0.654971 0.929823
Si Si7 0.500000 0.000000 0.950286
O O1 0.634946 0.568826 0.568076
O O2 0.289670 0.610249 0.486200
O O3 0.129170 0.582258 0.609316
O O4 0.227755 0.520642 0.501716
O O5 0.316404 0.404404 0.692129
O O6 0.196327 0.343909 0.572653
O O7 0.246783 0.952774 0.304633
O O8 0.749905 0.923080 0.277547
O O9 0.000000 0.000000 0.208624
O O10 0.140394 0.370452 0.859903
O O11 0.899465 0.453802 0.902451
O O12 0.250000 0.750000 0.030680
O O13 0.419192 0.677294 0.942689
O O14 0.921561 0.693489 0.963798
#
# Coordination Sequence:
#
# PCOD9353828 Si02
#       7
#     8   8   8   8   8   8   4
#     4   9  20  32  53  74 109 141 184 242 293 333
#     4  10  22  37  51  84 113 150 192 239 293 341
#     4  12  23  36  54  77 117 167 207 233 271 343
#     4  11  22  38  54  79 115 157 203 235 282 341
#     4  10  19  37  63  89 113 143 186 246 319 366
#     4   9  19  35  56  86 112 141 186 244 297 354
#     4  10  20  34  52  76 104 148 196 236 284 336
#
# _framework density 20.888293000000001
#
# number of rings (size 3 to 8) (size 9 to 14) (size 15 to 20)
#    0.000    1.846    1.538    2.308    2.154    4.923 
#    0.000    0.000    0.000    3.692    0.000    0.000 
#    0.000    0.000    0.000    0.000    0.000    0.000 
#
# Total GULP energy -144798.035699 kJ/mol
# GULP energy per Si atom -5569.155219 kJ/mol
# Density = 2.084075 g / cm^3
# Si number density = 20.888293 Si / 1000 Ang^3
#
#
#
# Elastic Constant Matrix: (Units=GPa)
#
#
# Indices 1 2 3 4 5 6 
#
# 1 82.0164 7.9296 -5.2631 0.0000 0.0000 0.0000
# 2 7.9296 78.7413 21.1676 0.0000 0.0000 0.0000
# 3 -5.2631 21.1676 49.6657 0.0000 0.0000 0.0000
# 4 0.0000 0.0000 0.0000 11.1819 0.0000 0.0000
# 5 0.0000 0.0000 0.0000 0.0000 99.7424 0.0000
# 6 0.0000 0.0000 0.0000 0.0000 0.0000 24.5890
#
#
#
# Elastic Compliance Matrix: (Units=1/GPa)
#
#
# Indices 1 2 3 4 5 6 
#
# 1 0.012504 -0.001824 0.002103 0.000000 0.000000 0.000000
# 2 -0.001824 0.014609 -0.006420 0.000000 0.000000 0.000000
# 3 0.002103 -0.006420 0.023094 0.000000 0.000000 0.000000
# 4 0.000000 0.000000 0.000000 0.089430 0.000000 0.000000
# 5 0.000000 0.000000 0.000000 0.000000 0.010026 0.000000
# 6 0.000000 0.000000 0.000000 0.000000 0.000000 0.040669
#
#
# Mechanical properties :
#
#
# Convention : Reuss Voigt Hill
#
# Bulk Modulus (GPa) = 26.36881 28.67684 27.52282
# Shear Modulus (GPa) = 23.22816 39.54196 31.38506
#
# Velocity S-wave (km/s) = 3.33831 4.35561 3.88044
# Velocity P-wave (km/s) = 5.24502 6.24928 5.76905
#
# Compressibility (1/GPa) = 0.03792360
#
# Stress axis : x y z
#
# Youngs Moduli (GPa) = 79.97439 68.44927 43.30210
#
# Poissons Ratio (x) = 0.12488 -0.09105
# Poissons Ratio (y) = 0.14591 0.27799
# Poissons Ratio (z) = -0.16816 0.43943
#
# Static dielectric constant tensor:
#      x y z
#    x 1.735660 0.000000 0.000000 
#    y 0.000000 2.435860 0.000000 
#    z 0.000000 0.000000 1.868970 
# 
# From -- ./inp_files/13980.got.cif
#   From: 2010.05.17/outbox.cif.g08.bks.cpg/sg37_7_cif.got.tgz:13980.got - 2010.06.03 17:53:42.
