data_PCOD9353374
_publ_section_title
;
Structure prediction by ZEFSAII (Michael W. Deem and Ramdas Pophale) SiO2 
 PCOD9353374
Probable space group: C M C 21
;
_chemical_formula_sum "Si O2"
_cell_formula_units_Z 32
_cell_length_a 9.000000
_cell_length_b 30.000000
_cell_length_c 12.000000
_cell_angle_alpha 90.000000
_cell_angle_beta 90.000000
_cell_angle_gamma 90.000000
_cell_volume 3240.000000
_symmetry_space_group_name_H-M "C M C 21"
_symmetry_group_IT_number 36
_symmetry_cell_setting 'orthorhombic'
loop_
_space_group_symop_operation_xyz
x,y,z
-x,-y,1/2+z
x,-y,1/2+z
-x,y,z
1/2+x,1/2+y,z
1/2-x,1/2-y,1/2+z
1/2+x,1/2-y,1/2+z
1/2-x,1/2+y,z
loop_
_atom_site_type_symbol
_atom_site_label
_atom_site_fract_x
_atom_site_fract_y
_atom_site_fract_z
Si Si1 0.677683 0.959259 0.360200
Si Si2 0.177106 0.283294 0.803031
Si Si3 0.678574 0.685133 0.842255
Si Si4 0.318170 0.863812 0.944481
Si Si5 0.178571 0.389282 0.189676
Si Si6 0.677803 0.945936 0.796328
Si Si7 0.333429 0.569706 0.077401
Si Si8 0.666831 0.674395 0.100676
O O1 0.500000 0.955454 0.373811
O O2 0.716838 0.937205 0.241767
O O3 0.758219 0.933803 0.458326
O O4 0.719144 0.010812 0.366747
O O5 0.233129 0.233210 0.802508
O O6 0.231919 0.315434 0.902247
O O7 0.219687 0.306224 0.688206
O O8 0.000000 0.280598 0.815251
O O9 0.500000 0.680377 0.827263
O O10 0.758937 0.646705 0.775233
O O11 0.706787 0.683983 0.973676
O O12 0.500000 0.863838 0.945082
O O13 0.270031 0.900991 0.855608
O O14 0.266646 0.878152 0.066327
O O15 0.000000 0.386513 0.186890
O O16 0.500000 0.943898 0.789900
O O17 0.739301 0.952886 0.673528
O O18 0.500000 0.552036 0.072988
O O19 0.338128 0.621399 0.110109
O O20 0.500000 0.692157 0.122278
#
# Coordination Sequence:
#
# PCOD9353374 Si02
#       8
#     8   8   8   8   8   8   8   8
#     4  10  22  37  60  89 114 148 194 241 283 334
#     4  10  21  37  59  84 111 148 192 234 281 338
#     4  10  22  39  57  82 115 151 188 231 288 342
#     4   9  19  36  57  82 112 146 183 231 284 331
#     4  10  21  37  58  84 113 147 191 234 280 338
#     4  10  21  38  62  86 114 149 191 242 287 333
#     4  11  22  38  60  84 116 155 193 235 287 348
#     4  10  21  38  59  81 113 152 190 234 284 336
#
# _framework density 9.8765429999999999
#
# number of rings (size 3 to 8) (size 9 to 14) (size 15 to 20)
#    0.000    2.000    2.500    0.375    3.500    2.000 
#    0.000    1.250    0.000    0.000    0.000    0.000 
#    0.000    0.000    0.000    0.000    0.000    0.000 
#
# Total GULP energy -178389.571110 kJ/mol
# GULP energy per Si atom -5574.674097 kJ/mol
# Density = 0.985406 g / cm^3
# Si number density = 9.876543 Si / 1000 Ang^3
#
#
#
# Elastic Constant Matrix: (Units=GPa)
#
#
# Indices 1 2 3 4 5 6 
#
# 1 -25.8835 7.1104 -13.7876 0.0000 0.0000 0.0000
# 2 7.1104 42.3001 -18.3330 0.0000 0.0000 0.0000
# 3 -13.7876 -18.3330 -0.6943 0.0000 0.0000 0.0000
# 4 0.0000 0.0000 0.0000 21.1095 0.0000 0.0000
# 5 0.0000 0.0000 0.0000 0.0000 9.2831 0.0000
# 6 0.0000 0.0000 0.0000 0.0000 0.0000 19.3737
#
#
#
# Elastic Compliance Matrix: (Units=1/GPa)
#
#
# Indices 1 2 3 4 5 6 
#
# 1 -0.072398 0.051051 0.089712 0.000000 0.000000 0.000000
# 2 0.051051 -0.034098 -0.113422 0.000000 0.000000 0.000000
# 3 0.089712 -0.113422 -0.226908 0.000000 0.000000 0.000000
# 4 0.000000 0.000000 0.000000 0.047372 0.000000 0.000000
# 5 0.000000 0.000000 0.000000 0.000000 0.107723 0.000000
# 6 0.000000 0.000000 0.000000 0.000000 0.000000 0.051616
#
#
# Mechanical properties :
#
#
# Convention : Reuss Voigt Hill
#
# Bulk Modulus (GPa) = -3.58778 -3.81090 -3.69934
# Shear Modulus (GPa) = -18.22946 12.66877 -2.78035
#
# Velocity S-wave (km/s) = -3.04117 2.53525 -1.18769
# Velocity P-wave (km/s) = 3.76190 2.57615 1.93847
#
# Compressibility (1/GPa) = -0.27872396
#
# Stress axis : x y z
#
# Youngs Moduli (GPa) = -13.81248 -29.32707 -4.40708
#
# Poissons Ratio (x) = 1.49717 0.39537
# Poissons Ratio (y) = 0.70514 -0.49986
# Poissons Ratio (z) = 1.23914 -3.32634
#
# Static dielectric constant tensor:
#      x y z
#    x 1.678650 0.000000 0.000000 
#    y 0.000000 1.739860 0.000000 
#    z 0.000000 0.000000 1.674000 
# 
# From -- ./inp_files/7061.got.cif
#   From: 2010.05.17/outbox.ucp.g08.bks.cvg/sg36_4_cif.got.tgz:7061.got - 2010.06.11 10:37:26.
