data_PCOD9353404
_publ_section_title
;
Structure prediction by ZEFSAII (Michael W. Deem and Ramdas Pophale) SiO2 
 PCOD9353404
Probable space group: C M C 21
;
_chemical_formula_sum "Si O2"
_cell_formula_units_Z 20
_cell_length_a 12.000000
_cell_length_b 18.000000
_cell_length_c 9.000000
_cell_angle_alpha 90.000000
_cell_angle_beta 90.000000
_cell_angle_gamma 90.000000
_cell_volume 1944.000000
_symmetry_space_group_name_H-M "C M C 21"
_symmetry_group_IT_number 36
_symmetry_cell_setting 'orthorhombic'
loop_
_space_group_symop_operation_xyz
x,y,z
-x,-y,1/2+z
x,-y,1/2+z
-x,y,z
1/2+x,1/2+y,z
1/2-x,1/2-y,1/2+z
1/2+x,1/2-y,1/2+z
1/2-x,1/2+y,z
loop_
_atom_site_type_symbol
_atom_site_label
_atom_site_fract_x
_atom_site_fract_y
_atom_site_fract_z
Si Si1 0.365648 0.675663 0.607480
Si Si2 0.000000 0.617692 0.412615
Si Si3 0.633885 0.592116 0.050367
Si Si4 0.316267 0.753428 0.923257
Si Si5 0.000000 0.488896 0.197154
Si Si6 0.260789 0.468710 0.244719
O O1 0.500000 0.670980 0.595932
O O2 0.333516 0.721867 0.756949
O O3 0.305588 0.717534 0.471135
O O4 0.311052 0.594333 0.633746
O O5 0.896681 0.674428 0.437004
O O6 0.000000 0.576133 0.251063
O O7 0.000000 0.548783 0.531330
O O8 0.500000 0.580814 0.060101
O O9 0.654467 0.681035 0.026715
O O10 0.684555 0.552841 0.902553
O O11 0.696933 0.549035 0.184563
O O12 0.874834 0.464615 0.252844
#
# Coordination Sequence:
#
# PCOD9353404 Si02
#       6
#     8   4   8   8   4   8
#     4  11  24  46  70 103 144 190 237 308 356 433
#     4  12  24  50  70 104 146 182 234 300 346 440
#     4  11  23  43  68  97 134 185 226 290 345 420
#     4  11  24  46  71 100 146 180 235 297 368 410
#     4  12  26  44  74 100 144 188 234 294 366 424
#     4  11  24  42  67  99 135 177 238 282 353 423
#
# _framework density 10.288066000000001
#
# number of rings (size 3 to 8) (size 9 to 14) (size 15 to 20)
#    0.000    0.800    4.000    4.200    2.800    0.000 
#    9.000    2.000    0.000    0.000    0.000    0.000 
#    0.000    0.000    0.000    0.000    0.000    0.000 
#
# Total GULP energy -111703.717705 kJ/mol
# GULP energy per Si atom -5585.185885 kJ/mol
# Density = 1.026465 g / cm^3
# Si number density = 10.288066 Si / 1000 Ang^3
#
#
#
# Elastic Constant Matrix: (Units=GPa)
#
#
# Indices 1 2 3 4 5 6 
#
# 1 198.2492 41.3632 18.3864 0.0000 0.0000 0.0000
# 2 41.3632 136.0637 33.4094 0.0000 0.0000 0.0000
# 3 18.3864 33.4094 33.3760 0.0000 0.0000 0.0000
# 4 0.0000 0.0000 0.0000 48.2802 0.0000 0.0000
# 5 0.0000 0.0000 0.0000 0.0000 30.3406 0.0000
# 6 0.0000 0.0000 0.0000 0.0000 0.0000 39.6170
#
#
#
# Elastic Compliance Matrix: (Units=1/GPa)
#
#
# Indices 1 2 3 4 5 6 
#
# 1 0.005465 -0.001223 -0.001787 0.000000 0.000000 0.000000
# 2 -0.001223 0.010018 -0.009355 0.000000 0.000000 0.000000
# 3 -0.001787 -0.009355 0.040310 0.000000 0.000000 0.000000
# 4 0.000000 0.000000 0.000000 0.020712 0.000000 0.000000
# 5 0.000000 0.000000 0.000000 0.000000 0.032959 0.000000
# 6 0.000000 0.000000 0.000000 0.000000 0.000000 0.025242
#
#
# Mechanical properties :
#
#
# Convention : Reuss Voigt Hill
#
# Bulk Modulus (GPa) = 32.19055 61.55634 46.87345
# Shear Modulus (GPa) = 29.44827 41.94954 35.69891
#
# Velocity S-wave (km/s) = 3.78721 4.52015 4.16981
# Velocity P-wave (km/s) = 5.89936 7.56463 6.78329
#
# Compressibility (1/GPa) = 0.03106501
#
# Stress axis : x y z
#
# Youngs Moduli (GPa) = 182.98405 99.81900 24.80781
#
# Poissons Ratio (x) = 0.12204 0.04432
# Poissons Ratio (y) = 0.22372 0.23207
# Poissons Ratio (z) = 0.32694 0.93377
#
# Static dielectric constant tensor:
#      x y z
#    x 1.717410 0.000000 0.000000 
#    y 0.000000 1.743020 0.000000 
#    z 0.000000 0.000000 1.776160 
# 
# From -- ./inp_files/3101.got.cif
#   From: 2010.05.17/outbox.ucp.g08.bks.cvg/sg36_2_cif.got.tgz:3101.got - 2010.06.11 10:37:26.
