data_PCOD9353187
_publ_section_title
;
Structure prediction by ZEFSAII (Michael W. Deem and Ramdas Pophale) SiO2 
 PCOD9353187
Probable space group: C M C 21
;
_chemical_formula_sum "Si O2"
_cell_formula_units_Z 56
_cell_length_a 7.941909
_cell_length_b 14.477367
_cell_length_c 19.513316
_cell_angle_alpha 90.000000
_cell_angle_beta 90.000000
_cell_angle_gamma 90.000000
_cell_volume 2243.600706
_symmetry_space_group_name_H-M "C M C 21"
_symmetry_group_IT_number 36
_symmetry_cell_setting 'orthorhombic'
loop_
_space_group_symop_operation_xyz
x,y,z
-x,-y,1/2+z
x,-y,1/2+z
-x,y,z
1/2+x,1/2+y,z
1/2-x,1/2-y,1/2+z
1/2+x,1/2-y,1/2+z
1/2-x,1/2+y,z
loop_
_atom_site_type_symbol
_atom_site_label
_atom_site_fract_x
_atom_site_fract_y
_atom_site_fract_z
Si Si1 0.201055 0.717423 0.391600
Si Si2 0.694671 0.020544 0.030463
Si Si3 0.255088 0.617076 0.630532
Si Si4 0.310534 0.047032 0.235034
Si Si5 0.194575 0.252985 0.242397
Si Si6 0.199328 0.726780 0.040895
Si Si7 0.691898 0.491722 0.881592
O O1 0.254204 0.766369 0.321388
O O2 0.257687 0.764809 0.461243
O O3 0.293123 0.618844 0.389981
O O4 0.000000 0.703616 0.392246
O O5 0.500000 0.992179 0.043893
O O6 0.715248 0.027932 0.948836
O O7 0.814179 0.944848 0.065103
O O8 0.724573 0.121125 0.061440
O O9 0.195780 0.528871 0.675413
O O10 0.309667 0.684310 0.693112
O O11 0.188977 0.702292 0.583866
O O12 0.500000 0.081760 0.241974
O O13 0.207082 0.142443 0.227904
O O14 0.263217 0.995133 0.305607
O O15 0.000000 0.282736 0.231553
O O16 0.000000 0.748680 0.052305
O O17 0.500000 0.523890 0.884144
#
# Coordination Sequence:
#
# PCOD9353187 Si02
#       7
#     8   8   8   8   8   8   8
#     4  11  23  43  72 103 140 187 237 291 354 423
#     4  11  24  45  71 102 141 188 235 289 354 426
#     4  12  26  44  74 105 141 188 235 287 355 425
#     4  11  24  45  71 103 140 188 236 288 354 425
#     4  11  24  44  70 104 142 184 236 294 351 418
#     4  11  26  46  72 104 142 186 237 295 354 420
#     4  11  23  43  70 105 142 185 238 294 350 415
#
# _framework density 24.959876999999999
#
# number of rings (size 3 to 8) (size 9 to 14) (size 15 to 20)
#    0.000    0.857    1.429    7.286    2.000    5.143 
#    0.000    1.429    0.000    0.000    0.000    0.000 
#    0.000    0.000    0.000    0.000    0.000    0.000 
#
# Total GULP energy -156178.610328 kJ/mol
# GULP energy per Si atom -5577.807512 kJ/mol
# Density = 2.490307 g / cm^3
# Si number density = 24.959877 Si / 1000 Ang^3
#
#
#
# Elastic Constant Matrix: (Units=GPa)
#
#
# Indices 1 2 3 4 5 6 
#
# 1 102.1058 0.7345 13.2104 0.0000 0.0000 0.0000
# 2 0.7345 106.7077 29.9369 0.0000 0.0000 0.0000
# 3 13.2104 29.9369 166.3810 0.0000 0.0000 0.0000
# 4 0.0000 0.0000 0.0000 56.9642 0.0000 0.0000
# 5 0.0000 0.0000 0.0000 0.0000 -29.1553 0.0000
# 6 0.0000 0.0000 0.0000 0.0000 0.0000 -2.7701
#
#
#
# Elastic Compliance Matrix: (Units=1/GPa)
#
#
# Indices 1 2 3 4 5 6 
#
# 1 0.009898 0.000160 -0.000815 0.000000 0.000000 0.000000
# 2 0.000160 0.009872 -0.001789 0.000000 0.000000 0.000000
# 3 -0.000815 -0.001789 0.006397 0.000000 0.000000 0.000000
# 4 0.000000 0.000000 0.000000 0.017555 0.000000 0.000000
# 5 0.000000 0.000000 0.000000 0.000000 -0.034299 0.000000
# 6 0.000000 0.000000 0.000000 0.000000 0.000000 -0.361001
#
#
# Mechanical properties :
#
#
# Convention : Reuss Voigt Hill
#
# Bulk Modulus (GPa) = 46.99155 51.43979 49.21567
# Shear Modulus (GPa) = -14.72328 27.09528 6.18600
#
# Velocity S-wave (km/s) = -2.43138 3.29835 1.57599
# Velocity P-wave (km/s) = 3.31445 5.92952 4.80337
#
# Compressibility (1/GPa) = 0.02128042
#
# Stress axis : x y z
#
# Youngs Moduli (GPa) = 101.03027 101.29443 156.32589
#
# Poissons Ratio (x) = -0.01625 0.12737
# Poissons Ratio (y) = -0.01621 0.27967
# Poissons Ratio (z) = 0.08232 0.18122
#
# Static dielectric constant tensor:
#      x y z
#    x 2.001530 0.000000 0.000000 
#    y 0.000000 1.937760 0.000000 
#    z 0.000000 0.000000 1.968730 
# 
# From -- ./inp_files/15486.got.cif
#   From: 2010.05.17/outbox.cif.g08.bks.cpg/sg36_8_cif.got.tgz:15486.got - 2010.06.03 17:41:39.
