data_PCOD9353550
_publ_section_title
;
Structure prediction by ZEFSAII (Michael W. Deem and Ramdas Pophale) SiO2 
 PCOD9353550
Probable space group: C C C 2
;
_chemical_formula_sum "Si O2"
_cell_formula_units_Z 48
_cell_length_a 18.350304
_cell_length_b 7.650078
_cell_length_c 14.153710
_cell_angle_alpha 90.000000
_cell_angle_beta 90.000000
_cell_angle_gamma 90.000000
_cell_volume 1986.915600
_symmetry_space_group_name_H-M "C C C 2"
_symmetry_group_IT_number 37
_symmetry_cell_setting 'orthorhombic'
loop_
_space_group_symop_operation_xyz
x,y,z
-x,-y,z
-x,y,1/2+z
x,-y,1/2+z
1/2+x,1/2+y,z
1/2-x,1/2-y,z
1/2-x,1/2+y,1/2+z
1/2+x,1/2-y,1/2+z
loop_
_atom_site_type_symbol
_atom_site_label
_atom_site_fract_x
_atom_site_fract_y
_atom_site_fract_z
Si Si1 0.674428 0.074163 0.755330
Si Si2 0.215377 0.057135 0.885662
Si Si3 0.464696 0.804280 0.838678
Si Si4 0.899102 0.189768 0.242016
Si Si5 0.730304 0.050949 0.072856
Si Si6 0.434164 0.855874 0.050211
O O1 0.605914 0.196932 0.771794
O O2 0.724243 0.074698 0.846583
O O3 0.638710 0.880547 0.752324
O O4 0.725345 0.071771 0.663975
O O5 0.250000 0.250000 0.889678
O O6 0.154244 0.068098 0.804371
O O7 0.210067 0.004260 0.995242
O O8 0.526327 0.683683 0.798176
O O9 0.500000 0.000000 0.835684
O O10 0.448694 0.773387 0.948169
O O11 0.922629 0.208846 0.131620
O O12 0.750000 0.250000 0.101426
O O13 0.645089 0.049242 0.039979
O O14 0.500000 0.000000 0.071317
#
# Coordination Sequence:
#
# PCOD9353550 Si02
#       6
#     8   8   8   8   8   8
#     4   9  16  32  53  81 117 159 210 261 303 368
#     4  10  20  35  55  85 125 162 204 260 326 379
#     4   9  16  28  51  88 123 148 201 267 310 353
#     4   9  17  29  49  83 121 156 193 261 319 367
#     4  11  21  35  58  89 125 169 213 258 325 388
#     4  10  18  31  58  93 122 155 216 271 310 369
#
# _framework density 24.158047
#
# number of rings (size 3 to 8) (size 9 to 14) (size 15 to 20)
#    0.000    2.333    1.667    5.000    2.333    0.000 
#    0.000    0.833    0.000    1.000    0.000    9.333 
#    0.000    0.000    0.000    0.000    0.000    0.000 
#
# Total GULP energy -133777.235234 kJ/mol
# GULP energy per Si atom -5574.051468 kJ/mol
# Density = 2.410306 g / cm^3
# Si number density = 24.158047 Si / 1000 Ang^3
#
#
#
# Elastic Constant Matrix: (Units=GPa)
#
#
# Indices 1 2 3 4 5 6 
#
# 1 113.9758 37.1953 49.7115 0.0000 0.0000 0.0000
# 2 37.1953 71.0510 18.6626 0.0000 0.0000 0.0000
# 3 49.7115 18.6626 179.0125 0.0000 0.0000 0.0000
# 4 0.0000 0.0000 0.0000 52.1888 0.0000 0.0000
# 5 0.0000 0.0000 0.0000 0.0000 121.5199 0.0000
# 6 0.0000 0.0000 0.0000 0.0000 0.0000 5.5964
#
#
#
# Elastic Compliance Matrix: (Units=1/GPa)
#
#
# Indices 1 2 3 4 5 6 
#
# 1 0.011718 -0.005428 -0.002688 0.000000 0.000000 0.000000
# 2 -0.005428 0.016985 -0.000263 0.000000 0.000000 0.000000
# 3 -0.002688 -0.000263 0.006360 0.000000 0.000000 0.000000
# 4 0.000000 0.000000 0.000000 0.019161 0.000000 0.000000
# 5 0.000000 0.000000 0.000000 0.000000 0.008229 0.000000
# 6 0.000000 0.000000 0.000000 0.000000 0.000000 0.178687
#
#
# Mechanical properties :
#
#
# Convention : Reuss Voigt Hill
#
# Bulk Modulus (GPa) = 54.63340 63.90869 59.27105
# Shear Modulus (GPa) = 18.93936 53.09236 36.01586
#
# Velocity S-wave (km/s) = 2.80300 4.69306 3.86533
# Velocity P-wave (km/s) = 5.75672 7.47517 6.67151
#
# Compressibility (1/GPa) = 0.01830382
#
# Stress axis : x y z
#
# Youngs Moduli (GPa) = 85.34129 58.87471 157.22941
#
# Poissons Ratio (x) = 0.31958 0.42264
# Poissons Ratio (y) = 0.46324 0.04141
# Poissons Ratio (z) = 0.22940 0.01551
#
# Static dielectric constant tensor:
#      x y z
#    x 1.937640 0.000000 0.000000 
#    y 0.000000 1.933000 0.000000 
#    z 0.000000 0.000000 1.974090 
# 
# From -- ./inp_files/12547.got.cif
#   From: 2010.05.17/outbox.cif.g08.bks.cpg/sg37_7_cif.got.tgz:12547.got - 2010.06.03 17:53:42.
