data_PCOD9353158
_publ_section_title
;
Structure prediction by ZEFSAII (Michael W. Deem and Ramdas Pophale) SiO2 
 PCOD9353158
Probable space group: C M C 21
;
_chemical_formula_sum "Si O2"
_cell_formula_units_Z 40
_cell_length_a 21.513316
_cell_length_b 9.026327
_cell_length_c 8.450964
_cell_angle_alpha 90.000000
_cell_angle_beta 90.000000
_cell_angle_gamma 90.000000
_cell_volume 1641.060797
_symmetry_space_group_name_H-M "C M C 21"
_symmetry_group_IT_number 36
_symmetry_cell_setting 'orthorhombic'
loop_
_space_group_symop_operation_xyz
x,y,z
-x,-y,1/2+z
x,-y,1/2+z
-x,y,z
1/2+x,1/2+y,z
1/2-x,1/2-y,1/2+z
1/2+x,1/2-y,1/2+z
1/2-x,1/2+y,z
loop_
_atom_site_type_symbol
_atom_site_label
_atom_site_fract_x
_atom_site_fract_y
_atom_site_fract_z
Si Si1 0.429086 0.160496 0.695100
Si Si2 0.252933 0.177666 0.150613
Si Si3 0.807328 0.436166 0.341339
Si Si4 0.569251 0.495121 0.212955
Si Si5 0.627319 0.348382 0.461093
O O1 0.500000 0.110222 0.696148
O O2 0.378166 0.066502 0.784793
O O3 0.426087 0.330271 0.762144
O O4 0.402629 0.194897 0.518571
O O5 0.231846 0.336217 0.215703
O O6 0.275576 0.094421 0.310470
O O7 0.302035 0.138646 0.013340
O O8 0.190380 0.127054 0.056582
O O9 0.500000 0.437044 0.238696
O O10 0.622109 0.385915 0.278712
O O11 0.580852 0.523900 0.026895
#
# Coordination Sequence:
#
# PCOD9353158 Si02
#       5
#     8   8   8   8   8
#     4   8  18  34  54  78 111 152 194 239 288 342
#     4  11  23  38  61  87 124 152 201 239 304 349
#     4  11  23  40  61  91 117 160 194 250 292 357
#     4   9  15  27  47  75 106 145 186 230 284 335
#     4   9  17  29  49  79 110 147 183 238 288 337
#
# _framework density 24.374476999999999
#
# number of rings (size 3 to 8) (size 9 to 14) (size 15 to 20)
#    1.200    1.200    0.000    3.600    2.800    0.000 
#    0.000    1.000    0.000    0.000    0.000    0.000 
#    0.000    0.000    0.000    0.000    0.000    0.000 
#
# Total GULP energy -111385.717775 kJ/mol
# GULP energy per Si atom -5569.285889 kJ/mol
# Density = 2.431900 g / cm^3
# Si number density = 24.374477 Si / 1000 Ang^3
#
#
#
# Elastic Constant Matrix: (Units=GPa)
#
#
# Indices 1 2 3 4 5 6 
#
# 1 126.2635 15.9150 6.1383 0.0000 0.0000 0.0000
# 2 15.9150 44.4223 8.8705 0.0000 0.0000 0.0000
# 3 6.1383 8.8705 59.9930 0.0000 0.0000 0.0000
# 4 0.0000 0.0000 0.0000 31.2055 0.0000 0.0000
# 5 0.0000 0.0000 0.0000 0.0000 31.2345 0.0000
# 6 0.0000 0.0000 0.0000 0.0000 0.0000 15.4777
#
#
#
# Elastic Compliance Matrix: (Units=1/GPa)
#
#
# Indices 1 2 3 4 5 6 
#
# 1 0.008305 -0.002891 -0.000422 0.000000 0.000000 0.000000
# 2 -0.002891 0.024203 -0.003283 0.000000 0.000000 0.000000
# 3 -0.000422 -0.003283 0.017197 0.000000 0.000000 0.000000
# 4 0.000000 0.000000 0.000000 0.032046 0.000000 0.000000
# 5 0.000000 0.000000 0.000000 0.000000 0.032016 0.000000
# 6 0.000000 0.000000 0.000000 0.000000 0.000000 0.064609
#
#
# Mechanical properties :
#
#
# Convention : Reuss Voigt Hill
#
# Bulk Modulus (GPa) = 27.38789 32.50292 29.94541
# Shear Modulus (GPa) = 24.54130 28.90054 26.72092
#
# Velocity S-wave (km/s) = 3.17652 3.44712 3.31458
# Velocity P-wave (km/s) = 4.97136 5.40438 5.19238
#
# Compressibility (1/GPa) = 0.03651249
#
# Stress axis : x y z
#
# Youngs Moduli (GPa) = 120.41115 41.31804 58.14897
#
# Poissons Ratio (x) = 0.11945 0.02455
# Poissons Ratio (y) = 0.34811 0.19089
# Poissons Ratio (z) = 0.05085 0.13564
#
# Static dielectric constant tensor:
#      x y z
#    x 1.947810 0.000000 0.000000 
#    y 0.000000 1.961830 0.000000 
#    z 0.000000 0.000000 1.997090 
# 
# From -- ./inp_files/5085.got.cif
#   From: 2010.05.17/outbox.cif.g08.bks.cpg/sg36_3_cif.got.tgz:5085.got - 2010.06.03 17:41:39.
