data_PCOD9353988
_publ_section_title
;
Structure prediction by ZEFSAII (Michael W. Deem and Ramdas Pophale) SiO2 
 PCOD9353988
Probable space group: C C C 2
;
_chemical_formula_sum "Si O2"
_cell_formula_units_Z 44
_cell_length_a 20.560296
_cell_length_b 7.629963
_cell_length_c 11.889073
_cell_angle_alpha 90.000000
_cell_angle_beta 90.000000
_cell_angle_gamma 90.000000
_cell_volume 1865.089978
_symmetry_space_group_name_H-M "C C C 2"
_symmetry_group_IT_number 37
_symmetry_cell_setting 'orthorhombic'
loop_
_space_group_symop_operation_xyz
x,y,z
-x,-y,z
-x,y,1/2+z
x,-y,1/2+z
1/2+x,1/2+y,z
1/2-x,1/2-y,z
1/2-x,1/2+y,1/2+z
1/2+x,1/2-y,1/2+z
loop_
_atom_site_type_symbol
_atom_site_label
_atom_site_fract_x
_atom_site_fract_y
_atom_site_fract_z
Si Si1 0.320058 0.292911 0.044890
Si Si2 0.636941 0.595612 0.428052
Si Si3 0.000000 0.000000 0.025674
Si Si4 0.877076 0.752868 0.822751
Si Si5 0.849104 0.384187 0.776816
Si Si6 0.489251 0.810715 0.693137
O O1 0.250000 0.250000 0.994054
O O2 0.322825 0.208434 0.166004
O O3 0.330693 0.501506 0.035357
O O4 0.373424 0.215509 0.957545
O O5 0.559852 0.580045 0.455067
O O6 0.647272 0.453374 0.326525
O O7 0.666880 0.778166 0.389930
O O8 0.023858 0.154521 0.107589
O O9 0.837146 0.590756 0.772772
O O10 0.947523 0.742182 0.765663
O O11 0.926870 0.348958 0.769441
O O12 0.500000 0.000000 0.634863
#
# Coordination Sequence:
#
# PCOD9353988 Si02
#       6
#     8   8   4   8   8   8
#     4  10  24  45  61  92 131 169 226 268 316 394
#     4  10  23  37  63  94 123 164 211 268 324 382
#     4  12  20  36  64  96 136 164 206 270 334 392
#     4   9  22  39  62  91 126 163 212 268 319 383
#     4  11  21  41  65  91 127 170 211 267 332 381
#     4  10  20  35  62  97 130 166 209 260 331 398
#
# _framework density 23.591356000000001
#
# number of rings (size 3 to 8) (size 9 to 14) (size 15 to 20)
#    1.091    0.727    1.818    2.182    0.000    5.818 
#    0.000    4.545    0.000    0.000    0.000    0.000 
#    0.000    0.000    0.000    0.000    0.000    0.000 
#
# Total GULP energy -122582.166346 kJ/mol
# GULP energy per Si atom -5571.916652 kJ/mol
# Density = 2.353766 g / cm^3
# Si number density = 23.591356 Si / 1000 Ang^3
#
#
#
# Elastic Constant Matrix: (Units=GPa)
#
#
# Indices 1 2 3 4 5 6 
#
# 1 36.3008 -12.5418 0.7774 0.0000 0.0000 0.0000
# 2 -12.5418 63.9617 3.9424 0.0000 0.0000 0.0000
# 3 0.7774 3.9424 60.0981 0.0000 0.0000 0.0000
# 4 0.0000 0.0000 0.0000 30.9241 0.0000 0.0000
# 5 0.0000 0.0000 0.0000 0.0000 11.9922 0.0000
# 6 0.0000 0.0000 0.0000 0.0000 0.0000 8.2380
#
#
#
# Elastic Compliance Matrix: (Units=1/GPa)
#
#
# Indices 1 2 3 4 5 6 
#
# 1 0.029585 0.005848 -0.000766 0.000000 0.000000 0.000000
# 2 0.005848 0.016854 -0.001181 0.000000 0.000000 0.000000
# 3 -0.000766 -0.001181 0.016727 0.000000 0.000000 0.000000
# 4 0.000000 0.000000 0.000000 0.032337 0.000000 0.000000
# 5 0.000000 0.000000 0.000000 0.000000 0.083388 0.000000
# 6 0.000000 0.000000 0.000000 0.000000 0.000000 0.121389
#
#
# Mechanical properties :
#
#
# Convention : Reuss Voigt Hill
#
# Bulk Modulus (GPa) = 14.09112 16.07962 15.08537
# Shear Modulus (GPa) = 15.81612 21.44303 18.62958
#
# Velocity S-wave (km/s) = 2.59206 3.01813 2.81317
# Velocity P-wave (km/s) = 3.86579 4.35616 4.11828
#
# Compressibility (1/GPa) = 0.07096667
#
# Stress axis : x y z
#
# Youngs Moduli (GPa) = 33.80141 59.33347 59.78407
#
# Poissons Ratio (x) = -0.34700 0.04581
# Poissons Ratio (y) = -0.19768 0.07062
# Poissons Ratio (z) = 0.02590 0.07009
#
# Static dielectric constant tensor:
#      x y z
#    x 1.965570 0.000000 0.000000 
#    y 0.000000 1.990260 0.000000 
#    z 0.000000 0.000000 1.894930 
# 
# From -- ./inp_files/8808.got.cif
#   From: 2010.05.17/outbox.cif.g08.bks.cpg/sg37_5_cif.got.tgz:8808.got - 2010.06.03 17:53:42.
