data_PCOD9353683
_publ_section_title
;
Structure prediction by ZEFSAII (Michael W. Deem and Ramdas Pophale) SiO2 
 PCOD9353683
Probable space group: C C C 2
;
_chemical_formula_sum "Si O2"
_cell_formula_units_Z 60
_cell_length_a 23.870788
_cell_length_b 24.866223
_cell_length_c 5.567372
_cell_angle_alpha 90.000000
_cell_angle_beta 90.000000
_cell_angle_gamma 90.000000
_cell_volume 3304.660282
_symmetry_space_group_name_H-M "C C C 2"
_symmetry_group_IT_number 37
_symmetry_cell_setting 'orthorhombic'
loop_
_space_group_symop_operation_xyz
x,y,z
-x,-y,z
-x,y,1/2+z
x,-y,1/2+z
1/2+x,1/2+y,z
1/2-x,1/2-y,z
1/2-x,1/2+y,1/2+z
1/2+x,1/2-y,1/2+z
loop_
_atom_site_type_symbol
_atom_site_label
_atom_site_fract_x
_atom_site_fract_y
_atom_site_fract_z
Si Si1 0.515320 0.385089 0.539620
Si Si2 0.393977 0.489538 0.349993
Si Si3 0.272794 0.649514 0.372147
Si Si4 0.768012 0.970286 0.800189
Si Si5 0.750000 0.250000 0.671717
Si Si6 0.351158 0.282969 0.511022
Si Si7 0.027659 0.762634 0.110846
Si Si8 0.370763 0.377014 0.192523
O O1 0.489515 0.410835 0.304165
O O2 0.487768 0.326749 0.594794
O O3 0.581523 0.380595 0.492181
O O4 0.423566 0.502864 0.595960
O O5 0.336406 0.524662 0.323834
O O6 0.373265 0.428486 0.358130
O O7 0.250172 0.592685 0.271781
O O8 0.239586 0.698738 0.495956
O O9 0.309563 0.627860 0.591979
O O10 0.315157 0.679864 0.191180
O O11 0.750578 0.003002 0.557858
O O12 0.695779 0.254120 0.846410
O O13 0.404806 0.253803 0.628703
O O14 0.382950 0.322804 0.330375
O O15 0.002429 0.742097 0.855615
#
# Coordination Sequence:
#
# PCOD9353683 Si02
#       8
#     8   8   8   8   4   8   8   8
#     4  10  19  31  44  72  89 118 168 210 282 322
#     4  10  19  31  44  72  89 118 168 210 282 322
#     4  11  21  35  54  74 109 139 185 235 285 354
#     4  10  19  34  52  78  96 127 183 233 281 331
#     4  10  26  36  48  86 106 164 184 226 312 356
#     4  11  21  35  54  74 109 139 185 235 285 354
#     4  10  19  34  52  78  96 127 183 233 281 331
#     4  11  20  29  54  69  93 126 166 236 267 332
#
# _framework density 18.156178000000001
#
# number of rings (size 3 to 8) (size 9 to 14) (size 15 to 20)
#    0.000    1.600    5.333    3.600    3.733    0.000 
#    0.000    0.000    0.000    2.400    0.000    0.000 
#    0.000    0.000    0.000    0.000    0.000    4.000 
#
# Total GULP energy -167037.740435 kJ/mol
# GULP energy per Si atom -5567.924681 kJ/mol
# Density = 1.811485 g / cm^3
# Si number density = 18.156178 Si / 1000 Ang^3
#
#
#
# Elastic Constant Matrix: (Units=GPa)
#
#
# Indices 1 2 3 4 5 6 
#
# 1 37.6060 29.5720 16.1565 0.0000 0.0000 0.0000
# 2 29.5720 66.6470 24.8532 0.0000 0.0000 0.0000
# 3 16.1565 24.8532 131.3003 0.0000 0.0000 0.0000
# 4 0.0000 0.0000 0.0000 23.9924 0.0000 0.0000
# 5 0.0000 0.0000 0.0000 0.0000 24.2224 0.0000
# 6 0.0000 0.0000 0.0000 0.0000 0.0000 18.3497
#
#
#
# Elastic Compliance Matrix: (Units=1/GPa)
#
#
# Indices 1 2 3 4 5 6 
#
# 1 0.041205 -0.017637 -0.001732 0.000000 0.000000 0.000000
# 2 -0.017637 0.023693 -0.002315 0.000000 0.000000 0.000000
# 3 -0.001732 -0.002315 0.008267 0.000000 0.000000 0.000000
# 4 0.000000 0.000000 0.000000 0.041680 0.000000 0.000000
# 5 0.000000 0.000000 0.000000 0.000000 0.041284 0.000000
# 6 0.000000 0.000000 0.000000 0.000000 0.000000 0.054497
#
#
# Mechanical properties :
#
#
# Convention : Reuss Voigt Hill
#
# Bulk Modulus (GPa) = 33.55886 41.85741 37.70814
# Shear Modulus (GPa) = 18.94470 24.31100 21.62785
#
# Velocity S-wave (km/s) = 3.23372 3.66320 3.45514
# Velocity P-wave (km/s) = 5.69791 6.40282 6.06062
#
# Compressibility (1/GPa) = 0.02979839
#
# Stress axis : x y z
#
# Youngs Moduli (GPa) = 24.26907 42.20598 120.95793
#
# Poissons Ratio (x) = 0.74439 0.20948
# Poissons Ratio (y) = 0.42804 0.27996
# Poissons Ratio (z) = 0.04203 0.09769
#
# Static dielectric constant tensor:
#      x y z
#    x 1.649400 0.000000 0.000000 
#    y 0.000000 1.706580 0.000000 
#    z 0.000000 0.000000 1.811010 
# 
# From -- ./inp_files/1065.got.cif
#   From: 2010.05.17/outbox.cif.g08.bks.cpg/sg37_1_cif.got.tgz:1065.got - 2010.06.03 17:53:42.
