data_PCOD9353057
_publ_section_title
;
Structure prediction by ZEFSAII (Michael W. Deem and Ramdas Pophale) SiO2 
 PCOD9353057
Probable space group: C M C 21
;
_chemical_formula_sum "Si O2"
_cell_formula_units_Z 24
_cell_length_a 9.743579
_cell_length_b 10.914992
_cell_length_c 9.429999
_cell_angle_alpha 90.000000
_cell_angle_beta 90.000000
_cell_angle_gamma 90.000000
_cell_volume 1002.890643
_symmetry_space_group_name_H-M "C M C 21"
_symmetry_group_IT_number 36
_symmetry_cell_setting 'orthorhombic'
loop_
_space_group_symop_operation_xyz
x,y,z
-x,-y,1/2+z
x,-y,1/2+z
-x,y,z
1/2+x,1/2+y,z
1/2-x,1/2-y,1/2+z
1/2+x,1/2-y,1/2+z
1/2-x,1/2+y,z
loop_
_atom_site_type_symbol
_atom_site_label
_atom_site_fract_x
_atom_site_fract_y
_atom_site_fract_z
Si Si1 0.000000 0.836076 0.270890
Si Si2 0.198711 0.745888 0.803643
Si Si3 0.500000 0.958996 0.365752
Si Si4 0.500000 0.429278 0.951484
Si Si5 0.500000 0.149499 0.592196
O O1 0.141455 0.763437 0.283824
O O2 0.000000 0.932450 0.399935
O O3 0.000000 0.906360 0.119305
O O4 0.132219 0.862568 0.879659
O O5 0.129025 0.727011 0.647815
O O6 0.132227 0.629361 0.888691
O O7 0.500000 0.970380 0.195982
O O8 0.500000 0.084491 0.445086
#
# Coordination Sequence:
#
# PCOD9353057 Si02
#       5
#     4   8   4   4   4
#     4  12  24  42  81  99 140 192 225 309 344 410
#     4   8  22  42  64  99 141 175 234 283 345 420
#     4   7  15  33  63  86 138 167 216 272 338 404
#     4  10  26  48  65 107 146 174 247 281 363 424
#     4   7  15  33  63  86 134 173 210 278 335 402
#
# _framework density 23.930824999999999
#
# number of rings (size 3 to 8) (size 9 to 14) (size 15 to 20)
#    2.000    1.333    0.000    0.000    4.667    2.667 
#    6.000    6.667   14.667    0.000    0.000    0.000 
#    0.000    0.000    0.000    0.000    0.000    0.000 
#
# Total GULP energy -66935.829542 kJ/mol
# GULP energy per Si atom -5577.985795 kJ/mol
# Density = 2.387636 g / cm^3
# Si number density = 23.930825 Si / 1000 Ang^3
#
#
#
# Elastic Constant Matrix: (Units=GPa)
#
#
# Indices 1 2 3 4 5 6 
#
# 1 218.1146 39.0343 23.3268 0.0000 0.0000 0.0000
# 2 39.0343 29.0752 26.4288 0.0000 0.0000 0.0000
# 3 23.3268 26.4288 91.8176 0.0000 0.0000 0.0000
# 4 0.0000 0.0000 0.0000 37.7516 0.0000 0.0000
# 5 0.0000 0.0000 0.0000 0.0000 15.1194 0.0000
# 6 0.0000 0.0000 0.0000 0.0000 0.0000 12.8805
#
#
#
# Elastic Compliance Matrix: (Units=1/GPa)
#
#
# Indices 1 2 3 4 5 6 
#
# 1 0.006115 -0.009206 0.001096 0.000000 0.000000 0.000000
# 2 -0.009206 0.060441 -0.015058 0.000000 0.000000 0.000000
# 3 0.001096 -0.015058 0.014947 0.000000 0.000000 0.000000
# 4 0.000000 0.000000 0.000000 0.026489 0.000000 0.000000
# 5 0.000000 0.000000 0.000000 0.000000 0.066140 0.000000
# 6 0.000000 0.000000 0.000000 0.000000 0.000000 0.077637
#
#
# Mechanical properties :
#
#
# Convention : Reuss Voigt Hill
#
# Bulk Modulus (GPa) = 28.43614 57.39859 42.91737
# Shear Modulus (GPa) = 16.13799 29.83147 22.98473
#
# Velocity S-wave (km/s) = 2.59966 3.53451 3.10250
# Velocity P-wave (km/s) = 4.57378 6.37921 5.55039
#
# Compressibility (1/GPa) = 0.03516651
#
# Stress axis : x y z
#
# Youngs Moduli (GPa) = 163.53064 16.54503 66.90278
#
# Poissons Ratio (x) = 0.15232 -0.07335
# Poissons Ratio (y) = 1.50550 1.00746
# Poissons Ratio (z) = -0.17929 0.24914
#
# Static dielectric constant tensor:
#      x y z
#    x 1.905330 0.000000 0.000000 
#    y 0.000000 1.871780 0.000000 
#    z 0.000000 0.000000 1.971360 
# 
# From -- ./inp_files/2182.got.cif
#   From: 2010.05.17/outbox.cif.g08.bks.cpg/sg36_2_cif.got.tgz:2182.got - 2010.06.03 17:41:39.
