data_PCOD9353477
_publ_section_title
;
Structure prediction by ZEFSAII (Michael W. Deem and Ramdas Pophale) SiO2 
 PCOD9353477
Probable space group: C C C 2
;
_chemical_formula_sum "Si O2"
_cell_formula_units_Z 56
_cell_length_a 23.812991
_cell_length_b 19.607256
_cell_length_c 5.536683
_cell_angle_alpha 90.000000
_cell_angle_beta 90.000000
_cell_angle_gamma 90.000000
_cell_volume 2585.118323
_symmetry_space_group_name_H-M "C C C 2"
_symmetry_group_IT_number 37
_symmetry_cell_setting 'orthorhombic'
loop_
_space_group_symop_operation_xyz
x,y,z
-x,-y,z
-x,y,1/2+z
x,-y,1/2+z
1/2+x,1/2+y,z
1/2-x,1/2-y,z
1/2-x,1/2+y,1/2+z
1/2+x,1/2-y,1/2+z
loop_
_atom_site_type_symbol
_atom_site_label
_atom_site_fract_x
_atom_site_fract_y
_atom_site_fract_z
Si Si1 0.787065 0.467014 0.404230
Si Si2 0.032241 0.349282 0.510243
Si Si3 0.200926 0.861102 0.415536
Si Si4 0.413142 0.021296 0.412408
Si Si5 0.159599 0.145442 0.417373
Si Si6 0.877470 0.003645 0.405016
Si Si7 0.467872 0.313149 0.485760
O O1 0.766747 0.504228 0.647503
O O2 0.763735 0.390807 0.425442
O O3 0.853453 0.482399 0.398214
O O4 0.085717 0.397730 0.460677
O O5 0.041393 0.268648 0.492706
O O6 0.009217 0.363625 0.781295
O O7 0.183720 0.825969 0.665900
O O8 0.158978 0.927317 0.405405
O O9 0.189446 0.826810 0.158055
O O10 0.440151 0.990433 0.652282
O O11 0.163338 0.062579 0.404958
O O12 0.093377 0.156372 0.445085
O O13 0.910454 0.000390 0.655121
O O14 0.494678 0.330590 0.748093
#
# Coordination Sequence:
#
# PCOD9353477 Si02
#       7
#     8   8   8   8   8   8   8
#     4  10  18  30  48  77 109 136 168 210 266 323
#     4  10  21  37  57  79 108 145 184 223 264 317
#     4  10  17  28  48  74 100 132 175 219 263 321
#     4  10  21  34  53  85 114 141 170 212 274 327
#     4  10  18  29  49  73  98 132 180 220 260 319
#     4   8  14  23  39  62  87 115 157 204 248 298
#     4  10  21  37  54  74 102 141 187 230 269 308
#
# _framework density 21.662451000000001
#
# number of rings (size 3 to 8) (size 9 to 14) (size 15 to 20)
#    0.000    2.286    0.000    5.143    0.000    1.714 
#    0.000    0.000    0.000   23.143    0.000   33.000 
#    0.000    0.000    0.000    0.000    0.000    0.000 
#
# Total GULP energy -155867.906046 kJ/mol
# GULP energy per Si atom -5566.710930 kJ/mol
# Density = 2.161315 g / cm^3
# Si number density = 21.662451 Si / 1000 Ang^3
#
#
#
# Elastic Constant Matrix: (Units=GPa)
#
#
# Indices 1 2 3 4 5 6 
#
# 1 88.9729 7.0274 21.9364 0.0000 0.0000 0.0000
# 2 7.0274 9.8863 0.3922 0.0000 0.0000 0.0000
# 3 21.9364 0.3922 236.4405 0.0000 0.0000 0.0000
# 4 0.0000 0.0000 0.0000 12.8472 0.0000 0.0000
# 5 0.0000 0.0000 0.0000 0.0000 2.3525 0.0000
# 6 0.0000 0.0000 0.0000 0.0000 0.0000 322.1824
#
#
#
# Elastic Compliance Matrix: (Units=1/GPa)
#
#
# Indices 1 2 3 4 5 6 
#
# 1 0.012196 -0.008625 -0.001117 0.000000 0.000000 0.000000
# 2 -0.008625 0.107256 0.000622 0.000000 0.000000 0.000000
# 3 -0.001117 0.000622 0.004332 0.000000 0.000000 0.000000
# 4 0.000000 0.000000 0.000000 0.077838 0.000000 0.000000
# 5 0.000000 0.000000 0.000000 0.000000 0.425083 0.000000
# 6 0.000000 0.000000 0.000000 0.000000 0.000000 0.003104
#
#
# Mechanical properties :
#
#
# Convention : Reuss Voigt Hill
#
# Bulk Modulus (GPa) = 9.47468 43.77910 26.62689
# Shear Modulus (GPa) = 7.31817 87.87265 47.59541
#
# Velocity S-wave (km/s) = 1.84000 6.37594 4.69245
# Velocity P-wave (km/s) = 2.98285 8.62884 6.45579
#
# Compressibility (1/GPa) = 0.10554443
#
# Stress axis : x y z
#
# Youngs Moduli (GPa) = 81.99371 9.32348 230.83948
#
# Poissons Ratio (x) = 0.08041 0.25790
# Poissons Ratio (y) = 0.70719 -0.14365
# Poissons Ratio (z) = 0.09160 -0.00580
#
# Static dielectric constant tensor:
#      x y z
#    x 1.786710 0.000000 0.000000 
#    y 0.000000 1.805160 0.000000 
#    z 0.000000 0.000000 1.908510 
# 
# From -- ./inp_files/1038.got.cif
#   From: 2010.05.17/outbox.cif.g08.bks.cpg/sg37_1_cif.got.tgz:1038.got - 2010.06.03 17:53:42.
