data_PCOD9353803
_publ_section_title
;
Structure prediction by ZEFSAII (Michael W. Deem and Ramdas Pophale) SiO2 
 PCOD9353803
Probable space group: C C C 2
;
_chemical_formula_sum "Si O2"
_cell_formula_units_Z 48
_cell_length_a 14.664803
_cell_length_b 8.210841
_cell_length_c 17.113609
_cell_angle_alpha 90.000000
_cell_angle_beta 90.000000
_cell_angle_gamma 90.000000
_cell_volume 2060.655919
_symmetry_space_group_name_H-M "C C C 2"
_symmetry_group_IT_number 37
_symmetry_cell_setting 'orthorhombic'
loop_
_space_group_symop_operation_xyz
x,y,z
-x,-y,z
-x,y,1/2+z
x,-y,1/2+z
1/2+x,1/2+y,z
1/2-x,1/2-y,z
1/2-x,1/2+y,1/2+z
1/2+x,1/2-y,1/2+z
loop_
_atom_site_type_symbol
_atom_site_label
_atom_site_fract_x
_atom_site_fract_y
_atom_site_fract_z
Si Si1 0.616400 0.809672 0.513910
Si Si2 0.775159 0.014495 0.076271
Si Si3 0.557541 0.671098 0.080274
Si Si4 0.069791 0.367344 0.237425
Si Si5 0.917882 0.888684 0.363506
Si Si6 0.255485 0.554281 0.759398
O O1 0.678872 0.966681 0.531325
O O2 0.667057 0.679912 0.569063
O O3 0.510081 0.794074 0.535316
O O4 0.626085 0.725878 0.429439
O O5 0.845986 0.881084 0.042733
O O6 0.764947 0.991020 0.168874
O O7 0.500000 0.500000 0.092237
O O8 0.586509 0.755878 0.161380
O O9 0.039184 0.236716 0.301359
O O10 0.149868 0.478246 0.276257
O O11 0.000000 0.500000 0.209684
O O12 0.838558 0.987183 0.316771
O O13 0.000000 0.000000 0.395197
O O14 0.250000 0.750000 0.764171
#
# Coordination Sequence:
#
# PCOD9353803 Si02
#       6
#     8   8   8   8   8   8
#     4  10  23  36  66 100 130 172 244 296 358 424
#     4  10  19  36  62  96 128 173 226 295 349 417
#     4  10  19  38  64  97 129 180 237 285 352 431
#     4  11  23  39  65  95 142 179 235 295 357 427
#     4  11  23  43  67  97 137 187 237 296 357 443
#     4  10  21  38  64  96 131 177 232 278 354 429
#
# _framework density 23.293554
#
# number of rings (size 3 to 8) (size 9 to 14) (size 15 to 20)
#    0.000    1.667    3.333    3.000    9.333    0.000 
#    0.000    2.500    0.000    0.000    0.000    0.000 
#    0.000    0.000    0.000    0.000    0.000    0.000 
#
# Total GULP energy -133665.826843 kJ/mol
# GULP energy per Si atom -5569.409452 kJ/mol
# Density = 2.324054 g / cm^3
# Si number density = 23.293554 Si / 1000 Ang^3
#
#
#
# Elastic Constant Matrix: (Units=GPa)
#
#
# Indices 1 2 3 4 5 6 
#
# 1 146.4801 45.9154 40.2990 0.0000 0.0000 0.0000
# 2 45.9154 53.0425 10.5237 0.0000 0.0000 0.0000
# 3 40.2990 10.5237 77.5638 0.0000 0.0000 0.0000
# 4 0.0000 0.0000 0.0000 31.3395 0.0000 0.0000
# 5 0.0000 0.0000 0.0000 0.0000 -110.0328 0.0000
# 6 0.0000 0.0000 0.0000 0.0000 0.0000 50.1740
#
#
#
# Elastic Compliance Matrix: (Units=1/GPa)
#
#
# Indices 1 2 3 4 5 6 
#
# 1 0.010656 -0.008350 -0.004403 0.000000 0.000000 0.000000
# 2 -0.008350 0.025918 0.000822 0.000000 0.000000 0.000000
# 3 -0.004403 0.000822 0.015069 0.000000 0.000000 0.000000
# 4 0.000000 0.000000 0.000000 0.031909 0.000000 0.000000
# 5 0.000000 0.000000 0.000000 0.000000 -0.009088 0.000000
# 6 0.000000 0.000000 0.000000 0.000000 0.000000 0.019931
#
#
# Mechanical properties :
#
#
# Convention : Reuss Voigt Hill
#
# Bulk Modulus (GPa) = 35.99803 52.28474 44.14138
# Shear Modulus (GPa) = 39.21040 6.31933 22.76487
#
# Velocity S-wave (km/s) = 4.10727 1.64888 3.12958
# Velocity P-wave (km/s) = 6.16284 5.11075 5.66129
#
# Compressibility (1/GPa) = 0.02777930
#
# Stress axis : x y z
#
# Youngs Moduli (GPa) = 93.84562 38.58307 66.36186
#
# Poissons Ratio (x) = 0.32218 0.29221
# Poissons Ratio (y) = 0.78365 -0.05455
# Poissons Ratio (z) = 0.41324 -0.03172
#
# Static dielectric constant tensor:
#      x y z
#    x 2.329580 0.000000 0.000000 
#    y 0.000000 1.924540 0.000000 
#    z 0.000000 0.000000 1.886920 
# 
# From -- ./inp_files/15218.got.cif
#   From: 2010.05.17/outbox.cif.g08.bks.cpg/sg37_8_cif.got.tgz:15218.got - 2010.06.03 17:53:42.
