data_PCOD9353624
_publ_section_title
;
Structure prediction by ZEFSAII (Michael W. Deem and Ramdas Pophale) SiO2 
 PCOD9353624
Probable space group: C C C 2
;
_chemical_formula_sum "Si O2"
_cell_formula_units_Z 56
_cell_length_a 10.824181
_cell_length_b 15.536074
_cell_length_c 17.701947
_cell_angle_alpha 90.000000
_cell_angle_beta 90.000000
_cell_angle_gamma 90.000000
_cell_volume 2976.852821
_symmetry_space_group_name_H-M "C C C 2"
_symmetry_group_IT_number 37
_symmetry_cell_setting 'orthorhombic'
loop_
_space_group_symop_operation_xyz
x,y,z
-x,-y,z
-x,y,1/2+z
x,-y,1/2+z
1/2+x,1/2+y,z
1/2-x,1/2-y,z
1/2-x,1/2+y,1/2+z
1/2+x,1/2-y,1/2+z
loop_
_atom_site_type_symbol
_atom_site_label
_atom_site_fract_x
_atom_site_fract_y
_atom_site_fract_z
Si Si1 0.876001 0.452841 0.343850
Si Si2 0.644526 0.470714 0.768297
Si Si3 0.528831 0.196838 0.435401
Si Si4 0.500000 0.500000 0.490967
Si Si5 0.275974 0.439752 0.097200
Si Si6 0.867119 0.854163 0.407400
Si Si7 0.151181 0.433663 0.495457
Si Si8 0.250000 0.750000 0.534817
O O1 0.749052 0.462116 0.297953
O O2 0.911450 0.356373 0.366796
O O3 0.852452 0.501616 0.423766
O O4 0.000000 0.500000 0.311392
O O5 0.500000 0.500000 0.771353
O O6 0.681709 0.449994 0.682893
O O7 0.665852 0.389623 0.824620
O O8 0.422236 0.259727 0.406465
O O9 0.468797 0.125704 0.491110
O O10 0.630561 0.249089 0.481084
O O11 0.611877 0.470121 0.543309
O O12 0.469432 0.420763 0.437138
O O13 0.172934 0.508939 0.069365
O O14 0.246633 0.339959 0.080093
O O15 0.761908 0.869595 0.470589
#
# Coordination Sequence:
#
# PCOD9353624 Si02
#       8
#     8   8   8   4   8   8   8   4
#     4   9  20  41  62  88 123 165 213 255 308 381
#     4  11  23  40  63  91 129 176 206 252 333 391
#     4  11  21  37  64  97 121 153 220 267 307 366
#     4  10  18  36  64  90 112 156 206 254 306 368
#     4  11  22  41  59  90 128 164 209 260 318 384
#     4  10  20  36  65  91 123 154 207 266 313 372
#     4   9  20  39  64  87 119 162 205 259 317 373
#     4  12  24  36  62  94 124 158 208 276 308 368
#
# _framework density 18.811813999999998
#
# number of rings (size 3 to 8) (size 9 to 14) (size 15 to 20)
#    0.000    1.714    4.286    0.429    2.000    0.000 
#   10.286    0.000    0.000    1.714    0.000    0.000 
#    0.000    0.000    0.000    0.000    0.000    0.000 
#
# Total GULP energy -156052.892522 kJ/mol
# GULP energy per Si atom -5573.317590 kJ/mol
# Density = 1.876900 g / cm^3
# Si number density = 18.811814 Si / 1000 Ang^3
#
#
#
# Elastic Constant Matrix: (Units=GPa)
#
#
# Indices 1 2 3 4 5 6 
#
# 1 91.6199 39.2902 27.4623 0.0000 0.0000 0.0000
# 2 39.2902 110.3635 36.2700 0.0000 0.0000 0.0000
# 3 27.4623 36.2700 93.7037 0.0000 0.0000 0.0000
# 4 0.0000 0.0000 0.0000 16.6195 0.0000 0.0000
# 5 0.0000 0.0000 0.0000 0.0000 25.8971 0.0000
# 6 0.0000 0.0000 0.0000 0.0000 0.0000 40.2918
#
#
#
# Elastic Compliance Matrix: (Units=1/GPa)
#
#
# Indices 1 2 3 4 5 6 
#
# 1 0.013326 -0.003965 -0.002371 0.000000 0.000000 0.000000
# 2 -0.003965 0.011561 -0.003313 0.000000 0.000000 0.000000
# 3 -0.002371 -0.003313 0.012649 0.000000 0.000000 0.000000
# 4 0.000000 0.000000 0.000000 0.060170 0.000000 0.000000
# 5 0.000000 0.000000 0.000000 0.000000 0.038614 0.000000
# 6 0.000000 0.000000 0.000000 0.000000 0.000000 0.024819
#
#
# Mechanical properties :
#
#
# Convention : Reuss Voigt Hill
#
# Bulk Modulus (GPa) = 54.82842 55.74802 55.28822
# Shear Modulus (GPa) = 26.80733 29.40601 28.10667
#
# Velocity S-wave (km/s) = 3.77905 3.95798 3.86955
# Velocity P-wave (km/s) = 6.94627 7.11241 7.02983
#
# Compressibility (1/GPa) = 0.01823872
#
# Stress axis : x y z
#
# Youngs Moduli (GPa) = 75.04377 86.49554 79.05696
#
# Poissons Ratio (x) = 0.34294 0.18742
# Poissons Ratio (y) = 0.29754 0.26192
# Poissons Ratio (z) = 0.17791 0.28656
#
# Static dielectric constant tensor:
#      x y z
#    x 1.740840 0.000000 0.000000 
#    y 0.000000 1.670620 0.000000 
#    z 0.000000 0.000000 1.613960 
# 
# From -- ./inp_files/11647.got.cif
#   From: 2010.05.17/outbox.cif.g08.bks.cpg/sg37_6_cif.got.tgz:11647.got - 2010.06.03 17:53:42.
