data_PCOD9353156
_publ_section_title
;
Structure prediction by ZEFSAII (Michael W. Deem and Ramdas Pophale) SiO2 
 PCOD9353156
Probable space group: C M C 21
;
_chemical_formula_sum "Si O2"
_cell_formula_units_Z 48
_cell_length_a 8.816914
_cell_length_b 24.376974
_cell_length_c 12.187229
_cell_angle_alpha 90.000000
_cell_angle_beta 90.000000
_cell_angle_gamma 90.000000
_cell_volume 2619.397270
_symmetry_space_group_name_H-M "C M C 21"
_symmetry_group_IT_number 36
_symmetry_cell_setting 'orthorhombic'
loop_
_space_group_symop_operation_xyz
x,y,z
-x,-y,1/2+z
x,-y,1/2+z
-x,y,z
1/2+x,1/2+y,z
1/2-x,1/2-y,1/2+z
1/2+x,1/2-y,1/2+z
1/2-x,1/2+y,z
loop_
_atom_site_type_symbol
_atom_site_label
_atom_site_fract_x
_atom_site_fract_y
_atom_site_fract_z
Si Si1 0.320074 0.083375 0.521880
Si Si2 0.815676 0.860810 0.607704
Si Si3 0.317448 0.465675 0.470024
Si Si4 0.817827 0.830051 0.852483
Si Si5 0.818875 0.106388 0.757458
Si Si6 0.682565 0.711849 0.902723
O O1 0.500000 0.086258 0.513298
O O2 0.246323 0.128022 0.441584
O O3 0.268103 0.095508 0.645915
O O4 0.261685 0.023227 0.488529
O O5 0.770090 0.920052 0.559987
O O6 0.765857 0.847920 0.730464
O O7 0.769770 0.814727 0.519190
O O8 0.000000 0.860995 0.606661
O O9 0.500000 0.472697 0.477969
O O10 0.285637 0.438618 0.351522
O O11 0.761235 0.768965 0.877961
O O12 0.000000 0.831607 0.854787
O O13 0.784170 0.165486 0.811370
O O14 0.000000 0.104408 0.736796
O O15 0.500000 0.719158 0.905192
#
# Coordination Sequence:
#
# PCOD9353156 Si02
#       6
#     8   8   8   8   8   8
#     4  12  26  39  56  87 125 157 194 246 294 341
#     4   8  18  38  63  86 113 150 193 238 291 352
#     4   9  19  40  66  87 111 153 200 243 293 352
#     4  11  23  38  59  89 119 156 199 235 288 356
#     4   9  20  40  65  88 116 155 197 239 293 359
#     4   9  19  39  63  89 118 149 189 245 299 344
#
# _framework density 18.324826999999999
#
# number of rings (size 3 to 8) (size 9 to 14) (size 15 to 20)
#    0.000    2.333    0.000    4.000    4.667    1.333 
#    0.000    4.167    0.000    0.000    0.000    0.000 
#    0.000    0.000    0.000    0.000    0.000    0.000 
#
# Total GULP energy -134017.518873 kJ/mol
# GULP energy per Si atom -5584.063286 kJ/mol
# Density = 1.828312 g / cm^3
# Si number density = 18.324827 Si / 1000 Ang^3
#
#
#
# Elastic Constant Matrix: (Units=GPa)
#
#
# Indices 1 2 3 4 5 6 
#
# 1 61.0889 74.0221 68.9896 0.0000 0.0000 0.0000
# 2 74.0221 170.5106 102.8869 0.0000 0.0000 0.0000
# 3 68.9896 102.8869 141.3180 0.0000 0.0000 0.0000
# 4 0.0000 0.0000 0.0000 11.0166 0.0000 0.0000
# 5 0.0000 0.0000 0.0000 0.0000 9.9620 0.0000
# 6 0.0000 0.0000 0.0000 0.0000 0.0000 36.3931
#
#
#
# Elastic Compliance Matrix: (Units=1/GPa)
#
#
# Indices 1 2 3 4 5 6 
#
# 1 0.046539 -0.011583 -0.014287 0.000000 0.000000 0.000000
# 2 -0.011583 0.013343 -0.004060 0.000000 0.000000 0.000000
# 3 -0.014287 -0.004060 0.017007 0.000000 0.000000 0.000000
# 4 0.000000 0.000000 0.000000 0.090772 0.000000 0.000000
# 5 0.000000 0.000000 0.000000 0.000000 0.100382 0.000000
# 6 0.000000 0.000000 0.000000 0.000000 0.000000 0.027478
#
#
# Mechanical properties :
#
#
# Convention : Reuss Voigt Hill
#
# Bulk Modulus (GPa) = 58.72066 96.07940 77.40003
# Shear Modulus (GPa) = 13.84829 19.94226 16.89528
#
# Velocity S-wave (km/s) = 2.75200 3.30246 3.03972
# Velocity P-wave (km/s) = 6.49707 8.19065 7.39252
#
# Compressibility (1/GPa) = 0.01702978
#
# Stress axis : x y z
#
# Youngs Moduli (GPa) = 21.48713 74.94770 58.80091
#
# Poissons Ratio (x) = 0.86811 0.84009
# Poissons Ratio (y) = 0.24888 0.23870
# Poissons Ratio (z) = 0.30699 0.30425
#
# Static dielectric constant tensor:
#      x y z
#    x 1.614540 0.000000 0.000000 
#    y 0.000000 1.598720 0.000000 
#    z 0.000000 0.000000 1.620540 
# 
# From -- ./inp_files/6699.got.cif
#   From: 2010.05.17/outbox.cif.g08.bks.cpg/sg36_4_cif.got.tgz:6699.got - 2010.06.03 17:41:39.
