data_PCOD9353523
_publ_section_title
;
Structure prediction by ZEFSAII (Michael W. Deem and Ramdas Pophale) SiO2 
 PCOD9353523
Probable space group: C C C 2
;
_chemical_formula_sum "Si O2"
_cell_formula_units_Z 56
_cell_length_a 24.507174
_cell_length_b 27.948696
_cell_length_c 5.308964
_cell_angle_alpha 90.000000
_cell_angle_beta 90.000000
_cell_angle_gamma 90.000000
_cell_volume 3636.340681
_symmetry_space_group_name_H-M "C C C 2"
_symmetry_group_IT_number 37
_symmetry_cell_setting 'orthorhombic'
loop_
_space_group_symop_operation_xyz
x,y,z
-x,-y,z
-x,y,1/2+z
x,-y,1/2+z
1/2+x,1/2+y,z
1/2-x,1/2-y,z
1/2-x,1/2+y,1/2+z
1/2+x,1/2-y,1/2+z
loop_
_atom_site_type_symbol
_atom_site_label
_atom_site_fract_x
_atom_site_fract_y
_atom_site_fract_z
Si Si1 0.763943 0.170861 0.612320
Si Si2 0.792464 0.518040 0.778689
Si Si3 0.415550 0.980866 0.893839
Si Si4 0.341056 0.757863 0.617031
Si Si5 0.224107 0.626061 0.115127
Si Si6 0.464797 0.885680 0.076927
Si Si7 0.619537 0.196921 0.113719
O O1 0.711994 0.207121 0.615643
O O2 0.816886 0.204546 0.620758
O O3 0.760401 0.143542 0.349071
O O4 0.754302 0.136548 0.851712
O O5 0.766742 0.486160 0.556312
O O6 0.853621 0.498012 0.837867
O O7 0.791852 0.571571 0.672563
O O8 0.422660 0.928392 0.009172
O O9 0.440103 0.985355 0.613185
O O10 0.375234 0.773082 0.371154
O O11 0.372358 0.769576 0.872966
O O12 0.169894 0.658995 0.116259
O O13 0.508486 0.889873 0.851726
O O14 0.433685 0.835323 0.078593
#
# Coordination Sequence:
#
# PCOD9353523 Si02
#       7
#     8   8   8   8   8   8   8
#     4   9  17  28  44  69  89 103 126 161 216 274
#     4  10  19  30  44  60  80 109 146 180 214 260
#     4  10  21  35  48  59  77 104 146 194 239 283
#     4   9  17  29  47  66  86 105 126 160 211 287
#     4  10  18  29  46  64  86 110 135 175 222 271
#     4  12  25  37  48  63  83 110 152 204 248 279
#     4  10  19  32  47  62  81 109 137 170 228 283
#
# _framework density 15.400096
#
# number of rings (size 3 to 8) (size 9 to 14) (size 15 to 20)
#    0.000    2.000    0.000    5.143    0.000   12.000 
#    0.000    0.000    0.000    0.000    0.000    0.000 
#    0.000    0.000    0.000    0.000    0.000    0.000 
#
# Total GULP energy -156029.366952 kJ/mol
# GULP energy per Si atom -5572.477391 kJ/mol
# Density = 1.536505 g / cm^3
# Si number density = 15.400096 Si / 1000 Ang^3
#
#
#
# Elastic Constant Matrix: (Units=GPa)
#
#
# Indices 1 2 3 4 5 6 
#
# 1 21.1839 29.6870 19.9243 0.0000 0.0000 0.0000
# 2 29.6870 66.0419 33.3445 0.0000 0.0000 0.0000
# 3 19.9243 33.3445 145.4284 0.0000 0.0000 0.0000
# 4 0.0000 0.0000 0.0000 26.1362 0.0000 0.0000
# 5 0.0000 0.0000 0.0000 0.0000 10.9646 0.0000
# 6 0.0000 0.0000 0.0000 0.0000 0.0000 28.7971
#
#
#
# Elastic Compliance Matrix: (Units=1/GPa)
#
#
# Indices 1 2 3 4 5 6 
#
# 1 0.130724 -0.056229 -0.005017 0.000000 0.000000 0.000000
# 2 -0.056229 0.041311 -0.001768 0.000000 0.000000 0.000000
# 3 -0.005017 -0.001768 0.007969 0.000000 0.000000 0.000000
# 4 0.000000 0.000000 0.000000 0.038261 0.000000 0.000000
# 5 0.000000 0.000000 0.000000 0.000000 0.091202 0.000000
# 6 0.000000 0.000000 0.000000 0.000000 0.000000 0.034726
#
#
# Mechanical properties :
#
#
# Convention : Reuss Voigt Hill
#
# Bulk Modulus (GPa) = 18.52746 44.28507 31.40627
# Shear Modulus (GPa) = 10.24141 23.15947 16.70044
#
# Velocity S-wave (km/s) = 2.58160 3.88216 3.29665
# Velocity P-wave (km/s) = 4.57636 6.99383 5.91002
#
# Compressibility (1/GPa) = 0.05397394
#
# Stress axis : x y z
#
# Youngs Moduli (GPa) = 7.64972 24.20675 125.48568
#
# Poissons Ratio (x) = 1.36113 0.62958
# Poissons Ratio (y) = 0.43014 0.22189
# Poissons Ratio (z) = 0.03838 0.04280
#
# Static dielectric constant tensor:
#      x y z
#    x 1.537820 0.000000 0.000000 
#    y 0.000000 1.526010 0.000000 
#    z 0.000000 0.000000 1.591230 
# 
# From -- ./inp_files/1251.got.cif
#   From: 2010.05.17/outbox.cif.g08.bks.cpg/sg37_1_cif.got.tgz:1251.got - 2010.06.03 17:53:42.
