data_PCOD9353154
_publ_section_title
;
Structure prediction by ZEFSAII (Michael W. Deem and Ramdas Pophale) SiO2 
 PCOD9353154
Probable space group: C M C 21
;
_chemical_formula_sum "Si O2"
_cell_formula_units_Z 56
_cell_length_a 17.091013
_cell_length_b 14.670436
_cell_length_c 8.709882
_cell_angle_alpha 90.000000
_cell_angle_beta 90.000000
_cell_angle_gamma 90.000000
_cell_volume 2183.851467
_symmetry_space_group_name_H-M "C M C 21"
_symmetry_group_IT_number 36
_symmetry_cell_setting 'orthorhombic'
loop_
_space_group_symop_operation_xyz
x,y,z
-x,-y,1/2+z
x,-y,1/2+z
-x,y,z
1/2+x,1/2+y,z
1/2-x,1/2-y,1/2+z
1/2+x,1/2-y,1/2+z
1/2-x,1/2+y,z
loop_
_atom_site_type_symbol
_atom_site_label
_atom_site_fract_x
_atom_site_fract_y
_atom_site_fract_z
Si Si1 0.760343 0.675841 0.905090
Si Si2 0.414380 0.840672 0.065927
Si Si3 0.166141 0.819461 0.084481
Si Si4 0.689953 0.972106 0.245057
Si Si5 0.383904 0.366312 0.593391
Si Si6 0.585261 0.852533 0.707196
Si Si7 0.134370 0.016368 0.375205
O O1 0.714172 0.677605 0.743540
O O2 0.829509 0.602757 0.878721
O O3 0.784298 0.777333 0.944902
O O4 0.707905 0.643663 0.048017
O O5 0.500000 0.878649 0.112924
O O6 0.342763 0.908591 0.104584
O O7 0.407379 0.737317 0.127013
O O8 0.416356 0.823077 0.884986
O O9 0.104908 0.738721 0.113976
O O10 0.140198 0.917336 0.023779
O O11 0.645524 0.064789 0.216639
O O12 0.778069 0.997045 0.305452
O O13 0.404472 0.426664 0.739677
O O14 0.406568 0.424518 0.439715
O O15 0.500000 0.887160 0.661111
#
# Coordination Sequence:
#
# PCOD9353154 Si02
#       7
#     8   8   8   8   8   8   8
#     4  11  23  37  69 101 146 184 237 308 381 431
#     4  11  25  47  70 100 148 197 244 299 363 453
#     4  12  23  43  67 105 142 190 242 309 366 444
#     4  11  24  42  69 106 139 183 236 300 376 442
#     4  11  23  44  65 107 140 189 239 304 367 445
#     4  11  26  44  68 100 145 199 247 293 361 453
#     4  11  25  41  76 107 145 178 243 311 380 430
#
# _framework density 25.642771
#
# number of rings (size 3 to 8) (size 9 to 14) (size 15 to 20)
#    0.000    0.857    1.429    6.429    8.000    0.000 
#    0.000    4.286    0.000    0.000    0.000    0.000 
#    0.000    0.000    0.000    0.000    0.000    0.000 
#
# Total GULP energy -156170.951562 kJ/mol
# GULP energy per Si atom -5577.533984 kJ/mol
# Density = 2.558441 g / cm^3
# Si number density = 25.642771 Si / 1000 Ang^3
#
#
#
# Elastic Constant Matrix: (Units=GPa)
#
#
# Indices 1 2 3 4 5 6 
#
# 1 94.1617 31.9941 17.3396 0.0000 0.0000 0.0000
# 2 31.9941 137.3309 26.9698 0.0000 0.0000 0.0000
# 3 17.3396 26.9698 90.7878 0.0000 0.0000 0.0000
# 4 0.0000 0.0000 0.0000 69.5513 0.0000 0.0000
# 5 0.0000 0.0000 0.0000 0.0000 5.2278 0.0000
# 6 0.0000 0.0000 0.0000 0.0000 0.0000 2.6025
#
#
#
# Elastic Compliance Matrix: (Units=1/GPa)
#
#
# Indices 1 2 3 4 5 6 
#
# 1 0.011726 -0.002434 -0.001517 0.000000 0.000000 0.000000
# 2 -0.002434 0.008238 -0.001982 0.000000 0.000000 0.000000
# 3 -0.001517 -0.001982 0.011893 0.000000 0.000000 0.000000
# 4 0.000000 0.000000 0.000000 0.014378 0.000000 0.000000
# 5 0.000000 0.000000 0.000000 0.000000 0.191285 0.000000
# 6 0.000000 0.000000 0.000000 0.000000 0.000000 0.384245
#
#
# Mechanical properties :
#
#
# Convention : Reuss Voigt Hill
#
# Bulk Modulus (GPa) = 50.02075 52.76527 51.39301
# Shear Modulus (GPa) = 7.80889 31.87476 19.84183
#
# Velocity S-wave (km/s) = 1.74696 3.52949 2.78471
# Velocity P-wave (km/s) = 4.85986 6.10176 5.51587
#
# Compressibility (1/GPa) = 0.01999170
#
# Stress axis : x y z
#
# Youngs Moduli (GPa) = 85.27805 121.38781 84.08142
#
# Poissons Ratio (x) = 0.29547 0.12751
# Poissons Ratio (y) = 0.20757 0.16668
# Poissons Ratio (z) = 0.12933 0.24063
#
# Static dielectric constant tensor:
#      x y z
#    x 2.171970 0.000000 0.000000 
#    y 0.000000 2.067640 0.000000 
#    z 0.000000 0.000000 2.066800 
# 
# From -- ./inp_files/5218.got.cif
#   From: 2010.05.17/outbox.cif.g08.bks.cpg/sg36_3_cif.got.tgz:5218.got - 2010.06.03 17:41:39.
