data_PCOD9353234
_publ_section_title
;
Structure prediction by ZEFSAII (Michael W. Deem and Ramdas Pophale) SiO2 
 PCOD9353234
Probable space group: C M C 21
;
_chemical_formula_sum "Si O2"
_cell_formula_units_Z 56
_cell_length_a 22.608727
_cell_length_b 8.371633
_cell_length_c 14.581269
_cell_angle_alpha 90.000000
_cell_angle_beta 90.000000
_cell_angle_gamma 90.000000
_cell_volume 2759.825436
_symmetry_space_group_name_H-M "C M C 21"
_symmetry_group_IT_number 36
_symmetry_cell_setting 'orthorhombic'
loop_
_space_group_symop_operation_xyz
x,y,z
-x,-y,1/2+z
x,-y,1/2+z
-x,y,z
1/2+x,1/2+y,z
1/2-x,1/2-y,1/2+z
1/2+x,1/2-y,1/2+z
1/2-x,1/2+y,z
loop_
_atom_site_type_symbol
_atom_site_label
_atom_site_fract_x
_atom_site_fract_y
_atom_site_fract_z
Si Si1 0.669766 0.960647 0.700460
Si Si2 0.367664 0.499999 0.593637
Si Si3 0.290529 0.310641 0.742090
Si Si4 0.069491 0.773278 0.447062
Si Si5 0.569491 0.273279 0.240210
Si Si6 0.669766 0.039352 0.486813
Si Si7 0.709471 0.310643 0.945183
O O1 0.721285 0.831908 0.719663
O O2 0.608584 0.886940 0.734133
O O3 0.690670 0.126575 0.743507
O O4 0.665514 0.000002 0.593637
O O5 0.326637 0.398013 0.662159
O O6 0.406624 0.388090 0.527294
O O7 0.406624 0.611908 0.659978
O O8 0.326636 0.601984 0.525114
O O9 0.301349 0.380092 0.843636
O O10 0.077661 0.840596 0.343636
O O11 0.108584 0.613058 0.453139
O O12 0.000000 0.742789 0.459546
O O13 0.500000 0.242786 0.227727
O O14 0.721285 0.168090 0.467608
O O15 0.690670 0.873423 0.443768
#
# Coordination Sequence:
#
# PCOD9353234 Si02
#       7
#     8   8   8   8   8   8   8
#     4  12  23  45  66  96 134 168 215 268 326 387
#     4  12  23  44  66  98 133 164 218 270 320 388
#     4  12  24  40  68  98 130 169 209 267 331 389
#     4  11  25  45  68  94 130 176 220 266 320 380
#     4  11  25  45  68  94 130 176 220 266 320 380
#     4  12  23  45  66  96 134 168 215 268 326 387
#     4  12  24  40  68  98 130 169 209 267 331 389
#
# _framework density 20.291138
#
# number of rings (size 3 to 8) (size 9 to 14) (size 15 to 20)
#    0.000    0.286    4.286    6.429    0.000    0.571 
#    0.000    0.000    0.000    5.143    0.000    0.000 
#    0.000    0.000    0.000    0.000    0.000    0.000 
#
# Total GULP energy -156657.644561 kJ/mol
# GULP energy per Si atom -5594.915877 kJ/mol
# Density = 2.024495 g / cm^3
# Si number density = 20.291138 Si / 1000 Ang^3
#
#
#
# Elastic Constant Matrix: (Units=GPa)
#
#
# Indices 1 2 3 4 5 6 
#
# 1 149.5998 45.3351 60.9279 0.0000 0.0000 0.0000
# 2 45.3351 74.5382 28.2112 0.0000 0.0000 0.0000
# 3 60.9279 28.2112 178.8676 0.0000 0.0000 0.0000
# 4 0.0000 0.0000 0.0000 7.9227 0.0000 0.0000
# 5 0.0000 0.0000 0.0000 0.0000 31.6790 0.0000
# 6 0.0000 0.0000 0.0000 0.0000 0.0000 24.2604
#
#
#
# Elastic Compliance Matrix: (Units=1/GPa)
#
#
# Indices 1 2 3 4 5 6 
#
# 1 0.009039 -0.004607 -0.002352 0.000000 0.000000 0.000000
# 2 -0.004607 0.016616 -0.001051 0.000000 0.000000 0.000000
# 3 -0.002352 -0.001051 0.006558 0.000000 0.000000 0.000000
# 4 0.000000 0.000000 0.000000 0.126220 0.000000 0.000000
# 5 0.000000 0.000000 0.000000 0.000000 0.031567 0.000000
# 6 0.000000 0.000000 0.000000 0.000000 0.000000 0.041219
#
#
# Mechanical properties :
#
#
# Convention : Reuss Voigt Hill
#
# Bulk Modulus (GPa) = 61.76271 74.66156 68.21213
# Shear Modulus (GPa) = 19.79128 30.67451 25.23290
#
# Velocity S-wave (km/s) = 3.12647 3.89230 3.53022
# Velocity P-wave (km/s) = 6.59829 7.55480 7.09269
#
# Compressibility (1/GPa) = 0.01619100
#
# Stress axis : x y z
#
# Youngs Moduli (GPa) = 110.63598 60.18297 152.49057
#
# Poissons Ratio (x) = 0.27727 0.35869
# Poissons Ratio (y) = 0.50972 0.16032
# Poissons Ratio (z) = 0.26024 0.06327
#
# Static dielectric constant tensor:
#      x y z
#    x 1.675010 0.000000 0.000000 
#    y 0.000000 1.725780 0.000000 
#    z 0.000000 0.000000 1.752690 
# 
# From -- ./inp_files/12822.got.cif
#   From: 2010.05.17/outbox.cif.g08.bks.cpg/sg36_7_cif.got.tgz:12822.got - 2010.06.03 17:41:39.
