data_PCOD9353023
_publ_section_title
;
Structure prediction by ZEFSAII (Michael W. Deem and Ramdas Pophale) SiO2 
 PCOD9353023
Probable space group: C M C 21
;
_chemical_formula_sum "Si O2"
_cell_formula_units_Z 40
_cell_length_a 20.763950
_cell_length_b 7.654501
_cell_length_c 11.961314
_cell_angle_alpha 90.000000
_cell_angle_beta 90.000000
_cell_angle_gamma 90.000000
_cell_volume 1901.103450
_symmetry_space_group_name_H-M "C M C 21"
_symmetry_group_IT_number 36
_symmetry_cell_setting 'orthorhombic'
loop_
_space_group_symop_operation_xyz
x,y,z
-x,-y,1/2+z
x,-y,1/2+z
-x,y,z
1/2+x,1/2+y,z
1/2-x,1/2-y,1/2+z
1/2+x,1/2-y,1/2+z
1/2-x,1/2+y,z
loop_
_atom_site_type_symbol
_atom_site_label
_atom_site_fract_x
_atom_site_fract_y
_atom_site_fract_z
Si Si1 0.073584 0.345660 0.728760
Si Si2 0.821139 0.406133 0.914229
Si Si3 0.070937 0.059436 0.534002
Si Si4 0.617106 0.783418 0.135232
Si Si5 0.824823 0.189942 0.368864
O O1 0.126624 0.331662 0.826221
O O2 0.082629 0.199678 0.633166
O O3 0.082995 0.538036 0.674446
O O4 0.000000 0.330220 0.771374
O O5 0.830686 0.613898 0.916019
O O6 0.748536 0.369897 0.876946
O O7 0.833711 0.332069 0.036807
O O8 0.126455 0.075712 0.442112
O O9 0.000000 0.097788 0.485654
O O10 0.072300 0.867117 0.586101
O O11 0.653066 0.701737 0.241290
#
# Coordination Sequence:
#
# PCOD9353023 Si02
#       5
#     8   8   8   8   8
#     4  10  24  45  67  99 136 179 231 283 342 405
#     4  11  25  44  70 100 139 186 225 290 338 405
#     4  11  25  44  69 100 137 179 229 286 341 405
#     4  11  25  45  70 100 137 186 228 283 345 403
#     4  11  26  44  70 103 140 180 235 284 337 416
#
# _framework density 21.040410999999999
#
# number of rings (size 3 to 8) (size 9 to 14) (size 15 to 20)
#    0.000    1.200    2.000    1.800    8.400    7.200 
#    0.000    0.000    0.000    0.000    0.000    0.000 
#    0.000    0.000    0.000    0.000    0.000    0.000 
#
# Total GULP energy -111898.630803 kJ/mol
# GULP energy per Si atom -5594.931540 kJ/mol
# Density = 2.099252 g / cm^3
# Si number density = 21.040411 Si / 1000 Ang^3
#
#
#
# Elastic Constant Matrix: (Units=GPa)
#
#
# Indices 1 2 3 4 5 6 
#
# 1 147.7272 20.3474 69.1538 0.0000 0.0000 0.0000
# 2 20.3474 76.3503 33.3838 0.0000 0.0000 0.0000
# 3 69.1538 33.3838 112.4042 0.0000 0.0000 0.0000
# 4 0.0000 0.0000 0.0000 3.3218 0.0000 0.0000
# 5 0.0000 0.0000 0.0000 0.0000 3.9333 0.0000
# 6 0.0000 0.0000 0.0000 0.0000 0.0000 -4.1795
#
#
#
# Elastic Compliance Matrix: (Units=1/GPa)
#
#
# Indices 1 2 3 4 5 6 
#
# 1 0.009507 0.000027 -0.005857 0.000000 0.000000 0.000000
# 2 0.000027 0.015052 -0.004487 0.000000 0.000000 0.000000
# 3 -0.005857 -0.004487 0.013833 0.000000 0.000000 0.000000
# 4 0.000000 0.000000 0.000000 0.301040 0.000000 0.000000
# 5 0.000000 0.000000 0.000000 0.000000 0.254237 0.000000
# 6 0.000000 0.000000 0.000000 0.000000 0.000000 -0.239263
#
#
# Mechanical properties :
#
#
# Convention : Reuss Voigt Hill
#
# Bulk Modulus (GPa) = 56.31304 64.69464 60.50384
# Shear Modulus (GPa) = 13.12473 14.85490 13.98982
#
# Velocity S-wave (km/s) = 2.50028 2.65998 2.58137
# Velocity P-wave (km/s) = 5.92938 6.34418 6.14028
#
# Compressibility (1/GPa) = 0.01775788
#
# Stress axis : x y z
#
# Youngs Moduli (GPa) = 105.18149 66.43501 72.29222
#
# Poissons Ratio (x) = -0.00182 0.42344
# Poissons Ratio (y) = -0.00288 0.32440
# Poissons Ratio (z) = 0.61608 0.29812
#
# Static dielectric constant tensor:
#      x y z
#    x 1.733020 0.000000 0.000000 
#    y 0.000000 1.765140 0.000000 
#    z 0.000000 0.000000 1.722900 
# 
# From -- ./inp_files/8768.got.cif
#   From: 2010.05.17/outbox.cif.g08.bks.cpg/sg36_5_cif.got.tgz:8768.got - 2010.06.03 17:41:39.
