data_PCOD9353397
_publ_section_title
;
Structure prediction by ZEFSAII (Michael W. Deem and Ramdas Pophale) SiO2 
 PCOD9353397
Probable space group: C M C 21
;
_chemical_formula_sum "Si O2"
_cell_formula_units_Z 32
_cell_length_a 9.000000
_cell_length_b 21.000000
_cell_length_c 18.000000
_cell_angle_alpha 90.000000
_cell_angle_beta 90.000000
_cell_angle_gamma 90.000000
_cell_volume 3402.000000
_symmetry_space_group_name_H-M "C M C 21"
_symmetry_group_IT_number 36
_symmetry_cell_setting 'orthorhombic'
loop_
_space_group_symop_operation_xyz
x,y,z
-x,-y,1/2+z
x,-y,1/2+z
-x,y,z
1/2+x,1/2+y,z
1/2-x,1/2-y,1/2+z
1/2+x,1/2-y,1/2+z
1/2-x,1/2+y,z
loop_
_atom_site_type_symbol
_atom_site_label
_atom_site_fract_x
_atom_site_fract_y
_atom_site_fract_z
Si Si1 0.830209 0.829921 0.970560
Si Si2 0.823654 0.303078 0.468541
Si Si3 0.677817 0.963946 0.311207
Si Si4 0.321844 0.573543 0.217091
Si Si5 0.325806 0.670228 0.813519
Si Si6 0.321433 0.527046 0.457007
Si Si7 0.169826 0.204807 0.296187
Si Si8 0.827246 0.568843 0.062138
O O1 0.827802 0.808337 0.884451
O O2 0.000000 0.838683 0.996336
O O3 0.764774 0.900672 0.970556
O O4 0.776282 0.763771 0.007042
O O5 0.717916 0.317225 0.399236
O O6 0.818562 0.365680 0.517257
O O7 0.000000 0.296836 0.446171
O O8 0.500000 0.965042 0.313314
O O9 0.735290 0.893113 0.294171
O O10 0.742619 0.991133 0.388725
O O11 0.747637 0.012012 0.252662
O O12 0.500000 0.566217 0.212982
O O13 0.288969 0.636963 0.263423
O O14 0.241854 0.583456 0.140419
O O15 0.500000 0.659968 0.803937
O O16 0.271137 0.735419 0.775309
O O17 0.500000 0.528839 0.443404
O O18 0.275843 0.484940 0.526487
O O19 0.000000 0.219740 0.275076
O O20 0.000000 0.548596 0.064158
#
# Coordination Sequence:
#
# PCOD9353397 Si02
#       8
#     8   8   8   8   8   8   8   8
#     4   8  15  31  56  83 109 143 187 236 285 335
#     4   9  18  35  56  80 113 152 189 232 289 343
#     4  12  23  37  58  86 120 155 195 248 303 351
#     4  11  23  41  62  84 115 158 202 246 296 360
#     4  11  21  33  56  88 117 147 192 241 288 343
#     4  11  20  35  59  87 117 154 199 245 293 349
#     4   9  18  36  58  82 114 150 188 236 296 347
#     4  11  23  38  57  84 119 159 198 244 298 354
#
# _framework density 9.4062319999999993
#
# number of rings (size 3 to 8) (size 9 to 14) (size 15 to 20)
#    0.000    1.750    2.500    4.125    0.000    1.500 
#    0.000    1.875    0.000    4.500    0.000    0.000 
#    0.000    0.000    0.000    0.000    0.000    0.000 
#
# Total GULP energy -178232.199895 kJ/mol
# GULP energy per Si atom -5569.756247 kJ/mol
# Density = 0.938482 g / cm^3
# Si number density = 9.406232 Si / 1000 Ang^3
#
#
#
# Elastic Constant Matrix: (Units=GPa)
#
#
# Indices 1 2 3 4 5 6 
#
# 1 81.9099 57.4572 -1.9375 0.0000 0.0000 0.0000
# 2 57.4572 151.5156 -1.7194 0.0000 0.0000 0.0000
# 3 -1.9375 -1.7194 -3.4231 0.0000 0.0000 0.0000
# 4 0.0000 0.0000 0.0000 -8.5648 0.0000 0.0000
# 5 0.0000 0.0000 0.0000 0.0000 19.4056 0.0000
# 6 0.0000 0.0000 0.0000 0.0000 0.0000 28.9283
#
#
#
# Elastic Compliance Matrix: (Units=1/GPa)
#
#
# Indices 1 2 3 4 5 6 
#
# 1 0.016501 -0.006327 -0.006162 0.000000 0.000000 0.000000
# 2 -0.006327 0.008989 -0.000934 0.000000 0.000000 0.000000
# 3 -0.006162 -0.000934 -0.288175 0.000000 0.000000 0.000000
# 4 0.000000 0.000000 0.000000 -0.116756 0.000000 0.000000
# 5 0.000000 0.000000 0.000000 0.000000 0.051531 0.000000
# 6 0.000000 0.000000 0.000000 0.000000 0.000000 0.034568
#
#
# Mechanical properties :
#
#
# Convention : Reuss Voigt Hill
#
# Bulk Modulus (GPa) = -3.45387 37.51144 17.02878
# Shear Modulus (GPa) = -13.77388 19.70062 2.96337
#
# Velocity S-wave (km/s) = -2.70880 3.23957 1.25644
# Velocity P-wave (km/s) = 3.40931 5.82890 3.34311
#
# Compressibility (1/GPa) = -0.28953008
#
# Stress axis : x y z
#
# Youngs Moduli (GPa) = 60.60123 111.24864 -3.47012
#
# Poissons Ratio (x) = 0.70392 -0.02138
# Poissons Ratio (y) = 0.38345 -0.00324
# Poissons Ratio (z) = 0.37340 0.10386
#
# Static dielectric constant tensor:
#      x y z
#    x 1.645970 0.000000 0.000000 
#    y 0.000000 1.683600 0.000000 
#    z 0.000000 0.000000 1.628040 
# 
# From -- ./inp_files/13953.got.cif
#   From: 2010.05.17/outbox.ucp.g08.bks.cvg/sg36_7_cif.got.tgz:13953.got - 2010.06.11 10:37:26.
