data_PCOD9353219
_publ_section_title
;
Structure prediction by ZEFSAII (Michael W. Deem and Ramdas Pophale) SiO2 
 PCOD9353219
Probable space group: C M C 21
;
_chemical_formula_sum "Si O2"
_cell_formula_units_Z 64
_cell_length_a 26.435677
_cell_length_b 12.254669
_cell_length_c 9.239481
_cell_angle_alpha 90.000000
_cell_angle_beta 90.000000
_cell_angle_gamma 90.000000
_cell_volume 2993.226620
_symmetry_space_group_name_H-M "C M C 21"
_symmetry_group_IT_number 36
_symmetry_cell_setting 'orthorhombic'
loop_
_space_group_symop_operation_xyz
x,y,z
-x,-y,1/2+z
x,-y,1/2+z
-x,y,z
1/2+x,1/2+y,z
1/2-x,1/2-y,1/2+z
1/2+x,1/2-y,1/2+z
1/2-x,1/2+y,z
loop_
_atom_site_type_symbol
_atom_site_label
_atom_site_fract_x
_atom_site_fract_y
_atom_site_fract_z
Si Si1 0.682116 0.950169 0.532230
Si Si2 0.558622 0.245343 0.687850
Si Si3 0.442533 0.820460 0.867920
Si Si4 0.880527 0.915039 0.881966
Si Si5 0.397575 0.364510 0.216361
Si Si6 0.236387 0.118051 0.449492
Si Si7 0.209978 0.757147 0.221798
Si Si8 0.612461 0.040870 0.778628
O O1 0.704101 0.851603 0.624894
O O2 0.643347 0.908277 0.411599
O O3 0.724818 0.017971 0.448103
O O4 0.649649 0.024843 0.642358
O O5 0.500000 0.278568 0.703151
O O6 0.572318 0.238250 0.518196
O O7 0.595382 0.322846 0.779097
O O8 0.567250 0.121593 0.740678
O O9 0.500000 0.859913 0.885904
O O10 0.439266 0.726344 0.748191
O O11 0.407516 0.922219 0.826470
O O12 0.819151 0.909882 0.888463
O O13 0.899323 0.029068 0.816040
O O14 0.896696 0.897741 0.048362
O O15 0.345435 0.302058 0.256209
O O16 0.233494 0.152405 0.617307
O O17 0.258661 0.219316 0.359450
#
# Coordination Sequence:
#
# PCOD9353219 Si02
#       8
#     8   8   8   8   8   8   8   8
#     4  12  24  43  67 100 143 184 230 282 354 422
#     4  11  26  47  73 104 139 187 241 295 359 423
#     4  11  24  44  70 102 137 180 233 295 359 423
#     4  11  27  45  71  98 139 181 237 290 349 414
#     4  11  24  47  66 101 131 183 226 289 347 419
#     4  11  27  40  66 100 135 190 227 289 337 430
#     4  11  26  42  65  98 137 183 231 278 348 413
#     4  12  23  44  69 103 144 186 228 292 357 424
#
# _framework density 21.381609000000001
#
# number of rings (size 3 to 8) (size 9 to 14) (size 15 to 20)
#    0.000    0.750    3.750    2.625    8.750    1.000 
#    0.000    0.000    0.000    0.000    0.000    0.000 
#    0.000    0.000    0.000    0.000    0.000    0.000 
#
# Total GULP energy -178987.633438 kJ/mol
# GULP energy per Si atom -5593.363545 kJ/mol
# Density = 2.133294 g / cm^3
# Si number density = 21.381609 Si / 1000 Ang^3
#
#
#
# Elastic Constant Matrix: (Units=GPa)
#
#
# Indices 1 2 3 4 5 6 
#
# 1 70.5844 21.8238 34.5963 0.0000 0.0000 0.0000
# 2 21.8238 79.0117 4.9243 0.0000 0.0000 0.0000
# 3 34.5963 4.9243 71.3183 0.0000 0.0000 0.0000
# 4 0.0000 0.0000 0.0000 37.0804 0.0000 0.0000
# 5 0.0000 0.0000 0.0000 0.0000 30.5143 0.0000
# 6 0.0000 0.0000 0.0000 0.0000 0.0000 18.9888
#
#
#
# Elastic Compliance Matrix: (Units=1/GPa)
#
#
# Indices 1 2 3 4 5 6 
#
# 1 0.020408 -0.005042 -0.009552 0.000000 0.000000 0.000000
# 2 -0.005042 0.013957 0.001482 0.000000 0.000000 0.000000
# 3 -0.009552 0.001482 0.018553 0.000000 0.000000 0.000000
# 4 0.000000 0.000000 0.000000 0.026968 0.000000 0.000000
# 5 0.000000 0.000000 0.000000 0.000000 0.032771 0.000000
# 6 0.000000 0.000000 0.000000 0.000000 0.000000 0.052663
#
#
# Mechanical properties :
#
#
# Convention : Reuss Voigt Hill
#
# Bulk Modulus (GPa) = 37.46062 38.17813 37.81938
# Shear Modulus (GPa) = 24.94504 27.95470 26.44987
#
# Velocity S-wave (km/s) = 3.41934 3.61975 3.52097
# Velocity P-wave (km/s) = 5.75737 5.94680 5.85285
#
# Compressibility (1/GPa) = 0.02669470
#
# Stress axis : x y z
#
# Youngs Moduli (GPa) = 49.00063 71.65107 53.90020
#
# Poissons Ratio (x) = 0.36123 0.51484
# Poissons Ratio (y) = 0.24704 -0.07988
# Poissons Ratio (z) = 0.46804 -0.10619
#
# Static dielectric constant tensor:
#      x y z
#    x 1.783890 0.000000 0.000000 
#    y 0.000000 1.749870 0.000000 
#    z 0.000000 0.000000 1.787650 
# 
# From -- ./inp_files/6072.got.cif
#   From: 2010.05.17/outbox.cif.g08.bks.cpg/sg36_4_cif.got.tgz:6072.got - 2010.06.03 17:41:39.
