data_PCOD9353764
_publ_section_title
;
Structure prediction by ZEFSAII (Michael W. Deem and Ramdas Pophale) SiO2 
 PCOD9353764
Probable space group: C C C 2
;
_chemical_formula_sum "Si O2"
_cell_formula_units_Z 64
_cell_length_a 11.753103
_cell_length_b 16.294801
_cell_length_c 17.001217
_cell_angle_alpha 90.000000
_cell_angle_beta 90.000000
_cell_angle_gamma 90.000000
_cell_volume 3255.979140
_symmetry_space_group_name_H-M "C C C 2"
_symmetry_group_IT_number 37
_symmetry_cell_setting 'orthorhombic'
loop_
_space_group_symop_operation_xyz
x,y,z
-x,-y,z
-x,y,1/2+z
x,-y,1/2+z
1/2+x,1/2+y,z
1/2-x,1/2-y,z
1/2-x,1/2+y,1/2+z
1/2+x,1/2-y,1/2+z
loop_
_atom_site_type_symbol
_atom_site_label
_atom_site_fract_x
_atom_site_fract_y
_atom_site_fract_z
Si Si1 0.664159 0.999966 0.292960
Si Si2 0.137386 0.302329 0.003332
Si Si3 0.238923 0.427966 0.127364
Si Si4 0.887180 0.945957 0.364771
Si Si5 0.008366 0.374027 0.855925
Si Si6 0.883134 0.772527 0.277729
Si Si7 0.033799 0.819082 0.621238
Si Si8 0.385412 0.556741 0.046018
O O1 0.678680 0.955637 0.208199
O O2 0.787858 0.003136 0.330737
O O3 0.591316 0.942028 0.351789
O O4 0.598707 0.086469 0.294000
O O5 0.250000 0.250000 0.978403
O O6 0.078461 0.353348 0.934306
O O7 0.169639 0.365910 0.072568
O O8 0.058748 0.233593 0.043680
O O9 0.358824 0.379808 0.138722
O O10 0.278490 0.507592 0.079172
O O11 0.891125 0.863360 0.313690
O O12 0.866375 0.921199 0.455312
O O13 0.000000 0.000000 0.360034
O O14 0.941972 0.291551 0.835174
O O15 0.750000 0.750000 0.263610
O O16 0.957405 0.764858 0.198549
O O17 0.921215 0.870246 0.604027
O O18 0.500000 0.500000 0.045179
#
# Coordination Sequence:
#
# PCOD9353764 Si02
#       8
#     8   8   8   8   8   8   8   8
#     4  11  23  41  65  95 129 171 224 264 333 393
#     4  10  21  39  64  91 124 172 219 263 329 388
#     4  10  19  38  65  88 122 170 213 264 315 399
#     4  11  23  40  68 100 126 167 220 269 324 388
#     4  11  24  41  61  92 134 169 213 280 317 394
#     4  12  22  40  66  93 126 172 219 263 324 394
#     4  10  19  35  62  92 121 164 219 261 318 382
#     4   9  20  35  57  92 127 155 208 268 312 371
#
# _framework density 19.656144999999999
#
# number of rings (size 3 to 8) (size 9 to 14) (size 15 to 20)
#    0.000    1.500    2.500    3.375    1.750    3.000 
#    0.000    8.750    0.000    0.000    0.000    0.000 
#    0.000    0.000    0.000    0.000    0.000    0.000 
#
# Total GULP energy -178427.189362 kJ/mol
# GULP energy per Si atom -5575.849668 kJ/mol
# Density = 1.961141 g / cm^3
# Si number density = 19.656145 Si / 1000 Ang^3
#
#
#
# Elastic Constant Matrix: (Units=GPa)
#
#
# Indices 1 2 3 4 5 6 
#
# 1 65.2109 27.9218 23.9567 0.0000 0.0000 0.0000
# 2 27.9218 69.5373 21.5545 0.0000 0.0000 0.0000
# 3 23.9567 21.5545 94.0405 0.0000 0.0000 0.0000
# 4 0.0000 0.0000 0.0000 30.1983 0.0000 0.0000
# 5 0.0000 0.0000 0.0000 0.0000 13.9065 0.0000
# 6 0.0000 0.0000 0.0000 0.0000 0.0000 19.3480
#
#
#
# Elastic Compliance Matrix: (Units=1/GPa)
#
#
# Indices 1 2 3 4 5 6 
#
# 1 0.019486 -0.006766 -0.003413 0.000000 0.000000 0.000000
# 2 -0.006766 0.017830 -0.002363 0.000000 0.000000 0.000000
# 3 -0.003413 -0.002363 0.012045 0.000000 0.000000 0.000000
# 4 0.000000 0.000000 0.000000 0.033114 0.000000 0.000000
# 5 0.000000 0.000000 0.000000 0.000000 0.071909 0.000000
# 6 0.000000 0.000000 0.000000 0.000000 0.000000 0.051685
#
#
# Mechanical properties :
#
#
# Convention : Reuss Voigt Hill
#
# Bulk Modulus (GPa) = 41.19314 41.73942 41.46628
# Shear Modulus (GPa) = 20.89897 23.04760 21.97329
#
# Velocity S-wave (km/s) = 3.26426 3.42795 3.34710
# Velocity P-wave (km/s) = 5.93376 6.07854 6.00659
#
# Compressibility (1/GPa) = 0.02427588
#
# Stress axis : x y z
#
# Youngs Moduli (GPa) = 51.31897 56.08469 83.02319
#
# Poissons Ratio (x) = 0.37949 0.28337
# Poissons Ratio (y) = 0.34724 0.19619
# Poissons Ratio (z) = 0.17516 0.13253
#
# Static dielectric constant tensor:
#      x y z
#    x 1.680090 0.000000 0.000000 
#    y 0.000000 1.726050 0.000000 
#    z 0.000000 0.000000 1.711290 
# 
# From -- ./inp_files/11797.got.cif
#   From: 2010.05.17/outbox.cif.g08.bks.cpg/sg37_6_cif.got.tgz:11797.got - 2010.06.03 17:53:42.
