data_PCOD9353897
_publ_section_title
;
Structure prediction by ZEFSAII (Michael W. Deem and Ramdas Pophale) SiO2 
 PCOD9353897
Probable space group: C C C 2
;
_chemical_formula_sum "Si O2"
_cell_formula_units_Z 60
_cell_length_a 15.725939
_cell_length_b 18.036467
_cell_length_c 9.342424
_cell_angle_alpha 90.000000
_cell_angle_beta 90.000000
_cell_angle_gamma 90.000000
_cell_volume 2649.888692
_symmetry_space_group_name_H-M "C C C 2"
_symmetry_group_IT_number 37
_symmetry_cell_setting 'orthorhombic'
loop_
_space_group_symop_operation_xyz
x,y,z
-x,-y,z
-x,y,1/2+z
x,-y,1/2+z
1/2+x,1/2+y,z
1/2-x,1/2-y,z
1/2-x,1/2+y,1/2+z
1/2+x,1/2-y,1/2+z
loop_
_atom_site_type_symbol
_atom_site_label
_atom_site_fract_x
_atom_site_fract_y
_atom_site_fract_z
Si Si1 0.067608 0.847353 0.786960
Si Si2 0.652484 0.868529 0.573038
Si Si3 0.206651 0.486550 0.180634
Si Si4 0.263239 0.163476 0.265969
Si Si5 0.952142 0.770172 0.595901
Si Si6 0.796455 0.180894 0.301197
Si Si7 0.500000 0.500000 0.314534
Si Si8 0.319218 0.469715 0.938048
O O1 0.166519 0.865047 0.778644
O O2 0.040451 0.785004 0.674246
O O3 0.050758 0.814581 0.945865
O O4 0.012970 0.920069 0.741895
O O5 0.692908 0.845728 0.420866
O O6 0.570240 0.816410 0.581251
O O7 0.724032 0.845736 0.689652
O O8 0.640886 0.955123 0.613202
O O9 0.188715 0.398633 0.170503
O O10 0.239075 0.504864 0.339756
O O11 0.293507 0.498858 0.091668
O O12 0.250000 0.250000 0.230590
O O13 0.877931 0.798794 0.704408
O O14 0.750000 0.250000 0.374597
O O15 0.820448 0.118269 0.413855
O O16 0.586993 0.496121 0.402658
#
# Coordination Sequence:
#
# PCOD9353897 Si02
#       8
#     8   8   8   8   8   8   4   8
#     4  12  25  38  62 100 136 180 218 274 339 421
#     4  10  19  42  69  86 125 187 227 261 329 416
#     4  11  23  39  62  98 123 165 230 280 324 390
#     4  12  22  42  69 100 133 177 228 277 333 409
#     4  11  23  41  64  92 130 179 229 268 340 407
#     4   9  18  36  60  83 118 174 222 258 314 393
#     4  12  24  36  54  88 148 174 204 254 344 420
#     4  11  23  35  56  88 131 172 210 263 329 401
#
# _framework density 22.642461999999998
#
# number of rings (size 3 to 8) (size 9 to 14) (size 15 to 20)
#    0.000    1.067    6.667    0.400    3.733    1.600 
#    0.000    2.667    0.000    0.800    0.000    0.000 
#    0.000    0.000    0.000    0.000    0.000    0.000 
#
# Total GULP energy -167401.183606 kJ/mol
# GULP energy per Si atom -5580.039454 kJ/mol
# Density = 2.259093 g / cm^3
# Si number density = 22.642462 Si / 1000 Ang^3
#
#
#
# Elastic Constant Matrix: (Units=GPa)
#
#
# Indices 1 2 3 4 5 6 
#
# 1 31.3027 22.2995 8.4358 0.0000 0.0000 0.0000
# 2 22.2995 181.8188 17.3103 0.0000 0.0000 0.0000
# 3 8.4358 17.3103 53.5288 0.0000 0.0000 0.0000
# 4 0.0000 0.0000 0.0000 11.6956 0.0000 0.0000
# 5 0.0000 0.0000 0.0000 0.0000 6.2872 0.0000
# 6 0.0000 0.0000 0.0000 0.0000 0.0000 32.3699
#
#
#
# Elastic Compliance Matrix: (Units=1/GPa)
#
#
# Indices 1 2 3 4 5 6 
#
# 1 0.035972 -0.003995 -0.004377 0.000000 0.000000 0.000000
# 2 -0.003995 0.006118 -0.001349 0.000000 0.000000 0.000000
# 3 -0.004377 -0.001349 0.019808 0.000000 0.000000 0.000000
# 4 0.000000 0.000000 0.000000 0.085503 0.000000 0.000000
# 5 0.000000 0.000000 0.000000 0.000000 0.159053 0.000000
# 6 0.000000 0.000000 0.000000 0.000000 0.000000 0.030893
#
#
# Mechanical properties :
#
#
# Convention : Reuss Voigt Hill
#
# Bulk Modulus (GPa) = 23.55403 40.30460 31.92932
# Shear Modulus (GPa) = 13.47926 24.64417 19.06171
#
# Velocity S-wave (km/s) = 2.44254 3.30268 2.90462
# Velocity P-wave (km/s) = 4.28717 5.69058 5.03798
#
# Compressibility (1/GPa) = 0.04245558
#
# Stress axis : x y z
#
# Youngs Moduli (GPa) = 27.79958 163.44140 50.48577
#
# Poissons Ratio (x) = 0.65297 0.22098
# Poissons Ratio (y) = 0.11106 0.06810
# Poissons Ratio (z) = 0.12168 0.22048
#
# Static dielectric constant tensor:
#      x y z
#    x 1.776310 0.000000 0.000000 
#    y 0.000000 2.035740 0.000000 
#    z 0.000000 0.000000 1.836690 
# 
# From -- ./inp_files/4092.got.cif
#   From: 2010.05.17/outbox.cif.g08.bks.cpg/sg37_3_cif.got.tgz:4092.got - 2010.06.03 17:53:42.
