data_PCOD9353691
_publ_section_title
;
Structure prediction by ZEFSAII (Michael W. Deem and Ramdas Pophale) SiO2 
 PCOD9353691
Probable space group: C C C 2
;
_chemical_formula_sum "Si O2"
_cell_formula_units_Z 64
_cell_length_a 11.115134
_cell_length_b 11.668287
_cell_length_c 23.775420
_cell_angle_alpha 90.000000
_cell_angle_beta 90.000000
_cell_angle_gamma 90.000000
_cell_volume 3083.542958
_symmetry_space_group_name_H-M "C C C 2"
_symmetry_group_IT_number 37
_symmetry_cell_setting 'orthorhombic'
loop_
_space_group_symop_operation_xyz
x,y,z
-x,-y,z
-x,y,1/2+z
x,-y,1/2+z
1/2+x,1/2+y,z
1/2-x,1/2-y,z
1/2-x,1/2+y,1/2+z
1/2+x,1/2-y,1/2+z
loop_
_atom_site_type_symbol
_atom_site_label
_atom_site_fract_x
_atom_site_fract_y
_atom_site_fract_z
Si Si1 0.808422 0.478921 0.783540
Si Si2 0.294913 0.527581 0.904418
Si Si3 0.347441 0.643473 0.213325
Si Si4 0.886780 0.210938 0.391276
Si Si5 0.935731 0.208160 0.979388
Si Si6 0.002355 0.690778 0.282760
Si Si7 0.136416 0.537316 0.005493
Si Si8 0.179506 0.127955 0.585895
O O1 0.774704 0.447080 0.847358
O O2 0.699878 0.534586 0.748597
O O3 0.903149 0.584636 0.781477
O O4 0.877697 0.365584 0.763614
O O5 0.382284 0.425267 0.887045
O O6 0.366296 0.629536 0.934292
O O7 0.201773 0.480705 0.951951
O O8 0.250000 0.750000 0.214600
O O9 0.459257 0.704482 0.243224
O O10 0.363446 0.606755 0.148821
O O11 0.750000 0.250000 0.378733
O O12 0.978767 0.265298 0.346634
O O13 0.933747 0.232990 0.454047
O O14 0.872824 0.329931 0.986674
O O15 0.924096 0.144457 0.039076
O O16 0.000000 0.500000 0.016593
O O17 0.224496 0.538665 0.059350
O O18 0.250000 0.250000 0.588718
#
# Coordination Sequence:
#
# PCOD9353691 Si02
#       8
#     8   8   8   8   8   8   8   8
#     4  10  19  31  53  84 121 160 202 249 314 374
#     4  11  20  33  53  79 119 154 192 244 307 374
#     4   9  16  34  52  79 121 160 207 263 308 362
#     4  12  20  34  55  83 118 151 197 250 301 373
#     4  10  22  36  53  84 113 158 195 242 315 366
#     4  10  19  31  52  85 120 159 201 257 313 363
#     4  10  20  35  54  82 116 153 199 248 307 367
#     4   8  17  35  54  75 118 154 199 261 304 355
#
# _framework density 20.755347
#
# number of rings (size 3 to 8) (size 9 to 14) (size 15 to 20)
#    0.000    2.000    2.500    3.375    1.750    0.000 
#    9.000    0.000    0.000    0.000   13.000    0.000 
#    0.000    0.000    0.000    0.000    0.000    0.000 
#
# Total GULP energy -178402.977420 kJ/mol
# GULP energy per Si atom -5575.093044 kJ/mol
# Density = 2.070811 g / cm^3
# Si number density = 20.755347 Si / 1000 Ang^3
#
#
#
# Elastic Constant Matrix: (Units=GPa)
#
#
# Indices 1 2 3 4 5 6 
#
# 1 57.5297 38.5272 45.5154 0.0000 0.0000 0.0000
# 2 38.5272 82.9443 35.2423 0.0000 0.0000 0.0000
# 3 45.5154 35.2423 149.0364 0.0000 0.0000 0.0000
# 4 0.0000 0.0000 0.0000 15.0939 0.0000 0.0000
# 5 0.0000 0.0000 0.0000 0.0000 11.6647 0.0000
# 6 0.0000 0.0000 0.0000 0.0000 0.0000 35.9685
#
#
#
# Elastic Compliance Matrix: (Units=1/GPa)
#
#
# Indices 1 2 3 4 5 6 
#
# 1 0.030032 -0.011176 -0.006529 0.000000 0.000000 0.000000
# 2 -0.011176 0.017562 -0.000740 0.000000 0.000000 0.000000
# 3 -0.006529 -0.000740 0.008879 0.000000 0.000000 0.000000
# 4 0.000000 0.000000 0.000000 0.066252 0.000000 0.000000
# 5 0.000000 0.000000 0.000000 0.000000 0.085729 0.000000
# 6 0.000000 0.000000 0.000000 0.000000 0.000000 0.027802
#
#
# Mechanical properties :
#
#
# Convention : Reuss Voigt Hill
#
# Bulk Modulus (GPa) = 51.06334 58.67558 54.86946
# Shear Modulus (GPa) = 17.87811 23.89380 20.88595
#
# Velocity S-wave (km/s) = 2.93810 3.39663 3.17565
# Velocity P-wave (km/s) = 6.01380 6.61168 6.31981
#
# Compressibility (1/GPa) = 0.01958352
#
# Stress axis : x y z
#
# Youngs Moduli (GPa) = 33.29775 56.94239 112.62964
#
# Poissons Ratio (x) = 0.63636 0.73537
# Poissons Ratio (y) = 0.37212 0.08332
# Poissons Ratio (z) = 0.21740 0.04212
#
# Static dielectric constant tensor:
#      x y z
#    x 1.860310 0.000000 0.000000 
#    y 0.000000 1.840480 0.000000 
#    z 0.000000 0.000000 1.748950 
# 
# From -- ./inp_files/18714.got.cif
#   From: 2010.05.17/outbox.cif.g08.bks.cpg/sg37_10_cif.got.tgz:18714.got - 2010.06.03 17:53:42.
