data_PCOD9353128
_publ_section_title
;
Structure prediction by ZEFSAII (Michael W. Deem and Ramdas Pophale) SiO2 
 PCOD9353128
Probable space group: C M C 21
;
_chemical_formula_sum "Si O2"
_cell_formula_units_Z 64
_cell_length_a 8.107984
_cell_length_b 14.837210
_cell_length_c 23.648852
_cell_angle_alpha 90.000000
_cell_angle_beta 90.000000
_cell_angle_gamma 90.000000
_cell_volume 2844.953615
_symmetry_space_group_name_H-M "C M C 21"
_symmetry_group_IT_number 36
_symmetry_cell_setting 'orthorhombic'
loop_
_space_group_symop_operation_xyz
x,y,z
-x,-y,1/2+z
x,-y,1/2+z
-x,y,z
1/2+x,1/2+y,z
1/2-x,1/2-y,1/2+z
1/2+x,1/2-y,1/2+z
1/2-x,1/2+y,z
loop_
_atom_site_type_symbol
_atom_site_label
_atom_site_fract_x
_atom_site_fract_y
_atom_site_fract_z
Si Si1 0.309399 0.254046 0.254860
Si Si2 0.801027 0.519782 0.664744
Si Si3 0.699558 0.809910 0.639200
Si Si4 0.806369 0.431336 0.289571
Si Si5 0.696418 0.807668 0.946165
Si Si6 0.199432 0.650152 0.016804
Si Si7 0.298734 0.944661 0.042643
Si Si8 0.313058 0.607905 0.330505
O O1 0.500000 0.279403 0.251486
O O2 0.236052 0.249325 0.191389
O O3 0.223076 0.325468 0.295729
O O4 0.296901 0.155783 0.282768
O O5 0.767574 0.414081 0.655149
O O6 0.739348 0.549461 0.725914
O O7 0.739980 0.567806 0.607370
O O8 0.000000 0.530442 0.666231
O O9 0.500000 0.799795 0.638851
O O10 0.758885 0.800849 0.574929
O O11 0.722552 0.501565 0.331425
O O12 0.000000 0.449717 0.291652
O O13 0.500000 0.817800 0.940151
O O14 0.777109 0.844611 0.889547
O O15 0.736866 0.705673 0.963629
O O16 0.755926 0.870358 0.998148
O O17 0.247923 0.545330 0.021861
O O18 0.000000 0.652206 0.016564
O O19 0.500000 0.943118 0.044175
O O20 0.500000 0.623165 0.313194
#
# Coordination Sequence:
#
# PCOD9353128 Si02
#       8
#     8   8   8   8   8   8   8   8
#     4  11  22  39  62  92 125 161 205 254 307 366
#     4   8  14  30  57  87 120 157 193 238 294 357
#     4   8  15  31  58  87 121 159 194 242 302 359
#     4  11  22  38  63  93 125 162 203 249 308 370
#     4  11  23  39  61  88 119 157 202 254 308 365
#     4   9  18  36  60  87 119 158 200 242 294 361
#     4   8  17  34  58  86 118 156 196 237 292 359
#     4  12  26  45  63  84 119 164 215 264 309 361
#
# _framework density 22.495972999999999
#
# number of rings (size 3 to 8) (size 9 to 14) (size 15 to 20)
#    0.000    2.250    1.250    3.750    1.750    1.000 
#    0.000    5.625    0.000    0.000    0.000    0.000 
#    0.000    0.000    0.000    0.000    0.000    0.000 
#
# Total GULP energy -178736.599817 kJ/mol
# GULP energy per Si atom -5585.518744 kJ/mol
# Density = 2.244477 g / cm^3
# Si number density = 22.495973 Si / 1000 Ang^3
#
#
#
# Elastic Constant Matrix: (Units=GPa)
#
#
# Indices 1 2 3 4 5 6 
#
# 1 35.1715 1.0334 0.1192 0.0000 0.0000 0.0000
# 2 1.0334 51.3181 -2.0475 0.0000 0.0000 0.0000
# 3 0.1192 -2.0475 39.2282 0.0000 0.0000 0.0000
# 4 0.0000 0.0000 0.0000 32.0939 0.0000 0.0000
# 5 0.0000 0.0000 0.0000 0.0000 15.6658 0.0000
# 6 0.0000 0.0000 0.0000 0.0000 0.0000 21.5042
#
#
#
# Elastic Compliance Matrix: (Units=1/GPa)
#
#
# Indices 1 2 3 4 5 6 
#
# 1 0.028449 -0.000578 -0.000117 0.000000 0.000000 0.000000
# 2 -0.000578 0.019539 0.001022 0.000000 0.000000 0.000000
# 3 -0.000117 0.001022 0.025546 0.000000 0.000000 0.000000
# 4 0.000000 0.000000 0.000000 0.031159 0.000000 0.000000
# 5 0.000000 0.000000 0.000000 0.000000 0.063833 0.000000
# 6 0.000000 0.000000 0.000000 0.000000 0.000000 0.046503
#
#
# Mechanical properties :
#
#
# Convention : Reuss Voigt Hill
#
# Bulk Modulus (GPa) = 13.47915 13.76977 13.62446
# Shear Modulus (GPa) = 20.91152 22.29363 21.60258
#
# Velocity S-wave (km/s) = 3.05219 3.15144 3.10221
# Velocity P-wave (km/s) = 4.29255 4.40186 4.34755
#
# Compressibility (1/GPa) = 0.07418863
#
# Stress axis : x y z
#
# Youngs Moduli (GPa) = 35.15005 51.18054 39.14574
#
# Poissons Ratio (x) = 0.02956 0.00456
# Poissons Ratio (y) = 0.02030 -0.03999
# Poissons Ratio (z) = 0.00410 -0.05229
#
# Static dielectric constant tensor:
#      x y z
#    x 1.787930 0.000000 0.000000 
#    y 0.000000 1.848240 0.000000 
#    z 0.000000 0.000000 1.841300 
# 
# From -- ./inp_files/16532.got.cif
#   From: 2010.05.17/outbox.cif.g08.bks.cpg/sg36_9_cif.got.tgz:16532.got - 2010.06.03 17:41:39.
