data_PCOD9353631
_publ_section_title
;
Structure prediction by ZEFSAII (Michael W. Deem and Ramdas Pophale) SiO2 
 PCOD9353631
Probable space group: C C C 2
;
_chemical_formula_sum "Si O2"
_cell_formula_units_Z 48
_cell_length_a 11.855789
_cell_length_b 10.048891
_cell_length_c 20.810751
_cell_angle_alpha 90.000000
_cell_angle_beta 90.000000
_cell_angle_gamma 90.000000
_cell_volume 2479.341500
_symmetry_space_group_name_H-M "C C C 2"
_symmetry_group_IT_number 37
_symmetry_cell_setting 'orthorhombic'
loop_
_space_group_symop_operation_xyz
x,y,z
-x,-y,z
-x,y,1/2+z
x,-y,1/2+z
1/2+x,1/2+y,z
1/2-x,1/2-y,z
1/2-x,1/2+y,1/2+z
1/2+x,1/2-y,1/2+z
loop_
_atom_site_type_symbol
_atom_site_label
_atom_site_fract_x
_atom_site_fract_y
_atom_site_fract_z
Si Si1 0.000000 0.500000 0.133541
Si Si2 0.223014 0.406613 0.563508
Si Si3 0.000000 0.500000 0.843709
Si Si4 0.029660 0.293181 0.238364
Si Si5 0.669258 0.621800 0.688314
Si Si6 0.277423 0.091658 0.418716
Si Si7 0.372731 0.444574 0.302025
O O1 0.097690 0.567292 0.091216
O O2 0.940134 0.604473 0.181956
O O3 0.250000 0.250000 0.557261
O O4 0.309066 0.449008 0.620179
O O5 0.232353 0.461418 0.491578
O O6 0.968316 0.619994 0.794176
O O7 0.898170 0.446934 0.887934
O O8 0.952812 0.184175 0.201940
O O9 0.120295 0.207294 0.277310
O O10 0.750000 0.750000 0.690883
O O11 0.692392 0.524712 0.747041
O O12 0.250000 0.250000 0.419708
O O13 0.186061 0.035407 0.369584
O O14 0.500000 0.500000 0.306631
#
# Coordination Sequence:
#
# PCOD9353631 Si02
#       7
#     4   8   4   8   8   8   8
#     4  11  19  36  62  86 122 158 208 260 308 386
#     4  10  21  36  58  87 121 166 205 254 315 370
#     4  11  21  36  62  92 122 162 206 266 312 372
#     4  10  20  34  57  92 115 155 211 256 311 362
#     4  10  18  37  59  82 118 160 204 253 312 365
#     4  11  22  38  60  89 127 163 210 256 310 379
#     4  10  22  38  60  89 125 160 205 267 310 368
#
# _framework density 19.35998
#
# number of rings (size 3 to 8) (size 9 to 14) (size 15 to 20)
#    0.000    1.667    5.000    1.500    2.333    0.000 
#    0.000    2.500    0.000    4.000    0.000    0.000 
#    0.000    0.000    0.000    0.000    0.000    0.000 
#
# Total GULP energy -133695.035662 kJ/mol
# GULP energy per Si atom -5570.626486 kJ/mol
# Density = 1.931592 g / cm^3
# Si number density = 19.359980 Si / 1000 Ang^3
#
#
#
# Elastic Constant Matrix: (Units=GPa)
#
#
# Indices 1 2 3 4 5 6 
#
# 1 93.4970 21.9148 62.2864 0.0000 0.0000 0.0000
# 2 21.9148 60.6889 40.3620 0.0000 0.0000 0.0000
# 3 62.2864 40.3620 209.3465 0.0000 0.0000 0.0000
# 4 0.0000 0.0000 0.0000 26.2789 0.0000 0.0000
# 5 0.0000 0.0000 0.0000 0.0000 19.3876 0.0000
# 6 0.0000 0.0000 0.0000 0.0000 0.0000 25.8021
#
#
#
# Elastic Compliance Matrix: (Units=1/GPa)
#
#
# Indices 1 2 3 4 5 6 
#
# 1 0.013678 -0.002561 -0.003576 0.000000 0.000000 0.000000
# 2 -0.002561 0.019381 -0.002975 0.000000 0.000000 0.000000
# 3 -0.003576 -0.002975 0.006414 0.000000 0.000000 0.000000
# 4 0.000000 0.000000 0.000000 0.038053 0.000000 0.000000
# 5 0.000000 0.000000 0.000000 0.000000 0.051579 0.000000
# 6 0.000000 0.000000 0.000000 0.000000 0.000000 0.038756
#
#
# Mechanical properties :
#
#
# Convention : Reuss Voigt Hill
#
# Bulk Modulus (GPa) = 47.05905 68.07319 57.56612
# Shear Modulus (GPa) = 25.88421 30.22501 28.05461
#
# Velocity S-wave (km/s) = 3.66046 3.95550 3.81084
# Velocity P-wave (km/s) = 6.49811 7.48996 7.01160
#
# Compressibility (1/GPa) = 0.02124990
#
# Stress axis : x y z
#
# Youngs Moduli (GPa) = 73.11038 51.59809 155.90460
#
# Poissons Ratio (x) = 0.13214 0.55749
# Poissons Ratio (y) = 0.18723 0.46376
# Poissons Ratio (z) = 0.26143 0.15348
#
# Static dielectric constant tensor:
#      x y z
#    x 1.711210 0.000000 0.000000 
#    y 0.000000 1.715280 0.000000 
#    z 0.000000 0.000000 1.703100 
# 
# From -- ./inp_files/16836.got.cif
#   From: 2010.05.17/outbox.cif.g08.bks.cpg/sg37_9_cif.got.tgz:16836.got - 2010.06.03 17:53:42.
