data_PCOD9353740
_publ_section_title
;
Structure prediction by ZEFSAII (Michael W. Deem and Ramdas Pophale) SiO2 
 PCOD9353740
Probable space group: C C C 2
;
_chemical_formula_sum "Si O2"
_cell_formula_units_Z 40
_cell_length_a 8.123545
_cell_length_b 23.690405
_cell_length_c 8.845143
_cell_angle_alpha 90.000000
_cell_angle_beta 90.000000
_cell_angle_gamma 90.000000
_cell_volume 1702.248399
_symmetry_space_group_name_H-M "C C C 2"
_symmetry_group_IT_number 37
_symmetry_cell_setting 'orthorhombic'
loop_
_space_group_symop_operation_xyz
x,y,z
-x,-y,z
-x,y,1/2+z
x,-y,1/2+z
1/2+x,1/2+y,z
1/2-x,1/2-y,z
1/2-x,1/2+y,1/2+z
1/2+x,1/2-y,1/2+z
loop_
_atom_site_type_symbol
_atom_site_label
_atom_site_fract_x
_atom_site_fract_y
_atom_site_fract_z
Si Si1 0.653469 0.565419 0.205030
Si Si2 0.187878 0.660568 0.143291
Si Si3 0.008990 0.730151 0.394342
Si Si4 0.291275 0.454891 0.562863
Si Si5 0.422237 0.687642 0.642266
O O1 0.676222 0.553667 0.383717
O O2 0.752281 0.518929 0.108002
O O3 0.463285 0.556225 0.152920
O O4 0.683341 0.631189 0.166711
O O5 0.113051 0.686496 0.294796
O O6 0.168747 0.593639 0.119787
O O7 0.383218 0.671911 0.137559
O O8 0.101425 0.694868 0.009475
O O9 0.104137 0.777676 0.490814
O O10 0.909632 0.768955 0.278133
#
# Coordination Sequence:
#
# PCOD9353740 Si02
#       5
#     8   8   8   8   8
#     4  10  19  34  60  87 118 153 195 256 303 353
#     4  10  22  39  58  86 123 159 197 248 298 363
#     4  10  19  36  58  84 123 157 189 235 300 372
#     4  10  20  37  59  89 121 152 199 252 310 353
#     4  10  20  36  56  87 122 151 195 253 303 353
#
# _framework density 23.498332999999999
#
# number of rings (size 3 to 8) (size 9 to 14) (size 15 to 20)
#    0.000    2.000    0.000    7.200    0.000    1.600 
#    0.000   36.000    0.000    3.600    0.000    0.000 
#    0.000    0.000    0.000    0.000    0.000    0.000 
#
# Total GULP energy -111850.070849 kJ/mol
# GULP energy per Si atom -5592.503542 kJ/mol
# Density = 2.344485 g / cm^3
# Si number density = 23.498333 Si / 1000 Ang^3
#
#
#
# Elastic Constant Matrix: (Units=GPa)
#
#
# Indices 1 2 3 4 5 6 
#
# 1 47.5811 57.2289 40.3808 0.0000 0.0000 0.0000
# 2 57.2289 225.3655 98.7193 0.0000 0.0000 0.0000
# 3 40.3808 98.7193 194.1554 0.0000 0.0000 0.0000
# 4 0.0000 0.0000 0.0000 30.3572 0.0000 0.0000
# 5 0.0000 0.0000 0.0000 0.0000 19.7164 0.0000
# 6 0.0000 0.0000 0.0000 0.0000 0.0000 32.2379
#
#
#
# Elastic Compliance Matrix: (Units=1/GPa)
#
#
# Indices 1 2 3 4 5 6 
#
# 1 0.031751 -0.006652 -0.003222 0.000000 0.000000 0.000000
# 2 -0.006652 0.007102 -0.002228 0.000000 0.000000 0.000000
# 3 -0.003222 -0.002228 0.006953 0.000000 0.000000 0.000000
# 4 0.000000 0.000000 0.000000 0.032941 0.000000 0.000000
# 5 0.000000 0.000000 0.000000 0.000000 0.050719 0.000000
# 6 0.000000 0.000000 0.000000 0.000000 0.000000 0.031019
#
#
# Mechanical properties :
#
#
# Convention : Reuss Voigt Hill
#
# Bulk Modulus (GPa) = 46.28631 95.52888 70.90759
# Shear Modulus (GPa) = 26.05664 34.51385 30.28524
#
# Velocity S-wave (km/s) = 3.33359 3.83662 3.59392
# Velocity P-wave (km/s) = 5.87856 7.76968 6.88932
#
# Compressibility (1/GPa) = 0.02160466
#
# Stress axis : x y z
#
# Youngs Moduli (GPa) = 31.49492 140.80210 143.81788
#
# Poissons Ratio (x) = 0.93656 0.46332
# Poissons Ratio (y) = 0.20949 0.32039
# Poissons Ratio (z) = 0.10146 0.31367
#
# Static dielectric constant tensor:
#      x y z
#    x 1.911380 0.000000 0.000000 
#    y 0.000000 1.977760 0.000000 
#    z 0.000000 0.000000 1.855300 
# 
# From -- ./inp_files/2221.got.cif
#   From: 2010.05.17/outbox.cif.g08.bks.cpg/sg37_2_cif.got.tgz:2221.got - 2010.06.03 17:53:42.
