data_PCOD9353909
_publ_section_title
;
Structure prediction by ZEFSAII (Michael W. Deem and Ramdas Pophale) SiO2 
 PCOD9353909
Probable space group: C C C 2
;
_chemical_formula_sum "Si O2"
_cell_formula_units_Z 64
_cell_length_a 17.884474
_cell_length_b 20.691810
_cell_length_c 9.021703
_cell_angle_alpha 90.000000
_cell_angle_beta 90.000000
_cell_angle_gamma 90.000000
_cell_volume 3338.590700
_symmetry_space_group_name_H-M "C C C 2"
_symmetry_group_IT_number 37
_symmetry_cell_setting 'orthorhombic'
loop_
_space_group_symop_operation_xyz
x,y,z
-x,-y,z
-x,y,1/2+z
x,-y,1/2+z
1/2+x,1/2+y,z
1/2-x,1/2-y,z
1/2-x,1/2+y,1/2+z
1/2+x,1/2-y,1/2+z
loop_
_atom_site_type_symbol
_atom_site_label
_atom_site_fract_x
_atom_site_fract_y
_atom_site_fract_z
Si Si1 0.371356 0.591113 0.209840
Si Si2 0.156684 0.508481 0.918527
Si Si3 0.416381 0.475077 0.013280
Si Si4 0.440031 0.174299 0.673772
Si Si5 0.443058 0.941523 0.664141
Si Si6 0.010858 0.236798 0.423574
Si Si7 0.534211 0.351584 0.673630
Si Si8 0.710142 0.092564 0.186121
O O1 0.374598 0.535067 0.085810
O O2 0.381061 0.556316 0.368444
O O3 0.445269 0.633948 0.188145
O O4 0.291220 0.624832 0.197803
O O5 0.110137 0.554766 0.807499
O O6 0.204401 0.461287 0.815309
O O7 0.102844 0.462171 0.017727
O O8 0.200250 0.553095 0.033541
O O9 0.500000 0.500000 0.974063
O O10 0.426697 0.418855 0.136341
O O11 0.507097 0.122271 0.651639
O O12 0.438858 0.218236 0.527203
O O13 0.464010 0.218944 0.811279
O O14 0.362052 0.138207 0.698893
O O15 0.500000 0.000000 0.688781
O O16 0.958233 0.196269 0.534620
O O17 0.055474 0.185102 0.323415
#
# Coordination Sequence:
#
# PCOD9353909 Si02
#       8
#     8   8   8   8   8   8   8   8
#     4  11  22  36  60  95 117 151 180 230 311 375
#     4  10  20  32  51  82 123 151 188 229 294 350
#     4  10  20  36  64  94 117 142 191 242 304 346
#     4  11  21  34  57  83 115 153 198 248 279 335
#     4  11  19  31  57  80 110 150 204 249 295 320
#     4  10  22  37  57  86 106 148 211 244 278 318
#     4  10  20  40  63  84 112 146 192 262 282 328
#     4  11  22  35  52  87 127 156 179 227 298 376
#
# _framework density 19.169765000000002
#
# number of rings (size 3 to 8) (size 9 to 14) (size 15 to 20)
#    0.000    1.500    3.750    3.750    1.750    0.000 
#    0.000    2.500    0.000    0.000    6.500    0.000 
#    0.000    0.000    0.000    0.000    0.000    0.000 
#
# Total GULP energy -178695.074233 kJ/mol
# GULP energy per Si atom -5584.221070 kJ/mol
# Density = 1.912613 g / cm^3
# Si number density = 19.169765 Si / 1000 Ang^3
#
#
#
# Elastic Constant Matrix: (Units=GPa)
#
#
# Indices 1 2 3 4 5 6 
#
# 1 75.4664 13.5696 17.5482 0.0000 0.0000 0.0000
# 2 13.5696 64.0460 15.9951 0.0000 0.0000 0.0000
# 3 17.5482 15.9951 100.8914 0.0000 0.0000 0.0000
# 4 0.0000 0.0000 0.0000 34.7388 0.0000 0.0000
# 5 0.0000 0.0000 0.0000 0.0000 -1.3425 0.0000
# 6 0.0000 0.0000 0.0000 0.0000 0.0000 6.0320
#
#
#
# Elastic Compliance Matrix: (Units=1/GPa)
#
#
# Indices 1 2 3 4 5 6 
#
# 1 0.014180 -0.002487 -0.002072 0.000000 0.000000 0.000000
# 2 -0.002487 0.016694 -0.002214 0.000000 0.000000 0.000000
# 3 -0.002072 -0.002214 0.010623 0.000000 0.000000 0.000000
# 4 0.000000 0.000000 0.000000 0.028786 0.000000 0.000000
# 5 0.000000 0.000000 0.000000 0.000000 -0.744861 0.000000
# 6 0.000000 0.000000 0.000000 0.000000 0.000000 0.165782
#
#
# Mechanical properties :
#
#
# Convention : Reuss Voigt Hill
#
# Bulk Modulus (GPa) = 35.77731 37.18107 36.47919
# Shear Modulus (GPa) = -10.28946 20.77171 5.24112
#
# Velocity S-wave (km/s) = -2.31931 3.29533 1.65529
# Velocity P-wave (km/s) = 3.39583 5.82381 4.76699
#
# Compressibility (1/GPa) = 0.02795067
#
# Stress axis : x y z
#
# Youngs Moduli (GPa) = 70.52233 59.90315 94.13490
#
# Poissons Ratio (x) = 0.14897 0.19506
# Poissons Ratio (y) = 0.17538 0.20842
# Poissons Ratio (z) = 0.14613 0.13263
#
# Static dielectric constant tensor:
#      x y z
#    x 1.717530 0.000000 0.000000 
#    y 0.000000 1.669630 0.000000 
#    z 0.000000 0.000000 1.703470 
# 
# From -- ./inp_files/4155.got.cif
#   From: 2010.05.17/outbox.cif.g08.bks.cpg/sg37_3_cif.got.tgz:4155.got - 2010.06.03 17:53:42.
