data_PCOD9353389
_publ_section_title
;
Structure prediction by ZEFSAII (Michael W. Deem and Ramdas Pophale) SiO2 
 PCOD9353389
Probable space group: C M C 21
;
_chemical_formula_sum "Si O2"
_cell_formula_units_Z 32
_cell_length_a 9.000000
_cell_length_b 21.000000
_cell_length_c 18.000000
_cell_angle_alpha 90.000000
_cell_angle_beta 90.000000
_cell_angle_gamma 90.000000
_cell_volume 3402.000000
_symmetry_space_group_name_H-M "C M C 21"
_symmetry_group_IT_number 36
_symmetry_cell_setting 'orthorhombic'
loop_
_space_group_symop_operation_xyz
x,y,z
-x,-y,1/2+z
x,-y,1/2+z
-x,y,z
1/2+x,1/2+y,z
1/2-x,1/2-y,1/2+z
1/2+x,1/2-y,1/2+z
1/2-x,1/2+y,z
loop_
_atom_site_type_symbol
_atom_site_label
_atom_site_fract_x
_atom_site_fract_y
_atom_site_fract_z
Si Si1 0.320721 0.551956 0.970680
Si Si2 0.321214 0.068534 0.541772
Si Si3 0.178706 0.798342 0.494968
Si Si4 0.679468 0.132051 0.700084
Si Si5 0.675328 0.326661 0.933501
Si Si6 0.179763 0.521175 0.811949
Si Si7 0.680373 0.726191 0.167253
Si Si8 0.323878 0.388634 0.770974
O O1 0.500000 0.547017 0.971784
O O2 0.254665 0.528732 0.892212
O O3 0.252364 0.500608 0.028219
O O4 0.282031 0.626981 0.982245
O O5 0.500000 0.063511 0.534031
O O6 0.285737 0.097354 0.622523
O O7 0.259000 0.121050 0.484098
O O8 0.257732 0.744101 0.445446
O O9 0.214777 0.779870 0.580176
O O10 0.000000 0.793029 0.485184
O O11 0.500000 0.135999 0.704346
O O12 0.734050 0.205381 0.698780
O O13 0.725463 0.083817 0.764971
O O14 0.500000 0.325697 0.952290
O O15 0.689636 0.352027 0.849552
O O16 0.237292 0.455423 0.775333
O O17 0.000000 0.519320 0.817733
O O18 0.500000 0.726501 0.173813
O O19 0.730201 0.662668 0.210142
O O20 0.500000 0.401902 0.758717
#
# Coordination Sequence:
#
# PCOD9353389 Si02
#       8
#     8   8   8   8   8   8   8   8
#     4  11  24  40  59  90 124 156 201 251 296 355
#     4  11  21  39  65  87 115 157 199 247 300 354
#     4  10  22  40  63  86 117 159 201 244 299 360
#     4   9  20  37  61  88 115 150 201 246 290 355
#     4  11  22  37  60  90 120 151 196 248 296 354
#     4  11  23  39  61  87 118 160 200 244 297 355
#     4   9  18  38  62  84 112 153 197 240 295 354
#     4  10  22  38  61  86 117 156 195 246 301 355
#
# _framework density 9.4062319999999993
#
# number of rings (size 3 to 8) (size 9 to 14) (size 15 to 20)
#    0.000    1.750    2.500    1.500    3.500    1.500 
#    0.000    2.500    0.000    0.000    0.000    0.000 
#    0.000    0.000    0.000    0.000    0.000    0.000 
#
# Total GULP energy -178663.801801 kJ/mol
# GULP energy per Si atom -5583.243806 kJ/mol
# Density = 0.938482 g / cm^3
# Si number density = 9.406232 Si / 1000 Ang^3
#
#
#
# Elastic Constant Matrix: (Units=GPa)
#
#
# Indices 1 2 3 4 5 6 
#
# 1 54.2992 29.0834 5.0260 0.0000 0.0000 0.0000
# 2 29.0834 157.1019 8.8820 0.0000 0.0000 0.0000
# 3 5.0260 8.8820 29.1565 0.0000 0.0000 0.0000
# 4 0.0000 0.0000 0.0000 41.2839 0.0000 0.0000
# 5 0.0000 0.0000 0.0000 0.0000 14.2649 0.0000
# 6 0.0000 0.0000 0.0000 0.0000 0.0000 33.7967
#
#
#
# Elastic Compliance Matrix: (Units=1/GPa)
#
#
# Indices 1 2 3 4 5 6 
#
# 1 0.020612 -0.003678 -0.002433 0.000000 0.000000 0.000000
# 2 -0.003678 0.007133 -0.001539 0.000000 0.000000 0.000000
# 3 -0.002433 -0.001539 0.035186 0.000000 0.000000 0.000000
# 4 0.000000 0.000000 0.000000 0.024223 0.000000 0.000000
# 5 0.000000 0.000000 0.000000 0.000000 0.070102 0.000000
# 6 0.000000 0.000000 0.000000 0.000000 0.000000 0.029589
#
#
# Mechanical properties :
#
#
# Convention : Reuss Voigt Hill
#
# Bulk Modulus (GPa) = 20.99460 36.28227 28.63844
# Shear Modulus (GPa) = 22.93362 31.04018 26.98690
#
# Velocity S-wave (km/s) = 3.49530 4.06640 3.79162
# Velocity P-wave (km/s) = 5.24153 6.43239 5.86725
#
# Compressibility (1/GPa) = 0.04763129
#
# Stress axis : x y z
#
# Youngs Moduli (GPa) = 48.51610 140.18899 28.42059
#
# Poissons Ratio (x) = 0.51564 0.06913
# Poissons Ratio (y) = 0.17845 0.04374
# Poissons Ratio (z) = 0.11802 0.21575
#
# Static dielectric constant tensor:
#      x y z
#    x 1.632130 0.000000 0.000000 
#    y 0.000000 1.644460 0.000000 
#    z 0.000000 0.000000 1.672160 
# 
# From -- ./inp_files/13931.got.cif
#   From: 2010.05.17/outbox.ucp.g08.bks.cvg/sg36_7_cif.got.tgz:13931.got - 2010.06.11 10:37:26.
