data_PCOD9353542
_publ_section_title
;
Structure prediction by ZEFSAII (Michael W. Deem and Ramdas Pophale) SiO2 
 PCOD9353542
Probable space group: C C C 2
;
_chemical_formula_sum "Si O2"
_cell_formula_units_Z 64
_cell_length_a 9.849554
_cell_length_b 22.772887
_cell_length_c 11.686442
_cell_angle_alpha 90.000000
_cell_angle_beta 90.000000
_cell_angle_gamma 90.000000
_cell_volume 2621.301432
_symmetry_space_group_name_H-M "C C C 2"
_symmetry_group_IT_number 37
_symmetry_cell_setting 'orthorhombic'
loop_
_space_group_symop_operation_xyz
x,y,z
-x,-y,z
-x,y,1/2+z
x,-y,1/2+z
1/2+x,1/2+y,z
1/2-x,1/2-y,z
1/2-x,1/2+y,1/2+z
1/2+x,1/2-y,1/2+z
loop_
_atom_site_type_symbol
_atom_site_label
_atom_site_fract_x
_atom_site_fract_y
_atom_site_fract_z
Si Si1 0.907123 0.797452 0.849770
Si Si2 0.665315 0.504727 0.596467
Si Si3 0.345489 0.636296 0.139376
Si Si4 0.198044 0.163820 0.395730
Si Si5 0.153220 0.973797 0.847884
Si Si6 0.073235 0.675850 0.622016
Si Si7 0.512400 0.170365 0.362413
Si Si8 0.115719 0.816118 0.606812
O O1 0.070966 0.806190 0.833711
O O2 0.896719 0.728365 0.856679
O O3 0.822266 0.831134 0.756200
O O4 0.872658 0.823671 0.970881
O O5 0.500000 0.500000 0.589731
O O6 0.707610 0.571918 0.622455
O O7 0.710493 0.476165 0.717589
O O8 0.710834 0.493000 0.463548
O O9 0.509567 0.633947 0.139778
O O10 0.313040 0.675975 0.031121
O O11 0.166374 0.094532 0.381173
O O12 0.350532 0.181403 0.369989
O O13 0.000000 0.000000 0.837651
O O14 0.987367 0.648323 0.728076
O O15 0.059366 0.748339 0.619323
O O16 0.233637 0.671462 0.648588
O O17 0.042800 0.649386 0.494697
#
# Coordination Sequence:
#
# PCOD9353542 Si02
#       8
#     8   8   8   8   8   8   8   8
#     4  10  18  31  50  75 107 144 191 233 280 328
#     4   9  17  28  47  73 109 139 164 210 278 342
#     4  10  18  32  52  78 109 144 187 233 279 347
#     4  10  21  32  52  80 114 148 188 230 286 352
#     4   9  17  31  48  76 112 141 166 215 282 348
#     4  10  21  36  52  71 104 148 197 236 272 321
#     4  11  22  36  53  75 108 155 198 234 276 332
#     4   9  19  33  49  73 105 142 186 241 284 322
#
# _framework density 24.415355000000002
#
# number of rings (size 3 to 8) (size 9 to 14) (size 15 to 20)
#    0.000    2.250    1.250    2.625    1.750    2.000 
#    0.000    0.000    0.000    0.000    0.000    0.000 
#    0.000  112.000    0.000    0.000    0.000    0.000 
#
# Total GULP energy -178165.481654 kJ/mol
# GULP energy per Si atom -5567.671302 kJ/mol
# Density = 2.435978 g / cm^3
# Si number density = 24.415355 Si / 1000 Ang^3
#
#
#
# Elastic Constant Matrix: (Units=GPa)
#
#
# Indices 1 2 3 4 5 6 
#
# 1 72.1637 5.6204 -7.6985 0.0000 0.0000 0.0000
# 2 5.6204 48.5128 5.4578 0.0000 0.0000 0.0000
# 3 -7.6985 5.4578 173.2265 0.0000 0.0000 0.0000
# 4 0.0000 0.0000 0.0000 19.2252 0.0000 0.0000
# 5 0.0000 0.0000 0.0000 0.0000 14.8213 0.0000
# 6 0.0000 0.0000 0.0000 0.0000 0.0000 5.9411
#
#
#
# Elastic Compliance Matrix: (Units=1/GPa)
#
#
# Indices 1 2 3 4 5 6 
#
# 1 0.014063 -0.001706 0.000679 0.000000 0.000000 0.000000
# 2 -0.001706 0.020893 -0.000734 0.000000 0.000000 0.000000
# 3 0.000679 -0.000734 0.005826 0.000000 0.000000 0.000000
# 4 0.000000 0.000000 0.000000 0.052015 0.000000 0.000000
# 5 0.000000 0.000000 0.000000 0.000000 0.067471 0.000000
# 6 0.000000 0.000000 0.000000 0.000000 0.000000 0.168319
#
#
# Mechanical properties :
#
#
# Convention : Reuss Voigt Hill
#
# Bulk Modulus (GPa) = 26.83834 33.40694 30.12264
# Shear Modulus (GPa) = 14.51257 27.36573 20.93915
#
# Velocity S-wave (km/s) = 2.44068 3.35153 2.93170
# Velocity P-wave (km/s) = 4.35418 5.35625 4.88100
#
# Compressibility (1/GPa) = 0.03726013
#
# Stress axis : x y z
#
# Youngs Moduli (GPa) = 71.11047 47.86226 171.64203
#
# Poissons Ratio (x) = 0.08163 -0.11649
# Poissons Ratio (y) = 0.12128 0.12600
# Poissons Ratio (z) = -0.04826 0.03513
#
# Static dielectric constant tensor:
#      x y z
#    x 1.982850 0.000000 0.000000 
#    y 0.000000 1.920300 0.000000 
#    z 0.000000 0.000000 2.148540 
# 
# From -- ./inp_files/7437.got.cif
#   From: 2010.05.17/outbox.cif.g08.bks.cpg/sg37_4_cif.got.tgz:7437.got - 2010.06.03 17:53:42.
