data_PCOD9353989
_publ_section_title
;
Structure prediction by ZEFSAII (Michael W. Deem and Ramdas Pophale) SiO2 
 PCOD9353989
Probable space group: C C C 2
;
_chemical_formula_sum "Si O2"
_cell_formula_units_Z 60
_cell_length_a 14.165413
_cell_length_b 18.019259
_cell_length_c 12.038875
_cell_angle_alpha 90.000000
_cell_angle_beta 90.000000
_cell_angle_gamma 90.000000
_cell_volume 3072.925802
_symmetry_space_group_name_H-M "C C C 2"
_symmetry_group_IT_number 37
_symmetry_cell_setting 'orthorhombic'
loop_
_space_group_symop_operation_xyz
x,y,z
-x,-y,z
-x,y,1/2+z
x,-y,1/2+z
1/2+x,1/2+y,z
1/2-x,1/2-y,z
1/2-x,1/2+y,1/2+z
1/2+x,1/2-y,1/2+z
loop_
_atom_site_type_symbol
_atom_site_label
_atom_site_fract_x
_atom_site_fract_y
_atom_site_fract_z
Si Si1 0.014578 0.258087 0.991600
Si Si2 0.332075 0.812203 0.120118
Si Si3 0.179584 0.319483 0.872076
Si Si4 0.750000 0.250000 0.803737
Si Si5 0.820227 0.059426 0.449203
Si Si6 0.482139 0.621192 0.873191
Si Si7 0.383419 0.351867 0.156462
Si Si8 0.719589 0.608421 0.459799
O O1 0.097013 0.315736 0.963010
O O2 0.006595 0.208974 0.878962
O O3 0.050224 0.195546 0.076443
O O4 0.920352 0.292363 0.042048
O O5 0.250000 0.750000 0.114801
O O6 0.360729 0.818729 0.247728
O O7 0.276370 0.882987 0.073445
O O8 0.250000 0.250000 0.889063
O O9 0.248914 0.387643 0.885977
O O10 0.675330 0.287968 0.720449
O O11 0.762136 0.323659 0.883442
O O12 0.827174 0.091081 0.576380
O O13 0.927275 0.072229 0.403802
O O14 0.779992 0.977655 0.429005
O O15 0.440145 0.604911 0.752112
O O16 0.393738 0.619636 0.958702
#
# Coordination Sequence:
#
# PCOD9353989 Si02
#       8
#     8   8   8   4   8   8   8   8
#     4  11  20  38  62  93 125 167 212 263 310 386
#     4  11  22  37  64  90 119 166 208 257 311 378
#     4  11  22  39  64  93 128 163 210 261 318 378
#     4  10  20  40  62  88 126 174 220 258 318 400
#     4  11  24  39  62  95 133 168 214 274 321 378
#     4  10  20  36  59  92 132 168 204 260 325 394
#     4  10  20  35  63  91 125 173 210 262 320 389
#     4  11  22  41  61  90 128 168 216 265 322 383
#
# _framework density 19.525366000000002
#
# number of rings (size 3 to 8) (size 9 to 14) (size 15 to 20)
#    0.000    1.333    4.667    2.800    1.867    2.133 
#    0.000    6.000    0.000    1.600    0.000    0.000 
#    0.000    0.000    0.000    0.000    0.000    0.000 
#
# Total GULP energy -167007.906408 kJ/mol
# GULP energy per Si atom -5566.930214 kJ/mol
# Density = 1.948093 g / cm^3
# Si number density = 19.525366 Si / 1000 Ang^3
#
#
#
# Elastic Constant Matrix: (Units=GPa)
#
#
# Indices 1 2 3 4 5 6 
#
# 1 69.1939 36.7679 41.0725 0.0000 0.0000 0.0000
# 2 36.7679 126.4504 24.7517 0.0000 0.0000 0.0000
# 3 41.0725 24.7517 90.4578 0.0000 0.0000 0.0000
# 4 0.0000 0.0000 0.0000 -2.4892 0.0000 0.0000
# 5 0.0000 0.0000 0.0000 0.0000 14.2170 0.0000
# 6 0.0000 0.0000 0.0000 0.0000 0.0000 25.1353
#
#
#
# Elastic Compliance Matrix: (Units=1/GPa)
#
#
# Indices 1 2 3 4 5 6 
#
# 1 0.022173 -0.004730 -0.008774 0.000000 0.000000 0.000000
# 2 -0.004730 0.009365 -0.000415 0.000000 0.000000 0.000000
# 3 -0.008774 -0.000415 0.015152 0.000000 0.000000 0.000000
# 4 0.000000 0.000000 0.000000 -0.401733 0.000000 0.000000
# 5 0.000000 0.000000 0.000000 0.000000 0.070338 0.000000
# 6 0.000000 0.000000 0.000000 0.000000 0.000000 0.039785
#
#
# Mechanical properties :
#
#
# Convention : Reuss Voigt Hill
#
# Bulk Modulus (GPa) = 53.04071 54.58735 53.81403
# Shear Modulus (GPa) = -23.71936 19.60660 -2.05638
#
# Velocity S-wave (km/s) = -3.48918 3.17229 -1.02736
# Velocity P-wave (km/s) = 3.31535 6.43706 5.11992
#
# Compressibility (1/GPa) = 0.01885344
#
# Stress axis : x y z
#
# Youngs Moduli (GPa) = 45.09903 106.78320 65.99767
#
# Poissons Ratio (x) = 0.50508 0.57904
# Poissons Ratio (y) = 0.21332 0.02738
# Poissons Ratio (z) = 0.39568 0.04429
#
# Static dielectric constant tensor:
#      x y z
#    x 1.751840 0.000000 0.000000 
#    y 0.000000 1.801350 0.000000 
#    z 0.000000 0.000000 1.770570 
# 
# From -- ./inp_files/7967.got.cif
#   From: 2010.05.17/outbox.cif.g08.bks.cpg/sg37_4_cif.got.tgz:7967.got - 2010.06.03 17:53:42.
