data_PCOD9353117
_publ_section_title
;
Structure prediction by ZEFSAII (Michael W. Deem and Ramdas Pophale) SiO2 
 PCOD9353117
Probable space group: C M C 21
;
_chemical_formula_sum "Si O2"
_cell_formula_units_Z 40
_cell_length_a 14.717244
_cell_length_b 7.424878
_cell_length_c 14.994977
_cell_angle_alpha 90.000000
_cell_angle_beta 90.000000
_cell_angle_gamma 90.000000
_cell_volume 1638.557236
_symmetry_space_group_name_H-M "C M C 21"
_symmetry_group_IT_number 36
_symmetry_cell_setting 'orthorhombic'
loop_
_space_group_symop_operation_xyz
x,y,z
-x,-y,1/2+z
x,-y,1/2+z
-x,y,z
1/2+x,1/2+y,z
1/2-x,1/2-y,1/2+z
1/2+x,1/2-y,1/2+z
1/2-x,1/2+y,z
loop_
_atom_site_type_symbol
_atom_site_label
_atom_site_fract_x
_atom_site_fract_y
_atom_site_fract_z
Si Si1 0.640106 0.976783 0.488850
Si Si2 0.403643 0.738750 0.135242
Si Si3 0.748784 0.131648 0.728646
Si Si4 0.162999 0.082101 0.534957
Si Si5 0.395346 0.155091 0.305659
O O1 0.608942 0.077318 0.578981
O O2 0.748824 0.008204 0.483894
O O3 0.599103 0.076450 0.404626
O O4 0.623352 0.763239 0.493018
O O5 0.500000 0.738231 0.181588
O O6 0.324339 0.706604 0.206831
O O7 0.399445 0.585071 0.059665
O O8 0.797964 0.135408 0.632408
O O9 0.829491 0.170760 0.798018
O O10 0.671829 0.986026 0.755235
O O11 0.500000 0.177964 0.272217
#
# Coordination Sequence:
#
# PCOD9353117 Si02
#       5
#     8   8   8   8   8
#     4  11  22  42  68  99 135 179 228 283 341 409
#     4  11  23  41  69 102 134 179 235 285 338 407
#     4  11  22  45  68  96 138 179 228 287 337 410
#     4  11  21  42  72  95 133 182 230 283 337 401
#     4  12  26  44  69 102 142 185 221 282 359 411
#
# _framework density 24.411719000000002
#
# number of rings (size 3 to 8) (size 9 to 14) (size 15 to 20)
#    0.000    0.800    6.000    3.600    0.000    2.400 
#    0.000    0.000    0.000    0.000    0.000    0.000 
#    0.000    0.000    0.000    0.000    0.000    0.000 
#
# Total GULP energy -111540.658166 kJ/mol
# GULP energy per Si atom -5577.032908 kJ/mol
# Density = 2.435616 g / cm^3
# Si number density = 24.411719 Si / 1000 Ang^3
#
#
#
# Elastic Constant Matrix: (Units=GPa)
#
#
# Indices 1 2 3 4 5 6 
#
# 1 192.3795 13.3775 22.9213 0.0000 0.0000 0.0000
# 2 13.3775 81.3947 -9.5593 0.0000 0.0000 0.0000
# 3 22.9213 -9.5593 64.4797 0.0000 0.0000 0.0000
# 4 0.0000 0.0000 0.0000 32.2024 0.0000 0.0000
# 5 0.0000 0.0000 0.0000 0.0000 27.7044 0.0000
# 6 0.0000 0.0000 0.0000 0.0000 0.0000 7.9712
#
#
#
# Elastic Compliance Matrix: (Units=1/GPa)
#
#
# Indices 1 2 3 4 5 6 
#
# 1 0.005534 -0.001161 -0.002139 0.000000 0.000000 0.000000
# 2 -0.001161 0.012747 0.002302 0.000000 0.000000 0.000000
# 3 -0.002139 0.002302 0.016611 0.000000 0.000000 0.000000
# 4 0.000000 0.000000 0.000000 0.031054 0.000000 0.000000
# 5 0.000000 0.000000 0.000000 0.000000 0.036095 0.000000
# 6 0.000000 0.000000 0.000000 0.000000 0.000000 0.125452
#
#
# Mechanical properties :
#
#
# Convention : Reuss Voigt Hill
#
# Bulk Modulus (GPa) = 30.39868 43.52588 36.96228
# Shear Modulus (GPa) = 20.79409 34.34321 27.56865
#
# Velocity S-wave (km/s) = 2.92174 3.75485 3.36418
# Velocity P-wave (km/s) = 4.88484 6.05534 5.50131
#
# Compressibility (1/GPa) = 0.03289616
#
# Stress axis : x y z
#
# Youngs Moduli (GPa) = 180.71267 78.44992 60.20277
#
# Poissons Ratio (x) = 0.09106 0.12878
# Poissons Ratio (y) = 0.20976 -0.13861
# Poissons Ratio (z) = 0.38658 -0.18062
#
# Static dielectric constant tensor:
#      x y z
#    x 1.993380 0.000000 0.000000 
#    y 0.000000 2.190750 0.000000 
#    z 0.000000 0.000000 1.943290 
# 
# From -- ./inp_files/11953.got.cif
#   From: 2010.05.17/outbox.cif.g08.bks.cpg/sg36_6_cif.got.tgz:11953.got - 2010.06.03 17:41:39.
