data_PCOD9353424
_publ_section_title
;
Structure prediction by ZEFSAII (Michael W. Deem and Ramdas Pophale) SiO2 
 PCOD9353424
Probable space group: C C C 2
;
_chemical_formula_sum "Si O2"
_cell_formula_units_Z 36
_cell_length_a 18.529179
_cell_length_b 7.430572
_cell_length_c 9.504758
_cell_angle_alpha 90.000000
_cell_angle_beta 90.000000
_cell_angle_gamma 90.000000
_cell_volume 1308.637880
_symmetry_space_group_name_H-M "C C C 2"
_symmetry_group_IT_number 37
_symmetry_cell_setting 'orthorhombic'
loop_
_space_group_symop_operation_xyz
x,y,z
-x,-y,z
-x,y,1/2+z
x,-y,1/2+z
1/2+x,1/2+y,z
1/2-x,1/2-y,z
1/2-x,1/2+y,1/2+z
1/2+x,1/2-y,1/2+z
loop_
_atom_site_type_symbol
_atom_site_label
_atom_site_fract_x
_atom_site_fract_y
_atom_site_fract_z
Si Si1 0.650313 0.392337 0.164530
Si Si2 0.000000 0.000000 0.414530
Si Si3 0.658130 0.172380 0.664530
Si Si4 0.250000 0.750000 0.915945
Si Si5 0.515729 0.738898 0.164530
Si Si6 0.750000 0.750000 0.913115
O O1 0.655682 0.608727 0.164530
O O2 0.570595 0.298219 0.164530
O O3 0.690833 0.329915 0.305939
O O4 0.690833 0.329915 0.023121
O O5 0.037673 0.136046 0.308449
O O6 0.962327 0.136046 0.520611
O O7 0.703231 0.129682 0.804249
O O8 0.574936 0.101652 0.664530
O O9 0.703231 0.129682 0.524811
#
# Coordination Sequence:
#
# PCOD9353424 Si02
#       6
#     8   4   8   4   8   4
#     4  11  20  37  55  81 116 143 176 232 272 331
#     4  10  16  26  44  90  96 130 162 200 292 354
#     4  11  20  37  55  81 116 143 176 232 272 331
#     4  10  24  32  50  86 112 150 184 200 288 344
#     4  11  20  30  58  84 107 136 179 222 306 324
#     4  10  24  32  50  86 112 150 184 200 288 344
#
# _framework density 27.509520999999999
#
# number of rings (size 3 to 8) (size 9 to 14) (size 15 to 20)
#    0.000    1.333    4.444    4.000    0.000    0.000 
#    0.000    0.000    0.000    0.000    0.000  108.889 
#    0.000    0.000    0.000    0.000    0.000    0.000 
#
# Total GULP energy -100291.845050 kJ/mol
# GULP energy per Si atom -5571.769169 kJ/mol
# Density = 2.744691 g / cm^3
# Si number density = 27.509521 Si / 1000 Ang^3
#
#
#
# Elastic Constant Matrix: (Units=GPa)
#
#
# Indices 1 2 3 4 5 6 
#
# 1 284.6645 28.1576 88.1183 0.0000 0.0000 0.0000
# 2 28.1576 82.4376 30.7718 0.0000 0.0000 0.0000
# 3 88.1183 30.7718 270.2512 0.0000 0.0000 0.0000
# 4 0.0000 0.0000 0.0000 30.0116 0.0000 0.0000
# 5 0.0000 0.0000 0.0000 0.0000 65.9424 0.0000
# 6 0.0000 0.0000 0.0000 0.0000 0.0000 18.2406
#
#
#
# Elastic Compliance Matrix: (Units=1/GPa)
#
#
# Indices 1 2 3 4 5 6 
#
# 1 0.003972 -0.000912 -0.001191 0.000000 0.000000 0.000000
# 2 -0.000912 0.012878 -0.001169 0.000000 0.000000 0.000000
# 3 -0.001191 -0.001169 0.004222 0.000000 0.000000 0.000000
# 4 0.000000 0.000000 0.000000 0.033320 0.000000 0.000000
# 5 0.000000 0.000000 0.000000 0.000000 0.015165 0.000000
# 6 0.000000 0.000000 0.000000 0.000000 0.000000 0.054823
#
#
# Mechanical properties :
#
#
# Convention : Reuss Voigt Hill
#
# Bulk Modulus (GPa) = 68.83518 103.49430 86.16474
# Shear Modulus (GPa) = 36.82784 55.52596 46.17690
#
# Velocity S-wave (km/s) = 3.66284 4.49756 4.10149
# Velocity P-wave (km/s) = 6.55478 8.04200 7.33617
#
# Compressibility (1/GPa) = 0.01452746
#
# Stress axis : x y z
#
# Youngs Moduli (GPa) = 251.77108 77.65038 236.86694
#
# Poissons Ratio (x) = 0.07082 0.28216
# Poissons Ratio (y) = 0.22961 0.27690
# Poissons Ratio (z) = 0.29992 0.09077
#
# Static dielectric constant tensor:
#      x y z
#    x 2.383120 0.000000 0.000000 
#    y 0.000000 2.307040 0.000000 
#    z 0.000000 0.000000 2.070090 
# 
# From -- ./inp_files/3314.got.cif
#   From: 2010.05.17/outbox.cif.g08.bks.cpg/sg37_2_cif.got.tgz:3314.got - 2010.06.03 17:53:42.
