data_PCOD9353136
_publ_section_title
;
Structure prediction by ZEFSAII (Michael W. Deem and Ramdas Pophale) SiO2 
 PCOD9353136
Probable space group: C M C 21
;
_chemical_formula_sum "Si O2"
_cell_formula_units_Z 36
_cell_length_a 13.247603
_cell_length_b 20.790531
_cell_length_c 5.021814
_cell_angle_alpha 90.000000
_cell_angle_beta 90.000000
_cell_angle_gamma 90.000000
_cell_volume 1383.131619
_symmetry_space_group_name_H-M "C M C 21"
_symmetry_group_IT_number 36
_symmetry_cell_setting 'orthorhombic'
loop_
_space_group_symop_operation_xyz
x,y,z
-x,-y,1/2+z
x,-y,1/2+z
-x,y,z
1/2+x,1/2+y,z
1/2-x,1/2-y,1/2+z
1/2+x,1/2-y,1/2+z
1/2-x,1/2+y,z
loop_
_atom_site_type_symbol
_atom_site_label
_atom_site_fract_x
_atom_site_fract_y
_atom_site_fract_z
Si Si1 0.500000 0.538124 0.688441
Si Si2 0.826413 0.096757 0.026792
Si Si3 0.684380 0.835531 0.137505
Si Si4 0.391424 0.711409 0.387520
Si Si5 0.342198 0.957826 0.814351
O O1 0.500000 0.526856 0.373264
O O2 0.401669 0.572557 0.801625
O O3 0.725969 0.120730 0.876324
O O4 0.880671 0.155172 0.172028
O O5 0.779082 0.048508 0.246766
O O6 0.787472 0.798619 0.047905
O O7 0.638711 0.884752 0.919496
O O8 0.613345 0.780200 0.245395
O O9 0.500000 0.704854 0.528932
O O10 0.376273 0.994872 0.550263
#
# Coordination Sequence:
#
# PCOD9353136 Si02
#       5
#     4   8   8   8   8
#     4  12  28  38  60  98 142 182 224 272 344 442
#     4  11  23  40  63  96 140 182 226 286 342 428
#     4  11  24  42  70 102 138 188 239 294 358 436
#     4  11  24  43  68 102 142 187 242 299 362 427
#     4  11  22  40  67  96 132 183 234 290 360 428
#
# _framework density 26.027888999999998
#
# number of rings (size 3 to 8) (size 9 to 14) (size 15 to 20)
#    0.000    0.889    5.556    1.333    7.778    0.000 
#    0.000    0.000    0.000    1.333    0.000    0.000 
#    0.000    0.000    0.000    0.000    0.000    0.000 
#
# Total GULP energy -100614.901673 kJ/mol
# GULP energy per Si atom -5589.716760 kJ/mol
# Density = 2.596865 g / cm^3
# Si number density = 26.027889 Si / 1000 Ang^3
#
#
#
# Elastic Constant Matrix: (Units=GPa)
#
#
# Indices 1 2 3 4 5 6 
#
# 1 88.9356 34.5246 13.1640 0.0000 0.0000 0.0000
# 2 34.5246 104.6812 30.4845 0.0000 0.0000 0.0000
# 3 13.1640 30.4845 114.2423 0.0000 0.0000 0.0000
# 4 0.0000 0.0000 0.0000 49.7043 0.0000 0.0000
# 5 0.0000 0.0000 0.0000 0.0000 9.1953 0.0000
# 6 0.0000 0.0000 0.0000 0.0000 0.0000 10.5228
#
#
#
# Elastic Compliance Matrix: (Units=1/GPa)
#
#
# Indices 1 2 3 4 5 6 
#
# 1 0.012910 -0.004147 -0.000381 0.000000 0.000000 0.000000
# 2 -0.004147 0.011690 -0.002641 0.000000 0.000000 0.000000
# 3 -0.000381 -0.002641 0.009502 0.000000 0.000000 0.000000
# 4 0.000000 0.000000 0.000000 0.020119 0.000000 0.000000
# 5 0.000000 0.000000 0.000000 0.000000 0.108751 0.000000
# 6 0.000000 0.000000 0.000000 0.000000 0.000000 0.095032
#
#
# Mechanical properties :
#
#
# Convention : Reuss Voigt Hill
#
# Bulk Modulus (GPa) = 50.59908 51.57839 51.08873
# Shear Modulus (GPa) = 17.92557 29.19687 23.56122
#
# Velocity S-wave (km/s) = 2.62717 3.35289 3.01197
# Velocity P-wave (km/s) = 5.35586 5.90329 5.63622
#
# Compressibility (1/GPa) = 0.01976321
#
# Stress axis : x y z
#
# Youngs Moduli (GPa) = 77.45734 85.54510 105.24009
#
# Poissons Ratio (x) = 0.35475 0.04010
# Poissons Ratio (y) = 0.32121 0.27799
# Poissons Ratio (z) = 0.02952 0.22596
#
# Static dielectric constant tensor:
#      x y z
#    x 2.183970 0.000000 0.000000 
#    y 0.000000 2.099240 0.000000 
#    z 0.000000 0.000000 2.087080 
# 
# From -- ./inp_files/689.got.cif
#   From: 2010.05.17/outbox.cif.g08.bks.cpg/sg36_1_cif.got.tgz:689.got - 2010.06.03 17:41:39.
