data_PCOD9353800
_publ_section_title
;
Structure prediction by ZEFSAII (Michael W. Deem and Ramdas Pophale) SiO2 
 PCOD9353800
Probable space group: C C C 2
;
_chemical_formula_sum "Si O2"
_cell_formula_units_Z 64
_cell_length_a 17.435813
_cell_length_b 9.175731
_cell_length_c 18.496596
_cell_angle_alpha 90.000000
_cell_angle_beta 90.000000
_cell_angle_gamma 90.000000
_cell_volume 2959.202509
_symmetry_space_group_name_H-M "C C C 2"
_symmetry_group_IT_number 37
_symmetry_cell_setting 'orthorhombic'
loop_
_space_group_symop_operation_xyz
x,y,z
-x,-y,z
-x,y,1/2+z
x,-y,1/2+z
1/2+x,1/2+y,z
1/2-x,1/2-y,z
1/2-x,1/2+y,1/2+z
1/2+x,1/2-y,1/2+z
loop_
_atom_site_type_symbol
_atom_site_label
_atom_site_fract_x
_atom_site_fract_y
_atom_site_fract_z
Si Si1 0.432168 0.231477 0.293290
Si Si2 0.954188 0.266820 0.159899
Si Si3 0.835345 0.478934 0.237960
Si Si4 0.830735 0.011109 0.292147
Si Si5 0.718239 0.090103 0.588221
Si Si6 0.574165 0.793989 0.052998
Si Si7 0.368590 0.504053 0.122900
Si Si8 0.452137 0.649952 0.399408
O O1 0.487331 0.272718 0.225164
O O2 0.362044 0.345813 0.305578
O O3 0.490522 0.242192 0.358664
O O4 0.397863 0.073431 0.279591
O O5 0.881529 0.349693 0.196658
O O6 0.928463 0.130045 0.110778
O O7 0.003960 0.350501 0.100367
O O8 0.760295 0.453059 0.287945
O O9 0.803445 0.580820 0.172941
O O10 0.855552 0.026830 0.208443
O O11 0.879014 0.110579 0.348127
O O12 0.750000 0.250000 0.569898
O O13 0.638773 0.081072 0.547319
O O14 0.787803 0.977910 0.581165
O O15 0.604521 0.656873 0.102246
O O16 0.565224 0.720636 0.975768
O O17 0.500000 0.500000 0.407817
#
# Coordination Sequence:
#
# PCOD9353800 Si02
#       8
#     8   8   8   8   8   8   8   8
#     4  11  20  38  63  89 127 173 214 267 327 404
#     4  12  22  34  63  92 127 164 216 279 324 374
#     4  11  22  37  60  96 129 166 220 271 332 387
#     4  10  20  38  65  92 123 165 219 271 317 397
#     4   9  19  36  60  88 119 160 212 258 318 392
#     4  11  21  38  66  96 125 172 215 279 336 403
#     4  10  19  36  62  90 119 164 219 263 316 384
#     4  10  22  38  65 101 129 165 226 277 337 403
#
# _framework density 21.627448999999999
#
# number of rings (size 3 to 8) (size 9 to 14) (size 15 to 20)
#    0.000    1.500    3.750    3.375    0.000    2.000 
#    0.000    3.750   13.750    0.000    0.000    0.000 
#    0.000    0.000    0.000    0.000    0.000    0.000 
#
# Total GULP energy -178274.938482 kJ/mol
# GULP energy per Si atom -5571.091828 kJ/mol
# Density = 2.157822 g / cm^3
# Si number density = 21.627449 Si / 1000 Ang^3
#
#
#
# Elastic Constant Matrix: (Units=GPa)
#
#
# Indices 1 2 3 4 5 6 
#
# 1 144.0595 36.4062 30.8601 0.0000 0.0000 0.0000
# 2 36.4062 60.6467 -4.4796 0.0000 0.0000 0.0000
# 3 30.8601 -4.4796 55.4869 0.0000 0.0000 0.0000
# 4 0.0000 0.0000 0.0000 -8.6226 0.0000 0.0000
# 5 0.0000 0.0000 0.0000 0.0000 37.1907 0.0000
# 6 0.0000 0.0000 0.0000 0.0000 0.0000 21.1566
#
#
#
# Elastic Compliance Matrix: (Units=1/GPa)
#
#
# Indices 1 2 3 4 5 6 
#
# 1 0.009823 -0.006338 -0.005975 0.000000 0.000000 0.000000
# 2 -0.006338 0.020677 0.005195 0.000000 0.000000 0.000000
# 3 -0.005975 0.005195 0.021765 0.000000 0.000000 0.000000
# 4 0.000000 0.000000 0.000000 -0.115975 0.000000 0.000000
# 5 0.000000 0.000000 0.000000 0.000000 0.026888 0.000000
# 6 0.000000 0.000000 0.000000 0.000000 0.000000 0.047266
#
#
# Mechanical properties :
#
#
# Convention : Reuss Voigt Hill
#
# Bulk Modulus (GPa) = 26.29655 42.86294 34.57975
# Shear Modulus (GPa) = 133.83397 23.10538 78.46967
#
# Velocity S-wave (km/s) = 7.87502 3.27209 6.03003
# Velocity P-wave (km/s) = 9.74028 5.84270 8.03151
#
# Compressibility (1/GPa) = 0.03802780
#
# Stress axis : x y z
#
# Youngs Moduli (GPa) = 101.79826 48.36175 45.94569
#
# Poissons Ratio (x) = 0.30653 0.27453
# Poissons Ratio (y) = 0.64523 -0.23867
# Poissons Ratio (z) = 0.60826 -0.25122
#
# Static dielectric constant tensor:
#      x y z
#    x -0.587640 0.000000 0.000000 
#    y 0.000000 1.839110 0.000000 
#    z 0.000000 0.000000 1.751870 
# 
# From -- ./inp_files/17352.got.cif
#   From: 2010.05.17/outbox.cif.g08.bks.cpg/sg37_9_cif.got.tgz:17352.got - 2010.06.03 17:53:42.
