data_PCOD9353364
_publ_section_title
;
Structure prediction by ZEFSAII (Michael W. Deem and Ramdas Pophale) SiO2 
 PCOD9353364
Probable space group: C M C 21
;
_chemical_formula_sum "Si O2"
_cell_formula_units_Z 32
_cell_length_a 9.000000
_cell_length_b 18.000000
_cell_length_c 21.000000
_cell_angle_alpha 90.000000
_cell_angle_beta 90.000000
_cell_angle_gamma 90.000000
_cell_volume 3402.000000
_symmetry_space_group_name_H-M "C M C 21"
_symmetry_group_IT_number 36
_symmetry_cell_setting 'orthorhombic'
loop_
_space_group_symop_operation_xyz
x,y,z
-x,-y,1/2+z
x,-y,1/2+z
-x,y,z
1/2+x,1/2+y,z
1/2-x,1/2-y,1/2+z
1/2+x,1/2-y,1/2+z
1/2-x,1/2+y,z
loop_
_atom_site_type_symbol
_atom_site_label
_atom_site_fract_x
_atom_site_fract_y
_atom_site_fract_z
Si Si1 0.673155 0.579548 0.669910
Si Si2 0.820660 0.598410 0.535964
Si Si3 0.332078 0.830567 0.676810
Si Si4 0.320345 0.762347 0.537397
Si Si5 0.321273 0.844764 0.403605
Si Si6 0.678793 0.979789 0.900561
Si Si7 0.329189 0.692693 0.770144
Si Si8 0.168503 0.057362 0.266102
O O1 0.500000 0.597950 0.653676
O O2 0.754481 0.565014 0.602550
O O3 0.743280 0.645241 0.712425
O O4 0.671572 0.517846 0.724966
O O5 0.759420 0.682669 0.534659
O O6 0.777452 0.559008 0.468269
O O7 0.000000 0.596582 0.539530
O O8 0.500000 0.860533 0.667847
O O9 0.285869 0.800549 0.606489
O O10 0.339608 0.770040 0.733400
O O11 0.227473 0.888706 0.711034
O O12 0.500000 0.752653 0.537191
O O13 0.280996 0.807671 0.472263
O O14 0.500000 0.838532 0.398071
O O15 0.249995 0.810406 0.338871
O O16 0.282499 0.932502 0.404243
O O17 0.500000 0.973320 0.896470
O O18 0.744430 0.948509 0.833590
O O19 0.500000 0.666184 0.780781
O O20 0.000000 0.076535 0.283208
#
# Coordination Sequence:
#
# PCOD9353364 Si02
#       8
#     8   8   8   8   8   8   8   8
#     4  10  21  41  63  86 117 155 197 243 298 353
#     4  11  24  39  62  91 120 156 200 248 294 352
#     4  10  22  40  63  86 119 160 196 243 299 356
#     4  10  22  42  63  86 120 161 198 241 300 356
#     4  10  22  39  62  88 117 156 201 246 292 351
#     4  10  23  42  60  87 123 159 200 243 295 356
#     4  10  20  39  63  85 115 156 197 240 296 353
#     4  11  24  40  62  91 121 155 199 250 298 351
#
# _framework density 9.4062319999999993
#
# number of rings (size 3 to 8) (size 9 to 14) (size 15 to 20)
#    0.000    1.750    2.500    0.750    3.500    4.000 
#    0.000    0.000    0.000    0.000    0.000    0.000 
#    0.000    0.000    0.000    0.000    0.000    0.000 
#
# Total GULP energy -178176.538524 kJ/mol
# GULP energy per Si atom -5568.016829 kJ/mol
# Density = 0.938482 g / cm^3
# Si number density = 9.406232 Si / 1000 Ang^3
#
#
#
# Elastic Constant Matrix: (Units=GPa)
#
#
# Indices 1 2 3 4 5 6 
#
# 1 41.2169 7.1128 34.4785 0.0000 0.0000 0.0000
# 2 7.1128 12.9389 -0.6767 0.0000 0.0000 0.0000
# 3 34.4785 -0.6767 164.4532 0.0000 0.0000 0.0000
# 4 0.0000 0.0000 0.0000 35.6425 0.0000 0.0000
# 5 0.0000 0.0000 0.0000 0.0000 40.7802 0.0000
# 6 0.0000 0.0000 0.0000 0.0000 0.0000 21.7797
#
#
#
# Elastic Compliance Matrix: (Units=1/GPa)
#
#
# Indices 1 2 3 4 5 6 
#
# 1 0.033423 -0.018744 -0.007084 0.000000 0.000000 0.000000
# 2 -0.018744 0.087815 0.004291 0.000000 0.000000 0.000000
# 3 -0.007084 0.004291 0.007584 0.000000 0.000000 0.000000
# 4 0.000000 0.000000 0.000000 0.028056 0.000000 0.000000
# 5 0.000000 0.000000 0.000000 0.000000 0.024522 0.000000
# 6 0.000000 0.000000 0.000000 0.000000 0.000000 0.045914
#
#
# Mechanical properties :
#
#
# Convention : Reuss Voigt Hill
#
# Bulk Modulus (GPa) = 11.66222 33.38204 22.52213
# Shear Modulus (GPa) = 16.72409 31.48677 24.10543
#
# Velocity S-wave (km/s) = 2.98483 4.09555 3.58348
# Velocity P-wave (km/s) = 4.25342 6.33623 5.39627
#
# Compressibility (1/GPa) = 0.08574698
#
# Stress axis : x y z
#
# Youngs Moduli (GPa) = 29.91983 11.38761 131.86193
#
# Poissons Ratio (x) = 0.21345 0.93416
# Poissons Ratio (y) = 0.56081 -0.56583
# Poissons Ratio (z) = 0.21196 -0.04886
#
# Static dielectric constant tensor:
#      x y z
#    x 1.672480 0.000000 0.000000 
#    y 0.000000 1.883120 0.000000 
#    z 0.000000 0.000000 1.618340 
# 
# From -- ./inp_files/15726.got.cif
#   From: 2010.05.17/outbox.ucp.g08.bks.cvg/sg36_8_cif.got.tgz:15726.got - 2010.06.11 10:37:26.
