data_PCOD9353386
_publ_section_title
;
Structure prediction by ZEFSAII (Michael W. Deem and Ramdas Pophale) SiO2 
 PCOD9353386
Probable space group: C M C 21
;
_chemical_formula_sum "Si O2"
_cell_formula_units_Z 32
_cell_length_a 9.000000
_cell_length_b 24.000000
_cell_length_c 15.000000
_cell_angle_alpha 90.000000
_cell_angle_beta 90.000000
_cell_angle_gamma 90.000000
_cell_volume 3240.000000
_symmetry_space_group_name_H-M "C M C 21"
_symmetry_group_IT_number 36
_symmetry_cell_setting 'orthorhombic'
loop_
_space_group_symop_operation_xyz
x,y,z
-x,-y,1/2+z
x,-y,1/2+z
-x,y,z
1/2+x,1/2+y,z
1/2-x,1/2-y,1/2+z
1/2+x,1/2-y,1/2+z
1/2-x,1/2+y,z
loop_
_atom_site_type_symbol
_atom_site_label
_atom_site_fract_x
_atom_site_fract_y
_atom_site_fract_z
Si Si1 0.178409 0.947553 0.497280
Si Si2 0.326060 0.710258 0.780300
Si Si3 0.335410 0.726877 0.570198
Si Si4 0.170342 0.644577 0.113269
Si Si5 0.823786 0.828742 0.797475
Si Si6 0.320855 0.442527 0.107965
Si Si7 0.180479 0.914736 0.306838
Si Si8 0.172570 0.641648 0.471931
O O1 0.252096 0.894971 0.543321
O O2 0.226062 0.949423 0.393766
O O3 0.000000 0.941883 0.498091
O O4 0.215710 0.000112 0.558481
O O5 0.500000 0.719503 0.803815
O O6 0.321003 0.706315 0.672292
O O7 0.233637 0.764801 0.805717
O O8 0.274720 0.650341 0.816168
O O9 0.500000 0.709131 0.537151
O O10 0.330985 0.792927 0.575721
O O11 0.207083 0.703286 0.508826
O O12 0.258489 0.647375 0.205830
O O13 0.000000 0.627988 0.129983
O O14 0.759089 0.863410 0.879643
O O15 0.000000 0.829826 0.796381
O O16 0.500000 0.435095 0.105648
O O17 0.271969 0.438310 0.210926
O O18 0.243447 0.396094 0.048324
O O19 0.000000 0.914002 0.304388
O O20 0.000000 0.631341 0.460189
#
# Coordination Sequence:
#
# PCOD9353386 Si02
#       8
#     8   8   8   8   8   8   8   8
#     4  10  22  38  63  94 120 161 216 257 305 367
#     4   9  17  34  58  84 120 159 199 249 309 361
#     4   9  18  35  58  84 117 160 197 240 306 370
#     4  10  22  41  61  86 125 162 199 251 313 367
#     4  11  23  38  59  88 125 163 206 250 304 376
#     4  10  21  41  63  86 124 168 212 259 307 362
#     4   9  18  36  60  87 119 157 201 255 305 356
#     4  12  24  37  58  89 122 160 208 257 309 365
#
# _framework density 9.8765429999999999
#
# number of rings (size 3 to 8) (size 9 to 14) (size 15 to 20)
#    0.000    2.000    1.250    3.375    1.750    4.000 
#    0.000    3.125    0.000    0.000    0.000    0.000 
#    0.000    0.000    0.000    0.000    0.000    0.000 
#
# Total GULP energy -178632.136895 kJ/mol
# GULP energy per Si atom -5582.254278 kJ/mol
# Density = 0.985406 g / cm^3
# Si number density = 9.876543 Si / 1000 Ang^3
#
#
#
# Elastic Constant Matrix: (Units=GPa)
#
#
# Indices 1 2 3 4 5 6 
#
# 1 -25.9368 22.8532 19.2776 0.0000 0.0000 0.0000
# 2 22.8532 43.3215 62.5519 0.0000 0.0000 0.0000
# 3 19.2776 62.5519 119.8127 0.0000 0.0000 0.0000
# 4 0.0000 0.0000 0.0000 2.0192 0.0000 0.0000
# 5 0.0000 0.0000 0.0000 0.0000 21.6594 0.0000
# 6 0.0000 0.0000 0.0000 0.0000 0.0000 14.5944
#
#
#
# Elastic Compliance Matrix: (Units=1/GPa)
#
#
# Indices 1 2 3 4 5 6 
#
# 1 -0.022535 0.027024 -0.010483 0.000000 0.000000 0.000000
# 2 0.027024 0.061362 -0.036384 0.000000 0.000000 0.000000
# 3 -0.010483 -0.036384 0.029029 0.000000 0.000000 0.000000
# 4 0.000000 0.000000 0.000000 0.495257 0.000000 0.000000
# 5 0.000000 0.000000 0.000000 0.000000 0.046169 0.000000
# 6 0.000000 0.000000 0.000000 0.000000 0.000000 0.068519
#
#
# Mechanical properties :
#
#
# Convention : Reuss Voigt Hill
#
# Bulk Modulus (GPa) = 35.49901 38.50698 37.00299
# Shear Modulus (GPa) = 6.87875 9.82224 8.35049
#
# Velocity S-wave (km/s) = 1.86813 2.23233 2.05830
# Velocity P-wave (km/s) = 4.76063 5.11673 4.94189
#
# Compressibility (1/GPa) = 0.02816980
#
# Stress axis : x y z
#
# Youngs Moduli (GPa) = -44.37487 16.29667 34.44884
#
# Poissons Ratio (x) = -0.44041 0.36113
# Poissons Ratio (y) = 1.19920 1.25339
# Poissons Ratio (z) = -0.46518 0.59294
#
# Static dielectric constant tensor:
#      x y z
#    x 1.665210 0.000000 0.000000 
#    y 0.000000 1.756690 0.000000 
#    z 0.000000 0.000000 1.698310 
# 
# From -- ./inp_files/10896.got.cif
#   From: 2010.05.17/outbox.ucp.g08.bks.cvg/sg36_6_cif.got.tgz:10896.got - 2010.06.11 10:37:26.
