data_PCOD9353551
_publ_section_title
;
Structure prediction by ZEFSAII (Michael W. Deem and Ramdas Pophale) SiO2 
 PCOD9353551
Probable space group: C C C 2
;
_chemical_formula_sum "Si O2"
_cell_formula_units_Z 48
_cell_length_a 13.678134
_cell_length_b 17.158034
_cell_length_c 7.545305
_cell_angle_alpha 90.000000
_cell_angle_beta 90.000000
_cell_angle_gamma 90.000000
_cell_volume 1770.806787
_symmetry_space_group_name_H-M "C C C 2"
_symmetry_group_IT_number 37
_symmetry_cell_setting 'orthorhombic'
loop_
_space_group_symop_operation_xyz
x,y,z
-x,-y,z
-x,y,1/2+z
x,-y,1/2+z
1/2+x,1/2+y,z
1/2-x,1/2-y,z
1/2-x,1/2+y,1/2+z
1/2+x,1/2-y,1/2+z
loop_
_atom_site_type_symbol
_atom_site_label
_atom_site_fract_x
_atom_site_fract_y
_atom_site_fract_z
Si Si1 0.893861 0.034095 0.380520
Si Si2 0.364718 0.225364 0.876457
Si Si3 0.860833 0.166130 0.674557
Si Si4 0.133468 0.153986 0.581702
Si Si5 0.801518 0.432344 0.790560
Si Si6 0.147124 0.405808 0.635805
O O1 0.896831 0.834769 0.378012
O O2 0.797900 0.977816 0.370241
O O3 0.884104 0.095097 0.540721
O O4 0.000000 0.000000 0.397346
O O5 0.250000 0.250000 0.888348
O O6 0.398115 0.260168 0.063444
O O7 0.398458 0.275476 0.706368
O O8 0.385772 0.137883 0.813489
O O9 0.898431 0.078770 0.192648
O O10 0.744917 0.144601 0.701543
O O11 0.250949 0.142376 0.597677
O O12 0.841792 0.502602 0.674204
O O13 0.884414 0.407167 0.931086
#
# Coordination Sequence:
#
# PCOD9353551 Si02
#       6
#     8   8   8   8   8   8
#     4  10  20  33  48  70 101 139 183 226 257 296
#     4   9  18  31  48  68  88 124 179 226 265 320
#     4  10  19  33  49  65  95 133 179 227 263 308
#     4   8  18  33  46  66  94 126 176 230 259 307
#     4  10  18  32  45  68 104 134 169 236 262 306
#     4   9  17  30  47  66  95 128 169 226 272 309
#
# _framework density 27.106290999999999
#
# number of rings (size 3 to 8) (size 9 to 14) (size 15 to 20)
#    0.000    2.667    1.667    1.000    0.000    4.667 
#    0.000    0.000    0.000    0.000    0.000    0.000 
#    0.000    0.000    0.000    0.000    0.000   33.333 
#
# Total GULP energy -133816.531682 kJ/mol
# GULP energy per Si atom -5575.688820 kJ/mol
# Density = 2.704460 g / cm^3
# Si number density = 27.106291 Si / 1000 Ang^3
#
#
#
# Elastic Constant Matrix: (Units=GPa)
#
#
# Indices 1 2 3 4 5 6 
#
# 1 52.7468 1.8274 20.3570 0.0000 0.0000 0.0000
# 2 1.8274 67.3836 61.2371 0.0000 0.0000 0.0000
# 3 20.3570 61.2371 238.4025 0.0000 0.0000 0.0000
# 4 0.0000 0.0000 0.0000 51.9759 0.0000 0.0000
# 5 0.0000 0.0000 0.0000 0.0000 10.8595 0.0000
# 6 0.0000 0.0000 0.0000 0.0000 0.0000 -3.4574
#
#
#
# Elastic Compliance Matrix: (Units=1/GPa)
#
#
# Indices 1 2 3 4 5 6 
#
# 1 0.019691 0.001297 -0.002014 0.000000 0.000000 0.000000
# 2 0.001297 0.019445 -0.005105 0.000000 0.000000 0.000000
# 3 -0.002014 -0.005105 0.005678 0.000000 0.000000 0.000000
# 4 0.000000 0.000000 0.000000 0.019240 0.000000 0.000000
# 5 0.000000 0.000000 0.000000 0.000000 0.092085 0.000000
# 6 0.000000 0.000000 0.000000 0.000000 0.000000 -0.289231
#
#
# Mechanical properties :
#
#
# Convention : Reuss Voigt Hill
#
# Bulk Modulus (GPa) = 30.14986 58.37508 44.26247
# Shear Modulus (GPa) = -45.29391 30.21637 -7.53877
#
# Velocity S-wave (km/s) = -4.09219 3.34239 -1.66950
# Velocity P-wave (km/s) = 3.34381 6.03968 3.55645
#
# Compressibility (1/GPa) = 0.03316765
#
# Stress axis : x y z
#
# Youngs Moduli (GPa) = 50.78448 51.42711 176.11800
#
# Poissons Ratio (x) = -0.06669 0.35479
# Poissons Ratio (y) = -0.06585 0.89916
# Poissons Ratio (z) = 0.10230 0.26256
#
# Static dielectric constant tensor:
#      x y z
#    x 2.201460 0.000000 0.000000 
#    y 0.000000 2.275890 0.000000 
#    z 0.000000 0.000000 2.223440 
# 
# From -- ./inp_files/4611.got.cif
#   From: 2010.05.17/outbox.cif.g08.bks.cpg/sg37_3_cif.got.tgz:4611.got - 2010.06.03 17:53:42.
