data_PCOD9353926
_publ_section_title
;
Structure prediction by ZEFSAII (Michael W. Deem and Ramdas Pophale) SiO2 
 PCOD9353926
Probable space group: C C C 2
;
_chemical_formula_sum "Si O2"
_cell_formula_units_Z 32
_cell_length_a 14.943908
_cell_length_b 10.207182
_cell_length_c 8.258816
_cell_angle_alpha 90.000000
_cell_angle_beta 90.000000
_cell_angle_gamma 90.000000
_cell_volume 1259.760057
_symmetry_space_group_name_H-M "C C C 2"
_symmetry_group_IT_number 37
_symmetry_cell_setting 'orthorhombic'
loop_
_space_group_symop_operation_xyz
x,y,z
-x,-y,z
-x,y,1/2+z
x,-y,1/2+z
1/2+x,1/2+y,z
1/2-x,1/2-y,z
1/2-x,1/2+y,1/2+z
1/2+x,1/2-y,1/2+z
loop_
_atom_site_type_symbol
_atom_site_label
_atom_site_fract_x
_atom_site_fract_y
_atom_site_fract_z
Si Si1 0.323089 0.587381 0.184980
Si Si2 0.591894 0.646043 0.356790
Si Si3 0.867160 0.622655 0.772821
Si Si4 0.536259 0.812648 0.071165
O O1 0.395674 0.483498 0.247485
O O2 0.221708 0.545947 0.224138
O O3 0.340323 0.723702 0.274708
O O4 0.334555 0.622600 0.996171
O O5 0.594410 0.759944 0.221822
O O6 0.506293 0.690342 0.466306
O O7 0.949074 0.620899 0.648587
O O8 0.907499 0.600152 0.948593
#
# Coordination Sequence:
#
# PCOD9353926 Si02
#       4
#     8   8   8   8
#     4  10  20  34  51  82 116 143 179 231 281 329
#     4  10  20  33  56  83 111 145 184 228 277 328
#     4   9  19  35  54  78 111 143 183 230 278 332
#     4   9  19  36  59  82 106 143 188 231 274 327
#
# _framework density 25.401662000000002
#
# number of rings (size 3 to 8) (size 9 to 14) (size 15 to 20)
#    0.000    2.500    0.000    1.500    0.000   17.000 
#    0.000   27.500    0.000    4.500    0.000    0.000 
#    0.000    0.000    0.000    0.000    0.000    0.000 
#
# Total GULP energy -89352.056607 kJ/mol
# GULP energy per Si atom -5584.503538 kJ/mol
# Density = 2.534385 g / cm^3
# Si number density = 25.401662 Si / 1000 Ang^3
#
#
#
# Elastic Constant Matrix: (Units=GPa)
#
#
# Indices 1 2 3 4 5 6 
#
# 1 156.3026 38.1498 96.3776 0.0000 0.0000 0.0000
# 2 38.1498 65.1974 34.2600 0.0000 0.0000 0.0000
# 3 96.3776 34.2600 197.6180 0.0000 0.0000 0.0000
# 4 0.0000 0.0000 0.0000 10.0451 0.0000 0.0000
# 5 0.0000 0.0000 0.0000 0.0000 20.6048 0.0000
# 6 0.0000 0.0000 0.0000 0.0000 0.0000 31.3206
#
#
#
# Elastic Compliance Matrix: (Units=1/GPa)
#
#
# Indices 1 2 3 4 5 6 
#
# 1 0.009848 -0.003563 -0.004185 0.000000 0.000000 0.000000
# 2 -0.003563 0.018165 -0.001411 0.000000 0.000000 0.000000
# 3 -0.004185 -0.001411 0.007346 0.000000 0.000000 0.000000
# 4 0.000000 0.000000 0.000000 0.099551 0.000000 0.000000
# 5 0.000000 0.000000 0.000000 0.000000 0.048532 0.000000
# 6 0.000000 0.000000 0.000000 0.000000 0.000000 0.031928
#
#
# Mechanical properties :
#
#
# Convention : Reuss Voigt Hill
#
# Bulk Modulus (GPa) = 58.68785 84.07697 71.38241
# Shear Modulus (GPa) = 20.88818 29.08281 24.98550
#
# Velocity S-wave (km/s) = 2.87072 3.38733 3.13967
# Velocity P-wave (km/s) = 5.84312 6.96201 6.42696
#
# Compressibility (1/GPa) = 0.01703930
#
# Stress axis : x y z
#
# Youngs Moduli (GPa) = 101.54154 55.05175 136.12806
#
# Poissons Ratio (x) = 0.19617 0.56972
# Poissons Ratio (y) = 0.36183 0.19212
# Poissons Ratio (z) = 0.42497 0.07769
#
# Static dielectric constant tensor:
#      x y z
#    x 2.098660 0.000000 0.000000 
#    y 0.000000 2.087750 0.000000 
#    z 0.000000 0.000000 1.987820 
# 
# From -- ./inp_files/2564.got.cif
#   From: 2010.05.17/outbox.cif.g08.bks.cpg/sg37_2_cif.got.tgz:2564.got - 2010.06.03 17:53:42.
