data_PCOD9353778
_publ_section_title
;
Structure prediction by ZEFSAII (Michael W. Deem and Ramdas Pophale) SiO2 
 PCOD9353778
Probable space group: C C C 2
;
_chemical_formula_sum "Si O2"
_cell_formula_units_Z 32
_cell_length_a 18.197036
_cell_length_b 9.368155
_cell_length_c 9.603311
_cell_angle_alpha 90.000000
_cell_angle_beta 90.000000
_cell_angle_gamma 90.000000
_cell_volume 1637.101911
_symmetry_space_group_name_H-M "C C C 2"
_symmetry_group_IT_number 37
_symmetry_cell_setting 'orthorhombic'
loop_
_space_group_symop_operation_xyz
x,y,z
-x,-y,z
-x,y,1/2+z
x,-y,1/2+z
1/2+x,1/2+y,z
1/2-x,1/2-y,z
1/2-x,1/2+y,1/2+z
1/2+x,1/2-y,1/2+z
loop_
_atom_site_type_symbol
_atom_site_label
_atom_site_fract_x
_atom_site_fract_y
_atom_site_fract_z
Si Si1 0.348760 0.130558 0.437530
Si Si2 0.582956 0.045113 0.215454
Si Si3 0.818108 0.940678 0.522259
Si Si4 0.831677 0.182178 0.320848
O O1 0.403215 0.062960 0.551499
O O2 0.268173 0.079506 0.486648
O O3 0.353724 0.300521 0.452151
O O4 0.365666 0.074574 0.284924
O O5 0.610711 0.192331 0.287400
O O6 0.500000 0.000000 0.243441
O O7 0.829464 0.921597 0.686453
O O8 0.845685 0.087035 0.456086
O O9 0.750000 0.250000 0.330116
#
# Coordination Sequence:
#
# PCOD9353778 Si02
#       4
#     8   8   8   8
#     4  10  19  36  57  85 119 155 203 249 291 356
#     4  11  22  37  59  87 121 160 196 241 305 367
#     4  10  19  36  59  88 118 154 203 257 294 337
#     4  11  20  38  59  91 123 150 205 254 293 355
#
# _framework density 19.546737
#
# number of rings (size 3 to 8) (size 9 to 14) (size 15 to 20)
#    0.000    1.500    7.500    0.750    0.000    2.000 
#    4.500    1.250    0.000    6.000    0.000    0.000 
#    0.000    0.000    0.000    0.000    0.000    0.000 
#
# Total GULP energy -89322.901452 kJ/mol
# GULP energy per Si atom -5582.681341 kJ/mol
# Density = 1.950225 g / cm^3
# Si number density = 19.546737 Si / 1000 Ang^3
#
#
#
# Elastic Constant Matrix: (Units=GPa)
#
#
# Indices 1 2 3 4 5 6 
#
# 1 75.2283 21.5927 12.8494 0.0000 0.0000 0.0000
# 2 21.5927 60.3414 45.6143 0.0000 0.0000 0.0000
# 3 12.8494 45.6143 50.3348 0.0000 0.0000 0.0000
# 4 0.0000 0.0000 0.0000 33.4917 0.0000 0.0000
# 5 0.0000 0.0000 0.0000 0.0000 12.9555 0.0000
# 6 0.0000 0.0000 0.0000 0.0000 0.0000 25.0897
#
#
#
# Elastic Compliance Matrix: (Units=1/GPa)
#
#
# Indices 1 2 3 4 5 6 
#
# 1 0.014983 -0.007843 0.003283 0.000000 0.000000 0.000000
# 2 -0.007843 0.056724 -0.049402 0.000000 0.000000 0.000000
# 3 0.003283 -0.049402 0.063798 0.000000 0.000000 0.000000
# 4 0.000000 0.000000 0.000000 0.029858 0.000000 0.000000
# 5 0.000000 0.000000 0.000000 0.000000 0.077187 0.000000
# 6 0.000000 0.000000 0.000000 0.000000 0.000000 0.039857
#
#
# Mechanical properties :
#
#
# Convention : Reuss Voigt Hill
#
# Bulk Modulus (GPa) = 36.25787 38.44637 37.35212
# Shear Modulus (GPa) = 12.51482 21.36391 16.93936
#
# Velocity S-wave (km/s) = 2.53306 3.30959 2.94701
# Velocity P-wave (km/s) = 5.21007 5.85800 5.54351
#
# Compressibility (1/GPa) = 0.02758022
#
# Stress axis : x y z
#
# Youngs Moduli (GPa) = 66.74057 17.62925 15.67447
#
# Poissons Ratio (x) = 0.13827 -0.05145
# Poissons Ratio (y) = 0.52346 0.77435
# Poissons Ratio (z) = -0.21909 0.87092
#
# Static dielectric constant tensor:
#      x y z
#    x 1.681450 0.000000 0.000000 
#    y 0.000000 1.693120 0.000000 
#    z 0.000000 0.000000 1.676870 
# 
# From -- ./inp_files/2080.got.cif
#   From: 2010.05.17/outbox.cif.g08.bks.cpg/sg37_2_cif.got.tgz:2080.got - 2010.06.03 17:53:42.
