data_PCOD9353475
_publ_section_title
;
Structure prediction by ZEFSAII (Michael W. Deem and Ramdas Pophale) SiO2 
 PCOD9353475
Probable space group: C C C 2
;
_chemical_formula_sum "Si O2"
_cell_formula_units_Z 48
_cell_length_a 6.799304
_cell_length_b 26.588713
_cell_length_c 9.320890
_cell_angle_alpha 90.000000
_cell_angle_beta 90.000000
_cell_angle_gamma 90.000000
_cell_volume 1685.074700
_symmetry_space_group_name_H-M "C C C 2"
_symmetry_group_IT_number 37
_symmetry_cell_setting 'orthorhombic'
loop_
_space_group_symop_operation_xyz
x,y,z
-x,-y,z
-x,y,1/2+z
x,-y,1/2+z
1/2+x,1/2+y,z
1/2-x,1/2-y,z
1/2-x,1/2+y,1/2+z
1/2+x,1/2-y,1/2+z
loop_
_atom_site_type_symbol
_atom_site_label
_atom_site_fract_x
_atom_site_fract_y
_atom_site_fract_z
Si Si1 0.979960 0.766195 0.006060
Si Si2 0.210212 0.520572 0.165508
Si Si3 0.628404 0.106705 0.394825
Si Si4 0.866017 0.138981 0.657202
Si Si5 0.692143 0.432648 0.887774
Si Si6 0.990261 0.297405 0.249240
O O1 0.750000 0.750000 0.022115
O O2 0.001732 0.821760 0.070856
O O3 0.084227 0.722375 0.097766
O O4 0.023693 0.752853 0.842424
O O5 0.170013 0.567107 0.270640
O O6 0.280763 0.477089 0.272497
O O7 0.000000 0.500000 0.103372
O O8 0.349702 0.540477 0.038562
O O9 0.760954 0.103901 0.536876
O O10 0.398665 0.095094 0.427437
O O11 0.644752 0.163403 0.333918
O O12 0.934690 0.107378 0.795625
O O13 0.685921 0.171623 0.718825
#
# Coordination Sequence:
#
# PCOD9353475 Si02
#       6
#     8   8   8   8   8   8
#     4  10  20  36  51  72 100 142 182 228 265 312
#     4  10  18  26  44  72 108 141 173 200 255 334
#     4  10  17  28  46  69 101 141 170 207 259 319
#     4  10  20  33  51  70 104 144 181 218 262 314
#     4  10  18  28  44  72 104 142 171 205 255 322
#     4  10  18  32  52  69 101 138 178 223 272 303
#
# _framework density 28.485382999999999
#
# number of rings (size 3 to 8) (size 9 to 14) (size 15 to 20)
#    0.000    2.000    3.333    5.500    2.333    0.000 
#    0.000    4.167    0.000    0.000    0.000    0.000 
#    0.000   16.000    0.000    0.000    0.000    0.000 
#
# Total GULP energy -134471.535336 kJ/mol
# GULP energy per Si atom -5602.980639 kJ/mol
# Density = 2.842055 g / cm^3
# Si number density = 28.485383 Si / 1000 Ang^3
#
#
#
# Elastic Constant Matrix: (Units=GPa)
#
#
# Indices 1 2 3 4 5 6 
#
# 1 99.1197 25.8844 13.3002 0.0000 0.0000 0.0000
# 2 25.8844 137.3207 67.5127 0.0000 0.0000 0.0000
# 3 13.3002 67.5127 173.1262 0.0000 0.0000 0.0000
# 4 0.0000 0.0000 0.0000 75.7536 0.0000 0.0000
# 5 0.0000 0.0000 0.0000 0.0000 32.5000 0.0000
# 6 0.0000 0.0000 0.0000 0.0000 0.0000 51.4184
#
#
#
# Elastic Compliance Matrix: (Units=1/GPa)
#
#
# Indices 1 2 3 4 5 6 
#
# 1 0.010611 -0.001979 -0.000044 0.000000 0.000000 0.000000
# 2 -0.001979 0.009379 -0.003505 0.000000 0.000000 0.000000
# 3 -0.000044 -0.003505 0.007146 0.000000 0.000000 0.000000
# 4 0.000000 0.000000 0.000000 0.013201 0.000000 0.000000
# 5 0.000000 0.000000 0.000000 0.000000 0.030769 0.000000
# 6 0.000000 0.000000 0.000000 0.000000 0.000000 0.019448
#
#
# Mechanical properties :
#
#
# Convention : Reuss Voigt Hill
#
# Bulk Modulus (GPa) = 62.18465 69.21790 65.70127
# Shear Modulus (GPa) = 46.74203 52.12570 49.43387
#
# Velocity S-wave (km/s) = 4.05521 4.28239 4.17035
# Velocity P-wave (km/s) = 6.61847 6.98598 6.80471
#
# Compressibility (1/GPa) = 0.01608114
#
# Stress axis : x y z
#
# Youngs Moduli (GPa) = 94.23822 106.62631 139.93067
#
# Poissons Ratio (x) = 0.21099 0.00609
# Poissons Ratio (y) = 0.18648 0.49049
# Poissons Ratio (z) = 0.00410 0.37375
#
# Static dielectric constant tensor:
#      x y z
#    x 2.281340 0.000000 0.000000 
#    y 0.000000 2.178760 0.000000 
#    z 0.000000 0.000000 2.147870 
# 
# From -- ./inp_files/2927.got.cif
#   From: 2010.05.17/outbox.cif.g08.bks.cpg/sg37_2_cif.got.tgz:2927.got - 2010.06.03 17:53:42.
