data_PCOD9353553
_publ_section_title
;
Structure prediction by ZEFSAII (Michael W. Deem and Ramdas Pophale) SiO2 
 PCOD9353553
Probable space group: C C C 2
;
_chemical_formula_sum "Si O2"
_cell_formula_units_Z 60
_cell_length_a 12.203444
_cell_length_b 22.649093
_cell_length_c 13.672903
_cell_angle_alpha 90.000000
_cell_angle_beta 90.000000
_cell_angle_gamma 90.000000
_cell_volume 3779.148524
_symmetry_space_group_name_H-M "C C C 2"
_symmetry_group_IT_number 37
_symmetry_cell_setting 'orthorhombic'
loop_
_space_group_symop_operation_xyz
x,y,z
-x,-y,z
-x,y,1/2+z
x,-y,1/2+z
1/2+x,1/2+y,z
1/2-x,1/2-y,z
1/2-x,1/2+y,1/2+z
1/2+x,1/2-y,1/2+z
loop_
_atom_site_type_symbol
_atom_site_label
_atom_site_fract_x
_atom_site_fract_y
_atom_site_fract_z
Si Si1 0.500000 0.500000 0.667120
Si Si2 0.098804 0.194495 0.030929
Si Si3 0.907162 0.097696 0.804318
Si Si4 0.236829 0.681929 0.704721
Si Si5 0.592838 0.402304 0.029923
Si Si6 0.500000 0.794474 0.667120
Si Si7 0.736829 0.818071 0.629520
Si Si8 0.598804 0.305505 0.303312
O O1 0.426858 0.542048 0.735258
O O2 0.426858 0.457952 0.598983
O O3 0.203929 0.181773 0.098495
O O4 0.039211 0.250820 0.079943
O O5 0.013382 0.140447 0.039590
O O6 0.124309 0.203718 0.917121
O O7 0.804403 0.136941 0.770597
O O8 0.013382 0.140447 0.794651
O O9 0.897021 0.080234 0.917121
O O10 0.250000 0.750000 0.740597
O O11 0.108016 0.670144 0.697028
O O12 0.695596 0.363059 0.063644
O O13 0.608017 0.829856 0.637213
O O14 0.539211 0.750820 0.754298
O O15 0.750000 0.750000 0.593644
O O16 0.796071 0.818227 0.735746
#
# Coordination Sequence:
#
# PCOD9353553 Si02
#       8
#     4   8   8   8   8   8   8   8
#     4  12  20  40  56  80 108 138 178 230 262 326
#     4  10  18  32  50  75 107 140 175 214 265 319
#     4  11  21  34  56  82 106 139 178 225 273 314
#     4  10  18  34  50  78 112 143 173 219 264 325
#     4  11  21  34  56  82 106 139 178 225 273 314
#     4  10  19  30  50  76 108 145 174 206 262 318
#     4  10  18  34  50  78 112 143 173 219 264 325
#     4  10  18  32  50  75 107 140 175 214 265 319
#
# _framework density 15.876593
#
# number of rings (size 3 to 8) (size 9 to 14) (size 15 to 20)
#    0.000    1.600    8.000    0.400    0.000    6.400 
#    0.000    0.000    0.000    0.800    0.000    1.867 
#    0.000    0.000    0.000    0.000    0.000    0.000 
#
# Total GULP energy -167343.667889 kJ/mol
# GULP energy per Si atom -5578.122263 kJ/mol
# Density = 1.584046 g / cm^3
# Si number density = 15.876593 Si / 1000 Ang^3
#
#
#
# Elastic Constant Matrix: (Units=GPa)
#
#
# Indices 1 2 3 4 5 6 
#
# 1 122.9769 31.3810 34.1098 0.0000 0.0000 0.0000
# 2 31.3810 77.8235 44.8093 0.0000 0.0000 0.0000
# 3 34.1098 44.8093 113.7576 0.0000 0.0000 0.0000
# 4 0.0000 0.0000 0.0000 10.1227 0.0000 0.0000
# 5 0.0000 0.0000 0.0000 0.0000 8.7845 0.0000
# 6 0.0000 0.0000 0.0000 0.0000 0.0000 16.6096
#
#
#
# Elastic Compliance Matrix: (Units=1/GPa)
#
#
# Indices 1 2 3 4 5 6 
#
# 1 0.009311 -0.002777 -0.001698 0.000000 0.000000 0.000000
# 2 -0.002777 0.017447 -0.006040 0.000000 0.000000 0.000000
# 3 -0.001698 -0.006040 0.011679 0.000000 0.000000 0.000000
# 4 0.000000 0.000000 0.000000 0.098788 0.000000 0.000000
# 5 0.000000 0.000000 0.000000 0.000000 0.113837 0.000000
# 6 0.000000 0.000000 0.000000 0.000000 0.000000 0.060206
#
#
# Mechanical properties :
#
#
# Convention : Reuss Voigt Hill
#
# Bulk Modulus (GPa) = 57.44636 59.46203 58.45419
# Shear Modulus (GPa) = 14.78856 20.72055 17.75456
#
# Velocity S-wave (km/s) = 3.05531 3.61654 3.34770
# Velocity P-wave (km/s) = 6.97912 7.41438 7.20004
#
# Compressibility (1/GPa) = 0.01740754
#
# Stress axis : x y z
#
# Youngs Moduli (GPa) = 107.39748 57.31687 85.62483
#
# Poissons Ratio (x) = 0.15916 0.14540
# Poissons Ratio (y) = 0.29823 0.51715
# Poissons Ratio (z) = 0.18238 0.34618
#
# Static dielectric constant tensor:
#      x y z
#    x 1.543160 0.000000 0.000000 
#    y 0.000000 1.518180 0.000000 
#    z 0.000000 0.000000 1.544860 
# 
# From -- ./inp_files/11832.got.cif
#   From: 2010.05.17/outbox.cif.g08.bks.cpg/sg37_6_cif.got.tgz:11832.got - 2010.06.03 17:53:42.
