data_PCOD9353013
_publ_section_title
;
Structure prediction by ZEFSAII (Michael W. Deem and Ramdas Pophale) SiO2 
 PCOD9353013
Probable space group: C M C 21
;
_chemical_formula_sum "Si O2"
_cell_formula_units_Z 36
_cell_length_a 23.397218
_cell_length_b 13.075499
_cell_length_c 4.950796
_cell_angle_alpha 90.000000
_cell_angle_beta 90.000000
_cell_angle_gamma 90.000000
_cell_volume 1514.598508
_symmetry_space_group_name_H-M "C M C 21"
_symmetry_group_IT_number 36
_symmetry_cell_setting 'orthorhombic'
loop_
_space_group_symop_operation_xyz
x,y,z
-x,-y,1/2+z
x,-y,1/2+z
-x,y,z
1/2+x,1/2+y,z
1/2-x,1/2-y,1/2+z
1/2+x,1/2-y,1/2+z
1/2-x,1/2+y,z
loop_
_atom_site_type_symbol
_atom_site_label
_atom_site_fract_x
_atom_site_fract_y
_atom_site_fract_z
Si Si1 0.562233 0.273867 0.990210
Si Si2 0.000000 0.930603 0.665976
Si Si3 0.677565 0.719060 0.787100
Si Si4 0.909401 0.557549 0.718690
Si Si5 0.794834 0.647242 0.787986
O O1 0.500000 0.266032 0.129483
O O2 0.572364 0.165511 0.842424
O O3 0.553068 0.360799 0.762691
O O4 0.613887 0.302044 0.187347
O O5 0.000000 0.028339 0.865350
O O6 0.727236 0.634889 0.741899
O O7 0.696226 0.813106 0.591787
O O8 0.683804 0.760746 0.089864
O O9 0.928665 0.532482 0.418701
O O10 0.840217 0.560340 0.724594
#
# Coordination Sequence:
#
# PCOD9353013 Si02
#       5
#     8   4   8   8   8
#     4   9  22  42  63  93 124 174 212 265 327 384
#     4  10  24  44  64  86 116 156 212 274 318 366
#     4   9  17  35  58  85 115 161 213 260 311 372
#     4  11  22  37  58  92 133 168 207 252 308 393
#     4   9  18  33  57  83 120 164 210 257 310 360
#
# _framework density 23.768675999999999
#
# number of rings (size 3 to 8) (size 9 to 14) (size 15 to 20)
#    0.667    1.778    0.000    2.667    0.000    6.222 
#    0.000    2.222    0.000    0.000    0.000    0.000 
#    0.000    0.000    0.000    0.000    0.000    0.000 
#
# Total GULP energy -100465.428277 kJ/mol
# GULP energy per Si atom -5581.412682 kJ/mol
# Density = 2.371458 g / cm^3
# Si number density = 23.768676 Si / 1000 Ang^3
#
#
#
# Elastic Constant Matrix: (Units=GPa)
#
#
# Indices 1 2 3 4 5 6 
#
# 1 176.3542 23.3925 12.2458 0.0000 0.0000 0.0000
# 2 23.3925 74.7530 18.7169 0.0000 0.0000 0.0000
# 3 12.2458 18.7169 59.5966 0.0000 0.0000 0.0000
# 4 0.0000 0.0000 0.0000 31.6397 0.0000 0.0000
# 5 0.0000 0.0000 0.0000 0.0000 18.4761 0.0000
# 6 0.0000 0.0000 0.0000 0.0000 0.0000 30.1585
#
#
#
# Elastic Compliance Matrix: (Units=1/GPa)
#
#
# Indices 1 2 3 4 5 6 
#
# 1 0.005942 -0.001686 -0.000691 0.000000 0.000000 0.000000
# 2 -0.001686 0.014998 -0.004364 0.000000 0.000000 0.000000
# 3 -0.000691 -0.004364 0.018292 0.000000 0.000000 0.000000
# 4 0.000000 0.000000 0.000000 0.031606 0.000000 0.000000
# 5 0.000000 0.000000 0.000000 0.000000 0.054124 0.000000
# 6 0.000000 0.000000 0.000000 0.000000 0.000000 0.033158
#
#
# Mechanical properties :
#
#
# Convention : Reuss Voigt Hill
#
# Bulk Modulus (GPa) = 38.83641 46.60157 42.71899
# Shear Modulus (GPa) = 27.74919 33.14478 30.44698
#
# Velocity S-wave (km/s) = 3.42053 3.73832 3.58295
# Velocity P-wave (km/s) = 5.65463 6.18726 5.92693
#
# Compressibility (1/GPa) = 0.02574904
#
# Stress axis : x y z
#
# Youngs Moduli (GPa) = 168.29071 66.67692 54.66871
#
# Poissons Ratio (x) = 0.11244 0.03780
# Poissons Ratio (y) = 0.28380 0.23856
# Poissons Ratio (z) = 0.11635 0.29096
#
# Static dielectric constant tensor:
#      x y z
#    x 1.991450 0.000000 0.000000 
#    y 0.000000 1.865040 0.000000 
#    z 0.000000 0.000000 1.873610 
# 
# From -- ./inp_files/1530.got.cif
#   From: 2010.05.17/outbox.cif.g08.bks.cpg/sg36_1_cif.got.tgz:1530.got - 2010.06.03 17:41:39.
