data_PCOD9353583
_publ_section_title
;
Structure prediction by ZEFSAII (Michael W. Deem and Ramdas Pophale) SiO2 
 PCOD9353583
Probable space group: C C C 2
;
_chemical_formula_sum "Si O2"
_cell_formula_units_Z 64
_cell_length_a 14.489831
_cell_length_b 10.493402
_cell_length_c 18.091025
_cell_angle_alpha 90.000000
_cell_angle_beta 90.000000
_cell_angle_gamma 90.000000
_cell_volume 2750.697323
_symmetry_space_group_name_H-M "C C C 2"
_symmetry_group_IT_number 37
_symmetry_cell_setting 'orthorhombic'
loop_
_space_group_symop_operation_xyz
x,y,z
-x,-y,z
-x,y,1/2+z
x,-y,1/2+z
1/2+x,1/2+y,z
1/2-x,1/2-y,z
1/2-x,1/2+y,1/2+z
1/2+x,1/2-y,1/2+z
loop_
_atom_site_type_symbol
_atom_site_label
_atom_site_fract_x
_atom_site_fract_y
_atom_site_fract_z
Si Si1 0.400532 0.455456 0.387930
Si Si2 0.411619 0.668495 0.263214
Si Si3 0.226121 0.949782 0.166268
Si Si4 0.267576 0.467024 0.003746
Si Si5 0.593753 0.695916 0.176095
Si Si6 0.601333 0.040378 0.750986
Si Si7 0.901611 0.280801 0.511824
Si Si8 0.022480 0.317056 0.371245
O O1 0.500000 0.500000 0.424536
O O2 0.390363 0.555977 0.321507
O O3 0.308641 0.453943 0.436357
O O4 0.419865 0.312791 0.363081
O O5 0.332870 0.662170 0.202576
O O6 0.503014 0.645018 0.215725
O O7 0.436016 0.790675 0.314320
O O8 0.233850 0.948160 0.077834
O O9 0.168611 0.083862 0.173945
O O10 0.318917 0.958928 0.214042
O O11 0.169687 0.397188 0.003545
O O12 0.341200 0.348058 0.998654
O O13 0.625669 0.818774 0.220979
O O14 0.568457 0.753268 0.095609
O O15 0.583222 0.067725 0.838670
O O16 0.500000 0.000000 0.721477
O O17 0.981986 0.310996 0.453443
#
# Coordination Sequence:
#
# PCOD9353583 Si02
#       8
#     8   8   8   8   8   8   8   8
#     4  10  18  34  54  91 130 160 198 270 321 378
#     4  10  20  35  62  98 124 154 206 268 328 370
#     4  11  21  37  64  97 124 161 213 264 317 390
#     4  10  20  32  57  93 128 158 207 261 327 367
#     4  10  20  38  65  94 123 163 209 268 320 377
#     4  11  24  43  60  87 124 174 217 260 321 386
#     4  10  19  35  57  90 130 161 210 260 311 390
#     4  10  21  39  60  88 125 165 209 261 324 378
#
# _framework density 23.266825999999998
#
# number of rings (size 3 to 8) (size 9 to 14) (size 15 to 20)
#    0.000    1.750    3.750    3.750    1.750    1.000 
#    0.000    2.500    2.750    0.000    0.000    0.000 
#    0.000    0.000    0.000    0.000    0.000    0.000 
#
# Total GULP energy -178530.404846 kJ/mol
# GULP energy per Si atom -5579.075151 kJ/mol
# Density = 2.321387 g / cm^3
# Si number density = 23.266826 Si / 1000 Ang^3
#
#
#
# Elastic Constant Matrix: (Units=GPa)
#
#
# Indices 1 2 3 4 5 6 
#
# 1 77.7996 20.9014 61.7157 0.0000 0.0000 0.0000
# 2 20.9014 75.7033 26.9321 0.0000 0.0000 0.0000
# 3 61.7157 26.9321 155.2367 0.0000 0.0000 0.0000
# 4 0.0000 0.0000 0.0000 21.6404 0.0000 0.0000
# 5 0.0000 0.0000 0.0000 0.0000 26.1806 0.0000
# 6 0.0000 0.0000 0.0000 0.0000 0.0000 21.1035
#
#
#
# Elastic Compliance Matrix: (Units=1/GPa)
#
#
# Indices 1 2 3 4 5 6 
#
# 1 0.019305 -0.002771 -0.007194 0.000000 0.000000 0.000000
# 2 -0.002771 0.014476 -0.001410 0.000000 0.000000 0.000000
# 3 -0.007194 -0.001410 0.009546 0.000000 0.000000 0.000000
# 4 0.000000 0.000000 0.000000 0.046210 0.000000 0.000000
# 5 0.000000 0.000000 0.000000 0.000000 0.038196 0.000000
# 6 0.000000 0.000000 0.000000 0.000000 0.000000 0.047385
#
#
# Mechanical properties :
#
#
# Convention : Reuss Voigt Hill
#
# Bulk Modulus (GPa) = 48.59588 58.64868 53.62228
# Shear Modulus (GPa) = 24.42273 27.06426 25.74349
#
# Velocity S-wave (km/s) = 3.24339 3.41429 3.32994
# Velocity P-wave (km/s) = 5.91251 6.38787 6.15478
#
# Compressibility (1/GPa) = 0.02057787
#
# Stress axis : x y z
#
# Youngs Moduli (GPa) = 51.80089 69.07973 104.75081
#
# Poissons Ratio (x) = 0.19139 0.75359
# Poissons Ratio (y) = 0.14352 0.14770
# Poissons Ratio (z) = 0.37266 0.09740
#
# Static dielectric constant tensor:
#      x y z
#    x 1.912320 0.000000 0.000000 
#    y 0.000000 1.962560 0.000000 
#    z 0.000000 0.000000 1.911810 
# 
# From -- ./inp_files/15302.got.cif
#   From: 2010.05.17/outbox.cif.g08.bks.cpg/sg37_8_cif.got.tgz:15302.got - 2010.06.03 17:53:42.
