data_PCOD9353379
_publ_section_title
;
Structure prediction by ZEFSAII (Michael W. Deem and Ramdas Pophale) SiO2 
 PCOD9353379
Probable space group: C M C 21
;
_chemical_formula_sum "Si O2"
_cell_formula_units_Z 32
_cell_length_a 9.000000
_cell_length_b 21.000000
_cell_length_c 18.000000
_cell_angle_alpha 90.000000
_cell_angle_beta 90.000000
_cell_angle_gamma 90.000000
_cell_volume 3402.000000
_symmetry_space_group_name_H-M "C M C 21"
_symmetry_group_IT_number 36
_symmetry_cell_setting 'orthorhombic'
loop_
_space_group_symop_operation_xyz
x,y,z
-x,-y,1/2+z
x,-y,1/2+z
-x,y,z
1/2+x,1/2+y,z
1/2-x,1/2-y,1/2+z
1/2+x,1/2-y,1/2+z
1/2-x,1/2+y,z
loop_
_atom_site_type_symbol
_atom_site_label
_atom_site_fract_x
_atom_site_fract_y
_atom_site_fract_z
Si Si1 0.825019 0.202208 0.317490
Si Si2 0.320227 0.051982 0.936418
Si Si3 0.672065 0.247249 0.048594
Si Si4 0.180486 0.484479 0.605046
Si Si5 0.322537 0.311967 0.404574
Si Si6 0.827956 0.376801 0.081558
Si Si7 0.327110 0.855399 0.678048
Si Si8 0.671217 0.089716 0.406270
O O1 0.741149 0.267206 0.339466
O O2 0.776312 0.179237 0.236580
O O3 0.771318 0.143323 0.368967
O O4 0.000000 0.211804 0.324532
O O5 0.500000 0.059435 0.934468
O O6 0.245773 0.116776 0.907540
O O7 0.285119 0.984579 0.895889
O O8 0.275760 0.039431 0.022521
O O9 0.500000 0.257540 0.026078
O O10 0.734871 0.311824 0.085908
O O11 0.675617 0.187390 0.104083
O O12 0.769302 0.226302 0.978156
O O13 0.229101 0.557460 0.619560
O O14 0.221234 0.427887 0.660983
O O15 0.000000 0.487286 0.603978
O O16 0.500000 0.315158 0.401809
O O17 0.000000 0.365032 0.103757
O O18 0.828883 0.396334 0.994406
O O19 0.500000 0.856649 0.703241
O O20 0.500000 0.096945 0.380700
#
# Coordination Sequence:
#
# PCOD9353379 Si02
#       8
#     8   8   8   8   8   8   8   8
#     4  12  25  39  57  82 116 154 198 243 287 343
#     4   9  17  34  59  87 115 144 185 232 282 339
#     4  11  21  35  58  86 115 150 190 240 291 341
#     4   8  15  32  57  83 110 145 184 223 274 339
#     4  12  23  36  57  85 117 153 194 241 291 342
#     4   9  17  31  56  86 114 144 183 230 275 334
#     4  10  21  39  60  80 111 154 195 233 289 351
#     4   9  18  34  58  85 114 148 185 228 283 343
#
# _framework density 9.4062319999999993
#
# number of rings (size 3 to 8) (size 9 to 14) (size 15 to 20)
#    0.000    2.000    2.500    4.125    0.000    1.500 
#    0.000    3.750    0.000    4.500    0.000    0.000 
#    0.000    0.000    0.000    0.000    0.000    0.000 
#
# Total GULP energy -178534.380263 kJ/mol
# GULP energy per Si atom -5579.199383 kJ/mol
# Density = 0.938482 g / cm^3
# Si number density = 9.406232 Si / 1000 Ang^3
#
#
#
# Elastic Constant Matrix: (Units=GPa)
#
#
# Indices 1 2 3 4 5 6 
#
# 1 81.1248 26.5771 -3.8493 0.0000 0.0000 0.0000
# 2 26.5771 102.3238 -22.0255 0.0000 0.0000 0.0000
# 3 -3.8493 -22.0255 8.8601 0.0000 0.0000 0.0000
# 4 0.0000 0.0000 0.0000 20.2427 0.0000 0.0000
# 5 0.0000 0.0000 0.0000 0.0000 21.0302 0.0000
# 6 0.0000 0.0000 0.0000 0.0000 0.0000 36.6380
#
#
#
# Elastic Compliance Matrix: (Units=1/GPa)
#
#
# Indices 1 2 3 4 5 6 
#
# 1 0.013629 -0.004873 -0.006193 0.000000 0.000000 0.000000
# 2 -0.004873 0.022764 0.054473 0.000000 0.000000 0.000000
# 3 -0.006193 0.054473 0.245591 0.000000 0.000000 0.000000
# 4 0.000000 0.000000 0.000000 0.049400 0.000000 0.000000
# 5 0.000000 0.000000 0.000000 0.000000 0.047551 0.000000
# 6 0.000000 0.000000 0.000000 0.000000 0.000000 0.027294
#
#
# Mechanical properties :
#
#
# Convention : Reuss Voigt Hill
#
# Bulk Modulus (GPa) = 2.71150 21.52369 12.11759
# Shear Modulus (GPa) = 11.30330 28.35596 19.82963
#
# Velocity S-wave (km/s) = 2.45387 3.88660 3.25016
# Velocity P-wave (km/s) = 3.07783 5.62200 4.53211
#
# Compressibility (1/GPa) = 0.36879906
#
# Stress axis : x y z
#
# Youngs Moduli (GPa) = 73.37138 43.92888 4.07180
#
# Poissons Ratio (x) = 0.21407 0.02522
# Poissons Ratio (y) = 0.35754 -0.22180
# Poissons Ratio (z) = 0.45437 -2.39293
#
# Static dielectric constant tensor:
#      x y z
#    x 1.631580 0.000000 0.000000 
#    y 0.000000 1.659220 0.000000 
#    z 0.000000 0.000000 1.683230 
# 
# From -- ./inp_files/13976.got.cif
#   From: 2010.05.17/outbox.ucp.g08.bks.cvg/sg36_7_cif.got.tgz:13976.got - 2010.06.11 10:37:26.
