data_PCOD9353695
_publ_section_title
;
Structure prediction by ZEFSAII (Michael W. Deem and Ramdas Pophale) SiO2 
 PCOD9353695
Probable space group: C C C 2
;
_chemical_formula_sum "Si O2"
_cell_formula_units_Z 64
_cell_length_a 22.703722
_cell_length_b 22.179995
_cell_length_c 5.117855
_cell_angle_alpha 90.000000
_cell_angle_beta 90.000000
_cell_angle_gamma 90.000000
_cell_volume 2577.190261
_symmetry_space_group_name_H-M "C C C 2"
_symmetry_group_IT_number 37
_symmetry_cell_setting 'orthorhombic'
loop_
_space_group_symop_operation_xyz
x,y,z
-x,-y,z
-x,y,1/2+z
x,-y,1/2+z
1/2+x,1/2+y,z
1/2-x,1/2-y,z
1/2-x,1/2+y,1/2+z
1/2+x,1/2-y,1/2+z
loop_
_atom_site_type_symbol
_atom_site_label
_atom_site_fract_x
_atom_site_fract_y
_atom_site_fract_z
Si Si1 0.038948 0.657692 0.937570
Si Si2 0.170519 0.808173 0.396994
Si Si3 0.342517 0.612227 0.914853
Si Si4 0.538852 0.421572 0.820377
Si Si5 0.034818 0.220792 0.279556
Si Si6 0.691991 0.825871 0.909617
Si Si7 0.901900 0.533570 0.287780
Si Si8 0.794738 0.402427 0.924966
O O1 0.071247 0.721352 0.875438
O O2 0.073928 0.598459 0.865014
O O3 0.984510 0.656743 0.731438
O O4 0.161266 0.839653 0.676224
O O5 0.240066 0.812007 0.340018
O O6 0.157186 0.737039 0.391918
O O7 0.141892 0.850551 0.178180
O O8 0.392711 0.561763 0.860579
O O9 0.275605 0.587367 0.944350
O O10 0.506077 0.436661 0.552499
O O11 0.547484 0.348920 0.821890
O O12 0.978707 0.227593 0.474699
O O13 0.694270 0.852115 0.200808
O O14 0.677904 0.877173 0.696567
O O15 0.921433 0.485117 0.501549
O O16 0.831604 0.540627 0.324738
#
# Coordination Sequence:
#
# PCOD9353695 Si02
#       8
#     8   8   8   8   8   8   8   8
#     4  10  21  38  58  79 102 134 176 218 266 322
#     4   9  17  28  46  75 106 136 173 208 245 300
#     4  10  19  32  51  75 107 147 180 210 252 310
#     4  10  19  32  49  75 110 144 178 213 247 292
#     4   8  16  30  47  69 100 136 171 204 243 294
#     4   9  17  31  50  74 104 135 169 211 255 303
#     4  12  26  42  59  80 104 132 173 233 293 333
#     4  10  21  37  54  75 105 137 174 219 271 330
#
# _framework density 24.833245000000002
#
# number of rings (size 3 to 8) (size 9 to 14) (size 15 to 20)
#    0.000    2.250    0.000    3.000    0.000    6.500 
#    0.000    5.000    0.000    0.000    0.000    0.000 
#    0.000    3.000    0.000    0.000    0.000    0.000 
#
# Total GULP energy -178771.504928 kJ/mol
# GULP energy per Si atom -5586.609529 kJ/mol
# Density = 2.477672 g / cm^3
# Si number density = 24.833245 Si / 1000 Ang^3
#
#
#
# Elastic Constant Matrix: (Units=GPa)
#
#
# Indices 1 2 3 4 5 6 
#
# 1 66.5816 11.2836 10.8713 0.0000 0.0000 0.0000
# 2 11.2836 69.2622 -9.0306 0.0000 0.0000 0.0000
# 3 10.8713 -9.0306 81.2312 0.0000 0.0000 0.0000
# 4 0.0000 0.0000 0.0000 64.4066 0.0000 0.0000
# 5 0.0000 0.0000 0.0000 0.0000 32.1429 0.0000
# 6 0.0000 0.0000 0.0000 0.0000 0.0000 17.1459
#
#
#
# Elastic Compliance Matrix: (Units=1/GPa)
#
#
# Indices 1 2 3 4 5 6 
#
# 1 0.015913 -0.002912 -0.002453 0.000000 0.000000 0.000000
# 2 -0.002912 0.015183 0.002078 0.000000 0.000000 0.000000
# 3 -0.002453 0.002078 0.012870 0.000000 0.000000 0.000000
# 4 0.000000 0.000000 0.000000 0.015526 0.000000 0.000000
# 5 0.000000 0.000000 0.000000 0.000000 0.031111 0.000000
# 6 0.000000 0.000000 0.000000 0.000000 0.000000 0.058323
#
#
# Mechanical properties :
#
#
# Convention : Reuss Voigt Hill
#
# Bulk Modulus (GPa) = 26.74498 27.03596 26.89047
# Shear Modulus (GPa) = 29.76787 36.33580 33.05183
#
# Velocity S-wave (km/s) = 3.46600 3.82932 3.65218
# Velocity P-wave (km/s) = 5.17791 5.51926 5.35130
#
# Compressibility (1/GPa) = 0.03739020
#
# Stress axis : x y z
#
# Youngs Moduli (GPa) = 62.84042 65.86208 77.70085
#
# Poissons Ratio (x) = 0.19181 0.19064
# Poissons Ratio (y) = 0.18301 -0.16144
# Poissons Ratio (z) = 0.15418 -0.13684
#
# Static dielectric constant tensor:
#      x y z
#    x 2.081710 0.000000 0.000000 
#    y 0.000000 2.011260 0.000000 
#    z 0.000000 0.000000 1.917950 
# 
# From -- ./inp_files/1264.got.cif
#   From: 2010.05.17/outbox.cif.g08.bks.cpg/sg37_1_cif.got.tgz:1264.got - 2010.06.03 17:53:42.
