data_PCOD9353337
_publ_section_title
;
Structure prediction by ZEFSAII (Michael W. Deem and Ramdas Pophale) SiO2 
 PCOD9353337
Probable space group: C M C 21
;
_chemical_formula_sum "Si O2"
_cell_formula_units_Z 32
_cell_length_a 9.000000
_cell_length_b 21.000000
_cell_length_c 18.000000
_cell_angle_alpha 90.000000
_cell_angle_beta 90.000000
_cell_angle_gamma 90.000000
_cell_volume 3402.000000
_symmetry_space_group_name_H-M "C M C 21"
_symmetry_group_IT_number 36
_symmetry_cell_setting 'orthorhombic'
loop_
_space_group_symop_operation_xyz
x,y,z
-x,-y,1/2+z
x,-y,1/2+z
-x,y,z
1/2+x,1/2+y,z
1/2-x,1/2-y,1/2+z
1/2+x,1/2-y,1/2+z
1/2-x,1/2+y,z
loop_
_atom_site_type_symbol
_atom_site_label
_atom_site_fract_x
_atom_site_fract_y
_atom_site_fract_z
Si Si1 0.670188 0.690682 0.458750
Si Si2 0.677822 0.396566 0.207797
Si Si3 0.676854 0.747849 0.690926
Si Si4 0.830722 0.852179 0.790551
Si Si5 0.179051 0.577103 0.547410
Si Si6 0.175681 0.435572 0.571193
Si Si7 0.323753 0.024007 0.244722
Si Si8 0.322352 0.299073 0.542694
O O1 0.500000 0.691447 0.488303
O O2 0.663886 0.677606 0.371753
O O3 0.759874 0.631032 0.492925
O O4 0.749848 0.757345 0.477078
O O5 0.500000 0.405355 0.209235
O O6 0.709521 0.322170 0.224802
O O7 0.742314 0.407164 0.125337
O O8 0.755717 0.453386 0.253489
O O9 0.500000 0.750996 0.677046
O O10 0.728390 0.805769 0.742238
O O11 0.765447 0.760058 0.614906
O O12 0.760988 0.922540 0.791586
O O13 0.000000 0.854923 0.760260
O O14 0.213541 0.502507 0.530093
O O15 0.000000 0.581295 0.555082
O O16 0.197388 0.452608 0.658707
O O17 0.263677 0.371811 0.549277
O O18 0.000000 0.422999 0.560768
O O19 0.500000 0.023151 0.259108
O O20 0.500000 0.298735 0.538611
#
# Coordination Sequence:
#
# PCOD9353337 Si02
#       8
#     8   8   8   8   8   8   8   8
#     4  11  24  41  59  83 119 158 196 244 300 354
#     4  10  20  34  57  86 118 150 187 239 291 342
#     4  11  22  37  59  87 120 155 192 243 298 347
#     4  11  24  40  60  85 116 157 201 243 294 358
#     4  10  20  35  58  86 114 149 192 238 289 350
#     4   9  19  35  56  85 118 147 185 238 291 339
#     4  10  20  35  58  85 116 151 189 239 290 345
#     4  12  23  35  59  89 117 153 198 244 289 351
#
# _framework density 9.4062319999999993
#
# number of rings (size 3 to 8) (size 9 to 14) (size 15 to 20)
#    0.000    1.500    2.500    4.125    0.000    6.000 
#    0.000    1.250    0.000    0.000    0.000    0.000 
#    0.000    0.000    0.000    0.000    0.000    0.000 
#
# Total GULP energy -178638.192347 kJ/mol
# GULP energy per Si atom -5582.443511 kJ/mol
# Density = 0.938482 g / cm^3
# Si number density = 9.406232 Si / 1000 Ang^3
#
#
#
# Elastic Constant Matrix: (Units=GPa)
#
#
# Indices 1 2 3 4 5 6 
#
# 1 93.9187 29.8699 -12.3908 0.0000 0.0000 0.0000
# 2 29.8699 96.9590 -25.5895 0.0000 0.0000 0.0000
# 3 -12.3908 -25.5895 1.0492 0.0000 0.0000 0.0000
# 4 0.0000 0.0000 0.0000 20.2961 0.0000 0.0000
# 5 0.0000 0.0000 0.0000 0.0000 18.5377 0.0000
# 6 0.0000 0.0000 0.0000 0.0000 0.0000 40.7630
#
#
#
# Elastic Compliance Matrix: (Units=1/GPa)
#
#
# Indices 1 2 3 4 5 6 
#
# 1 0.011328 -0.005852 -0.008951 0.000000 0.000000 0.000000
# 2 -0.005852 0.001126 -0.041642 0.000000 0.000000 0.000000
# 3 -0.008951 -0.041642 -0.168229 0.000000 0.000000 0.000000
# 4 0.000000 0.000000 0.000000 0.049271 0.000000 0.000000
# 5 0.000000 0.000000 0.000000 0.000000 0.053944 0.000000
# 6 0.000000 0.000000 0.000000 0.000000 0.000000 0.024532
#
#
# Mechanical properties :
#
#
# Convention : Reuss Voigt Hill
#
# Bulk Modulus (GPa) = -3.72212 19.52289 7.90038
# Shear Modulus (GPa) = -1065.31323 29.25518 -518.02902
#
# Velocity S-wave (km/s) = -23.82247 3.94775 -16.61212
# Velocity P-wave (km/s) = 27.54383 5.58389 19.07201
#
# Compressibility (1/GPa) = -0.26866404
#
# Stress axis : x y z
#
# Youngs Moduli (GPa) = 88.27855 887.81491 -5.94428
#
# Poissons Ratio (x) = 5.19554 -0.05321
# Poissons Ratio (y) = 0.51661 -0.24753
# Poissons Ratio (z) = 0.79017 36.97008
#
# Static dielectric constant tensor:
#      x y z
#    x 1.640160 0.000000 0.000000 
#    y 0.000000 1.662370 0.000000 
#    z 0.000000 0.000000 1.664130 
# 
# From -- ./inp_files/13824.got.cif
#   From: 2010.05.17/outbox.ucp.g08.bks.cvg/sg36_7_cif.got.tgz:13824.got - 2010.06.11 10:37:26.
