data_PCOD9353857
_publ_section_title
;
Structure prediction by ZEFSAII (Michael W. Deem and Ramdas Pophale) SiO2 
 PCOD9353857
Probable space group: C C C 2
;
_chemical_formula_sum "Si O2"
_cell_formula_units_Z 60
_cell_length_a 5.503661
_cell_length_b 15.904282
_cell_length_c 31.294983
_cell_angle_alpha 90.000000
_cell_angle_beta 90.000000
_cell_angle_gamma 90.000000
_cell_volume 2739.305460
_symmetry_space_group_name_H-M "C C C 2"
_symmetry_group_IT_number 37
_symmetry_cell_setting 'orthorhombic'
loop_
_space_group_symop_operation_xyz
x,y,z
-x,-y,z
-x,y,1/2+z
x,-y,1/2+z
1/2+x,1/2+y,z
1/2-x,1/2-y,z
1/2-x,1/2+y,1/2+z
1/2+x,1/2-y,1/2+z
loop_
_atom_site_type_symbol
_atom_site_label
_atom_site_fract_x
_atom_site_fract_y
_atom_site_fract_z
Si Si1 0.241440 0.147135 0.638710
Si Si2 0.499897 0.299652 0.845455
Si Si3 0.148342 0.082002 0.277085
Si Si4 0.240172 0.649195 0.686483
Si Si5 0.240580 0.094496 0.542418
Si Si6 0.762005 0.400262 0.508022
Si Si7 0.152597 0.082370 0.913257
Si Si8 0.000000 0.500000 0.345095
O O1 0.250000 0.250000 0.633169
O O2 0.494437 0.123176 0.661915
O O3 0.227125 0.101127 0.593252
O O4 0.997424 0.123745 0.664981
O O5 0.250000 0.250000 0.850534
O O6 0.473974 0.354364 0.802297
O O7 0.521576 0.352966 0.889140
O O8 0.750000 0.250000 0.839836
O O9 0.268895 0.119428 0.235291
O O10 0.334886 0.055040 0.313987
O O11 0.000000 0.000000 0.264191
O O12 0.250000 0.750000 0.686286
O O13 0.494218 0.135800 0.528457
O O14 0.996091 0.134793 0.523504
O O15 0.251970 0.998693 0.523781
O O16 0.776080 0.391025 0.457078
O O17 0.340626 0.056774 0.876455
O O18 0.000000 0.000000 0.924819
#
# Coordination Sequence:
#
# PCOD9353857 Si02
#       8
#     8   8   8   8   8   8   8   4
#     4  10  22  43  67  91 130 177 215 264 343 414
#     4  12  27  45  68 101 138 185 232 281 340 408
#     4  12  26  45  68 103 136 180 233 288 339 404
#     4  10  24  44  67  95 133 179 219 273 341 409
#     4  10  19  39  61  97 119 160 220 264 327 402
#     4  10  22  37  65  93 127 166 213 270 338 385
#     4  12  23  43  71  95 139 185 229 282 337 414
#     4  12  22  42  70 102 136 180 232 284 344 388
#
# _framework density 21.903362000000001
#
# number of rings (size 3 to 8) (size 9 to 14) (size 15 to 20)
#    0.000    1.067    4.000    2.800    1.867    1.600 
#    7.200    2.000    0.000    0.000    0.000    0.000 
#    0.000    0.000    0.000    0.000    0.000    0.000 
#
# Total GULP energy -167687.754314 kJ/mol
# GULP energy per Si atom -5589.591810 kJ/mol
# Density = 2.185351 g / cm^3
# Si number density = 21.903362 Si / 1000 Ang^3
#
#
#
# Elastic Constant Matrix: (Units=GPa)
#
#
# Indices 1 2 3 4 5 6 
#
# 1 161.8963 7.6717 57.9188 0.0000 0.0000 0.0000
# 2 7.6717 29.1514 11.7237 0.0000 0.0000 0.0000
# 3 57.9188 11.7237 181.9219 0.0000 0.0000 0.0000
# 4 0.0000 0.0000 0.0000 199.7842 0.0000 0.0000
# 5 0.0000 0.0000 0.0000 0.0000 120.8135 0.0000
# 6 0.0000 0.0000 0.0000 0.0000 0.0000 10.7374
#
#
#
# Elastic Compliance Matrix: (Units=1/GPa)
#
#
# Indices 1 2 3 4 5 6 
#
# 1 0.006997 -0.000971 -0.002165 0.000000 0.000000 0.000000
# 2 -0.000971 0.035351 -0.001969 0.000000 0.000000 0.000000
# 3 -0.002165 -0.001969 0.006313 0.000000 0.000000 0.000000
# 4 0.000000 0.000000 0.000000 0.005005 0.000000 0.000000
# 5 0.000000 0.000000 0.000000 0.000000 0.008277 0.000000
# 6 0.000000 0.000000 0.000000 0.000000 0.000000 0.093132
#
#
# Mechanical properties :
#
#
# Convention : Reuss Voigt Hill
#
# Bulk Modulus (GPa) = 26.00682 58.62199 42.31441
# Shear Modulus (GPa) = 28.07354 85.97739 57.02547
#
# Velocity S-wave (km/s) = 3.58397 6.27202 5.10799
# Velocity P-wave (km/s) = 5.38755 8.90354 7.35862
#
# Compressibility (1/GPa) = 0.03845145
#
# Stress axis : x y z
#
# Youngs Moduli (GPa) = 142.91012 28.28776 158.40070
#
# Poissons Ratio (x) = 0.02746 0.34297
# Poissons Ratio (y) = 0.13872 0.31191
# Poissons Ratio (z) = 0.30943 0.05570
#
# Static dielectric constant tensor:
#      x y z
#    x 1.855450 0.000000 0.000000 
#    y 0.000000 1.873350 0.000000 
#    z 0.000000 0.000000 1.748910 
# 
# From -- ./inp_files/19506.got.cif
#   From: 2010.05.17/outbox.cif.g08.bks.cpg/sg37_10_cif.got.tgz:19506.got - 2010.06.03 17:53:42.
