data_PCOD9353083
_publ_section_title
;
Structure prediction by ZEFSAII (Michael W. Deem and Ramdas Pophale) SiO2 
 PCOD9353083
Probable space group: C M C 21
;
_chemical_formula_sum "Si O2"
_cell_formula_units_Z 48
_cell_length_a 15.712271
_cell_length_b 15.700324
_cell_length_c 9.267034
_cell_angle_alpha 90.000000
_cell_angle_beta 90.000000
_cell_angle_gamma 90.000000
_cell_volume 2286.063725
_symmetry_space_group_name_H-M "C M C 21"
_symmetry_group_IT_number 36
_symmetry_cell_setting 'orthorhombic'
loop_
_space_group_symop_operation_xyz
x,y,z
-x,-y,1/2+z
x,-y,1/2+z
-x,y,z
1/2+x,1/2+y,z
1/2-x,1/2-y,1/2+z
1/2+x,1/2-y,1/2+z
1/2-x,1/2+y,z
loop_
_atom_site_type_symbol
_atom_site_label
_atom_site_fract_x
_atom_site_fract_y
_atom_site_fract_z
Si Si1 0.682645 0.183482 0.333580
Si Si2 0.361850 0.497701 0.966917
Si Si3 0.185797 0.317035 0.185075
Si Si4 0.748775 0.004851 0.216874
Si Si5 0.500000 0.642057 0.475402
Si Si6 0.000000 0.252448 0.727444
Si Si7 0.500000 0.633742 0.961265
Si Si8 0.500000 0.751004 0.211235
O O1 0.748883 0.249884 0.258791
O O2 0.691309 0.188349 0.508693
O O3 0.587181 0.205627 0.281274
O O4 0.702554 0.088462 0.275677
O O5 0.273473 0.508490 0.049303
O O6 0.418402 0.579224 0.998298
O O7 0.339238 0.495318 0.799100
O O8 0.416205 0.414273 0.005348
O O9 0.206979 0.412782 0.235230
O O10 0.089285 0.297458 0.232954
O O11 0.500000 0.731670 0.558393
O O12 0.500000 0.666172 0.307577
O O13 0.000000 0.157117 0.794284
O O14 0.500000 0.720965 0.046155
#
# Coordination Sequence:
#
# PCOD9353083 Si02
#       8
#     8   8   8   8   4   4   4   4
#     4  12  27  48  75 106 147 196 243 302 364 430
#     4  11  22  40  66 103 140 180 236 303 372 427
#     4  12  27  48  75 106 147 196 243 302 364 430
#     4  12  26  42  70 104 144 190 242 293 350 439
#     4  11  24  42  68 107 140 182 240 303 374 437
#     4  12  26  44  70 103 142 189 244 298 355 434
#     4  11  20  38  68  95 138 182 226 305 376 415
#     4  12  26  44  70 103 142 189 244 298 355 434
#
# _framework density 20.996790000000001
#
# number of rings (size 3 to 8) (size 9 to 14) (size 15 to 20)
#    0.000    0.333    3.333    6.000    4.667    3.333 
#    0.000    0.000    0.000    0.000    0.000    0.000 
#    0.000    0.000    0.000    0.000    0.000    0.000 
#
# Total GULP energy -134091.578339 kJ/mol
# GULP energy per Si atom -5587.149097 kJ/mol
# Density = 2.094900 g / cm^3
# Si number density = 20.996790 Si / 1000 Ang^3
#
#
#
# Elastic Constant Matrix: (Units=GPa)
#
#
# Indices 1 2 3 4 5 6 
#
# 1 154.1181 85.5780 32.8852 0.0000 0.0000 0.0000
# 2 85.5780 149.4196 31.8834 0.0000 0.0000 0.0000
# 3 32.8852 31.8834 79.1721 0.0000 0.0000 0.0000
# 4 0.0000 0.0000 0.0000 38.3305 0.0000 0.0000
# 5 0.0000 0.0000 0.0000 0.0000 31.9025 0.0000
# 6 0.0000 0.0000 0.0000 0.0000 0.0000 -7.1406
#
#
#
# Elastic Compliance Matrix: (Units=1/GPa)
#
#
# Indices 1 2 3 4 5 6 
#
# 1 0.009790 -0.005185 -0.001978 0.000000 0.000000 0.000000
# 2 -0.005185 0.010068 -0.001901 0.000000 0.000000 0.000000
# 3 -0.001978 -0.001901 0.014218 0.000000 0.000000 0.000000
# 4 0.000000 0.000000 0.000000 0.026089 0.000000 0.000000
# 5 0.000000 0.000000 0.000000 0.000000 0.031346 0.000000
# 6 0.000000 0.000000 0.000000 0.000000 0.000000 -0.140045
#
#
# Mechanical properties :
#
#
# Convention : Reuss Voigt Hill
#
# Bulk Modulus (GPa) = 62.70578 75.93368 69.31973
# Shear Modulus (GPa) = -199.27036 28.10937 -85.58050
#
# Velocity S-wave (km/s) = -9.75250 3.66286 -6.39119
# Velocity P-wave (km/s) = 9.84305 7.35742 4.62353
#
# Compressibility (1/GPa) = 0.01594749
#
# Stress axis : x y z
#
# Youngs Moduli (GPa) = 102.14912 99.32815 70.33391
#
# Poissons Ratio (x) = 0.51499 0.13914
# Poissons Ratio (y) = 0.52962 0.13369
# Poissons Ratio (z) = 0.20208 0.18880
#
# Static dielectric constant tensor:
#      x y z
#    x 1.745580 0.000000 0.000000 
#    y 0.000000 1.735560 0.000000 
#    z 0.000000 0.000000 1.717870 
# 
# From -- ./inp_files/4707.got.cif
#   From: 2010.05.17/outbox.cif.g08.bks.cpg/sg36_3_cif.got.tgz:4707.got - 2010.06.03 17:41:39.
