data_PCOD9353745
_publ_section_title
;
Structure prediction by ZEFSAII (Michael W. Deem and Ramdas Pophale) SiO2 
 PCOD9353745
Probable space group: C C C 2
;
_chemical_formula_sum "Si O2"
_cell_formula_units_Z 60
_cell_length_a 20.180759
_cell_length_b 12.083356
_cell_length_c 12.556898
_cell_angle_alpha 90.000000
_cell_angle_beta 90.000000
_cell_angle_gamma 90.000000
_cell_volume 3062.015843
_symmetry_space_group_name_H-M "C C C 2"
_symmetry_group_IT_number 37
_symmetry_cell_setting 'orthorhombic'
loop_
_space_group_symop_operation_xyz
x,y,z
-x,-y,z
-x,y,1/2+z
x,-y,1/2+z
1/2+x,1/2+y,z
1/2-x,1/2-y,z
1/2-x,1/2+y,1/2+z
1/2+x,1/2-y,1/2+z
loop_
_atom_site_type_symbol
_atom_site_label
_atom_site_fract_x
_atom_site_fract_y
_atom_site_fract_z
Si Si1 0.000000 0.000000 0.139320
Si Si2 0.877040 0.031698 0.487293
Si Si3 0.067528 0.355557 0.672269
Si Si4 0.304418 0.345558 0.383557
Si Si5 0.585544 0.096300 0.726716
Si Si6 0.933758 0.710524 0.431018
Si Si7 0.546527 0.663106 0.813119
Si Si8 0.819263 0.206905 0.647599
O O1 0.001778 0.896395 0.221781
O O2 0.936462 0.016461 0.062179
O O3 0.910876 0.073957 0.377785
O O4 0.853985 0.133979 0.559079
O O5 0.813996 0.954891 0.455484
O O6 0.102397 0.472117 0.694228
O O7 0.074017 0.320098 0.551776
O O8 0.087747 0.256863 0.751103
O O9 0.988648 0.375069 0.688394
O O10 0.250000 0.250000 0.410455
O O11 0.376335 0.294223 0.401140
O O12 0.300935 0.361740 0.255764
O O13 0.578765 0.106314 0.854154
O O14 0.635307 0.189372 0.683529
O O15 0.001417 0.770964 0.397869
O O16 0.750000 0.250000 0.604169
#
# Coordination Sequence:
#
# PCOD9353745 Si02
#       8
#     4   8   8   8   8   8   8   8
#     4  12  22  36  60  90 122 154 190 252 326 372
#     4  12  22  36  62  90 118 154 199 255 309 367
#     4  10  20  33  55  85 116 148 187 244 305 363
#     4  10  22  39  57  81 114 156 202 244 295 364
#     4   9  20  35  53  81 114 152 196 238 293 369
#     4  10  19  35  55  79 114 152 190 240 304 362
#     4  11  21  34  56  91 121 146 193 250 309 373
#     4  10  22  41  60  81 115 160 204 242 293 357
#
# _framework density 19.594935
#
# number of rings (size 3 to 8) (size 9 to 14) (size 15 to 20)
#    0.000    1.600    0.000    7.600    0.000    6.400 
#    0.000    2.667    0.000    4.000    0.000    0.000 
#    0.000    0.000    0.000    0.000    0.000    0.000 
#
# Total GULP energy -167295.254393 kJ/mol
# GULP energy per Si atom -5576.508480 kJ/mol
# Density = 1.955034 g / cm^3
# Si number density = 19.594935 Si / 1000 Ang^3
#
#
#
# Elastic Constant Matrix: (Units=GPa)
#
#
# Indices 1 2 3 4 5 6 
#
# 1 46.2198 11.1148 12.1716 0.0000 0.0000 0.0000
# 2 11.1148 90.7746 36.3633 0.0000 0.0000 0.0000
# 3 12.1716 36.3633 80.2137 0.0000 0.0000 0.0000
# 4 0.0000 0.0000 0.0000 -0.2444 0.0000 0.0000
# 5 0.0000 0.0000 0.0000 0.0000 19.7448 0.0000
# 6 0.0000 0.0000 0.0000 0.0000 0.0000 25.4910
#
#
#
# Elastic Compliance Matrix: (Units=1/GPa)
#
#
# Indices 1 2 3 4 5 6 
#
# 1 0.022753 -0.001714 -0.002675 0.000000 0.000000 0.000000
# 2 -0.001714 0.013590 -0.005901 0.000000 0.000000 0.000000
# 3 -0.002675 -0.005901 0.015548 0.000000 0.000000 0.000000
# 4 0.000000 0.000000 0.000000 -4.091764 0.000000 0.000000
# 5 0.000000 0.000000 0.000000 0.000000 0.050646 0.000000
# 6 0.000000 0.000000 0.000000 0.000000 0.000000 0.039230
#
#
# Mechanical properties :
#
#
# Convention : Reuss Voigt Hill
#
# Bulk Modulus (GPa) = 31.93902 37.38974 34.66438
# Shear Modulus (GPa) = -1.27584 19.50218 9.11317
#
# Velocity S-wave (km/s) = -0.80779 3.15821 2.15891
# Velocity P-wave (km/s) = 3.93255 5.69401 4.89320
#
# Compressibility (1/GPa) = 0.03130967
#
# Stress axis : x y z
#
# Youngs Moduli (GPa) = 43.95120 73.58403 64.31867
#
# Poissons Ratio (x) = 0.12614 0.17208
# Poissons Ratio (y) = 0.07534 0.37952
# Poissons Ratio (z) = 0.11759 0.43419
#
# Static dielectric constant tensor:
#      x y z
#    x 1.686670 0.000000 0.000000 
#    y 0.000000 1.832270 0.000000 
#    z 0.000000 0.000000 1.720740 
# 
# From -- ./inp_files/8641.got.cif
#   From: 2010.05.17/outbox.cif.g08.bks.cpg/sg37_5_cif.got.tgz:8641.got - 2010.06.03 17:53:42.
