data_PCOD9353273
_publ_section_title
;
Structure prediction by ZEFSAII (Michael W. Deem and Ramdas Pophale) SiO2 
 PCOD9353273
Probable space group: C M C 21
;
_chemical_formula_sum "Si O2"
_cell_formula_units_Z 40
_cell_length_a 7.588944
_cell_length_b 27.494959
_cell_length_c 7.976682
_cell_angle_alpha 90.000000
_cell_angle_beta 90.000000
_cell_angle_gamma 90.000000
_cell_volume 1664.396153
_symmetry_space_group_name_H-M "C M C 21"
_symmetry_group_IT_number 36
_symmetry_cell_setting 'orthorhombic'
loop_
_space_group_symop_operation_xyz
x,y,z
-x,-y,1/2+z
x,-y,1/2+z
-x,y,z
1/2+x,1/2+y,z
1/2-x,1/2-y,1/2+z
1/2+x,1/2-y,1/2+z
1/2-x,1/2+y,z
loop_
_atom_site_type_symbol
_atom_site_label
_atom_site_fract_x
_atom_site_fract_y
_atom_site_fract_z
Si Si1 0.500000 0.079004 0.903430
Si Si2 0.500000 0.981015 0.750429
Si Si3 0.206463 0.859949 0.240744
Si Si4 0.790510 0.823148 0.717005
Si Si5 0.294648 0.417918 0.886226
Si Si6 0.211301 0.232416 0.539724
O O1 0.669318 0.113452 0.873671
O O2 0.500000 0.039081 0.753182
O O3 0.500000 0.046409 0.071379
O O4 0.671346 0.963359 0.853567
O O5 0.268735 0.806170 0.182535
O O6 0.000000 0.858672 0.291564
O O7 0.215681 0.891845 0.067581
O O8 0.727457 0.877038 0.753788
O O9 0.759399 0.788432 0.561378
O O10 0.000000 0.827366 0.736946
O O11 0.718190 0.789954 0.868187
O O12 0.500000 0.429810 0.857415
O O13 0.000000 0.229282 0.537742
#
# Coordination Sequence:
#
# PCOD9353273 Si02
#       6
#     4   4   8   8   8   8
#     4  12  26  42  64  92 120 154 200 252 305 366
#     4  12  26  42  64  92 120 154 200 252 305 366
#     4   9  20  41  64  86 120 161 200 247 301 356
#     4   9  19  34  53  81 116 154 195 236 286 345
#     4   9  20  41  64  86 120 161 200 247 301 356
#     4   9  19  34  53  81 116 154 195 236 286 345
#
# _framework density 24.03274
#
# number of rings (size 3 to 8) (size 9 to 14) (size 15 to 20)
#    0.000    2.400    0.000    4.200    2.800    4.000 
#    0.000    4.000    0.000    0.000    0.000    0.000 
#    0.000    0.000    0.000    0.000    0.000    0.000 
#
# Total GULP energy -111793.683871 kJ/mol
# GULP energy per Si atom -5589.684194 kJ/mol
# Density = 2.397804 g / cm^3
# Si number density = 24.032740 Si / 1000 Ang^3
#
#
#
# Elastic Constant Matrix: (Units=GPa)
#
#
# Indices 1 2 3 4 5 6 
#
# 1 91.6884 30.2595 9.3025 0.0000 0.0000 0.0000
# 2 30.2595 101.0371 -1.1917 0.0000 0.0000 0.0000
# 3 9.3025 -1.1917 79.1727 0.0000 0.0000 0.0000
# 4 0.0000 0.0000 0.0000 41.5084 0.0000 0.0000
# 5 0.0000 0.0000 0.0000 0.0000 -356.4012 0.0000
# 6 0.0000 0.0000 0.0000 0.0000 0.0000 83.3945
#
#
#
# Elastic Compliance Matrix: (Units=1/GPa)
#
#
# Indices 1 2 3 4 5 6 
#
# 1 0.012278 -0.003695 -0.001498 0.000000 0.000000 0.000000
# 2 -0.003695 0.011011 0.000600 0.000000 0.000000 0.000000
# 3 -0.001498 0.000600 0.012816 0.000000 0.000000 0.000000
# 4 0.000000 0.000000 0.000000 0.024091 0.000000 0.000000
# 5 0.000000 0.000000 0.000000 0.000000 -0.002806 0.000000
# 6 0.000000 0.000000 0.000000 0.000000 0.000000 0.011991
#
#
# Mechanical properties :
#
#
# Convention : Reuss Voigt Hill
#
# Bulk Modulus (GPa) = 37.14947 38.73764 37.94355
# Shear Modulus (GPa) = 57.11649 -30.73113 13.19268
#
# Velocity S-wave (km/s) = 4.88034 -3.57980 2.34550
# Velocity P-wave (km/s) = 6.87374 0.96588 4.81225
#
# Compressibility (1/GPa) = 0.02691829
#
# Stress axis : x y z
#
# Youngs Moduli (GPa) = 81.44727 90.81855 78.02945
#
# Poissons Ratio (x) = 0.33555 0.11690
# Poissons Ratio (y) = 0.30093 -0.04681
# Poissons Ratio (z) = 0.12203 -0.05448
#
# Static dielectric constant tensor:
#      x y z
#    x 2.042470 0.000000 0.000000 
#    y 0.000000 1.872480 0.000000 
#    z 0.000000 0.000000 2.042350 
# 
# From -- ./inp_files/2452.got.cif
#   From: 2010.05.17/outbox.cif.g08.bks.cpg/sg36_2_cif.got.tgz:2452.got - 2010.06.03 17:41:39.
