data_PCOD9353586
_publ_section_title
;
Structure prediction by ZEFSAII (Michael W. Deem and Ramdas Pophale) SiO2 
 PCOD9353586
Probable space group: C C C 2
;
_chemical_formula_sum "Si O2"
_cell_formula_units_Z 48
_cell_length_a 6.031395
_cell_length_b 20.435920
_cell_length_c 17.547602
_cell_angle_alpha 90.000000
_cell_angle_beta 90.000000
_cell_angle_gamma 90.000000
_cell_volume 2162.866635
_symmetry_space_group_name_H-M "C C C 2"
_symmetry_group_IT_number 37
_symmetry_cell_setting 'orthorhombic'
loop_
_space_group_symop_operation_xyz
x,y,z
-x,-y,z
-x,y,1/2+z
x,-y,1/2+z
1/2+x,1/2+y,z
1/2-x,1/2-y,z
1/2-x,1/2+y,1/2+z
1/2+x,1/2-y,1/2+z
loop_
_atom_site_type_symbol
_atom_site_label
_atom_site_fract_x
_atom_site_fract_y
_atom_site_fract_z
Si Si1 0.250000 0.750000 0.944901
Si Si2 0.000000 0.500000 0.957107
Si Si3 0.938267 0.355361 0.401481
Si Si4 0.500000 0.000000 0.222703
Si Si5 0.873564 0.069055 0.656607
Si Si6 0.000000 0.000000 0.447072
Si Si7 0.363166 0.313180 0.043144
Si Si8 0.872356 0.914972 0.806439
O O1 0.365290 0.804996 0.894410
O O2 0.421619 0.712213 0.999132
O O3 0.995015 0.431121 0.912319
O O4 0.258234 0.500198 0.989288
O O5 0.810706 0.335462 0.478470
O O6 0.771408 0.353209 0.330951
O O7 0.385129 0.053166 0.168377
O O8 0.696737 0.031431 0.272691
O O9 0.913774 0.124869 0.595305
O O10 0.958016 0.094152 0.738768
O O11 0.000000 0.000000 0.641892
O O12 0.978647 0.059313 0.385501
O O13 0.250000 0.250000 0.083012
#
# Coordination Sequence:
#
# PCOD9353586 Si02
#       8
#     4   4   8   4   8   4   8   8
#     4  10  24  44  68  78 132 184 228 278 348 416
#     4  10  23  33  66 100 139 162 227 282 355 413
#     4  10  23  39  66  98 129 174 223 284 349 415
#     4  10  19  37  62  96 135 172 207 284 349 403
#     4  10  22  38  65  98 130 167 221 283 339 414
#     4  10  18  34  56  98 136 176 202 276 356 406
#     4  10  24  45  64  87 130 183 224 275 347 414
#     4  10  19  34  63  95 132 163 213 274 346 400
#
# _framework density 22.192771
#
# number of rings (size 3 to 8) (size 9 to 14) (size 15 to 20)
#    0.000    2.000    2.500    2.000    4.667    7.333 
#    1.500    0.000   23.833    0.000    0.000    0.000 
#    0.000    0.000    0.000    0.000    0.000    0.000 
#
# Total GULP energy -133868.557353 kJ/mol
# GULP energy per Si atom -5577.856556 kJ/mol
# Density = 2.214226 g / cm^3
# Si number density = 22.192771 Si / 1000 Ang^3
#
#
#
# Elastic Constant Matrix: (Units=GPa)
#
#
# Indices 1 2 3 4 5 6 
#
# 1 119.9229 38.1958 20.2170 0.0000 0.0000 0.0000
# 2 38.1958 134.3512 34.9890 0.0000 0.0000 0.0000
# 3 20.2170 34.9890 53.0678 0.0000 0.0000 0.0000
# 4 0.0000 0.0000 0.0000 -30.5263 0.0000 0.0000
# 5 0.0000 0.0000 0.0000 0.0000 9.2897 0.0000
# 6 0.0000 0.0000 0.0000 0.0000 0.0000 37.5701
#
#
#
# Elastic Compliance Matrix: (Units=1/GPa)
#
#
# Indices 1 2 3 4 5 6 
#
# 1 0.009375 -0.002095 -0.002190 0.000000 0.000000 0.000000
# 2 -0.002095 0.009454 -0.005435 0.000000 0.000000 0.000000
# 3 -0.002190 -0.005435 0.023262 0.000000 0.000000 0.000000
# 4 0.000000 0.000000 0.000000 -0.032759 0.000000 0.000000
# 5 0.000000 0.000000 0.000000 0.000000 0.107647 0.000000
# 6 0.000000 0.000000 0.000000 0.000000 0.000000 0.026617
#
#
# Mechanical properties :
#
#
# Convention : Reuss Voigt Hill
#
# Bulk Modulus (GPa) = 44.14994 54.90507 49.52751
# Shear Modulus (GPa) = 29.31042 17.52937 23.41989
#
# Velocity S-wave (km/s) = 3.63811 2.81351 3.25205
# Velocity P-wave (km/s) = 6.13065 5.94544 6.03875
#
# Compressibility (1/GPa) = 0.02265009
#
# Stress axis : x y z
#
# Youngs Moduli (GPa) = 106.66454 105.77216 42.98861
#
# Poissons Ratio (x) = 0.22158 0.09416
# Poissons Ratio (y) = 0.22345 0.23366
# Poissons Ratio (z) = 0.23364 0.57491
#
# Static dielectric constant tensor:
#      x y z
#    x 1.917310 0.000000 0.000000 
#    y 0.000000 1.843760 0.000000 
#    z 0.000000 0.000000 1.825000 
# 
# From -- ./inp_files/15833.got.cif
#   From: 2010.05.17/outbox.cif.g08.bks.cpg/sg37_8_cif.got.tgz:15833.got - 2010.06.03 17:53:42.
