data_PCOD9353755
_publ_section_title
;
Structure prediction by ZEFSAII (Michael W. Deem and Ramdas Pophale) SiO2 
 PCOD9353755
Probable space group: C C C 2
;
_chemical_formula_sum "Si O2"
_cell_formula_units_Z 56
_cell_length_a 4.999736
_cell_length_b 15.506532
_cell_length_c 32.745103
_cell_angle_alpha 90.000000
_cell_angle_beta 90.000000
_cell_angle_gamma 90.000000
_cell_volume 2538.680888
_symmetry_space_group_name_H-M "C C C 2"
_symmetry_group_IT_number 37
_symmetry_cell_setting 'orthorhombic'
loop_
_space_group_symop_operation_xyz
x,y,z
-x,-y,z
-x,y,1/2+z
x,-y,1/2+z
1/2+x,1/2+y,z
1/2-x,1/2-y,z
1/2-x,1/2+y,1/2+z
1/2+x,1/2-y,1/2+z
loop_
_atom_site_type_symbol
_atom_site_label
_atom_site_fract_x
_atom_site_fract_y
_atom_site_fract_z
Si Si1 0.255828 0.646813 0.337860
Si Si2 0.246291 0.438950 0.753523
Si Si3 0.253863 0.937949 0.162173
Si Si4 0.792052 0.353530 0.979371
Si Si5 0.760574 0.644881 0.386788
Si Si6 0.499633 0.303000 0.600298
Si Si7 0.184493 0.083300 0.025616
O O1 0.250000 0.750000 0.340858
O O2 0.301187 0.624076 0.290860
O O3 0.476898 0.614463 0.369815
O O4 0.973057 0.614395 0.353710
O O5 0.500000 0.500000 0.749743
O O6 0.187999 0.403088 0.707943
O O7 0.000000 0.500000 0.764371
O O8 0.159409 0.863059 0.132098
O O9 0.500000 0.000000 0.148807
O O10 0.000000 0.000000 0.164162
O O11 0.750000 0.250000 0.984177
O O12 0.850916 0.376589 0.932506
O O13 0.494374 0.386243 0.987943
O O14 0.009421 0.400729 0.009384
O O15 0.750000 0.750000 0.386665
O O16 0.250000 0.250000 0.581719
O O17 0.644536 0.355230 0.564387
O O18 0.750000 0.250000 0.619452
O O19 0.000000 0.000000 0.038351
#
# Coordination Sequence:
#
# PCOD9353755 Si02
#       7
#     8   8   8   8   8   8   8
#     4  10  19  35  58  85 116 153 199 246 294 351
#     4  10  21  38  59  86 121 161 200 241 300 365
#     4  10  22  42  65  89 124 167 205 249 312 376
#     4  11  22  41  65  87 116 159 209 253 299 362
#     4   9  19  35  58  85 114 152 197 248 301 350
#     4  12  25  42  65  94 122 153 203 255 304 365
#     4  12  25  41  61  88 124 159 195 246 311 371
#
# _framework density 22.058699000000001
#
# number of rings (size 3 to 8) (size 9 to 14) (size 15 to 20)
#    0.000    1.429    0.000    6.000    0.000    4.000 
#    0.000    9.286    0.000    0.000    0.000    0.000 
#    0.000    0.000    0.000    0.000    0.000    0.000 
#
# Total GULP energy -156099.134454 kJ/mol
# GULP energy per Si atom -5574.969088 kJ/mol
# Density = 2.200849 g / cm^3
# Si number density = 22.058699 Si / 1000 Ang^3
#
#
#
# Elastic Constant Matrix: (Units=GPa)
#
#
# Indices 1 2 3 4 5 6 
#
# 1 136.4029 20.9242 19.9876 0.0000 0.0000 0.0000
# 2 20.9242 45.7286 28.7658 0.0000 0.0000 0.0000
# 3 19.9876 28.7658 121.0283 0.0000 0.0000 0.0000
# 4 0.0000 0.0000 0.0000 35.9136 0.0000 0.0000
# 5 0.0000 0.0000 0.0000 0.0000 35.6655 0.0000
# 6 0.0000 0.0000 0.0000 0.0000 0.0000 21.7759
#
#
#
# Elastic Compliance Matrix: (Units=1/GPa)
#
#
# Indices 1 2 3 4 5 6 
#
# 1 0.007913 -0.003291 -0.000525 0.000000 0.000000 0.000000
# 2 -0.003291 0.027081 -0.005893 0.000000 0.000000 0.000000
# 3 -0.000525 -0.005893 0.009750 0.000000 0.000000 0.000000
# 4 0.000000 0.000000 0.000000 0.027845 0.000000 0.000000
# 5 0.000000 0.000000 0.000000 0.000000 0.028038 0.000000
# 6 0.000000 0.000000 0.000000 0.000000 0.000000 0.045922
#
#
# Mechanical properties :
#
#
# Convention : Reuss Voigt Hill
#
# Bulk Modulus (GPa) = 39.48393 49.16834 44.32613
# Shear Modulus (GPa) = 28.66841 34.23651 31.45246
#
# Velocity S-wave (km/s) = 3.60897 3.94390 3.78014
# Velocity P-wave (km/s) = 5.94176 6.56333 6.26026
#
# Compressibility (1/GPa) = 0.02532676
#
# Stress axis : x y z
#
# Youngs Moduli (GPa) = 126.37602 36.92631 102.56568
#
# Poissons Ratio (x) = 0.12151 0.05381
# Poissons Ratio (y) = 0.41586 0.60443
# Poissons Ratio (z) = 0.06631 0.21761
#
# Static dielectric constant tensor:
#      x y z
#    x 1.670410 0.000000 0.000000 
#    y 0.000000 1.905160 0.000000 
#    z 0.000000 0.000000 1.799470 
# 
# From -- ./inp_files/20162.got.cif
#   From: 2010.05.17/outbox.cif.g08.bks.cpg/sg37_11_cif.got.tgz:20162.got - 2010.06.03 17:53:42.
