data_PCOD9353186
_publ_section_title
;
Structure prediction by ZEFSAII (Michael W. Deem and Ramdas Pophale) SiO2 
 PCOD9353186
Probable space group: C M C 21
;
_chemical_formula_sum "Si O2"
_cell_formula_units_Z 64
_cell_length_a 17.647414
_cell_length_b 15.084290
_cell_length_c 11.981230
_cell_angle_alpha 90.000000
_cell_angle_beta 90.000000
_cell_angle_gamma 90.000000
_cell_volume 3189.387977
_symmetry_space_group_name_H-M "C M C 21"
_symmetry_group_IT_number 36
_symmetry_cell_setting 'orthorhombic'
loop_
_space_group_symop_operation_xyz
x,y,z
-x,-y,1/2+z
x,-y,1/2+z
-x,y,z
1/2+x,1/2+y,z
1/2-x,1/2-y,1/2+z
1/2+x,1/2-y,1/2+z
1/2-x,1/2+y,z
loop_
_atom_site_type_symbol
_atom_site_label
_atom_site_fract_x
_atom_site_fract_y
_atom_site_fract_z
Si Si1 0.587686 0.346533 0.385730
Si Si2 0.837288 0.331012 0.906524
Si Si3 0.678708 0.895664 0.654618
Si Si4 0.350723 0.585654 0.105909
Si Si5 0.909979 0.432110 0.095635
Si Si6 0.826898 0.764173 0.978811
Si Si7 0.588402 0.395536 0.137228
Si Si8 0.090715 0.743264 0.742356
O O1 0.500000 0.373514 0.396717
O O2 0.597853 0.243526 0.413874
O O3 0.637224 0.399394 0.474428
O O4 0.612490 0.360489 0.258798
O O5 0.825536 0.356713 0.778692
O O6 0.864208 0.411869 0.982482
O O7 0.760348 0.287519 0.953447
O O8 0.763607 0.930889 0.634663
O O9 0.666063 0.818593 0.563154
O O10 0.619515 0.975240 0.642962
O O11 0.399356 0.500462 0.138483
O O12 0.378478 0.673984 0.169785
O O13 0.893667 0.349004 0.177968
O O14 0.000000 0.434604 0.076345
O O15 0.864195 0.848105 0.040959
O O16 0.869092 0.745296 0.862456
O O17 0.500000 0.373939 0.121811
O O18 0.000000 0.752006 0.754156
#
# Coordination Sequence:
#
# PCOD9353186 Si02
#       8
#     8   8   8   8   8   8   8   8
#     4  11  23  42  70  95 131 180 226 279 341 414
#     4  12  24  47  71  98 136 184 233 288 348 414
#     4  12  27  45  72 103 138 184 230 287 348 415
#     4  12  24  44  70 100 136 179 227 284 348 418
#     4  11  27  47  71 102 140 186 240 291 347 424
#     4  12  25  45  69  99 140 181 227 291 352 413
#     4  11  26  43  65 101 137 174 225 284 346 415
#     4  11  24  45  70  98 138 186 232 284 352 419
#
# _framework density 20.066545000000001
#
# number of rings (size 3 to 8) (size 9 to 14) (size 15 to 20)
#    0.000    0.500    5.000    2.625    3.500    4.000 
#    0.000    0.000    0.000    0.000    0.000    0.000 
#    0.000    0.000    0.000    0.000    0.000    0.000 
#
# Total GULP energy -179046.349098 kJ/mol
# GULP energy per Si atom -5595.198409 kJ/mol
# Density = 2.002087 g / cm^3
# Si number density = 20.066545 Si / 1000 Ang^3
#
#
#
# Elastic Constant Matrix: (Units=GPa)
#
#
# Indices 1 2 3 4 5 6 
#
# 1 83.5082 23.8623 48.8918 0.0000 0.0000 0.0000
# 2 23.8623 100.2987 37.9510 0.0000 0.0000 0.0000
# 3 48.8918 37.9510 128.6437 0.0000 0.0000 0.0000
# 4 0.0000 0.0000 0.0000 22.2636 0.0000 0.0000
# 5 0.0000 0.0000 0.0000 0.0000 30.8700 0.0000
# 6 0.0000 0.0000 0.0000 0.0000 0.0000 36.9776
#
#
#
# Elastic Compliance Matrix: (Units=1/GPa)
#
#
# Indices 1 2 3 4 5 6 
#
# 1 0.015643 -0.001657 -0.005456 0.000000 0.000000 0.000000
# 2 -0.001657 0.011399 -0.002733 0.000000 0.000000 0.000000
# 3 -0.005456 -0.002733 0.010653 0.000000 0.000000 0.000000
# 4 0.000000 0.000000 0.000000 0.044916 0.000000 0.000000
# 5 0.000000 0.000000 0.000000 0.000000 0.032394 0.000000
# 6 0.000000 0.000000 0.000000 0.000000 0.000000 0.027043
#
#
# Mechanical properties :
#
#
# Convention : Reuss Voigt Hill
#
# Bulk Modulus (GPa) = 55.54874 59.31785 57.43329
# Shear Modulus (GPa) = 29.80769 31.47192 30.63981
#
# Velocity S-wave (km/s) = 3.85832 3.96457 3.91181
# Velocity P-wave (km/s) = 6.89864 7.11209 7.00618
#
# Compressibility (1/GPa) = 0.01800221
#
# Stress axis : x y z
#
# Youngs Moduli (GPa) = 63.92668 87.73069 93.86726
#
# Poissons Ratio (x) = 0.14538 0.51217
# Poissons Ratio (y) = 0.10593 0.25653
# Poissons Ratio (z) = 0.34881 0.23976
#
# Static dielectric constant tensor:
#      x y z
#    x 1.690820 0.000000 0.000000 
#    y 0.000000 1.697630 0.000000 
#    z 0.000000 0.000000 1.685430 
# 
# From -- ./inp_files/8986.got.cif
#   From: 2010.05.17/outbox.cif.g08.bks.cpg/sg36_5_cif.got.tgz:8986.got - 2010.06.03 17:41:39.
