data_PCOD9353585
_publ_section_title
;
Structure prediction by ZEFSAII (Michael W. Deem and Ramdas Pophale) SiO2 
 PCOD9353585
Probable space group: C C C 2
;
_chemical_formula_sum "Si O2"
_cell_formula_units_Z 64
_cell_length_a 8.383307
_cell_length_b 17.438779
_cell_length_c 20.830060
_cell_angle_alpha 90.000000
_cell_angle_beta 90.000000
_cell_angle_gamma 90.000000
_cell_volume 3045.243083
_symmetry_space_group_name_H-M "C C C 2"
_symmetry_group_IT_number 37
_symmetry_cell_setting 'orthorhombic'
loop_
_space_group_symop_operation_xyz
x,y,z
-x,-y,z
-x,y,1/2+z
x,-y,1/2+z
1/2+x,1/2+y,z
1/2-x,1/2-y,z
1/2-x,1/2+y,1/2+z
1/2+x,1/2-y,1/2+z
loop_
_atom_site_type_symbol
_atom_site_label
_atom_site_fract_x
_atom_site_fract_y
_atom_site_fract_z
Si Si1 0.696330 0.553458 0.043230
Si Si2 0.136877 0.904712 0.987497
Si Si3 0.355830 0.407315 0.340331
Si Si4 0.360041 0.810284 0.076529
Si Si5 0.617133 0.190519 0.483046
Si Si6 0.840021 0.541073 0.659327
Si Si7 0.497943 0.094160 0.862639
Si Si8 0.819999 0.920105 0.789359
O O1 0.749733 0.515106 0.109566
O O2 0.724806 0.487016 0.990197
O O3 0.514808 0.580379 0.033133
O O4 0.799831 0.624930 0.024561
O O5 0.095812 0.890250 0.914092
O O6 0.249710 0.843833 0.019738
O O7 0.508707 0.379292 0.299326
O O8 0.340814 0.497977 0.325189
O O9 0.170785 0.382027 0.333308
O O10 0.250000 0.750000 0.113396
O O11 0.395580 0.883262 0.120686
O O12 0.503307 0.772231 0.036957
O O13 0.750000 0.250000 0.458843
O O14 0.527112 0.144599 0.426812
O O15 0.721057 0.563347 0.715797
O O16 0.000000 0.500000 0.684980
O O17 0.341865 0.113400 0.820044
O O18 0.500000 0.000000 0.871711
#
# Coordination Sequence:
#
# PCOD9353585 Si02
#       8
#     8   8   8   8   8   8   8   8
#     4  10  20  34  58  90 124 166 212 264 325 390
#     4  10  19  35  61  93 127 158 215 267 337 398
#     4  10  18  34  56  92 129 164 197 285 333 381
#     4  11  24  40  61  90 131 173 213 272 337 394
#     4  12  23  38  62  94 132 172 216 267 341 411
#     4  11  22  40  64  93 126 176 225 279 318 396
#     4  10  20  37  65  93 128 167 214 268 338 395
#     4  10  21  34  60  97 127 159 227 275 323 378
#
# _framework density 21.016383000000001
#
# number of rings (size 3 to 8) (size 9 to 14) (size 15 to 20)
#    0.000    1.500    2.500    5.625    1.750    4.000 
#    0.000    0.625    0.000    0.000    0.000    0.000 
#    0.000    0.000    0.000    0.000    0.000    0.000 
#
# Total GULP energy -178377.187457 kJ/mol
# GULP energy per Si atom -5574.287108 kJ/mol
# Density = 2.096855 g / cm^3
# Si number density = 21.016383 Si / 1000 Ang^3
#
#
#
# Elastic Constant Matrix: (Units=GPa)
#
#
# Indices 1 2 3 4 5 6 
#
# 1 157.1950 18.2192 41.8356 0.0000 0.0000 0.0000
# 2 18.2192 45.9120 -2.1486 0.0000 0.0000 0.0000
# 3 41.8356 -2.1486 78.5124 0.0000 0.0000 0.0000
# 4 0.0000 0.0000 0.0000 9.1104 0.0000 0.0000
# 5 0.0000 0.0000 0.0000 0.0000 520.1532 0.0000
# 6 0.0000 0.0000 0.0000 0.0000 0.0000 19.3178
#
#
#
# Elastic Compliance Matrix: (Units=1/GPa)
#
#
# Indices 1 2 3 4 5 6 
#
# 1 0.007891 -0.003332 -0.004296 0.000000 0.000000 0.000000
# 2 -0.003332 0.023216 0.002411 0.000000 0.000000 0.000000
# 3 -0.004296 0.002411 0.015092 0.000000 0.000000 0.000000
# 4 0.000000 0.000000 0.000000 0.109765 0.000000 0.000000
# 5 0.000000 0.000000 0.000000 0.000000 0.001923 0.000000
# 6 0.000000 0.000000 0.000000 0.000000 0.000000 0.051766
#
#
# Mechanical properties :
#
#
# Convention : Reuss Voigt Hill
#
# Bulk Modulus (GPa) = 27.96086 44.15911 36.05998
# Shear Modulus (GPa) = 21.55093 124.63049 73.09071
#
# Velocity S-wave (km/s) = 3.20572 7.70911 5.90368
# Velocity P-wave (km/s) = 5.19955 10.01488 7.97913
#
# Compressibility (1/GPa) = 0.03576428
#
# Stress axis : x y z
#
# Youngs Moduli (GPa) = 126.72520 43.07369 66.26049
#
# Poissons Ratio (x) = 0.14354 0.28465
# Poissons Ratio (y) = 0.42231 -0.15976
# Poissons Ratio (z) = 0.54441 -0.10385
#
# Static dielectric constant tensor:
#      x y z
#    x 1.913720 0.000000 0.000000 
#    y 0.000000 1.754530 0.000000 
#    z 0.000000 0.000000 1.731060 
# 
# From -- ./inp_files/16516.got.cif
#   From: 2010.05.17/outbox.cif.g08.bks.cpg/sg37_9_cif.got.tgz:16516.got - 2010.06.03 17:53:42.
