data_PCOD9353865
_publ_section_title
;
Structure prediction by ZEFSAII (Michael W. Deem and Ramdas Pophale) SiO2 
 PCOD9353865
Probable space group: C C C 2
;
_chemical_formula_sum "Si O2"
_cell_formula_units_Z 56
_cell_length_a 32.868633
_cell_length_b 12.825646
_cell_length_c 5.412781
_cell_angle_alpha 90.000000
_cell_angle_beta 90.000000
_cell_angle_gamma 90.000000
_cell_volume 2281.819814
_symmetry_space_group_name_H-M "C C C 2"
_symmetry_group_IT_number 37
_symmetry_cell_setting 'orthorhombic'
loop_
_space_group_symop_operation_xyz
x,y,z
-x,-y,z
-x,y,1/2+z
x,-y,1/2+z
1/2+x,1/2+y,z
1/2-x,1/2-y,z
1/2-x,1/2+y,1/2+z
1/2+x,1/2-y,1/2+z
loop_
_atom_site_type_symbol
_atom_site_label
_atom_site_fract_x
_atom_site_fract_y
_atom_site_fract_z
Si Si1 0.189973 0.067018 0.274260
Si Si2 0.605890 0.309182 0.755999
Si Si3 0.777999 0.369438 0.693738
Si Si4 0.603005 0.826701 0.756661
Si Si5 0.482907 0.617461 0.662226
Si Si6 0.810635 0.606925 0.693960
Si Si7 0.985242 0.617363 0.890434
O O1 0.146649 0.122857 0.261527
O O2 0.230139 0.137957 0.239934
O O3 0.192771 0.011720 0.541090
O O4 0.608231 0.239036 0.508822
O O5 0.564373 0.376322 0.732062
O O6 0.602941 0.244275 0.010754
O O7 0.789365 0.494128 0.677835
O O8 0.792469 0.331424 0.427086
O O9 0.802323 0.335708 0.936512
O O10 0.641368 0.903374 0.734414
O O11 0.559829 0.881390 0.781820
O O12 0.500000 0.500000 0.633684
O O13 0.490322 0.661951 0.388229
O O14 0.000000 0.500000 0.933761
O O15 0.013836 0.660892 0.670268
#
# Coordination Sequence:
#
# PCOD9353865 Si02
#       7
#     8   8   8   8   8   8   8
#     4  12  23  43  73  95 132 170 232 290 330 398
#     4  12  28  43  66 100 139 180 219 281 354 405
#     4  10  19  39  67  99 118 174 230 283 308 386
#     4  12  26  45  62 100 147 177 214 284 353 406
#     4  10  23  42  67  94 123 166 228 276 324 398
#     4  10  20  38  66  94 134 167 220 272 339 381
#     4  10  23  42  70 100 132 181 236 273 329 408
#
# _framework density 24.541817000000002
#
# number of rings (size 3 to 8) (size 9 to 14) (size 15 to 20)
#    0.000    1.143    2.857    3.429    4.000    8.000 
#    0.000    4.286    0.000    0.000    0.000    0.000 
#    0.000    0.000    0.000    0.000    0.000    0.000 
#
# Total GULP energy -156766.116549 kJ/mol
# GULP energy per Si atom -5598.789877 kJ/mol
# Density = 2.448596 g / cm^3
# Si number density = 24.541817 Si / 1000 Ang^3
#
#
#
# Elastic Constant Matrix: (Units=GPa)
#
#
# Indices 1 2 3 4 5 6 
#
# 1 143.5737 -1.7609 -27.4607 0.0000 0.0000 0.0000
# 2 -1.7609 34.6055 9.7342 0.0000 0.0000 0.0000
# 3 -27.4607 9.7342 158.6775 0.0000 0.0000 0.0000
# 4 0.0000 0.0000 0.0000 39.0206 0.0000 0.0000
# 5 0.0000 0.0000 0.0000 0.0000 36.8781 0.0000
# 6 0.0000 0.0000 0.0000 0.0000 0.0000 15.2689
#
#
#
# Elastic Compliance Matrix: (Units=1/GPa)
#
#
# Indices 1 2 3 4 5 6 
#
# 1 0.007204 0.000016 0.001246 0.000000 0.000000 0.000000
# 2 0.000016 0.029405 -0.001801 0.000000 0.000000 0.000000
# 3 0.001246 -0.001801 0.006628 0.000000 0.000000 0.000000
# 4 0.000000 0.000000 0.000000 0.025627 0.000000 0.000000
# 5 0.000000 0.000000 0.000000 0.000000 0.027116 0.000000
# 6 0.000000 0.000000 0.000000 0.000000 0.000000 0.065493
#
#
# Mechanical properties :
#
#
# Convention : Reuss Voigt Hill
#
# Bulk Modulus (GPa) = 23.72043 33.09798 28.40920
# Shear Modulus (GPa) = 28.31196 41.98978 35.15087
#
# Velocity S-wave (km/s) = 3.40018 4.14085 3.78866
# Velocity P-wave (km/s) = 5.01012 6.03140 5.54433
#
# Compressibility (1/GPa) = 0.04215776
#
# Stress axis : x y z
#
# Youngs Moduli (GPa) = 138.82116 34.00832 150.87166
#
# Poissons Ratio (x) = -0.00055 -0.18793
# Poissons Ratio (y) = -0.00224 0.27173
# Poissons Ratio (z) = -0.17292 0.06125
#
# Static dielectric constant tensor:
#      x y z
#    x 1.874750 0.000000 0.000000 
#    y 0.000000 1.279150 0.000000 
#    z 0.000000 0.000000 2.025310 
# 
# From -- ./inp_files/1477.got.cif
#   From: 2010.05.17/outbox.cif.g08.bks.cpg/sg37_1_cif.got.tgz:1477.got - 2010.06.03 17:53:42.
