data_PCOD9353220
_publ_section_title
;
Structure prediction by ZEFSAII (Michael W. Deem and Ramdas Pophale) SiO2 
 PCOD9353220
Probable space group: C M C 21
;
_chemical_formula_sum "Si O2"
_cell_formula_units_Z 48
_cell_length_a 27.456485
_cell_length_b 8.762822
_cell_length_c 8.706862
_cell_angle_alpha 90.000000
_cell_angle_beta 90.000000
_cell_angle_gamma 90.000000
_cell_volume 2094.838702
_symmetry_space_group_name_H-M "C M C 21"
_symmetry_group_IT_number 36
_symmetry_cell_setting 'orthorhombic'
loop_
_space_group_symop_operation_xyz
x,y,z
-x,-y,1/2+z
x,-y,1/2+z
-x,y,z
1/2+x,1/2+y,z
1/2-x,1/2-y,1/2+z
1/2+x,1/2-y,1/2+z
1/2-x,1/2+y,z
loop_
_atom_site_type_symbol
_atom_site_label
_atom_site_fract_x
_atom_site_fract_y
_atom_site_fract_z
Si Si1 0.212520 0.712306 0.606620
Si Si2 0.891777 0.324932 0.558310
Si Si3 0.054158 0.121068 0.767743
Si Si4 0.300448 0.112798 0.254491
Si Si5 0.878592 0.832815 0.758527
Si Si6 0.555970 0.862485 0.044764
O O1 0.262283 0.795279 0.649433
O O2 0.207044 0.564841 0.716081
O O3 0.208322 0.655830 0.431454
O O4 0.167780 0.825073 0.647387
O O5 0.935855 0.219774 0.615940
O O6 0.854532 0.346696 0.698278
O O7 0.864996 0.236804 0.422429
O O8 0.912345 0.488414 0.508500
O O9 0.000000 0.051503 0.764052
O O10 0.096122 0.995504 0.776566
O O11 0.056506 0.238737 0.908753
O O12 0.919159 0.720093 0.688268
O O13 0.500000 0.905681 0.075146
#
# Coordination Sequence:
#
# PCOD9353220 Si02
#       6
#     8   8   8   8   8   8
#     4  12  27  50  77 109 149 195 249 313 378 451
#     4  12  25  44  72 106 145 195 250 313 371 454
#     4  11  26  46  70 105 148 197 253 310 375 450
#     4  12  27  50  77 110 147 195 253 310 378 453
#     4  12  25  44  71 105 147 195 245 311 376 447
#     4  11  24  44  71 103 144 195 250 309 372 447
#
# _framework density 22.913459
#
# number of rings (size 3 to 8) (size 9 to 14) (size 15 to 20)
#    0.000    0.333    1.667    7.000    2.333    5.333 
#    3.000    0.000    0.000    0.000    0.000    0.000 
#    0.000    0.000    0.000    0.000    0.000    0.000 
#
# Total GULP energy -134512.272227 kJ/mol
# GULP energy per Si atom -5604.678009 kJ/mol
# Density = 2.286131 g / cm^3
# Si number density = 22.913459 Si / 1000 Ang^3
#
#
#
# Elastic Constant Matrix: (Units=GPa)
#
#
# Indices 1 2 3 4 5 6 
#
# 1 125.6170 30.1374 24.3858 0.0000 0.0000 0.0000
# 2 30.1374 92.5710 13.5216 0.0000 0.0000 0.0000
# 3 24.3858 13.5216 95.8502 0.0000 0.0000 0.0000
# 4 0.0000 0.0000 0.0000 27.0973 0.0000 0.0000
# 5 0.0000 0.0000 0.0000 0.0000 23.0036 0.0000
# 6 0.0000 0.0000 0.0000 0.0000 0.0000 35.4198
#
#
#
# Elastic Compliance Matrix: (Units=1/GPa)
#
#
# Indices 1 2 3 4 5 6 
#
# 1 0.008964 -0.002640 -0.001908 0.000000 0.000000 0.000000
# 2 -0.002640 0.011807 -0.000994 0.000000 0.000000 0.000000
# 3 -0.001908 -0.000994 0.011059 0.000000 0.000000 0.000000
# 4 0.000000 0.000000 0.000000 0.036904 0.000000 0.000000
# 5 0.000000 0.000000 0.000000 0.000000 0.043472 0.000000
# 6 0.000000 0.000000 0.000000 0.000000 0.000000 0.028233
#
#
# Mechanical properties :
#
#
# Convention : Reuss Voigt Hill
#
# Bulk Modulus (GPa) = 48.20184 50.01417 49.10800
# Shear Modulus (GPa) = 31.55806 33.50370 32.53088
#
# Velocity S-wave (km/s) = 3.71519 3.82800 3.77202
# Velocity P-wave (km/s) = 6.28376 6.43529 6.35997
#
# Compressibility (1/GPa) = 0.02074610
#
# Stress axis : x y z
#
# Youngs Moduli (GPa) = 111.55143 84.69475 90.42670
#
# Poissons Ratio (x) = 0.22357 0.17256
# Poissons Ratio (y) = 0.29447 0.08989
# Poissons Ratio (z) = 0.21288 0.08419
#
# Static dielectric constant tensor:
#      x y z
#    x 1.844610 0.000000 0.000000 
#    y 0.000000 1.835020 0.000000 
#    z 0.000000 0.000000 1.871200 
# 
# From -- ./inp_files/5984.got.cif
#   From: 2010.05.17/outbox.cif.g08.bks.cpg/sg36_3_cif.got.tgz:5984.got - 2010.06.03 17:41:39.
