data_PCOD9353141
_publ_section_title
;
Structure prediction by ZEFSAII (Michael W. Deem and Ramdas Pophale) SiO2 
 PCOD9353141
Probable space group: C M C 21
;
_chemical_formula_sum "Si O2"
_cell_formula_units_Z 40
_cell_length_a 21.214523
_cell_length_b 8.755419
_cell_length_c 8.608174
_cell_angle_alpha 90.000000
_cell_angle_beta 90.000000
_cell_angle_gamma 90.000000
_cell_volume 1598.899780
_symmetry_space_group_name_H-M "C M C 21"
_symmetry_group_IT_number 36
_symmetry_cell_setting 'orthorhombic'
loop_
_space_group_symop_operation_xyz
x,y,z
-x,-y,1/2+z
x,-y,1/2+z
-x,y,z
1/2+x,1/2+y,z
1/2-x,1/2-y,1/2+z
1/2+x,1/2-y,1/2+z
1/2-x,1/2+y,z
loop_
_atom_site_type_symbol
_atom_site_label
_atom_site_fract_x
_atom_site_fract_y
_atom_site_fract_z
Si Si1 0.793025 0.202670 0.817150
Si Si2 0.000000 0.760751 0.236682
Si Si3 0.355734 0.208181 0.862232
Si Si4 0.000000 0.022765 0.031789
Si Si5 0.639232 0.496242 0.554604
Si Si6 0.880358 0.441057 0.687691
O O1 0.718457 0.209549 0.826283
O O2 0.821794 0.090784 0.683635
O O3 0.819973 0.368934 0.775214
O O4 0.819861 0.137031 0.978510
O O5 0.000000 0.840504 0.067156
O O6 0.938854 0.657045 0.249795
O O7 0.000000 0.894686 0.364797
O O8 0.388027 0.118666 0.721656
O O9 0.372630 0.377028 0.919238
O O10 0.371002 0.100040 0.008997
O O11 0.930541 0.060764 0.100069
#
# Coordination Sequence:
#
# PCOD9353141 Si02
#       6
#     8   4   8   4   8   8
#     4  11  22  41  66  98 132 179 225 275 334 408
#     4  12  24  47  73  97 139 173 233 284 342 408
#     4  11  24  42  64  97 142 174 223 277 340 409
#     4  12  20  47  71 101 133 171 229 292 326 410
#     4  11  23  40  70  97 130 177 224 283 339 395
#     4  11  25  44  66  98 137 180 223 280 340 403
#
# _framework density 25.017199999999999
#
# number of rings (size 3 to 8) (size 9 to 14) (size 15 to 20)
#    0.000    0.800    6.000    2.400    0.000    6.400 
#    3.600    0.000    0.000    0.000    0.000    0.000 
#    0.000    0.000    0.000    0.000    0.000    0.000 
#
# Total GULP energy -111917.936927 kJ/mol
# GULP energy per Si atom -5595.896846 kJ/mol
# Density = 2.496026 g / cm^3
# Si number density = 25.017200 Si / 1000 Ang^3
#
#
#
# Elastic Constant Matrix: (Units=GPa)
#
#
# Indices 1 2 3 4 5 6 
#
# 1 113.1704 15.8633 28.6020 0.0000 0.0000 0.0000
# 2 15.8633 104.5884 47.1588 0.0000 0.0000 0.0000
# 3 28.6020 47.1588 69.1324 0.0000 0.0000 0.0000
# 4 0.0000 0.0000 0.0000 64.4775 0.0000 0.0000
# 5 0.0000 0.0000 0.0000 0.0000 37.4159 0.0000
# 6 0.0000 0.0000 0.0000 0.0000 0.0000 7.5892
#
#
#
# Elastic Compliance Matrix: (Units=1/GPa)
#
#
# Indices 1 2 3 4 5 6 
#
# 1 0.009886 0.000498 -0.004430 0.000000 0.000000 0.000000
# 2 0.000498 0.013834 -0.009643 0.000000 0.000000 0.000000
# 3 -0.004430 -0.009643 0.022875 0.000000 0.000000 0.000000
# 4 0.000000 0.000000 0.000000 0.015509 0.000000 0.000000
# 5 0.000000 0.000000 0.000000 0.000000 0.026727 0.000000
# 6 0.000000 0.000000 0.000000 0.000000 0.000000 0.131766
#
#
# Mechanical properties :
#
#
# Convention : Reuss Voigt Hill
#
# Bulk Modulus (GPa) = 51.42417 52.23772 51.83094
# Shear Modulus (GPa) = 19.66738 34.91431 27.29085
#
# Velocity S-wave (km/s) = 2.80689 3.73984 3.30644
# Velocity P-wave (km/s) = 5.57718 6.29084 5.94473
#
# Compressibility (1/GPa) = 0.01944611
#
# Stress axis : x y z
#
# Youngs Moduli (GPa) = 101.15324 72.28760 43.71494
#
# Poissons Ratio (x) = -0.03600 0.19365
# Poissons Ratio (y) = -0.05037 0.42153
# Poissons Ratio (z) = 0.44809 0.69704
#
# Static dielectric constant tensor:
#      x y z
#    x 1.949290 0.000000 0.000000 
#    y 0.000000 1.960770 0.000000 
#    z 0.000000 0.000000 2.013390 
# 
# From -- ./inp_files/5098.got.cif
#   From: 2010.05.17/outbox.cif.g08.bks.cpg/sg36_3_cif.got.tgz:5098.got - 2010.06.03 17:41:39.
