data_PCOD9353600
_publ_section_title
;
Structure prediction by ZEFSAII (Michael W. Deem and Ramdas Pophale) SiO2 
 PCOD9353600
Probable space group: C C C 2
;
_chemical_formula_sum "Si O2"
_cell_formula_units_Z 60
_cell_length_a 24.215371
_cell_length_b 10.488786
_cell_length_c 10.326967
_cell_angle_alpha 90.000000
_cell_angle_beta 90.000000
_cell_angle_gamma 90.000000
_cell_volume 2622.944741
_symmetry_space_group_name_H-M "C C C 2"
_symmetry_group_IT_number 37
_symmetry_cell_setting 'orthorhombic'
loop_
_space_group_symop_operation_xyz
x,y,z
-x,-y,z
-x,y,1/2+z
x,-y,1/2+z
1/2+x,1/2+y,z
1/2-x,1/2-y,z
1/2-x,1/2+y,1/2+z
1/2+x,1/2-y,1/2+z
loop_
_atom_site_type_symbol
_atom_site_label
_atom_site_fract_x
_atom_site_fract_y
_atom_site_fract_z
Si Si1 0.188017 0.229823 0.603910
Si Si2 0.507133 0.651884 0.237434
Si Si3 0.358675 0.131963 0.059386
Si Si4 0.391961 0.619023 0.913454
Si Si5 0.750000 0.250000 0.494707
Si Si6 0.664469 0.973670 0.786230
Si Si7 0.712218 0.526655 0.807056
Si Si8 0.058723 0.844200 0.478965
O O1 0.250000 0.250000 0.546653
O O2 0.134610 0.217985 0.513761
O O3 0.177231 0.340511 0.709994
O O4 0.194788 0.093006 0.673267
O O5 0.500000 0.500000 0.240947
O O6 0.564908 0.676499 0.311395
O O7 0.459603 0.698040 0.334960
O O8 0.510913 0.681838 0.085772
O O9 0.295447 0.175113 0.072898
O O10 0.392869 0.257020 0.030435
O O11 0.372111 0.055775 0.188716
O O12 0.360323 0.049460 0.927512
O O13 0.336932 0.564950 0.845521
O O14 0.422126 0.492441 0.974068
O O15 0.719018 0.354497 0.406290
O O16 0.726255 0.029483 0.806185
#
# Coordination Sequence:
#
# PCOD9353600 Si02
#       8
#     8   8   8   8   4   8   8   8
#     4  10  20  35  55  87 129 173 210 251 316 378
#     4  10  23  41  63  98 128 157 208 277 336 387
#     4  11  23  41  65  90 129 175 214 264 315 379
#     4  11  21  35  66  95 130 163 210 269 327 384
#     4  10  18  36  58  88 126 172 206 240 310 384
#     4  10  23  39  59  89 132 175 214 253 304 384
#     4  10  18  35  56  88 127 174 209 244 315 380
#     4  11  23  43  68  96 124 164 213 272 340 384
#
# _framework density 22.875053999999999
#
# number of rings (size 3 to 8) (size 9 to 14) (size 15 to 20)
#    0.000    1.600    4.667    2.000    7.467    5.333 
#    0.000    0.000    0.000    6.400    0.000    0.000 
#    0.000    0.000    0.000    0.000    0.000    0.000 
#
# Total GULP energy -167554.968942 kJ/mol
# GULP energy per Si atom -5585.165631 kJ/mol
# Density = 2.282299 g / cm^3
# Si number density = 22.875054 Si / 1000 Ang^3
#
#
#
# Elastic Constant Matrix: (Units=GPa)
#
#
# Indices 1 2 3 4 5 6 
#
# 1 41.5745 4.9157 12.6791 0.0000 0.0000 0.0000
# 2 4.9157 32.5316 23.2952 0.0000 0.0000 0.0000
# 3 12.6791 23.2952 91.9712 0.0000 0.0000 0.0000
# 4 0.0000 0.0000 0.0000 17.2667 0.0000 0.0000
# 5 0.0000 0.0000 0.0000 0.0000 26.7912 0.0000
# 6 0.0000 0.0000 0.0000 0.0000 0.0000 23.7241
#
#
#
# Elastic Compliance Matrix: (Units=1/GPa)
#
#
# Indices 1 2 3 4 5 6 
#
# 1 0.025178 -0.001611 -0.003063 0.000000 0.000000 0.000000
# 2 -0.001611 0.037653 -0.009315 0.000000 0.000000 0.000000
# 3 -0.003063 -0.009315 0.013655 0.000000 0.000000 0.000000
# 4 0.000000 0.000000 0.000000 0.057915 0.000000 0.000000
# 5 0.000000 0.000000 0.000000 0.000000 0.037326 0.000000
# 6 0.000000 0.000000 0.000000 0.000000 0.000000 0.042151
#
#
# Mechanical properties :
#
#
# Convention : Reuss Voigt Hill
#
# Bulk Modulus (GPa) = 20.61542 27.53968 24.07755
# Shear Modulus (GPa) = 19.37802 21.90224 20.64013
#
# Velocity S-wave (km/s) = 2.91370 3.09766 3.00709
# Velocity P-wave (km/s) = 4.51124 4.98591 4.75450
#
# Compressibility (1/GPa) = 0.04850738
#
# Stress axis : x y z
#
# Youngs Moduli (GPa) = 39.71753 26.55826 73.23554
#
# Poissons Ratio (x) = 0.04279 0.22431
# Poissons Ratio (y) = 0.06399 0.68218
# Poissons Ratio (z) = 0.12165 0.24739
#
# Static dielectric constant tensor:
#      x y z
#    x 1.875090 0.000000 0.000000 
#    y 0.000000 1.859260 0.000000 
#    z 0.000000 0.000000 1.915960 
# 
# From -- ./inp_files/3051.got.cif
#   From: 2010.05.17/outbox.cif.g08.bks.cpg/sg37_2_cif.got.tgz:3051.got - 2010.06.03 17:53:42.
