data_PCOD9353516
_publ_section_title
;
Structure prediction by ZEFSAII (Michael W. Deem and Ramdas Pophale) SiO2 
 PCOD9353516
Probable space group: C C C 2
;
_chemical_formula_sum "Si O2"
_cell_formula_units_Z 64
_cell_length_a 19.866273
_cell_length_b 11.877101
_cell_length_c 14.651998
_cell_angle_alpha 90.000000
_cell_angle_beta 90.000000
_cell_angle_gamma 90.000000
_cell_volume 3457.193593
_symmetry_space_group_name_H-M "C C C 2"
_symmetry_group_IT_number 37
_symmetry_cell_setting 'orthorhombic'
loop_
_space_group_symop_operation_xyz
x,y,z
-x,-y,z
-x,y,1/2+z
x,-y,1/2+z
1/2+x,1/2+y,z
1/2-x,1/2-y,z
1/2-x,1/2+y,1/2+z
1/2+x,1/2-y,1/2+z
loop_
_atom_site_type_symbol
_atom_site_label
_atom_site_fract_x
_atom_site_fract_y
_atom_site_fract_z
Si Si1 0.393204 0.008593 0.072840
Si Si2 0.503459 0.189155 0.051010
Si Si3 0.168979 0.463019 0.377476
Si Si4 0.694825 0.092872 0.213467
Si Si5 0.985973 0.132451 0.205677
Si Si6 0.924206 0.252929 0.861677
Si Si7 0.665663 0.652386 0.664438
Si Si8 0.700890 0.358397 0.956049
O O1 0.433789 0.123339 0.062290
O O2 0.443629 0.903258 0.090865
O O3 0.336155 0.002263 0.148689
O O4 0.360819 0.983581 0.976176
O O5 0.501731 0.301559 0.110562
O O6 0.528085 0.213520 0.947859
O O7 0.164467 0.570070 0.312092
O O8 0.121671 0.362763 0.336602
O O9 0.247344 0.434881 0.398398
O O10 0.678534 0.213363 0.169573
O O11 0.774928 0.089748 0.217038
O O12 0.905302 0.137736 0.212973
O O13 0.030103 0.197698 0.282551
O O14 0.000000 0.000000 0.203404
O O15 0.866166 0.169818 0.899557
O O16 0.674641 0.613768 0.558576
O O17 0.750000 0.250000 0.969887
#
# Coordination Sequence:
#
# PCOD9353516 Si02
#       8
#     8   8   8   8   8   8   8   8
#     4  10  19  36  64  97 124 155 193 266 335 373
#     4  10  21  38  62  89 125 161 203 251 322 388
#     4  10  21  35  66  99 120 155 206 265 324 370
#     4  11  20  36  65  95 122 153 204 269 308 365
#     4  12  26  41  59  85 122 172 216 251 301 376
#     4  10  22  40  59  90 126 162 206 259 310 379
#     4  11  21  40  64  85 123 167 214 248 306 379
#     4  10  17  39  65  86 117 164 209 246 297 382
#
# _framework density 18.512125999999999
#
# number of rings (size 3 to 8) (size 9 to 14) (size 15 to 20)
#    0.000    1.500    5.000    1.500    3.500    0.500 
#    0.000    0.000    0.000    0.000    0.000    0.000 
#    0.000    0.000    0.000    0.000    0.000    0.000 
#
# Total GULP energy -178190.862388 kJ/mol
# GULP energy per Si atom -5568.464450 kJ/mol
# Density = 1.846999 g / cm^3
# Si number density = 18.512126 Si / 1000 Ang^3
#
#
#
# Elastic Constant Matrix: (Units=GPa)
#
#
# Indices 1 2 3 4 5 6 
#
# 1 127.1291 34.2036 29.2662 0.0000 0.0000 0.0000
# 2 34.2036 56.1826 27.4982 0.0000 0.0000 0.0000
# 3 29.2662 27.4982 67.0117 0.0000 0.0000 0.0000
# 4 0.0000 0.0000 0.0000 14.5109 0.0000 0.0000
# 5 0.0000 0.0000 0.0000 0.0000 13.1180 0.0000
# 6 0.0000 0.0000 0.0000 0.0000 0.0000 27.1886
#
#
#
# Elastic Compliance Matrix: (Units=1/GPa)
#
#
# Indices 1 2 3 4 5 6 
#
# 1 0.009673 -0.004782 -0.002263 0.000000 0.000000 0.000000
# 2 -0.004782 0.024636 -0.008021 0.000000 0.000000 0.000000
# 3 -0.002263 -0.008021 0.019202 0.000000 0.000000 0.000000
# 4 0.000000 0.000000 0.000000 0.068914 0.000000 0.000000
# 5 0.000000 0.000000 0.000000 0.000000 0.076231 0.000000
# 6 0.000000 0.000000 0.000000 0.000000 0.000000 0.036780
#
#
# Mechanical properties :
#
#
# Convention : Reuss Voigt Hill
#
# Bulk Modulus (GPa) = 42.76945 48.02883 45.39914
# Shear Modulus (GPa) = 18.29082 21.58718 19.93900
#
# Velocity S-wave (km/s) = 3.14673 3.41854 3.28545
# Velocity P-wave (km/s) = 6.02961 6.44847 6.24255
#
# Compressibility (1/GPa) = 0.02338117
#
# Stress axis : x y z
#
# Youngs Moduli (GPa) = 103.37662 40.59097 52.07708
#
# Poissons Ratio (x) = 0.19409 0.11783
# Poissons Ratio (y) = 0.49432 0.41771
# Poissons Ratio (z) = 0.23389 0.32558
#
# Static dielectric constant tensor:
#      x y z
#    x 1.701190 0.000000 0.000000 
#    y 0.000000 1.650470 0.000000 
#    z 0.000000 0.000000 1.635050 
# 
# From -- ./inp_files/11778.got.cif
#   From: 2010.05.17/outbox.cif.g08.bks.cpg/sg37_6_cif.got.tgz:11778.got - 2010.06.03 17:53:42.
