data_PCOD9353572
_publ_section_title
;
Structure prediction by ZEFSAII (Michael W. Deem and Ramdas Pophale) SiO2 
 PCOD9353572
Probable space group: C C C 2
;
_chemical_formula_sum "Si O2"
_cell_formula_units_Z 64
_cell_length_a 17.535284
_cell_length_b 20.954847
_cell_length_c 9.122276
_cell_angle_alpha 90.000000
_cell_angle_beta 90.000000
_cell_angle_gamma 90.000000
_cell_volume 3351.972957
_symmetry_space_group_name_H-M "C C C 2"
_symmetry_group_IT_number 37
_symmetry_cell_setting 'orthorhombic'
loop_
_space_group_symop_operation_xyz
x,y,z
-x,-y,z
-x,y,1/2+z
x,-y,1/2+z
1/2+x,1/2+y,z
1/2-x,1/2-y,z
1/2-x,1/2+y,1/2+z
1/2+x,1/2-y,1/2+z
loop_
_atom_site_type_symbol
_atom_site_label
_atom_site_fract_x
_atom_site_fract_y
_atom_site_fract_z
Si Si1 0.921016 0.839318 0.767940
Si Si2 0.897667 0.920584 0.299453
Si Si3 0.257256 0.180550 0.783241
Si Si4 0.779478 0.442498 0.465424
Si Si5 0.042754 0.795686 0.947752
Si Si6 0.319067 0.798163 0.960000
Si Si7 0.713371 0.070875 0.798808
Si Si8 0.405063 0.457066 0.972642
O O1 0.830471 0.835736 0.744851
O O2 0.957057 0.824565 0.610831
O O3 0.933016 0.906861 0.850075
O O4 0.957946 0.788748 0.882084
O O5 0.920564 0.849817 0.343767
O O6 0.805704 0.924262 0.298982
O O7 0.922960 0.971596 0.421894
O O8 0.926782 0.940636 0.138731
O O9 0.250000 0.250000 0.858782
O O10 0.291227 0.123046 0.876960
O O11 0.302432 0.188978 0.631795
O O12 0.809701 0.436032 0.629737
O O13 0.807984 0.506422 0.385641
O O14 0.687310 0.450469 0.472206
O O15 0.099701 0.736330 0.944244
O O16 0.250000 0.750000 0.913139
O O17 0.315443 0.864478 0.873694
#
# Coordination Sequence:
#
# PCOD9353572 Si02
#       8
#     8   8   8   8   8   8   8   8
#     4  11  22  38  54  80 115 150 195 241 292 345
#     4  10  18  33  53  79 112 156 204 241 280 342
#     4  10  19  39  61  84 114 154 194 234 292 353
#     4   9  19  31  55  85 116 149 187 248 292 346
#     4  12  23  37  56  81 117 157 197 244 291 348
#     4  11  20  37  60  82 114 161 202 238 290 343
#     4  10  18  33  53  84 119 148 197 244 291 339
#     4   9  19  33  53  78 110 158 199 239 286 338
#
# _framework density 19.093233000000001
#
# number of rings (size 3 to 8) (size 9 to 14) (size 15 to 20)
#    0.000    1.750    3.750    2.250    0.000    5.000 
#    4.500    2.500    0.000    0.000    0.000    0.875 
#    0.000    0.000    0.000    0.000    0.000    0.000 
#
# Total GULP energy -178637.827070 kJ/mol
# GULP energy per Si atom -5582.432096 kJ/mol
# Density = 1.904978 g / cm^3
# Si number density = 19.093233 Si / 1000 Ang^3
#
#
#
# Elastic Constant Matrix: (Units=GPa)
#
#
# Indices 1 2 3 4 5 6 
#
# 1 30.4125 16.5669 12.5764 0.0000 0.0000 0.0000
# 2 16.5669 161.8900 80.6576 0.0000 0.0000 0.0000
# 3 12.5764 80.6576 137.8401 0.0000 0.0000 0.0000
# 4 0.0000 0.0000 0.0000 33.7424 0.0000 0.0000
# 5 0.0000 0.0000 0.0000 0.0000 7.6958 0.0000
# 6 0.0000 0.0000 0.0000 0.0000 0.0000 32.7564
#
#
#
# Elastic Compliance Matrix: (Units=1/GPa)
#
#
# Indices 1 2 3 4 5 6 
#
# 1 0.035056 -0.002814 -0.001552 0.000000 0.000000 0.000000
# 2 -0.002814 0.008945 -0.004977 0.000000 0.000000 0.000000
# 3 -0.001552 -0.004977 0.010309 0.000000 0.000000 0.000000
# 4 0.000000 0.000000 0.000000 0.029636 0.000000 0.000000
# 5 0.000000 0.000000 0.000000 0.000000 0.129941 0.000000
# 6 0.000000 0.000000 0.000000 0.000000 0.000000 0.030528
#
#
# Mechanical properties :
#
#
# Convention : Reuss Voigt Hill
#
# Bulk Modulus (GPa) = 28.07177 61.08272 44.57724
# Shear Modulus (GPa) = 18.18340 29.52837 23.85589
#
# Velocity S-wave (km/s) = 3.08936 3.93687 3.53858
# Velocity P-wave (km/s) = 5.24022 7.26130 6.33192
#
# Compressibility (1/GPa) = 0.03562298
#
# Stress axis : x y z
#
# Youngs Moduli (GPa) = 28.52585 111.79585 97.00393
#
# Poissons Ratio (x) = 0.31464 0.15051
# Poissons Ratio (y) = 0.08028 0.48282
# Poissons Ratio (z) = 0.04426 0.55645
#
# Static dielectric constant tensor:
#      x y z
#    x 1.711690 0.000000 0.000000 
#    y 0.000000 1.667410 0.000000 
#    z 0.000000 0.000000 1.663190 
# 
# From -- ./inp_files/4147.got.cif
#   From: 2010.05.17/outbox.cif.g08.bks.cpg/sg37_3_cif.got.tgz:4147.got - 2010.06.03 17:53:42.
