data_PCOD9353604
_publ_section_title
;
Structure prediction by ZEFSAII (Michael W. Deem and Ramdas Pophale) SiO2 
 PCOD9353604
Probable space group: C C C 2
;
_chemical_formula_sum "Si O2"
_cell_formula_units_Z 64
_cell_length_a 9.503583
_cell_length_b 23.150946
_cell_length_c 14.164324
_cell_angle_alpha 90.000000
_cell_angle_beta 90.000000
_cell_angle_gamma 90.000000
_cell_volume 3116.391179
_symmetry_space_group_name_H-M "C C C 2"
_symmetry_group_IT_number 37
_symmetry_cell_setting 'orthorhombic'
loop_
_space_group_symop_operation_xyz
x,y,z
-x,-y,z
-x,y,1/2+z
x,-y,1/2+z
1/2+x,1/2+y,z
1/2-x,1/2-y,z
1/2-x,1/2+y,1/2+z
1/2+x,1/2-y,1/2+z
loop_
_atom_site_type_symbol
_atom_site_label
_atom_site_fract_x
_atom_site_fract_y
_atom_site_fract_z
Si Si1 0.340026 0.333764 0.443500
Si Si2 0.722974 0.405439 0.666407
Si Si3 0.879569 0.048891 0.862885
Si Si4 0.095660 0.760627 0.230150
Si Si5 0.373276 0.205328 0.092254
Si Si6 0.037490 0.293062 0.407581
Si Si7 0.669459 0.487153 0.064275
Si Si8 0.599998 0.373865 0.149301
O O1 0.426352 0.387276 0.399250
O O2 0.409212 0.272305 0.425565
O O3 0.340094 0.343129 0.555671
O O4 0.181780 0.329884 0.400404
O O5 0.705722 0.435424 0.768689
O O6 0.818475 0.349359 0.652249
O O7 0.756187 0.457678 0.596097
O O8 0.565507 0.385727 0.637987
O O9 0.795342 0.029190 0.956574
O O10 0.000000 0.000000 0.844153
O O11 0.250000 0.750000 0.192927
O O12 0.061917 0.718906 0.318019
O O13 0.100836 0.830406 0.237687
O O14 0.978877 0.742899 0.155139
O O15 0.250000 0.250000 0.066506
O O16 0.450149 0.185659 0.997233
O O17 0.500000 0.500000 0.060817
O O18 0.677645 0.435573 0.141529
#
# Coordination Sequence:
#
# PCOD9353604 Si02
#       8
#     8   8   8   8   8   8   8   8
#     4  10  20  37  62  91 126 169 212 272 336 399
#     4  11  20  36  60  93 131 167 215 275 333 394
#     4  10  19  33  59  95 130 162 217 280 332 385
#     4  12  24  38  60  90 128 174 217 272 334 397
#     4  12  24  40  62  94 136 176 221 275 330 407
#     4  11  23  38  60  90 129 170 219 264 341 403
#     4   8  18  33  56  90 124 163 209 271 325 374
#     4  10  18  35  59  87 126 165 212 267 326 381
#
# _framework density 20.536574999999999
#
# number of rings (size 3 to 8) (size 9 to 14) (size 15 to 20)
#    0.000    1.500    2.500    4.500    1.750    0.000 
#    0.000    3.750    0.000    6.750    0.000   14.000 
#    0.000    0.000    0.000    0.000    0.000    0.000 
#
# Total GULP energy -178191.836681 kJ/mol
# GULP energy per Si atom -5568.494896 kJ/mol
# Density = 2.048983 g / cm^3
# Si number density = 20.536575 Si / 1000 Ang^3
#
#
#
# Elastic Constant Matrix: (Units=GPa)
#
#
# Indices 1 2 3 4 5 6 
#
# 1 54.0953 30.0151 3.9451 0.0000 0.0000 0.0000
# 2 30.0151 116.4992 28.1038 0.0000 0.0000 0.0000
# 3 3.9451 28.1038 83.4500 0.0000 0.0000 0.0000
# 4 0.0000 0.0000 0.0000 44.8837 0.0000 0.0000
# 5 0.0000 0.0000 0.0000 0.0000 4.8531 0.0000
# 6 0.0000 0.0000 0.0000 0.0000 0.0000 13.0321
#
#
#
# Elastic Compliance Matrix: (Units=1/GPa)
#
#
# Indices 1 2 3 4 5 6 
#
# 1 0.021635 -0.005799 0.000930 0.000000 0.000000 0.000000
# 2 -0.005799 0.010897 -0.003396 0.000000 0.000000 0.000000
# 3 0.000930 -0.003396 0.013083 0.000000 0.000000 0.000000
# 4 0.000000 0.000000 0.000000 0.022280 0.000000 0.000000
# 5 0.000000 0.000000 0.000000 0.000000 0.206054 0.000000
# 6 0.000000 0.000000 0.000000 0.000000 0.000000 0.076734
#
#
# Mechanical properties :
#
#
# Convention : Reuss Voigt Hill
#
# Bulk Modulus (GPa) = 34.38000 42.01918 38.19959
# Shear Modulus (GPa) = 13.26587 25.35246 19.30916
#
# Velocity S-wave (km/s) = 2.54434 3.51736 3.06965
# Velocity P-wave (km/s) = 5.04071 6.08283 5.58612
#
# Compressibility (1/GPa) = 0.02908668
#
# Stress axis : x y z
#
# Youngs Moduli (GPa) = 46.22045 91.76962 76.43608
#
# Poissons Ratio (x) = 0.53213 -0.07108
# Poissons Ratio (y) = 0.26801 0.25955
# Poissons Ratio (z) = -0.04298 0.31162
#
# Static dielectric constant tensor:
#      x y z
#    x 1.722170 0.000000 0.000000 
#    y 0.000000 1.802060 0.000000 
#    z 0.000000 0.000000 1.792010 
# 
# From -- ./inp_files/10976.got.cif
#   From: 2010.05.17/outbox.cif.g08.bks.cpg/sg37_6_cif.got.tgz:10976.got - 2010.06.03 17:53:42.
