data_PCOD9353854
_publ_section_title
;
Structure prediction by ZEFSAII (Michael W. Deem and Ramdas Pophale) SiO2 
 PCOD9353854
Probable space group: C C C 2
;
_chemical_formula_sum "Si O2"
_cell_formula_units_Z 60
_cell_length_a 6.483924
_cell_length_b 25.363753
_cell_length_c 17.902991
_cell_angle_alpha 90.000000
_cell_angle_beta 90.000000
_cell_angle_gamma 90.000000
_cell_volume 2944.265868
_symmetry_space_group_name_H-M "C C C 2"
_symmetry_group_IT_number 37
_symmetry_cell_setting 'orthorhombic'
loop_
_space_group_symop_operation_xyz
x,y,z
-x,-y,z
-x,y,1/2+z
x,-y,1/2+z
1/2+x,1/2+y,z
1/2-x,1/2-y,z
1/2-x,1/2+y,1/2+z
1/2+x,1/2-y,1/2+z
loop_
_atom_site_type_symbol
_atom_site_label
_atom_site_fract_x
_atom_site_fract_y
_atom_site_fract_z
Si Si1 0.340511 0.376420 0.305400
Si Si2 0.035835 0.438001 0.401760
Si Si3 0.732409 0.344059 0.579907
Si Si4 0.250000 0.250000 0.801844
Si Si5 0.352076 0.377885 0.674243
Si Si6 0.946031 0.438720 0.072978
Si Si7 0.700325 0.347304 0.405992
Si Si8 0.465092 0.803870 0.711040
O O1 0.193717 0.420929 0.338190
O O2 0.508527 0.394386 0.244427
O O3 0.469377 0.355105 0.375840
O O4 0.194427 0.333999 0.264635
O O5 0.115973 0.428340 0.486573
O O6 0.000000 0.500000 0.396013
O O7 0.834365 0.400550 0.394650
O O8 0.509008 0.350786 0.616415
O O9 0.715439 0.332633 0.492676
O O10 0.862862 0.303101 0.629637
O O11 0.860097 0.399531 0.588017
O O12 0.218075 0.299965 0.854821
O O13 0.451807 0.249460 0.748706
O O14 0.233606 0.423531 0.630016
O O15 0.172372 0.338782 0.701776
O O16 0.000000 0.500000 0.079826
#
# Coordination Sequence:
#
# PCOD9353854 Si02
#       8
#     8   8   8   4   8   8   8   8
#     4  11  20  39  64  90 127 167 212 264 332 379
#     4  10  21  40  63  91 133 171 213 275 332 384
#     4   9  21  40  64  87 128 165 212 269 317 386
#     4  12  22  44  68  92 128 164 214 262 318 398
#     4  10  19  39  60  87 127 168 216 265 319 394
#     4   9  19  36  61  88 122 171 217 268 325 383
#     4  11  23  42  64  98 126 165 223 268 320 394
#     4  10  22  42  64  90 127 173 204 264 325 384
#
# _framework density 20.378594
#
# number of rings (size 3 to 8) (size 9 to 14) (size 15 to 20)
#    0.000    1.867    2.667    0.800    0.000    1.600 
#    2.400   20.000    0.000    0.000    0.000    0.000 
#    0.000    0.000    0.000    0.000    0.000    0.000 
#
# Total GULP energy -167505.398788 kJ/mol
# GULP energy per Si atom -5583.513293 kJ/mol
# Density = 2.033221 g / cm^3
# Si number density = 20.378594 Si / 1000 Ang^3
#
#
#
# Elastic Constant Matrix: (Units=GPa)
#
#
# Indices 1 2 3 4 5 6 
#
# 1 117.0003 35.6421 80.1804 0.0000 0.0000 0.0000
# 2 35.6421 78.1730 54.5080 0.0000 0.0000 0.0000
# 3 80.1804 54.5080 159.1913 0.0000 0.0000 0.0000
# 4 0.0000 0.0000 0.0000 16.0834 0.0000 0.0000
# 5 0.0000 0.0000 0.0000 0.0000 37.4685 0.0000
# 6 0.0000 0.0000 0.0000 0.0000 0.0000 23.1598
#
#
#
# Elastic Compliance Matrix: (Units=1/GPa)
#
#
# Indices 1 2 3 4 5 6 
#
# 1 0.013247 -0.001823 -0.006048 0.000000 0.000000 0.000000
# 2 -0.001823 0.017055 -0.004922 0.000000 0.000000 0.000000
# 3 -0.006048 -0.004922 0.011013 0.000000 0.000000 0.000000
# 4 0.000000 0.000000 0.000000 0.062176 0.000000 0.000000
# 5 0.000000 0.000000 0.000000 0.000000 0.026689 0.000000
# 6 0.000000 0.000000 0.000000 0.000000 0.000000 0.043178
#
#
# Mechanical properties :
#
#
# Convention : Reuss Voigt Hill
#
# Bulk Modulus (GPa) = 63.57154 77.22506 70.39830
# Shear Modulus (GPa) = 24.48744 27.61130 26.04937
#
# Velocity S-wave (km/s) = 3.47021 3.68491 3.57917
# Velocity P-wave (km/s) = 6.87891 7.48881 7.19033
#
# Compressibility (1/GPa) = 0.01573031
#
# Stress axis : x y z
#
# Youngs Moduli (GPa) = 75.48902 58.63413 90.80012
#
# Poissons Ratio (x) = 0.10687 0.54916
# Poissons Ratio (y) = 0.13759 0.44689
# Poissons Ratio (z) = 0.45656 0.28858
#
# Static dielectric constant tensor:
#      x y z
#    x 1.733710 0.000000 0.000000 
#    y 0.000000 1.736110 0.000000 
#    z 0.000000 0.000000 1.743360 
# 
# From -- ./inp_files/14038.got.cif
#   From: 2010.05.17/outbox.cif.g08.bks.cpg/sg37_8_cif.got.tgz:14038.got - 2010.06.03 17:53:42.
