data_PCOD9353229
_publ_section_title
;
Structure prediction by ZEFSAII (Michael W. Deem and Ramdas Pophale) SiO2 
 PCOD9353229
Probable space group: C M C 21
;
_chemical_formula_sum "Si O2"
_cell_formula_units_Z 40
_cell_length_a 13.017830
_cell_length_b 13.632916
_cell_length_c 8.992210
_cell_angle_alpha 90.000000
_cell_angle_beta 90.000000
_cell_angle_gamma 90.000000
_cell_volume 1595.856347
_symmetry_space_group_name_H-M "C M C 21"
_symmetry_group_IT_number 36
_symmetry_cell_setting 'orthorhombic'
loop_
_space_group_symop_operation_xyz
x,y,z
-x,-y,1/2+z
x,-y,1/2+z
-x,y,z
1/2+x,1/2+y,z
1/2-x,1/2-y,1/2+z
1/2+x,1/2-y,1/2+z
1/2-x,1/2+y,z
loop_
_atom_site_type_symbol
_atom_site_label
_atom_site_fract_x
_atom_site_fract_y
_atom_site_fract_z
Si Si1 0.827834 0.219507 0.021750
Si Si2 0.784845 0.099764 0.557739
Si Si3 0.704359 0.947237 0.361309
Si Si4 0.500000 0.446389 0.198267
Si Si5 0.500000 0.848922 0.484378
Si Si6 0.000000 0.729145 0.316421
Si Si7 0.000000 0.832016 0.760549
O O1 0.728152 0.283630 0.062014
O O2 0.899006 0.191893 0.161124
O O3 0.788467 0.126861 0.930831
O O4 0.899902 0.286454 0.916865
O O5 0.706872 0.062850 0.685053
O O6 0.896769 0.062854 0.601803
O O7 0.747257 0.052575 0.406140
O O8 0.597921 0.911839 0.430654
O O9 0.500000 0.347594 0.294904
O O10 0.500000 0.550646 0.281889
O O11 0.500000 0.826309 0.660316
O O12 0.500000 0.743409 0.397911
#
# Coordination Sequence:
#
# PCOD9353229 Si02
#       7
#     8   8   8   4   4   4   4
#     4  11  25  50  72 111 159 198 245 329 383 444
#     4  12  28  47  82 109 158 201 255 325 386 456
#     4  12  28  49  73 114 151 201 261 313 386 458
#     4  12  24  50  80 120 141 203 264 318 379 463
#     4  12  28  46  76 109 150 212 257 301 390 478
#     4  11  26  45  78 111 153 198 259 312 389 457
#     4  11  24  49  82 104 156 201 256 321 380 452
#
# _framework density 25.064912
#
# number of rings (size 3 to 8) (size 9 to 14) (size 15 to 20)
#    0.000    0.400    6.000    1.200    2.800    8.000 
#    0.000    0.000    0.000    0.000    0.000    0.000 
#    0.000    0.000    0.000    0.000    0.000    0.000 
#
# Total GULP energy -112141.919466 kJ/mol
# GULP energy per Si atom -5607.095973 kJ/mol
# Density = 2.500786 g / cm^3
# Si number density = 25.064912 Si / 1000 Ang^3
#
#
#
# Elastic Constant Matrix: (Units=GPa)
#
#
# Indices 1 2 3 4 5 6 
#
# 1 136.6494 12.9101 8.2278 0.0000 0.0000 0.0000
# 2 12.9101 70.9648 -13.8101 0.0000 0.0000 0.0000
# 3 8.2278 -13.8101 71.1580 0.0000 0.0000 0.0000
# 4 0.0000 0.0000 0.0000 30.6164 0.0000 0.0000
# 5 0.0000 0.0000 0.0000 0.0000 22.8617 0.0000
# 6 0.0000 0.0000 0.0000 0.0000 0.0000 31.3784
#
#
#
# Elastic Compliance Matrix: (Units=1/GPa)
#
#
# Indices 1 2 3 4 5 6 
#
# 1 0.007541 -0.001602 -0.001183 0.000000 0.000000 0.000000
# 2 -0.001602 0.014985 0.003093 0.000000 0.000000 0.000000
# 3 -0.001183 0.003093 0.014790 0.000000 0.000000 0.000000
# 4 0.000000 0.000000 0.000000 0.032662 0.000000 0.000000
# 5 0.000000 0.000000 0.000000 0.000000 0.043741 0.000000
# 6 0.000000 0.000000 0.000000 0.000000 0.000000 0.031869
#
#
# Mechanical properties :
#
#
# Convention : Reuss Voigt Hill
#
# Bulk Modulus (GPa) = 26.36212 32.60309 29.48260
# Shear Modulus (GPa) = 31.72279 35.06761 33.39520
#
# Velocity S-wave (km/s) = 3.56142 3.74447 3.65410
# Velocity P-wave (km/s) = 5.23947 5.63298 5.43978
#
# Compressibility (1/GPa) = 0.03793322
#
# Stress axis : x y z
#
# Youngs Moduli (GPa) = 132.61612 66.73371 67.61159
#
# Poissons Ratio (x) = 0.10691 0.07997
# Poissons Ratio (y) = 0.21245 -0.20915
# Poissons Ratio (z) = 0.15686 -0.20644
#
# Static dielectric constant tensor:
#      x y z
#    x 1.973370 0.000000 0.000000 
#    y 0.000000 1.927430 0.000000 
#    z 0.000000 0.000000 1.954500 
# 
# From -- ./inp_files/3854.got.cif
#   From: 2010.05.17/outbox.cif.g08.bks.cpg/sg36_2_cif.got.tgz:3854.got - 2010.06.03 17:41:39.
