data_PCOD9353496
_publ_section_title
;
Structure prediction by ZEFSAII (Michael W. Deem and Ramdas Pophale) SiO2 
 PCOD9353496
Probable space group: C C C 2
;
_chemical_formula_sum "Si O2"
_cell_formula_units_Z 60
_cell_length_a 8.103305
_cell_length_b 23.298729
_cell_length_c 14.429869
_cell_angle_alpha 90.000000
_cell_angle_beta 90.000000
_cell_angle_gamma 90.000000
_cell_volume 2724.311753
_symmetry_space_group_name_H-M "C C C 2"
_symmetry_group_IT_number 37
_symmetry_cell_setting 'orthorhombic'
loop_
_space_group_symop_operation_xyz
x,y,z
-x,-y,z
-x,y,1/2+z
x,-y,1/2+z
1/2+x,1/2+y,z
1/2-x,1/2-y,z
1/2-x,1/2+y,1/2+z
1/2+x,1/2-y,1/2+z
loop_
_atom_site_type_symbol
_atom_site_label
_atom_site_fract_x
_atom_site_fract_y
_atom_site_fract_z
Si Si1 0.675972 0.031165 0.215440
Si Si2 0.838384 0.052197 0.582657
Si Si3 0.250000 0.750000 0.883214
Si Si4 0.344026 0.839932 0.525885
Si Si5 0.362199 0.866089 0.900698
Si Si6 0.184475 0.494266 0.411588
Si Si7 0.993655 0.772956 0.044876
Si Si8 0.826856 0.875054 0.596931
O O1 0.705468 0.092089 0.166219
O O2 0.500000 0.000000 0.200354
O O3 0.806381 0.987588 0.170117
O O4 0.703742 0.035711 0.324597
O O5 0.698295 0.101394 0.577020
O O6 0.011682 0.084857 0.584882
O O7 0.808140 0.012433 0.492027
O O8 0.296345 0.812112 0.840563
O O9 0.402153 0.737881 0.952151
O O10 0.449121 0.855627 0.433835
O O11 0.167435 0.808743 0.513587
O O12 0.445234 0.790290 0.579323
O O13 0.266142 0.867547 0.999525
O O14 0.319027 0.930098 0.867921
O O15 0.000000 0.500000 0.452973
O O16 0.098572 0.811863 0.115414
#
# Coordination Sequence:
#
# PCOD9353496 Si02
#       8
#     8   8   4   8   8   8   8   8
#     4  11  23  37  54  82 118 160 200 244 304 367
#     4  11  20  37  57  85 118 152 197 250 306 365
#     4   8  16  28  50  82 112 146 190 244 298 356
#     4   9  16  29  57  83 111 149 195 248 295 363
#     4  10  17  32  54  81 112 151 193 242 295 365
#     4  11  22  36  58  87 115 157 200 245 308 370
#     4   8  16  29  51  90 109 145 200 245 298 363
#     4  10  20  35  55  83 118 151 198 248 302 359
#
# _framework density 22.023910000000001
#
# number of rings (size 3 to 8) (size 9 to 14) (size 15 to 20)
#    0.000    2.133    2.667    1.600    0.000    0.000 
#    4.800    0.000    0.000    3.200   10.400    5.600 
#    0.000    0.000    0.000    0.000    0.000    0.000 
#
# Total GULP energy -167160.850977 kJ/mol
# GULP energy per Si atom -5572.028366 kJ/mol
# Density = 2.197378 g / cm^3
# Si number density = 22.023910 Si / 1000 Ang^3
#
#
#
# Elastic Constant Matrix: (Units=GPa)
#
#
# Indices 1 2 3 4 5 6 
#
# 1 75.5924 19.6052 13.2517 0.0000 0.0000 0.0000
# 2 19.6052 144.6781 9.7694 0.0000 0.0000 0.0000
# 3 13.2517 9.7694 42.0444 0.0000 0.0000 0.0000
# 4 0.0000 0.0000 0.0000 14.8885 0.0000 0.0000
# 5 0.0000 0.0000 0.0000 0.0000 -2.2485 0.0000
# 6 0.0000 0.0000 0.0000 0.0000 0.0000 43.7972
#
#
#
# Elastic Compliance Matrix: (Units=1/GPa)
#
#
# Indices 1 2 3 4 5 6 
#
# 1 0.014389 -0.001670 -0.004147 0.000000 0.000000 0.000000
# 2 -0.001670 0.007216 -0.001150 0.000000 0.000000 0.000000
# 3 -0.004147 -0.001150 0.025359 0.000000 0.000000 0.000000
# 4 0.000000 0.000000 0.000000 0.067166 0.000000 0.000000
# 5 0.000000 0.000000 0.000000 0.000000 -0.444745 0.000000
# 6 0.000000 0.000000 0.000000 0.000000 0.000000 0.022833
#
#
# Mechanical properties :
#
#
# Convention : Reuss Voigt Hill
#
# Bulk Modulus (GPa) = 30.27651 38.61862 34.44757
# Shear Modulus (GPa) = -17.67790 25.93335 4.12772
#
# Velocity S-wave (km/s) = -2.83621 3.43521 1.37050
# Velocity P-wave (km/s) = 1.74685 5.77123 4.26372
#
# Compressibility (1/GPa) = 0.03302890
#
# Stress axis : x y z
#
# Youngs Moduli (GPa) = 69.49787 138.58378 39.43406
#
# Poissons Ratio (x) = 0.23141 0.16354
# Poissons Ratio (y) = 0.11605 0.04536
# Poissons Ratio (z) = 0.28822 0.15942
#
# Static dielectric constant tensor:
#      x y z
#    x 1.878170 0.000000 0.000000 
#    y 0.000000 1.940130 0.000000 
#    z 0.000000 0.000000 1.732370 
# 
# From -- ./inp_files/10958.got.cif
#   From: 2010.05.17/outbox.cif.g08.bks.cpg/sg37_6_cif.got.tgz:10958.got - 2010.06.03 17:53:42.
