data_PCOD9353099
_publ_section_title
;
Structure prediction by ZEFSAII (Michael W. Deem and Ramdas Pophale) SiO2 
 PCOD9353099
Probable space group: C M C 21
;
_chemical_formula_sum "Si O2"
_cell_formula_units_Z 64
_cell_length_a 32.688066
_cell_length_b 9.347877
_cell_length_c 9.812708
_cell_angle_alpha 90.000000
_cell_angle_beta 90.000000
_cell_angle_gamma 90.000000
_cell_volume 2998.410507
_symmetry_space_group_name_H-M "C M C 21"
_symmetry_group_IT_number 36
_symmetry_cell_setting 'orthorhombic'
loop_
_space_group_symop_operation_xyz
x,y,z
-x,-y,1/2+z
x,-y,1/2+z
-x,y,z
1/2+x,1/2+y,z
1/2-x,1/2-y,1/2+z
1/2+x,1/2-y,1/2+z
1/2-x,1/2+y,z
loop_
_atom_site_type_symbol
_atom_site_label
_atom_site_fract_x
_atom_site_fract_y
_atom_site_fract_z
Si Si1 0.546994 0.187678 0.656670
Si Si2 0.682703 0.073593 0.718698
Si Si3 0.824894 0.896589 0.148273
Si Si4 0.046964 0.454502 0.870780
Si Si5 0.128199 0.690224 0.293944
Si Si6 0.749684 0.496629 0.997439
Si Si7 0.256668 0.259844 0.344732
Si Si8 0.628966 0.684438 0.088183
O O1 0.500000 0.238171 0.649167
O O2 0.553054 0.109552 0.801910
O O3 0.581095 0.306248 0.626144
O O4 0.552007 0.070295 0.533421
O O5 0.712654 0.017011 0.598969
O O6 0.712565 0.182593 0.799675
O O7 0.648638 0.172903 0.649915
O O8 0.657070 0.950485 0.796498
O O9 0.858862 0.774417 0.157663
O O10 0.792898 0.918493 0.027867
O O11 0.792046 0.838660 0.260296
O O12 0.848375 0.047349 0.151757
O O13 0.081496 0.357074 0.802407
O O14 0.000000 0.414312 0.838530
O O15 0.134481 0.795103 0.424733
O O16 0.738929 0.663847 0.991650
O O17 0.761040 0.408771 0.859894
#
# Coordination Sequence:
#
# PCOD9353099 Si02
#       8
#     8   8   8   8   8   8   8   8
#     4   9  18  36  62  91 123 159 198 249 309 371
#     4  11  21  35  58  82 109 148 200 248 298 350
#     4  11  23  37  54  78 117 158 194 241 301 357
#     4   9  18  36  62  91 123 156 196 251 309 362
#     4  11  22  38  58  87 117 152 201 250 298 367
#     4  11  22  37  54  77 109 151 194 242 290 347
#     4  11  22  37  54  77 109 151 194 242 290 348
#     4  11  22  38  58  87 121 153 197 253 307 368
#
# _framework density 21.344643999999999
#
# number of rings (size 3 to 8) (size 9 to 14) (size 15 to 20)
#    0.000    1.500    1.250    5.250    0.000    4.000 
#    0.000    1.875    0.000    0.000    0.000    0.000 
#    0.000    0.000    0.000    0.000    0.000    0.000 
#
# Total GULP energy -178344.294114 kJ/mol
# GULP energy per Si atom -5573.259191 kJ/mol
# Density = 2.129606 g / cm^3
# Si number density = 21.344644 Si / 1000 Ang^3
#
#
#
# Elastic Constant Matrix: (Units=GPa)
#
#
# Indices 1 2 3 4 5 6 
#
# 1 97.8444 26.9308 15.4080 0.0000 0.0000 0.0000
# 2 26.9308 67.1248 17.0584 0.0000 0.0000 0.0000
# 3 15.4080 17.0584 24.6630 0.0000 0.0000 0.0000
# 4 0.0000 0.0000 0.0000 29.1016 0.0000 0.0000
# 5 0.0000 0.0000 0.0000 0.0000 21.2454 0.0000
# 6 0.0000 0.0000 0.0000 0.0000 0.0000 32.1883
#
#
#
# Elastic Compliance Matrix: (Units=1/GPa)
#
#
# Indices 1 2 3 4 5 6 
#
# 1 0.011986 -0.003526 -0.005050 0.000000 0.000000 0.000000
# 2 -0.003526 0.019112 -0.011016 0.000000 0.000000 0.000000
# 3 -0.005050 -0.011016 0.051321 0.000000 0.000000 0.000000
# 4 0.000000 0.000000 0.000000 0.034362 0.000000 0.000000
# 5 0.000000 0.000000 0.000000 0.000000 0.047069 0.000000
# 6 0.000000 0.000000 0.000000 0.000000 0.000000 0.031067
#
#
# Mechanical properties :
#
#
# Convention : Reuss Voigt Hill
#
# Bulk Modulus (GPa) = 23.12911 34.26962 28.69937
# Shear Modulus (GPa) = 20.11980 25.18938 22.65459
#
# Velocity S-wave (km/s) = 3.07354 3.43902 3.26140
# Velocity P-wave (km/s) = 4.84304 5.64441 5.25901
#
# Compressibility (1/GPa) = 0.04323556
#
# Stress axis : x y z
#
# Youngs Moduli (GPa) = 83.43157 52.32409 19.48530
#
# Poissons Ratio (x) = 0.18447 0.09839
# Poissons Ratio (y) = 0.29414 0.21465
# Poissons Ratio (z) = 0.42129 0.57641
#
# Static dielectric constant tensor:
#      x y z
#    x 1.792460 0.000000 0.000000 
#    y 0.000000 1.765920 0.000000 
#    z 0.000000 0.000000 1.901650 
# 
# From -- ./inp_files/9744.got.cif
#   From: 2010.05.17/outbox.cif.g08.bks.cpg/sg36_5_cif.got.tgz:9744.got - 2010.06.03 17:41:39.
