data_PCOD9353488
_publ_section_title
;
Structure prediction by ZEFSAII (Michael W. Deem and Ramdas Pophale) SiO2 
 PCOD9353488
Probable space group: C C C 2
;
_chemical_formula_sum "Si O2"
_cell_formula_units_Z 64
_cell_length_a 8.069321
_cell_length_b 15.144912
_cell_length_c 25.538231
_cell_angle_alpha 90.000000
_cell_angle_beta 90.000000
_cell_angle_gamma 90.000000
_cell_volume 3121.005668
_symmetry_space_group_name_H-M "C C C 2"
_symmetry_group_IT_number 37
_symmetry_cell_setting 'orthorhombic'
loop_
_space_group_symop_operation_xyz
x,y,z
-x,-y,z
-x,y,1/2+z
x,-y,1/2+z
1/2+x,1/2+y,z
1/2-x,1/2-y,z
1/2-x,1/2+y,1/2+z
1/2+x,1/2-y,1/2+z
loop_
_atom_site_type_symbol
_atom_site_label
_atom_site_fract_x
_atom_site_fract_y
_atom_site_fract_z
Si Si1 0.445994 0.601936 0.066450
Si Si2 0.552467 0.099341 0.958579
Si Si3 0.112923 0.831200 0.958579
Si Si4 0.450406 0.255039 0.268745
Si Si5 0.945994 0.898064 0.350709
Si Si6 0.549594 0.744961 0.648414
Si Si7 0.453065 0.102300 0.344532
Si Si8 0.453065 0.897700 0.072627
O O1 0.500000 0.500000 0.065341
O O2 0.508546 0.659312 0.115548
O O3 0.246495 0.604952 0.071386
O O4 0.484543 0.653848 0.012191
O O5 0.751475 0.091259 0.958579
O O6 0.494963 0.136399 0.902685
O O7 0.500000 0.000000 0.958579
O O8 0.494963 0.136399 0.014474
O O9 0.250000 0.750000 0.958579
O O10 0.015457 0.846152 0.904968
O O11 0.250000 0.250000 0.270817
O O12 0.508546 0.340688 0.301611
O O13 0.500000 0.257778 0.208579
O O14 0.512845 0.167978 0.299508
O O15 0.746495 0.895048 0.345773
O O16 0.000000 0.000000 0.351818
O O17 0.750000 0.750000 0.646342
O O18 0.487155 0.832022 0.617651
O O19 0.500000 0.000000 0.337521
O O20 0.500000 0.000000 0.079638
#
# Coordination Sequence:
#
# PCOD9353488 Si02
#       8
#     8   8   8   8   8   8   8   8
#     4  10  20  34  54  82 110 136 172 220 269 313
#     4   8  14  27  50  77 102 126 159 204 252 305
#     4  10  17  31  56  81 107 140 172 208 261 329
#     4  10  22  38  54  74 103 142 184 222 264 314
#     4  10  20  34  54  82 110 136 172 220 269 313
#     4  10  22  38  54  74 103 142 184 222 264 314
#     4   9  18  34  56  80 105 139 176 213 265 328
#     4   9  18  34  56  80 105 139 176 213 265 328
#
# _framework density 20.506209999999999
#
# number of rings (size 3 to 8) (size 9 to 14) (size 15 to 20)
#    0.000    2.500    0.000    4.125    0.000    3.000 
#    0.000    5.000    0.000    0.000    0.000   24.500 
#    0.000    0.000    0.000    0.000    0.000    0.000 
#
# Total GULP energy -178207.744529 kJ/mol
# GULP energy per Si atom -5568.992017 kJ/mol
# Density = 2.045954 g / cm^3
# Si number density = 20.506210 Si / 1000 Ang^3
#
#
#
# Elastic Constant Matrix: (Units=GPa)
#
#
# Indices 1 2 3 4 5 6 
#
# 1 8.6858 10.0354 10.0586 0.0000 0.0000 0.0000
# 2 10.0354 156.8102 109.8330 0.0000 0.0000 0.0000
# 3 10.0586 109.8330 239.5904 0.0000 0.0000 0.0000
# 4 0.0000 0.0000 0.0000 16.9045 0.0000 0.0000
# 5 0.0000 0.0000 0.0000 0.0000 25.9763 0.0000
# 6 0.0000 0.0000 0.0000 0.0000 0.0000 33.2216
#
#
#
# Elastic Compliance Matrix: (Units=1/GPa)
#
#
# Indices 1 2 3 4 5 6 
#
# 1 0.125202 -0.006379 -0.002332 0.000000 0.000000 0.000000
# 2 -0.006379 0.009718 -0.004187 0.000000 0.000000 0.000000
# 3 -0.002332 -0.004187 0.006191 0.000000 0.000000 0.000000
# 4 0.000000 0.000000 0.000000 0.059156 0.000000 0.000000
# 5 0.000000 0.000000 0.000000 0.000000 0.038497 0.000000
# 6 0.000000 0.000000 0.000000 0.000000 0.000000 0.030101
#
#
# Mechanical properties :
#
#
# Convention : Reuss Voigt Hill
#
# Bulk Modulus (GPa) = 8.67193 73.88226 41.27710
# Shear Modulus (GPa) = 15.01053 33.56444 24.28749
#
# Velocity S-wave (km/s) = 2.70848 4.05012 3.44524
# Velocity P-wave (km/s) = 3.74423 7.61438 5.99992
#
# Compressibility (1/GPa) = 0.11531453
#
# Stress axis : x y z
#
# Youngs Moduli (GPa) = 7.98711 102.89996 161.52002
#
# Poissons Ratio (x) = 0.65642 0.37665
# Poissons Ratio (y) = 0.05095 0.67632
# Poissons Ratio (z) = 0.01863 0.43086
#
# Static dielectric constant tensor:
#      x y z
#    x 1.780550 0.000000 0.000000 
#    y 0.000000 1.824870 0.000000 
#    z 0.000000 0.000000 1.791280 
# 
# From -- ./inp_files/18441.got.cif
#   From: 2010.05.17/outbox.cif.g08.bks.cpg/sg37_10_cif.got.tgz:18441.got - 2010.06.03 17:53:42.
