data_PCOD9353637
_publ_section_title
;
Structure prediction by ZEFSAII (Michael W. Deem and Ramdas Pophale) SiO2 
 PCOD9353637
Probable space group: C C C 2
;
_chemical_formula_sum "Si O2"
_cell_formula_units_Z 64
_cell_length_a 20.146807
_cell_length_b 8.748376
_cell_length_c 18.464978
_cell_angle_alpha 90.000000
_cell_angle_beta 90.000000
_cell_angle_gamma 90.000000
_cell_volume 3254.486400
_symmetry_space_group_name_H-M "C C C 2"
_symmetry_group_IT_number 37
_symmetry_cell_setting 'orthorhombic'
loop_
_space_group_symop_operation_xyz
x,y,z
-x,-y,z
-x,y,1/2+z
x,-y,1/2+z
1/2+x,1/2+y,z
1/2-x,1/2-y,z
1/2-x,1/2+y,1/2+z
1/2+x,1/2-y,1/2+z
loop_
_atom_site_type_symbol
_atom_site_label
_atom_site_fract_x
_atom_site_fract_y
_atom_site_fract_z
Si Si1 0.441846 0.614872 0.576960
Si Si2 0.681585 0.412409 0.091026
Si Si3 0.321470 0.314080 0.761057
Si Si4 0.168493 0.564331 0.051281
Si Si5 0.400613 0.957411 0.196697
Si Si6 0.522346 0.762979 0.216411
Si Si7 0.054202 0.123827 0.850054
Si Si8 0.937891 0.613290 0.968920
O O1 0.500000 0.500000 0.555156
O O2 0.371445 0.536047 0.566189
O O3 0.447385 0.641893 0.662638
O O4 0.449190 0.775852 0.537625
O O5 0.686312 0.390010 0.179571
O O6 0.752653 0.454295 0.057352
O O7 0.659064 0.247227 0.060082
O O8 0.250000 0.250000 0.787751
O O9 0.358702 0.154886 0.745455
O O10 0.372295 0.409495 0.813462
O O11 0.138476 0.496077 0.125412
O O12 0.127770 0.487006 0.986490
O O13 0.463841 0.854035 0.174728
O O14 0.425982 0.106374 0.237419
O O15 0.489016 0.686240 0.283816
O O16 0.067280 0.263361 0.904787
O O17 0.000000 0.000000 0.881599
O O18 0.000000 0.500000 0.958491
#
# Coordination Sequence:
#
# PCOD9353637 Si02
#       8
#     8   8   8   8   8   8   8   8
#     4  12  22  36  62  97 125 161 212 277 331 382
#     4  10  20  37  68  95 130 158 212 280 335 387
#     4  10  18  37  66  97 128 168 209 271 338 399
#     4  10  19  39  59  94 126 170 206 261 333 392
#     4   9  16  31  59  91 120 152 208 263 320 377
#     4  10  19  33  62  91 119 156 213 273 319 377
#     4  11  25  42  63  93 132 173 225 273 331 399
#     4  12  26  42  62  89 129 175 223 268 329 403
#
# _framework density 19.665163
#
# number of rings (size 3 to 8) (size 9 to 14) (size 15 to 20)
#    0.000    1.500    3.750    5.250    3.500    0.500 
#    2.250    0.000    0.000    0.000    0.000    0.000 
#    0.000    0.000    0.000    0.000    0.000    0.000 
#
# Total GULP energy -178287.767859 kJ/mol
# GULP energy per Si atom -5571.492746 kJ/mol
# Density = 1.962040 g / cm^3
# Si number density = 19.665163 Si / 1000 Ang^3
#
#
#
# Elastic Constant Matrix: (Units=GPa)
#
#
# Indices 1 2 3 4 5 6 
#
# 1 99.2479 39.8987 18.8484 0.0000 0.0000 0.0000
# 2 39.8987 54.6276 15.1592 0.0000 0.0000 0.0000
# 3 18.8484 15.1592 59.8953 0.0000 0.0000 0.0000
# 4 0.0000 0.0000 0.0000 39.3639 0.0000 0.0000
# 5 0.0000 0.0000 0.0000 0.0000 14.2296 0.0000
# 6 0.0000 0.0000 0.0000 0.0000 0.0000 27.9466
#
#
#
# Elastic Compliance Matrix: (Units=1/GPa)
#
#
# Indices 1 2 3 4 5 6 
#
# 1 0.014488 -0.010021 -0.002023 0.000000 0.000000 0.000000
# 2 -0.010021 0.026619 -0.003584 0.000000 0.000000 0.000000
# 3 -0.002023 -0.003584 0.018240 0.000000 0.000000 0.000000
# 4 0.000000 0.000000 0.000000 0.025404 0.000000 0.000000
# 5 0.000000 0.000000 0.000000 0.000000 0.070276 0.000000
# 6 0.000000 0.000000 0.000000 0.000000 0.000000 0.035782
#
#
# Mechanical properties :
#
#
# Convention : Reuss Voigt Hill
#
# Bulk Modulus (GPa) = 35.59742 40.17592 37.88667
# Shear Modulus (GPa) = 21.60494 25.63232 23.61863
#
# Velocity S-wave (km/s) = 3.31817 3.61423 3.46936
# Velocity P-wave (km/s) = 5.72900 6.15559 5.94612
#
# Compressibility (1/GPa) = 0.02809192
#
# Stress axis : x y z
#
# Youngs Moduli (GPa) = 69.02093 37.56713 54.82600
#
# Poissons Ratio (x) = 0.37644 0.11092
# Poissons Ratio (y) = 0.69163 0.19648
# Poissons Ratio (z) = 0.13964 0.13463
#
# Static dielectric constant tensor:
#      x y z
#    x 1.758880 0.000000 0.000000 
#    y 0.000000 1.672980 0.000000 
#    z 0.000000 0.000000 1.733070 
# 
# From -- ./inp_files/17506.got.cif
#   From: 2010.05.17/outbox.cif.g08.bks.cpg/sg37_9_cif.got.tgz:17506.got - 2010.06.03 17:53:42.
