data_PCOD9353592
_publ_section_title
;
Structure prediction by ZEFSAII (Michael W. Deem and Ramdas Pophale) SiO2 
 PCOD9353592
Probable space group: C C C 2
;
_chemical_formula_sum "Si O2"
_cell_formula_units_Z 48
_cell_length_a 25.805139
_cell_length_b 5.568383
_cell_length_c 15.196464
_cell_angle_alpha 90.000000
_cell_angle_beta 90.000000
_cell_angle_gamma 90.000000
_cell_volume 2183.623941
_symmetry_space_group_name_H-M "C C C 2"
_symmetry_group_IT_number 37
_symmetry_cell_setting 'orthorhombic'
loop_
_space_group_symop_operation_xyz
x,y,z
-x,-y,z
-x,y,1/2+z
x,-y,1/2+z
1/2+x,1/2+y,z
1/2-x,1/2-y,z
1/2-x,1/2+y,1/2+z
1/2+x,1/2-y,1/2+z
loop_
_atom_site_type_symbol
_atom_site_label
_atom_site_fract_x
_atom_site_fract_y
_atom_site_fract_z
Si Si1 0.750000 0.250000 0.365400
Si Si2 0.360244 0.364540 0.516090
Si Si3 0.750000 0.250000 0.981555
Si Si4 0.451970 0.318815 0.078086
Si Si5 0.929542 0.498879 0.423176
Si Si6 0.451616 0.679201 0.765180
Si Si7 0.359716 0.627604 0.328632
O O1 0.758810 0.499344 0.423790
O O2 0.698801 0.299200 0.307254
O O3 0.301598 0.297069 0.539287
O O4 0.397028 0.542044 0.570103
O O5 0.394371 0.132708 0.495435
O O6 0.354088 0.484243 0.420118
O O7 0.500000 0.500000 0.081980
O O8 0.451926 0.182720 0.171834
O O9 0.459450 0.181174 0.986664
O O10 0.956754 0.677844 0.355920
O O11 0.892261 0.359068 0.356033
O O12 0.500000 0.500000 0.764485
O O13 0.397319 0.533670 0.769806
#
# Coordination Sequence:
#
# PCOD9353592 Si02
#       7
#     4   8   4   8   8   8   8
#     4  10  18  34  61  96 131 168 230 284 337 396
#     4   9  19  34  59  91 124 163 217 272 324 392
#     4  10  18  34  61  96 131 168 230 284 337 396
#     4  10  23  41  61  91 131 170 214 273 336 397
#     4  10  20  39  64  92 118 170 219 262 318 404
#     4  10  23  41  61  91 131 170 214 273 336 397
#     4   9  19  34  59  91 124 163 217 272 324 392
#
# _framework density 21.981804
#
# number of rings (size 3 to 8) (size 9 to 14) (size 15 to 20)
#    0.000    2.333    1.667    0.000    0.000   10.000 
#    0.000    4.167    0.000    3.000    0.000    0.000 
#    0.000    0.000    0.000    0.000    0.000    0.167 
#
# Total GULP energy -133723.567075 kJ/mol
# GULP energy per Si atom -5571.815295 kJ/mol
# Density = 2.193177 g / cm^3
# Si number density = 21.981804 Si / 1000 Ang^3
#
#
#
# Elastic Constant Matrix: (Units=GPa)
#
#
# Indices 1 2 3 4 5 6 
#
# 1 134.4653 26.0834 49.9719 0.0000 0.0000 0.0000
# 2 26.0834 72.9851 25.1753 0.0000 0.0000 0.0000
# 3 49.9719 25.1753 109.8746 0.0000 0.0000 0.0000
# 4 0.0000 0.0000 0.0000 6.3312 0.0000 0.0000
# 5 0.0000 0.0000 0.0000 0.0000 38.5870 0.0000
# 6 0.0000 0.0000 0.0000 0.0000 0.0000 38.7676
#
#
#
# Elastic Compliance Matrix: (Units=1/GPa)
#
#
# Indices 1 2 3 4 5 6 
#
# 1 0.009212 -0.002006 -0.003730 0.000000 0.000000 0.000000
# 2 -0.002006 0.015314 -0.002597 0.000000 0.000000 0.000000
# 3 -0.003730 -0.002597 0.011393 0.000000 0.000000 0.000000
# 4 0.000000 0.000000 0.000000 0.157947 0.000000 0.000000
# 5 0.000000 0.000000 0.000000 0.000000 0.025915 0.000000
# 6 0.000000 0.000000 0.000000 0.000000 0.000000 0.025795
#
#
# Mechanical properties :
#
#
# Convention : Reuss Voigt Hill
#
# Bulk Modulus (GPa) = 51.93759 57.75402 54.84580
# Shear Modulus (GPa) = 18.61095 31.14347 24.87721
#
# Velocity S-wave (km/s) = 2.91289 3.76810 3.36775
# Velocity P-wave (km/s) = 5.91541 6.72771 6.33459
#
# Compressibility (1/GPa) = 0.01925388
#
# Stress axis : x y z
#
# Youngs Moduli (GPa) = 108.55194 65.30033 87.77467
#
# Poissons Ratio (x) = 0.13096 0.32742
# Poissons Ratio (y) = 0.21771 0.22792
# Poissons Ratio (z) = 0.40493 0.16956
#
# Static dielectric constant tensor:
#      x y z
#    x 1.868690 0.000000 0.000000 
#    y 0.000000 1.960260 0.000000 
#    z 0.000000 0.000000 1.759530 
# 
# From -- ./inp_files/9793.got.cif
#   From: 2010.05.17/outbox.cif.g08.bks.cpg/sg37_5_cif.got.tgz:9793.got - 2010.06.03 17:53:42.
