data_PCOD9353779
_publ_section_title
;
Structure prediction by ZEFSAII (Michael W. Deem and Ramdas Pophale) SiO2 
 PCOD9353779
Probable space group: C C C 2
;
_chemical_formula_sum "Si O2"
_cell_formula_units_Z 36
_cell_length_a 18.780558
_cell_length_b 7.463545
_cell_length_c 9.862761
_cell_angle_alpha 90.000000
_cell_angle_beta 90.000000
_cell_angle_gamma 90.000000
_cell_volume 1382.458670
_symmetry_space_group_name_H-M "C C C 2"
_symmetry_group_IT_number 37
_symmetry_cell_setting 'orthorhombic'
loop_
_space_group_symop_operation_xyz
x,y,z
-x,-y,z
-x,y,1/2+z
x,-y,1/2+z
1/2+x,1/2+y,z
1/2-x,1/2-y,z
1/2-x,1/2+y,1/2+z
1/2+x,1/2-y,1/2+z
loop_
_atom_site_type_symbol
_atom_site_label
_atom_site_fract_x
_atom_site_fract_y
_atom_site_fract_z
Si Si1 0.350179 0.905613 0.616720
Si Si2 0.715830 0.432172 0.200152
Si Si3 0.075251 0.207040 0.604667
Si Si4 0.750000 0.750000 0.967057
Si Si5 0.962470 0.306894 0.824863
O O1 0.340687 0.776559 0.491263
O O2 0.386036 0.837222 0.752871
O O3 0.262337 0.916411 0.626103
O O4 0.387606 0.094367 0.593812
O O5 0.750000 0.250000 0.141075
O O6 0.738750 0.419770 0.355511
O O7 0.634271 0.426282 0.162249
O O8 0.046484 0.183546 0.454513
O O9 0.011480 0.225321 0.708742
O O10 0.000000 0.500000 0.860500
#
# Coordination Sequence:
#
# PCOD9353779 Si02
#       5
#     8   8   8   4   8
#     4  10  19  36  57  86 114 152 197 243 300 348
#     4   8  19  35  53  80 123 150 184 245 298 344
#     4  10  20  34  56  86 118 152 187 253 297 355
#     4  10  20  36  58  82 122 156 190 248 292 358
#     4  10  20  32  56  87 116 146 203 247 295 352
#
# _framework density 26.040562000000001
#
# number of rings (size 3 to 8) (size 9 to 14) (size 15 to 20)
#    0.667    1.778    0.000    3.333    6.222    0.000 
#   10.000    0.000    0.000    1.333    0.000    0.000 
#    0.000    0.000    0.000    0.000    0.000    0.000 
#
# Total GULP energy -100375.690521 kJ/mol
# GULP energy per Si atom -5576.427251 kJ/mol
# Density = 2.598129 g / cm^3
# Si number density = 26.040562 Si / 1000 Ang^3
#
#
#
# Elastic Constant Matrix: (Units=GPa)
#
#
# Indices 1 2 3 4 5 6 
#
# 1 142.4831 9.5146 80.2068 0.0000 0.0000 0.0000
# 2 9.5146 78.8076 1.7580 0.0000 0.0000 0.0000
# 3 80.2068 1.7580 146.8867 0.0000 0.0000 0.0000
# 4 0.0000 0.0000 0.0000 7.5970 0.0000 0.0000
# 5 0.0000 0.0000 0.0000 0.0000 24.5817 0.0000
# 6 0.0000 0.0000 0.0000 0.0000 0.0000 34.4470
#
#
#
# Elastic Compliance Matrix: (Units=1/GPa)
#
#
# Indices 1 2 3 4 5 6 
#
# 1 0.010229 -0.001111 -0.005572 0.000000 0.000000 0.000000
# 2 -0.001111 0.012813 0.000453 0.000000 0.000000 0.000000
# 3 -0.005572 0.000453 0.009845 0.000000 0.000000 0.000000
# 4 0.000000 0.000000 0.000000 0.131630 0.000000 0.000000
# 5 0.000000 0.000000 0.000000 0.000000 0.040681 0.000000
# 6 0.000000 0.000000 0.000000 0.000000 0.000000 0.029030
#
#
# Mechanical properties :
#
#
# Convention : Reuss Voigt Hill
#
# Bulk Modulus (GPa) = 48.95268 61.23735 55.09502
# Shear Modulus (GPa) = 19.72402 31.77169 25.74785
#
# Velocity S-wave (km/s) = 2.75514 3.49676 3.14787
# Velocity P-wave (km/s) = 5.38149 6.31429 5.86646
#
# Compressibility (1/GPa) = 0.02042789
#
# Stress axis : x y z
#
# Youngs Moduli (GPa) = 97.75760 78.04498 101.57088
#
# Poissons Ratio (x) = 0.08669 0.56600
# Poissons Ratio (y) = 0.10858 -0.04603
# Poissons Ratio (z) = 0.54475 -0.03537
#
# Static dielectric constant tensor:
#      x y z
#    x 2.114620 0.000000 0.000000 
#    y 0.000000 2.106770 0.000000 
#    z 0.000000 0.000000 2.007230 
# 
# From -- ./inp_files/4288.got.cif
#   From: 2010.05.17/outbox.cif.g08.bks.cpg/sg37_3_cif.got.tgz:4288.got - 2010.06.03 17:53:42.
