data_PCOD9353377
_publ_section_title
;
Structure prediction by ZEFSAII (Michael W. Deem and Ramdas Pophale) SiO2 
 PCOD9353377
Probable space group: C M C 21
;
_chemical_formula_sum "Si O2"
_cell_formula_units_Z 24
_cell_length_a 9.000000
_cell_length_b 24.000000
_cell_length_c 12.000000
_cell_angle_alpha 90.000000
_cell_angle_beta 90.000000
_cell_angle_gamma 90.000000
_cell_volume 2592.000000
_symmetry_space_group_name_H-M "C M C 21"
_symmetry_group_IT_number 36
_symmetry_cell_setting 'orthorhombic'
loop_
_space_group_symop_operation_xyz
x,y,z
-x,-y,1/2+z
x,-y,1/2+z
-x,y,z
1/2+x,1/2+y,z
1/2-x,1/2-y,1/2+z
1/2+x,1/2-y,1/2+z
1/2-x,1/2+y,z
loop_
_atom_site_type_symbol
_atom_site_label
_atom_site_fract_x
_atom_site_fract_y
_atom_site_fract_z
Si Si1 0.824707 0.581256 0.861030
Si Si2 0.826416 0.032403 0.306082
Si Si3 0.674756 0.610600 0.093085
Si Si4 0.176775 0.295521 0.736236
Si Si5 0.177300 0.142301 0.437951
Si Si6 0.677544 0.666743 0.693085
O O1 0.774637 0.520905 0.818369
O O2 0.763533 0.626932 0.775973
O O3 0.000000 0.584907 0.870501
O O4 0.750932 0.591952 0.980345
O O5 0.807828 0.063716 0.188558
O O6 0.792637 0.079157 0.398994
O O7 0.000000 0.016150 0.317188
O O8 0.500000 0.619315 0.075577
O O9 0.746936 0.666307 0.142830
O O10 0.237268 0.317231 0.854220
O O11 0.211025 0.230992 0.717984
O O12 0.000000 0.303101 0.730623
O O13 0.214816 0.152801 0.565480
O O14 0.000000 0.151134 0.422339
O O15 0.500000 0.658285 0.706960
#
# Coordination Sequence:
#
# PCOD9353377 Si02
#       6
#     8   8   8   8   8   8
#     4  12  26  39  59  92 126 156 196 255 305 346
#     4   9  20  40  64  87 114 159 205 244 294 360
#     4  10  22  42  66  88 118 163 204 240 295 366
#     4  10  21  38  62  93 124 155 196 252 302 346
#     4   9  20  40  64  87 117 162 205 242 293 362
#     4  10  23  41  61  89 123 161 204 243 293 360
#
# _framework density 9.2592590000000001
#
# number of rings (size 3 to 8) (size 9 to 14) (size 15 to 20)
#    0.000    2.000    0.000    3.500    4.667    5.333 
#    0.000    0.000    0.000    0.000    0.000    0.000 
#    0.000    0.000    0.000    0.000    0.000    0.000 
#
# Total GULP energy -134098.901653 kJ/mol
# GULP energy per Si atom -5587.454236 kJ/mol
# Density = 0.923818 g / cm^3
# Si number density = 9.259259 Si / 1000 Ang^3
#
#
#
# Elastic Constant Matrix: (Units=GPa)
#
#
# Indices 1 2 3 4 5 6 
#
# 1 70.7085 84.3397 50.0942 0.0000 0.0000 0.0000
# 2 84.3397 105.5241 50.7214 0.0000 0.0000 0.0000
# 3 50.0942 50.7214 28.0720 0.0000 0.0000 0.0000
# 4 0.0000 0.0000 0.0000 -6.4235 0.0000 0.0000
# 5 0.0000 0.0000 0.0000 0.0000 -7.8294 0.0000
# 6 0.0000 0.0000 0.0000 0.0000 0.0000 28.0778
#
#
#
# Elastic Compliance Matrix: (Units=1/GPa)
#
#
# Indices 1 2 3 4 5 6 
#
# 1 -0.046666 -0.020753 0.120772 0.000000 0.000000 0.000000
# 2 -0.020753 0.062822 -0.076476 0.000000 0.000000 0.000000
# 3 0.120772 -0.076476 -0.041714 0.000000 0.000000 0.000000
# 4 0.000000 0.000000 0.000000 -0.155678 0.000000 0.000000
# 5 0.000000 0.000000 0.000000 0.000000 -0.127723 0.000000
# 6 0.000000 0.000000 0.000000 0.000000 0.000000 0.035615
#
#
# Mechanical properties :
#
#
# Convention : Reuss Voigt Hill
#
# Bulk Modulus (GPa) = 46.45092 63.84614 55.14853
# Shear Modulus (GPa) = -15.96148 4.04159 -5.95995
#
# Velocity S-wave (km/s) = -2.93903 1.47892 -1.79593
# Velocity P-wave (km/s) = 3.69063 6.12111 5.05414
#
# Compressibility (1/GPa) = 0.02152810
#
# Stress axis : x y z
#
# Youngs Moduli (GPa) = -21.42883 15.91798 -23.97257
#
# Poissons Ratio (x) = 0.33034 2.89521
# Poissons Ratio (y) = -0.44471 -1.83332
# Poissons Ratio (z) = 2.58800 1.21734
#
# Static dielectric constant tensor:
#      x y z
#    x 1.619480 0.000000 0.000000 
#    y 0.000000 1.608110 0.000000 
#    z 0.000000 0.000000 1.612640 
# 
# From -- ./inp_files/6735.got.cif
#   From: 2010.05.17/outbox.ucp.g08.bks.cvg/sg36_4_cif.got.tgz:6735.got - 2010.06.11 10:37:26.
