data_PCOD9353240
_publ_section_title
;
Structure prediction by ZEFSAII (Michael W. Deem and Ramdas Pophale) SiO2 
 PCOD9353240
Probable space group: C M C 21
;
_chemical_formula_sum "Si O2"
_cell_formula_units_Z 48
_cell_length_a 10.204983
_cell_length_b 27.574664
_cell_length_c 8.316477
_cell_angle_alpha 90.000000
_cell_angle_beta 90.000000
_cell_angle_gamma 90.000000
_cell_volume 2340.248123
_symmetry_space_group_name_H-M "C M C 21"
_symmetry_group_IT_number 36
_symmetry_cell_setting 'orthorhombic'
loop_
_space_group_symop_operation_xyz
x,y,z
-x,-y,1/2+z
x,-y,1/2+z
-x,y,z
1/2+x,1/2+y,z
1/2-x,1/2-y,1/2+z
1/2+x,1/2-y,1/2+z
1/2-x,1/2+y,z
loop_
_atom_site_type_symbol
_atom_site_label
_atom_site_fract_x
_atom_site_fract_y
_atom_site_fract_z
Si Si1 0.743983 0.884489 0.570900
Si Si2 0.149348 0.194392 0.621136
Si Si3 0.500000 0.529035 0.575304
Si Si4 0.848025 0.289427 0.410860
Si Si5 0.222517 0.904387 0.944328
Si Si6 0.000000 0.557887 0.563323
Si Si7 0.000000 0.073027 0.931751
Si Si8 0.000000 0.553015 0.948835
O O1 0.693482 0.830280 0.539454
O O2 0.628049 0.920645 0.518874
O O3 0.870371 0.895726 0.461777
O O4 0.779992 0.893479 0.755446
O O5 0.164374 0.236497 0.488337
O O6 0.254211 0.203660 0.759567
O O7 0.171861 0.142364 0.540568
O O8 0.000000 0.197071 0.683320
O O9 0.372035 0.551020 0.488916
O O10 0.500000 0.548314 0.757285
O O11 0.500000 0.471363 0.558735
O O12 0.000000 0.297535 0.366500
O O13 0.369667 0.916419 0.998510
O O14 0.000000 0.502842 0.500023
O O15 0.000000 0.557754 0.756407
#
# Coordination Sequence:
#
# PCOD9353240 Si02
#       8
#     8   8   4   8   8   4   4   4
#     4  12  25  44  68 100 137 180 225 280 340 402
#     4  11  25  46  71 102 139 178 226 278 336 406
#     4  12  24  46  65 100 135 178 234 278 340 402
#     4  11  25  46  71 102 139 178 226 278 336 406
#     4  12  25  44  68 100 137 180 225 280 340 402
#     4  12  26  42  71  96 137 182 226 284 336 402
#     4  12  26  42  71  96 137 182 226 284 336 402
#     4  12  24  46  65 100 135 178 234 278 340 402
#
# _framework density 20.510646999999999
#
# number of rings (size 3 to 8) (size 9 to 14) (size 15 to 20)
#    0.000    0.333    1.667    8.000    2.333    0.667 
#    0.000    0.000    0.000    0.000    0.000    0.000 
#    0.000    0.000    0.000    0.000    0.000    0.000 
#
# Total GULP energy -134490.877905 kJ/mol
# GULP energy per Si atom -5603.786579 kJ/mol
# Density = 2.046396 g / cm^3
# Si number density = 20.510647 Si / 1000 Ang^3
#
#
#
# Elastic Constant Matrix: (Units=GPa)
#
#
# Indices 1 2 3 4 5 6 
#
# 1 132.5660 15.0770 8.5669 0.0000 0.0000 0.0000
# 2 15.0770 81.5191 -29.1665 0.0000 0.0000 0.0000
# 3 8.5669 -29.1665 66.2700 0.0000 0.0000 0.0000
# 4 0.0000 0.0000 0.0000 27.5624 0.0000 0.0000
# 5 0.0000 0.0000 0.0000 0.0000 31.5094 0.0000
# 6 0.0000 0.0000 0.0000 0.0000 0.0000 22.0725
#
#
#
# Elastic Compliance Matrix: (Units=1/GPa)
#
#
# Indices 1 2 3 4 5 6 
#
# 1 0.007919 -0.002173 -0.001980 0.000000 0.000000 0.000000
# 2 -0.002173 0.015156 0.006951 0.000000 0.000000 0.000000
# 3 -0.001980 0.006951 0.018405 0.000000 0.000000 0.000000
# 4 0.000000 0.000000 0.000000 0.036281 0.000000 0.000000
# 5 0.000000 0.000000 0.000000 0.000000 0.031737 0.000000
# 6 0.000000 0.000000 0.000000 0.000000 0.000000 0.045305
#
#
# Mechanical properties :
#
#
# Convention : Reuss Voigt Hill
#
# Bulk Modulus (GPa) = 21.24205 29.92332 25.58269
# Shear Modulus (GPa) = 30.32175 35.28737 32.80456
#
# Velocity S-wave (km/s) = 3.84909 4.15232 4.00358
# Velocity P-wave (km/s) = 5.48936 6.13269 5.81992
#
# Compressibility (1/GPa) = 0.04707644
#
# Stress axis : x y z
#
# Youngs Moduli (GPa) = 126.28652 65.98031 54.33265
#
# Poissons Ratio (x) = 0.14337 0.10758
# Poissons Ratio (y) = 0.27441 -0.37768
# Poissons Ratio (z) = 0.25005 -0.45865
#
# Static dielectric constant tensor:
#      x y z
#    x 1.706800 0.000000 0.000000 
#    y 0.000000 1.697420 0.000000 
#    z 0.000000 0.000000 1.703120 
# 
# From -- ./inp_files/2781.got.cif
#   From: 2010.05.17/outbox.cif.g08.bks.cpg/sg36_2_cif.got.tgz:2781.got - 2010.06.03 17:41:39.
