data_PCOD9353886
_publ_section_title
;
Structure prediction by ZEFSAII (Michael W. Deem and Ramdas Pophale) SiO2 
 PCOD9353886
Probable space group: C C C 2
;
_chemical_formula_sum "Si O2"
_cell_formula_units_Z 44
_cell_length_a 7.988418
_cell_length_b 18.741856
_cell_length_c 15.413009
_cell_angle_alpha 90.000000
_cell_angle_beta 90.000000
_cell_angle_gamma 90.000000
_cell_volume 2307.601488
_symmetry_space_group_name_H-M "C C C 2"
_symmetry_group_IT_number 37
_symmetry_cell_setting 'orthorhombic'
loop_
_space_group_symop_operation_xyz
x,y,z
-x,-y,z
-x,y,1/2+z
x,-y,1/2+z
1/2+x,1/2+y,z
1/2-x,1/2-y,z
1/2-x,1/2+y,1/2+z
1/2+x,1/2-y,1/2+z
loop_
_atom_site_type_symbol
_atom_site_label
_atom_site_fract_x
_atom_site_fract_y
_atom_site_fract_z
Si Si1 0.027885 0.916059 0.788800
Si Si2 0.651972 0.556407 0.112308
Si Si3 0.665783 0.141758 0.224259
Si Si4 0.750000 0.250000 0.356818
Si Si5 0.750000 0.250000 0.074265
Si Si6 0.497136 0.344134 0.964151
Si Si7 0.000000 0.500000 0.657914
O O1 0.151924 0.906135 0.707255
O O2 0.852483 0.883623 0.753027
O O3 0.080206 0.884457 0.881753
O O4 0.000000 0.000000 0.803588
O O5 0.500000 0.500000 0.119327
O O6 0.833853 0.520620 0.103427
O O7 0.593953 0.605107 0.033435
O O8 0.628292 0.201388 0.297018
O O9 0.673030 0.188168 0.136170
O O10 0.556833 0.070332 0.212209
O O11 0.645099 0.299914 0.417629
O O12 0.618838 0.291616 0.015090
#
# Coordination Sequence:
#
# PCOD9353886 Si02
#       7
#     8   8   8   4   4   8   4
#     4  10  19  41  65  88 129 170 207 273 334 377
#     4  11  22  42  66  98 133 165 219 279 334 391
#     4  10  21  41  63  90 126 171 210 274 327 388
#     4   9  24  42  57  90 138 164 213 272 319 398
#     4  11  22  40  65  88 132 176 215 262 333 392
#     4  11  23  39  63  92 131 177 216 266 327 396
#     4  12  22  38  76  98 120 174 228 272 344 392
#
# _framework density 19.067416999999999
#
# number of rings (size 3 to 8) (size 9 to 14) (size 15 to 20)
#    0.000    1.455    5.455    0.545    2.545    1.455 
#    0.000    4.545    0.000    0.000    0.000    0.000 
#    0.000    0.000    0.000    0.000    0.000    0.000 
#
# Total GULP energy -122576.136360 kJ/mol
# GULP energy per Si atom -5571.642562 kJ/mol
# Density = 1.902402 g / cm^3
# Si number density = 19.067417 Si / 1000 Ang^3
#
#
#
# Elastic Constant Matrix: (Units=GPa)
#
#
# Indices 1 2 3 4 5 6 
#
# 1 92.1918 30.0168 44.3291 0.0000 0.0000 0.0000
# 2 30.0168 115.0314 75.7324 0.0000 0.0000 0.0000
# 3 44.3291 75.7324 164.0147 0.0000 0.0000 0.0000
# 4 0.0000 0.0000 0.0000 42.3272 0.0000 0.0000
# 5 0.0000 0.0000 0.0000 0.0000 5.9532 0.0000
# 6 0.0000 0.0000 0.0000 0.0000 0.0000 35.1690
#
#
#
# Elastic Compliance Matrix: (Units=1/GPa)
#
#
# Indices 1 2 3 4 5 6 
#
# 1 0.012647 -0.001508 -0.002722 0.000000 0.000000 0.000000
# 2 -0.001508 0.012670 -0.005443 0.000000 0.000000 0.000000
# 3 -0.002722 -0.005443 0.009346 0.000000 0.000000 0.000000
# 4 0.000000 0.000000 0.000000 0.023625 0.000000 0.000000
# 5 0.000000 0.000000 0.000000 0.000000 0.167977 0.000000
# 6 0.000000 0.000000 0.000000 0.000000 0.000000 0.028434
#
#
# Mechanical properties :
#
#
# Convention : Reuss Voigt Hill
#
# Bulk Modulus (GPa) = 65.28542 74.59939 69.94240
# Shear Modulus (GPa) = 17.91151 31.43385 24.67268
#
# Velocity S-wave (km/s) = 3.06825 4.06466 3.60108
# Velocity P-wave (km/s) = 6.84586 7.82544 7.35198
#
# Compressibility (1/GPa) = 0.01531736
#
# Stress axis : x y z
#
# Youngs Moduli (GPa) = 79.07200 78.92601 107.00085
#
# Poissons Ratio (x) = 0.11904 0.29122
# Poissons Ratio (y) = 0.11926 0.58237
# Poissons Ratio (z) = 0.21521 0.42957
#
# Static dielectric constant tensor:
#      x y z
#    x 1.646260 0.000000 0.000000 
#    y 0.000000 1.706770 0.000000 
#    z 0.000000 0.000000 1.716290 
# 
# From -- ./inp_files/10545.got.cif
#   From: 2010.05.17/outbox.cif.g08.bks.cpg/sg37_6_cif.got.tgz:10545.got - 2010.06.03 17:53:42.
