data_PCOD9353522
_publ_section_title
;
Structure prediction by ZEFSAII (Michael W. Deem and Ramdas Pophale) SiO2 
 PCOD9353522
Probable space group: C C C 2
;
_chemical_formula_sum "Si O2"
_cell_formula_units_Z 56
_cell_length_a 28.313365
_cell_length_b 6.807484
_cell_length_c 10.752121
_cell_angle_alpha 90.000000
_cell_angle_beta 90.000000
_cell_angle_gamma 90.000000
_cell_volume 2072.393684
_symmetry_space_group_name_H-M "C C C 2"
_symmetry_group_IT_number 37
_symmetry_cell_setting 'orthorhombic'
loop_
_space_group_symop_operation_xyz
x,y,z
-x,-y,z
-x,y,1/2+z
x,-y,1/2+z
1/2+x,1/2+y,z
1/2-x,1/2-y,z
1/2-x,1/2+y,1/2+z
1/2+x,1/2-y,1/2+z
loop_
_atom_site_type_symbol
_atom_site_label
_atom_site_fract_x
_atom_site_fract_y
_atom_site_fract_z
Si Si1 0.404504 0.745023 0.260290
Si Si2 0.198296 0.293876 0.354122
Si Si3 0.546996 0.875520 0.535139
Si Si4 0.594281 0.219275 0.809090
Si Si5 0.299936 0.203415 0.068021
Si Si6 0.303013 0.173857 0.712120
Si Si7 0.598959 0.721527 0.028873
O O1 0.440648 0.730116 0.146393
O O2 0.350262 0.697692 0.221664
O O3 0.420015 0.655402 0.393261
O O4 0.402845 0.984991 0.277572
O O5 0.250000 0.250000 0.412382
O O6 0.143986 0.231003 0.379810
O O7 0.202954 0.214151 0.210744
O O8 0.191346 0.527034 0.094255
O O9 0.550771 0.767986 0.403416
O O10 0.500000 0.000000 0.554881
O O11 0.586220 0.046827 0.528271
O O12 0.588877 0.325697 0.674919
O O13 0.250000 0.250000 0.010076
O O14 0.345195 0.303811 0.012114
O O15 0.303691 0.027654 0.830439
O O16 0.250000 0.250000 0.704984
#
# Coordination Sequence:
#
# PCOD9353522 Si02
#       7
#     8   8   8   8   8   8   8
#     4   9  17  28  41  62  97 126 153 196 248 290
#     4   7  12  25  43  64  91 132 166 196 231 291
#     4  10  18  29  44  64  95 128 154 198 261 305
#     4   8  15  27  43  62  86 122 163 195 230 289
#     4   8  14  27  45  64  91 134 168 197 228 290
#     4   9  15  26  43  68  99 133 163 200 245 285
#     4   9  16  28  44  64  88 125 160 200 234 288
#
# _framework density 27.021892999999999
#
# number of rings (size 3 to 8) (size 9 to 14) (size 15 to 20)
#    0.857    2.571    2.857    0.000    0.000    5.714 
#    0.000    0.714    0.000    0.857    0.000    0.000 
#    0.000    1.143    3.429    0.000    0.000    0.429 
#
# Total GULP energy -156030.411465 kJ/mol
# GULP energy per Si atom -5572.514695 kJ/mol
# Density = 2.696039 g / cm^3
# Si number density = 27.021893 Si / 1000 Ang^3
#
#
#
# Elastic Constant Matrix: (Units=GPa)
#
#
# Indices 1 2 3 4 5 6 
#
# 1 93.2676 19.5832 59.4562 0.0000 0.0000 0.0000
# 2 19.5832 85.9043 2.8631 0.0000 0.0000 0.0000
# 3 59.4562 2.8631 177.9797 0.0000 0.0000 0.0000
# 4 0.0000 0.0000 0.0000 5.1744 0.0000 0.0000
# 5 0.0000 0.0000 0.0000 0.0000 7.0125 0.0000
# 6 0.0000 0.0000 0.0000 0.0000 0.0000 29.4854
#
#
#
# Elastic Compliance Matrix: (Units=1/GPa)
#
#
# Indices 1 2 3 4 5 6 
#
# 1 0.014417 -0.003128 -0.004766 0.000000 0.000000 0.000000
# 2 -0.003128 0.012326 0.000847 0.000000 0.000000 0.000000
# 3 -0.004766 0.000847 0.007197 0.000000 0.000000 0.000000
# 4 0.000000 0.000000 0.000000 0.193259 0.000000 0.000000
# 5 0.000000 0.000000 0.000000 0.000000 0.142602 0.000000
# 6 0.000000 0.000000 0.000000 0.000000 0.000000 0.033915
#
#
# Mechanical properties :
#
#
# Convention : Reuss Voigt Hill
#
# Bulk Modulus (GPa) = 50.38889 57.88407 54.13648
# Shear Modulus (GPa) = 11.78066 26.68441 19.23253
#
# Velocity S-wave (km/s) = 2.09025 3.14588 2.67074
# Velocity P-wave (km/s) = 4.95110 5.88754 5.43951
#
# Compressibility (1/GPa) = 0.01984564
#
# Stress axis : x y z
#
# Youngs Moduli (GPa) = 69.36455 81.13173 138.94597
#
# Poissons Ratio (x) = 0.25375 0.66218
# Poissons Ratio (y) = 0.21695 -0.11762
# Poissons Ratio (z) = 0.33057 -0.06868
#
# Static dielectric constant tensor:
#      x y z
#    x 2.051860 0.000000 0.000000 
#    y 0.000000 2.182120 0.000000 
#    z 0.000000 0.000000 2.355570 
# 
# From -- ./inp_files/9095.got.cif
#   From: 2010.05.17/outbox.cif.g08.bks.cpg/sg37_5_cif.got.tgz:9095.got - 2010.06.03 17:53:42.
