data_PCOD9353348
_publ_section_title
;
Structure prediction by ZEFSAII (Michael W. Deem and Ramdas Pophale) SiO2 
 PCOD9353348
Probable space group: C M C 21
;
_chemical_formula_sum "Si O2"
_cell_formula_units_Z 32
_cell_length_a 9.000000
_cell_length_b 21.000000
_cell_length_c 18.000000
_cell_angle_alpha 90.000000
_cell_angle_beta 90.000000
_cell_angle_gamma 90.000000
_cell_volume 3402.000000
_symmetry_space_group_name_H-M "C M C 21"
_symmetry_group_IT_number 36
_symmetry_cell_setting 'orthorhombic'
loop_
_space_group_symop_operation_xyz
x,y,z
-x,-y,1/2+z
x,-y,1/2+z
-x,y,z
1/2+x,1/2+y,z
1/2-x,1/2-y,1/2+z
1/2+x,1/2-y,1/2+z
1/2-x,1/2+y,z
loop_
_atom_site_type_symbol
_atom_site_label
_atom_site_fract_x
_atom_site_fract_y
_atom_site_fract_z
Si Si1 0.828691 0.889113 0.345050
Si Si2 0.179321 0.942354 0.984701
Si Si3 0.825223 0.307750 0.026325
Si Si4 0.323162 0.806645 0.611412
Si Si5 0.169859 0.083505 0.021601
Si Si6 0.176670 0.860068 0.758610
Si Si7 0.178207 0.480242 0.825577
Si Si8 0.674050 0.757444 0.859552
O O1 0.830038 0.903090 0.433415
O O2 0.781744 0.814974 0.337661
O O3 0.000000 0.894310 0.318964
O O4 0.732708 0.947136 0.311931
O O5 0.248874 0.877199 0.016888
O O6 0.254779 0.956840 0.904912
O O7 0.000000 0.936080 0.975880
O O8 0.205131 0.008230 0.030752
O O9 0.819343 0.270084 0.947614
O O10 0.000000 0.315370 0.045209
O O11 0.740918 0.260400 0.082008
O O12 0.500000 0.802781 0.620115
O O13 0.279172 0.865405 0.557430
O O14 0.240734 0.825537 0.686617
O O15 0.000000 0.094785 0.048519
O O16 0.254830 0.928577 0.768931
O O17 0.226037 0.812275 0.824069
O O18 0.000000 0.867880 0.756844
O O19 0.000000 0.477320 0.827365
O O20 0.500000 0.765798 0.837534
#
# Coordination Sequence:
#
# PCOD9353348 Si02
#       8
#     8   8   8   8   8   8   8   8
#     4   9  18  35  59  86 118 152 189 236 291 347
#     4  10  20  35  58  88 119 152 193 241 292 346
#     4  11  21  37  61  89 122 157 196 247 299 349
#     4  12  25  40  60  86 120 158 202 247 298 361
#     4   9  18  36  58  84 118 153 192 237 293 349
#     4  12  25  41  61  84 118 160 203 245 300 362
#     4  11  21  35  56  86 120 151 192 243 292 345
#     4  10  20  37  61  89 121 155 195 246 299 351
#
# _framework density 9.4062319999999993
#
# number of rings (size 3 to 8) (size 9 to 14) (size 15 to 20)
#    0.000    1.500    2.500    4.875    0.000    3.500 
#    0.000    1.250    0.000    7.500    0.000    0.000 
#    0.000    0.000    0.000    0.000    0.000    0.000 
#
# Total GULP energy -178659.073164 kJ/mol
# GULP energy per Si atom -5583.096036 kJ/mol
# Density = 0.938482 g / cm^3
# Si number density = 9.406232 Si / 1000 Ang^3
#
#
#
# Elastic Constant Matrix: (Units=GPa)
#
#
# Indices 1 2 3 4 5 6 
#
# 1 117.2913 29.7372 -3.7607 0.0000 0.0000 0.0000
# 2 29.7372 101.3427 -25.8239 0.0000 0.0000 0.0000
# 3 -3.7607 -25.8239 4.7409 0.0000 0.0000 0.0000
# 4 0.0000 0.0000 0.0000 16.1812 0.0000 0.0000
# 5 0.0000 0.0000 0.0000 0.0000 22.8749 0.0000
# 6 0.0000 0.0000 0.0000 0.0000 0.0000 38.0991
#
#
#
# Elastic Compliance Matrix: (Units=1/GPa)
#
#
# Indices 1 2 3 4 5 6 
#
# 1 0.008585 0.002020 0.017813 0.000000 0.000000 0.000000
# 2 0.002020 -0.024956 -0.134336 0.000000 0.000000 0.000000
# 3 0.017813 -0.134336 -0.506671 0.000000 0.000000 0.000000
# 4 0.000000 0.000000 0.000000 0.061800 0.000000 0.000000
# 5 0.000000 0.000000 0.000000 0.000000 0.043716 0.000000
# 6 0.000000 0.000000 0.000000 0.000000 0.000000 0.026247
#
#
# Mechanical properties :
#
#
# Convention : Reuss Voigt Hill
#
# Bulk Modulus (GPa) = -1.32970 24.85336 11.76183
# Shear Modulus (GPa) = -12.10779 30.31253 9.10237
#
# Velocity S-wave (km/s) = -2.53969 4.01846 2.20204
# Velocity P-wave (km/s) = 3.05096 5.89665 3.56806
#
# Compressibility (1/GPa) = -0.75204701
#
# Stress axis : x y z
#
# Youngs Moduli (GPa) = 116.48539 -40.07004 -1.97367
#
# Poissons Ratio (x) = 0.08094 0.03516
# Poissons Ratio (y) = -0.23531 -0.26513
# Poissons Ratio (z) = -2.07499 -5.38283
#
# Static dielectric constant tensor:
#      x y z
#    x 1.633040 0.000000 0.000000 
#    y 0.000000 1.653850 0.000000 
#    z 0.000000 0.000000 1.702880 
# 
# From -- ./inp_files/13888.got.cif
#   From: 2010.05.17/outbox.ucp.g08.bks.cvg/sg36_7_cif.got.tgz:13888.got - 2010.06.11 10:37:26.
