data_PCOD9353367
_publ_section_title
;
Structure prediction by ZEFSAII (Michael W. Deem and Ramdas Pophale) SiO2 
 PCOD9353367
Probable space group: C M C 21
;
_chemical_formula_sum "Si O2"
_cell_formula_units_Z 30
_cell_length_a 27.000000
_cell_length_b 12.000000
_cell_length_c 9.000000
_cell_angle_alpha 90.000000
_cell_angle_beta 90.000000
_cell_angle_gamma 90.000000
_cell_volume 2916.000000
_symmetry_space_group_name_H-M "C M C 21"
_symmetry_group_IT_number 36
_symmetry_cell_setting 'orthorhombic'
loop_
_space_group_symop_operation_xyz
x,y,z
-x,-y,1/2+z
x,-y,1/2+z
-x,y,z
1/2+x,1/2+y,z
1/2-x,1/2-y,1/2+z
1/2+x,1/2-y,1/2+z
1/2-x,1/2+y,z
loop_
_atom_site_type_symbol
_atom_site_label
_atom_site_fract_x
_atom_site_fract_y
_atom_site_fract_z
Si Si1 0.445290 0.080767 0.014530
Si Si2 0.500000 0.486388 0.220825
Si Si3 0.703488 0.883421 0.901833
Si Si4 0.142817 0.193396 0.069414
Si Si5 0.915980 0.971760 0.972507
Si Si6 0.682204 0.666670 0.391041
Si Si7 0.833973 0.392261 0.564307
Si Si8 0.446159 0.151761 0.671738
O O1 0.500000 0.125026 0.063920
O O2 0.393696 0.121966 0.083461
O O3 0.446074 0.950515 0.056878
O O4 0.442113 0.102714 0.838117
O O5 0.454734 0.448732 0.105202
O O6 0.545168 0.525200 0.336403
O O7 0.763189 0.883093 0.927633
O O8 0.691317 0.889324 0.726025
O O9 0.677123 0.770890 0.964605
O O10 0.678908 0.989943 0.985064
O O11 0.113308 0.090253 0.995203
O O12 0.175184 0.159240 0.212835
O O13 0.099053 0.269856 0.135993
O O14 0.868775 0.888813 0.954076
O O15 0.682990 0.792187 0.456318
O O16 0.500000 0.210661 0.660207
#
# Coordination Sequence:
#
# PCOD9353367 Si02
#       8
#     8   4   8   8   8   8   8   8
#     4  10  20  40  64  99 139 177 229 283 353 423
#     4  10  24  50  76 110 146 194 242 308 368 446
#     4  12  29  45  76 104 150 189 249 305 367 430
#     4  12  25  48  70 104 145 194 243 304 364 432
#     4  11  26  48  78 108 149 191 250 301 373 444
#     4  12  28  48  75 106 141 199 245 304 359 438
#     4  12  25  49  71 109 142 192 241 302 369 435
#     4  10  21  37  67  97 137 186 229 290 357 430
#
# _framework density 10.288066000000001
#
# number of rings (size 3 to 8) (size 9 to 14) (size 15 to 20)
#    0.000    0.800    4.000    2.400    7.467    0.000 
#    2.400    0.000    0.000    0.000    0.000    0.000 
#    0.000    0.000    0.000    0.000    0.000    0.000 
#
# Total GULP energy -167032.858888 kJ/mol
# GULP energy per Si atom -5567.761963 kJ/mol
# Density = 1.026465 g / cm^3
# Si number density = 10.288066 Si / 1000 Ang^3
#
#
#
# Elastic Constant Matrix: (Units=GPa)
#
#
# Indices 1 2 3 4 5 6 
#
# 1 185.2850 34.4211 28.0015 0.0000 0.0000 0.0000
# 2 34.4211 70.2860 4.4246 0.0000 0.0000 0.0000
# 3 28.0015 4.4246 -14.5073 0.0000 0.0000 0.0000
# 4 0.0000 0.0000 0.0000 14.1259 0.0000 0.0000
# 5 0.0000 0.0000 0.0000 0.0000 -12.6366 0.0000
# 6 0.0000 0.0000 0.0000 0.0000 0.0000 30.8671
#
#
#
# Elastic Compliance Matrix: (Units=1/GPa)
#
#
# Indices 1 2 3 4 5 6 
#
# 1 0.004682 -0.002808 0.008181 0.000000 0.000000 0.000000
# 2 -0.002808 0.015644 -0.000649 0.000000 0.000000 0.000000
# 3 0.008181 -0.000649 -0.053337 0.000000 0.000000 0.000000
# 4 0.000000 0.000000 0.000000 0.070792 0.000000 0.000000
# 5 0.000000 0.000000 0.000000 0.000000 -0.079135 0.000000
# 6 0.000000 0.000000 0.000000 0.000000 0.000000 0.032397
#
#
# Mechanical properties :
#
#
# Convention : Reuss Voigt Hill
#
# Bulk Modulus (GPa) = -42.43947 41.63981 -0.39983
# Shear Modulus (GPa) = -190.40099 18.08571 -86.15764
#
# Velocity S-wave (km/s) = -9.62994 2.96795 -6.47793
# Velocity P-wave (km/s) = 12.01324 5.65914 7.49307
#
# Compressibility (1/GPa) = -0.02356297
#
# Stress axis : x y z
#
# Youngs Moduli (GPa) = 213.56790 63.92373 -18.74854
#
# Poissons Ratio (x) = 0.17950 0.15339
# Poissons Ratio (y) = 0.59972 -0.01217
# Poissons Ratio (z) = -1.74726 0.04148
#
# Static dielectric constant tensor:
#      x y z
#    x 1.743850 0.000000 0.000000 
#    y 0.000000 1.754100 0.000000 
#    z 0.000000 0.000000 1.724210 
# 
# From -- ./inp_files/5812.got.cif
#   From: 2010.05.17/outbox.ucp.g08.bks.cvg/sg36_3_cif.got.tgz:5812.got - 2010.06.11 10:37:26.
