data_PCOD9353222
_publ_section_title
;
Structure prediction by ZEFSAII (Michael W. Deem and Ramdas Pophale) SiO2 
 PCOD9353222
Probable space group: C M C 21
;
_chemical_formula_sum "Si O2"
_cell_formula_units_Z 40
_cell_length_a 9.523645
_cell_length_b 16.273784
_cell_length_c 11.153030
_cell_angle_alpha 90.000000
_cell_angle_beta 90.000000
_cell_angle_gamma 90.000000
_cell_volume 1728.560626
_symmetry_space_group_name_H-M "C M C 21"
_symmetry_group_IT_number 36
_symmetry_cell_setting 'orthorhombic'
loop_
_space_group_symop_operation_xyz
x,y,z
-x,-y,1/2+z
x,-y,1/2+z
-x,y,z
1/2+x,1/2+y,z
1/2-x,1/2-y,1/2+z
1/2+x,1/2-y,1/2+z
1/2-x,1/2+y,z
loop_
_atom_site_type_symbol
_atom_site_label
_atom_site_fract_x
_atom_site_fract_y
_atom_site_fract_z
Si Si1 0.000000 0.538080 0.908280
Si Si2 0.752174 0.303911 0.780039
Si Si3 0.500000 0.372076 0.085968
Si Si4 0.500000 0.819704 0.230070
Si Si5 0.705605 0.457844 0.915236
Si Si6 0.000000 0.310026 0.589031
Si Si7 0.000000 0.898378 0.365353
Si Si8 0.000000 0.730111 0.463010
O O1 0.000000 0.588755 0.783282
O O2 0.866955 0.480127 0.923691
O O3 0.000000 0.612940 0.002138
O O4 0.639514 0.231361 0.768132
O O5 0.680394 0.390331 0.811791
O O6 0.859200 0.288949 0.889616
O O7 0.857450 0.311946 0.667717
O O8 0.500000 0.280579 0.031118
O O9 0.500000 0.362841 0.229866
O O10 0.633714 0.421086 0.034571
O O11 0.500000 0.815385 0.087406
O O12 0.631517 0.542614 0.881446
O O13 0.000000 0.829063 0.466880
#
# Coordination Sequence:
#
# PCOD9353222 Si02
#       8
#     4   8   4   4   8   4   4   4
#     4  12  27  47  69 117 145 189 241 316 374 426
#     4  11  25  49  69 107 144 193 239 307 357 451
#     4  11  25  49  75  98 145 205 238 308 355 462
#     4  12  28  44  83 103 150 197 248 303 366 438
#     4  11  27  45  70 106 150 183 247 302 381 434
#     4  11  26  47  75 102 146 190 250 301 362 444
#     4  11  24  45  74 105 144 197 253 288 368 449
#     4  11  26  48  72 109 144 196 254 294 361 445
#
# _framework density 23.140640000000001
#
# number of rings (size 3 to 8) (size 9 to 14) (size 15 to 20)
#    0.000    0.800    2.000    4.800   11.200    1.600 
#    3.600    0.000    0.000    0.000    0.000    0.000 
#    0.000    0.000    0.000    0.000    0.000    0.000 
#
# Total GULP energy -112048.110587 kJ/mol
# GULP energy per Si atom -5602.405529 kJ/mol
# Density = 2.308797 g / cm^3
# Si number density = 23.140640 Si / 1000 Ang^3
#
#
#
# Elastic Constant Matrix: (Units=GPa)
#
#
# Indices 1 2 3 4 5 6 
#
# 1 131.5050 9.6126 22.7042 0.0000 0.0000 0.0000
# 2 9.6126 100.1579 9.4885 0.0000 0.0000 0.0000
# 3 22.7042 9.4885 90.4597 0.0000 0.0000 0.0000
# 4 0.0000 0.0000 0.0000 29.8184 0.0000 0.0000
# 5 0.0000 0.0000 0.0000 0.0000 2.7797 0.0000
# 6 0.0000 0.0000 0.0000 0.0000 0.0000 -16.3204
#
#
#
# Elastic Compliance Matrix: (Units=1/GPa)
#
#
# Indices 1 2 3 4 5 6 
#
# 1 0.007982 -0.000582 -0.001942 0.000000 0.000000 0.000000
# 2 -0.000582 0.010127 -0.000916 0.000000 0.000000 0.000000
# 3 -0.001942 -0.000916 0.011638 0.000000 0.000000 0.000000
# 4 0.000000 0.000000 0.000000 0.033536 0.000000 0.000000
# 5 0.000000 0.000000 0.000000 0.000000 0.359751 0.000000
# 6 0.000000 0.000000 0.000000 0.000000 0.000000 -0.061273
#
#
# Mechanical properties :
#
#
# Convention : Reuss Voigt Hill
#
# Bulk Modulus (GPa) = 43.73275 45.08146 44.40711
# Shear Modulus (GPa) = 13.28852 21.94337 17.61595
#
# Velocity S-wave (km/s) = 2.39895 3.08273 2.76208
# Velocity P-wave (km/s) = 5.15878 5.67404 5.42253
#
# Compressibility (1/GPa) = 0.02286616
#
# Stress axis : x y z
#
# Youngs Moduli (GPa) = 125.27926 98.74699 85.92358
#
# Poissons Ratio (x) = 0.05748 0.16689
# Poissons Ratio (y) = 0.07292 0.07872
# Poissons Ratio (z) = 0.24334 0.09047
#
# Static dielectric constant tensor:
#      x y z
#    x 1.783300 0.000000 0.000000 
#    y 0.000000 1.848800 0.000000 
#    z 0.000000 0.000000 1.877600 
# 
# From -- ./inp_files/6546.got.cif
#   From: 2010.05.17/outbox.cif.g08.bks.cpg/sg36_4_cif.got.tgz:6546.got - 2010.06.03 17:41:39.
