data_PCOD9353110
_publ_section_title
;
Structure prediction by ZEFSAII (Michael W. Deem and Ramdas Pophale) SiO2 
 PCOD9353110
Probable space group: C M C 21
;
_chemical_formula_sum "Si O2"
_cell_formula_units_Z 48
_cell_length_a 28.299757
_cell_length_b 4.931676
_cell_length_c 16.658477
_cell_angle_alpha 90.000000
_cell_angle_beta 90.000000
_cell_angle_gamma 90.000000
_cell_volume 2324.944214
_symmetry_space_group_name_H-M "C M C 21"
_symmetry_group_IT_number 36
_symmetry_cell_setting 'orthorhombic'
loop_
_space_group_symop_operation_xyz
x,y,z
-x,-y,1/2+z
x,-y,1/2+z
-x,y,z
1/2+x,1/2+y,z
1/2-x,1/2-y,1/2+z
1/2+x,1/2-y,1/2+z
1/2-x,1/2+y,z
loop_
_atom_site_type_symbol
_atom_site_label
_atom_site_fract_x
_atom_site_fract_y
_atom_site_fract_z
Si Si1 0.000000 0.322326 0.147810
Si Si2 0.140809 0.882347 0.536452
Si Si3 0.717444 0.813935 0.924040
Si Si4 0.370391 0.152762 0.306899
Si Si5 0.000000 0.825949 0.038298
Si Si6 0.906282 0.380408 0.461528
Si Si7 0.396395 0.665837 0.208582
O O1 0.000000 0.130938 0.069197
O O2 0.950943 0.250218 0.192642
O O3 0.000000 0.632004 0.117183
O O4 0.190294 0.757197 0.507007
O O5 0.104220 0.641552 0.515981
O O6 0.128968 0.947157 0.628168
O O7 0.131721 0.147258 0.482111
O O8 0.761124 0.611191 0.918017
O O9 0.678254 0.785766 0.853900
O O10 0.392467 0.429080 0.274219
O O11 0.402371 0.997409 0.372680
O O12 0.367901 0.932870 0.236119
O O13 0.045197 0.754103 0.986267
#
# Coordination Sequence:
#
# PCOD9353110 Si02
#       7
#     4   8   8   8   4   8   8
#     4  12  24  38  64  96 134 178 222 262 324 382
#     4  11  22  41  66  93 126 167 220 268 330 392
#     4  11  23  45  70  93 122 167 219 271 327 398
#     4  11  25  41  64  95 134 173 210 274 345 389
#     4  12  20  38  62  94 122 176 234 270 296 386
#     4  11  21  39  62  91 125 174 223 264 316 387
#     4  12  23  42  63  98 137 175 212 269 330 394
#
# _framework density 20.645657
#
# number of rings (size 3 to 8) (size 9 to 14) (size 15 to 20)
#    0.000    0.667    3.333    7.000    0.000    1.333 
#    0.000    5.000    0.000    0.000    0.000    0.000 
#    0.000    0.000    0.000    0.000    0.000    0.000 
#
# Total GULP energy -134120.412497 kJ/mol
# GULP energy per Si atom -5588.350521 kJ/mol
# Density = 2.059867 g / cm^3
# Si number density = 20.645657 Si / 1000 Ang^3
#
#
#
# Elastic Constant Matrix: (Units=GPa)
#
#
# Indices 1 2 3 4 5 6 
#
# 1 87.3380 2.9406 33.3795 0.0000 0.0000 0.0000
# 2 2.9406 85.3633 2.8868 0.0000 0.0000 0.0000
# 3 33.3795 2.8868 63.9536 0.0000 0.0000 0.0000
# 4 0.0000 0.0000 0.0000 40.0539 0.0000 0.0000
# 5 0.0000 0.0000 0.0000 0.0000 25.4334 0.0000
# 6 0.0000 0.0000 0.0000 0.0000 0.0000 36.2412
#
#
#
# Elastic Compliance Matrix: (Units=1/GPa)
#
#
# Indices 1 2 3 4 5 6 
#
# 1 0.014308 -0.000241 -0.007457 0.000000 0.000000 0.000000
# 2 -0.000241 0.011737 -0.000404 0.000000 0.000000 0.000000
# 3 -0.007457 -0.000404 0.019547 0.000000 0.000000 0.000000
# 4 0.000000 0.000000 0.000000 0.024966 0.000000 0.000000
# 5 0.000000 0.000000 0.000000 0.000000 0.039318 0.000000
# 6 0.000000 0.000000 0.000000 0.000000 0.000000 0.027593
#
#
# Mechanical properties :
#
#
# Convention : Reuss Voigt Hill
#
# Bulk Modulus (GPa) = 34.02801 35.00763 34.51782
# Shear Modulus (GPa) = 30.58707 33.50891 32.04799
#
# Velocity S-wave (km/s) = 3.85324 4.03308 3.94418
# Velocity P-wave (km/s) = 6.02613 6.21939 6.12352
#
# Compressibility (1/GPa) = 0.02938756
#
# Stress axis : x y z
#
# Youngs Moduli (GPa) = 69.89203 85.20360 51.15992
#
# Poissons Ratio (x) = 0.02051 0.38149
# Poissons Ratio (y) = 0.01682 0.02068
# Poissons Ratio (z) = 0.52117 0.03443
#
# Static dielectric constant tensor:
#      x y z
#    x 1.749230 0.000000 0.000000 
#    y 0.000000 1.723120 0.000000 
#    z 0.000000 0.000000 1.803610 
# 
# From -- ./inp_files/13085.got.cif
#   From: 2010.05.17/outbox.cif.g08.bks.cpg/sg36_7_cif.got.tgz:13085.got - 2010.06.03 17:41:39.
