data_PCOD9353172
_publ_section_title
;
Structure prediction by ZEFSAII (Michael W. Deem and Ramdas Pophale) SiO2 
 PCOD9353172
Probable space group: C M C 21
;
_chemical_formula_sum "Si O2"
_cell_formula_units_Z 48
_cell_length_a 8.864418
_cell_length_b 27.666100
_cell_length_c 10.215900
_cell_angle_alpha 90.000000
_cell_angle_beta 90.000000
_cell_angle_gamma 90.000000
_cell_volume 2505.386901
_symmetry_space_group_name_H-M "C M C 21"
_symmetry_group_IT_number 36
_symmetry_cell_setting 'orthorhombic'
loop_
_space_group_symop_operation_xyz
x,y,z
-x,-y,1/2+z
x,-y,1/2+z
-x,y,z
1/2+x,1/2+y,z
1/2-x,1/2-y,1/2+z
1/2+x,1/2-y,1/2+z
1/2-x,1/2+y,z
loop_
_atom_site_type_symbol
_atom_site_label
_atom_site_fract_x
_atom_site_fract_y
_atom_site_fract_z
Si Si1 0.319962 0.288880 0.969350
Si Si2 0.680376 0.392304 0.322651
Si Si3 0.180305 0.463457 0.109704
Si Si4 0.319916 0.889674 0.875456
Si Si5 0.180114 0.710568 0.745716
Si Si6 0.680167 0.569911 0.111837
O O1 0.500000 0.292255 0.985046
O O2 0.254953 0.340898 0.928930
O O3 0.286797 0.250199 0.856206
O O4 0.245250 0.273843 0.105881
O O5 0.500000 0.393026 0.303550
O O6 0.745696 0.340430 0.283098
O O7 0.712880 0.404063 0.474092
O O8 0.755528 0.432562 0.230411
O O9 0.211882 0.432891 0.978016
O O10 0.000000 0.468712 0.122810
O O11 0.256621 0.515608 0.105169
O O12 0.500000 0.883402 0.869734
O O13 0.255498 0.903307 0.734138
O O14 0.000000 0.704439 0.736134
O O15 0.500000 0.568836 0.129932
#
# Coordination Sequence:
#
# PCOD9353172 Si02
#       6
#     8   8   8   8   8   8
#     4  11  25  44  68  97 129 168 211 262 318 377
#     4  11  24  42  66  94 128 170 213 264 320 378
#     4  11  23  41  65  94 127 168 215 266 320 378
#     4  11  24  42  66  95 129 170 213 264 319 378
#     4  11  25  44  67  97 129 166 212 262 317 380
#     4  11  25  41  62  95 130 170 216 264 316 379
#
# _framework density 19.158718
#
# number of rings (size 3 to 8) (size 9 to 14) (size 15 to 20)
#    0.000    1.000    1.667    4.000    2.333   10.000 
#    0.000    0.000    0.000    0.000    0.000    0.000 
#    0.000    0.000    0.000    0.000    0.000    0.000 
#
# Total GULP energy -134329.585121 kJ/mol
# GULP energy per Si atom -5597.066047 kJ/mol
# Density = 1.911511 g / cm^3
# Si number density = 19.158718 Si / 1000 Ang^3
#
#
#
# Elastic Constant Matrix: (Units=GPa)
#
#
# Indices 1 2 3 4 5 6 
#
# 1 45.4791 22.1460 58.3343 0.0000 0.0000 0.0000
# 2 22.1460 58.1105 35.0523 0.0000 0.0000 0.0000
# 3 58.3343 35.0523 152.6716 0.0000 0.0000 0.0000
# 4 0.0000 0.0000 0.0000 29.8595 0.0000 0.0000
# 5 0.0000 0.0000 0.0000 0.0000 38.0264 0.0000
# 6 0.0000 0.0000 0.0000 0.0000 0.0000 3.7773
#
#
#
# Elastic Compliance Matrix: (Units=1/GPa)
#
#
# Indices 1 2 3 4 5 6 
#
# 1 0.046168 -0.008072 -0.015787 0.000000 0.000000 0.000000
# 2 -0.008072 0.021386 -0.001826 0.000000 0.000000 0.000000
# 3 -0.015787 -0.001826 0.013001 0.000000 0.000000 0.000000
# 4 0.000000 0.000000 0.000000 0.033490 0.000000 0.000000
# 5 0.000000 0.000000 0.000000 0.000000 0.026298 0.000000
# 6 0.000000 0.000000 0.000000 0.000000 0.000000 0.264741
#
#
# Mechanical properties :
#
#
# Convention : Reuss Voigt Hill
#
# Bulk Modulus (GPa) = 34.26324 54.14738 44.20531
# Shear Modulus (GPa) = 10.72540 23.71453 17.21997
#
# Velocity S-wave (km/s) = 2.36861 3.52205 3.00126
# Velocity P-wave (km/s) = 5.04015 6.69803 5.92734
#
# Compressibility (1/GPa) = 0.02918580
#
# Stress axis : x y z
#
# Youngs Moduli (GPa) = 21.65983 46.75907 76.91493
#
# Poissons Ratio (x) = 0.37744 1.21427
# Poissons Ratio (y) = 0.17484 0.14044
# Poissons Ratio (z) = 0.34195 0.08538
#
# Static dielectric constant tensor:
#      x y z
#    x 1.638220 0.000000 0.000000 
#    y 0.000000 1.631790 0.000000 
#    z 0.000000 0.000000 1.649020 
# 
# From -- ./inp_files/2686.got.cif
#   From: 2010.05.17/outbox.cif.g08.bks.cpg/sg36_2_cif.got.tgz:2686.got - 2010.06.03 17:41:39.
