data_PCOD9353310
_publ_section_title
;
Structure prediction by ZEFSAII (Michael W. Deem and Ramdas Pophale) SiO2 
 PCOD9353310
Probable space group: C M C 21
;
_chemical_formula_sum "Si O2"
_cell_formula_units_Z 32
_cell_length_a 9.000000
_cell_length_b 21.000000
_cell_length_c 18.000000
_cell_angle_alpha 90.000000
_cell_angle_beta 90.000000
_cell_angle_gamma 90.000000
_cell_volume 3402.000000
_symmetry_space_group_name_H-M "C M C 21"
_symmetry_group_IT_number 36
_symmetry_cell_setting 'orthorhombic'
loop_
_space_group_symop_operation_xyz
x,y,z
-x,-y,1/2+z
x,-y,1/2+z
-x,y,z
1/2+x,1/2+y,z
1/2-x,1/2-y,1/2+z
1/2+x,1/2-y,1/2+z
1/2-x,1/2+y,z
loop_
_atom_site_type_symbol
_atom_site_label
_atom_site_fract_x
_atom_site_fract_y
_atom_site_fract_z
Si Si1 0.827344 0.240610 0.914060
Si Si2 0.663494 0.613740 0.268700
Si Si3 0.334420 0.763754 0.273906
Si Si4 0.678684 0.961634 0.050267
Si Si5 0.826644 0.290025 0.552467
Si Si6 0.324698 0.887261 0.909306
Si Si7 0.330993 0.413679 0.605729
Si Si8 0.829365 0.331401 0.119499
O O1 0.795303 0.220899 0.830485
O O2 0.773949 0.314277 0.918105
O O3 0.000000 0.236419 0.933676
O O4 0.726153 0.200884 0.968485
O O5 0.500000 0.607296 0.303339
O O6 0.680717 0.689313 0.251735
O O7 0.783407 0.592580 0.327288
O O8 0.668852 0.574957 0.193675
O O9 0.500000 0.769468 0.308031
O O10 0.328041 0.809123 0.203818
O O11 0.500000 0.969583 0.050440
O O12 0.716225 0.903907 0.106456
O O13 0.752669 0.027962 0.067084
O O14 0.732685 0.933823 0.971817
O O15 0.752831 0.347705 0.595389
O O16 0.764433 0.221740 0.577355
O O17 0.000000 0.291356 0.561845
O O18 0.500000 0.884776 0.917960
O O19 0.500000 0.405826 0.580318
O O20 0.000000 0.326319 0.091485
#
# Coordination Sequence:
#
# PCOD9353310 Si02
#       8
#     8   8   8   8   8   8   8   8
#     4  10  19  34  55  82 116 150 185 233 289 338
#     4   9  18  33  55  80 109 144 188 232 278 335
#     4   9  17  32  55  83 112 146 188 233 282 338
#     4  10  21  38  58  84 115 151 190 232 279 337
#     4  12  23  35  57  86 113 145 192 238 279 337
#     4   9  18  33  56  82 112 146 185 228 278 337
#     4  11  23  40  58  81 115 154 190 235 290 338
#     4  10  19  37  60  82 116 152 184 229 287 336
#
# _framework density 9.4062319999999993
#
# number of rings (size 3 to 8) (size 9 to 14) (size 15 to 20)
#    0.000    2.000    2.500    1.875    0.000    3.000 
#    0.000    1.250    0.000    4.500    0.000    0.000 
#    0.000    0.000    0.000    0.000    0.000    0.000 
#
# Total GULP energy -178193.009870 kJ/mol
# GULP energy per Si atom -5568.531558 kJ/mol
# Density = 0.938482 g / cm^3
# Si number density = 9.406232 Si / 1000 Ang^3
#
#
#
# Elastic Constant Matrix: (Units=GPa)
#
#
# Indices 1 2 3 4 5 6 
#
# 1 50.1661 20.9292 25.2083 0.0000 0.0000 0.0000
# 2 20.9292 -18.1090 3.3434 0.0000 0.0000 0.0000
# 3 25.2083 3.3434 46.7237 0.0000 0.0000 0.0000
# 4 0.0000 0.0000 0.0000 15.1887 0.0000 0.0000
# 5 0.0000 0.0000 0.0000 0.0000 21.9791 0.0000
# 6 0.0000 0.0000 0.0000 0.0000 0.0000 24.0559
#
#
#
# Elastic Compliance Matrix: (Units=1/GPa)
#
#
# Indices 1 2 3 4 5 6 
#
# 1 0.017699 0.018448 -0.010869 0.000000 0.000000 0.000000
# 2 0.018448 -0.035271 -0.007429 0.000000 0.000000 0.000000
# 3 -0.010869 -0.007429 0.027798 0.000000 0.000000 0.000000
# 4 0.000000 0.000000 0.000000 0.065838 0.000000 0.000000
# 5 0.000000 0.000000 0.000000 0.000000 0.045498 0.000000
# 6 0.000000 0.000000 0.000000 0.000000 0.000000 0.041570
#
#
# Mechanical properties :
#
#
# Convention : Reuss Voigt Hill
#
# Bulk Modulus (GPa) = 95.00603 19.74917 57.37760
# Shear Modulus (GPa) = 30.05897 14.19807 22.12852
#
# Velocity S-wave (km/s) = 4.00161 2.75019 3.43340
# Velocity P-wave (km/s) = 8.48303 4.53932 6.80321
#
# Compressibility (1/GPa) = 0.01052565
#
# Stress axis : x y z
#
# Youngs Moduli (GPa) = 56.50120 -28.35160 35.97377
#
# Poissons Ratio (x) = 0.52304 0.39100
# Poissons Ratio (y) = -1.04235 0.26726
# Poissons Ratio (z) = 0.61411 -0.21063
#
# Static dielectric constant tensor:
#      x y z
#    x 1.669770 0.000000 0.000000 
#    y 0.000000 1.626520 0.000000 
#    z 0.000000 0.000000 1.743870 
# 
# From -- ./inp_files/13844.got.cif
#   From: 2010.05.17/outbox.ucp.g08.bks.cvg/sg36_7_cif.got.tgz:13844.got - 2010.06.11 10:37:26.
