data_PCOD9353855
_publ_section_title
;
Structure prediction by ZEFSAII (Michael W. Deem and Ramdas Pophale) SiO2 
 PCOD9353855
Probable space group: C C C 2
;
_chemical_formula_sum "Si O2"
_cell_formula_units_Z 52
_cell_length_a 9.963166
_cell_length_b 25.059549
_cell_length_c 9.776887
_cell_angle_alpha 90.000000
_cell_angle_beta 90.000000
_cell_angle_gamma 90.000000
_cell_volume 2441.019297
_symmetry_space_group_name_H-M "C C C 2"
_symmetry_group_IT_number 37
_symmetry_cell_setting 'orthorhombic'
loop_
_space_group_symop_operation_xyz
x,y,z
-x,-y,z
-x,y,1/2+z
x,-y,1/2+z
1/2+x,1/2+y,z
1/2-x,1/2-y,z
1/2-x,1/2+y,1/2+z
1/2+x,1/2-y,1/2+z
loop_
_atom_site_type_symbol
_atom_site_label
_atom_site_fract_x
_atom_site_fract_y
_atom_site_fract_z
Si Si1 0.250000 0.250000 0.978971
Si Si2 0.034208 0.259721 0.349168
Si Si3 0.104254 0.144106 0.297574
Si Si4 0.642594 0.362655 0.116276
Si Si5 0.250000 0.750000 0.075681
Si Si6 0.133477 0.347212 0.153654
Si Si7 0.409537 0.930485 0.107501
Si Si8 0.000000 0.500000 0.363110
O O1 0.112117 0.243084 0.897058
O O2 0.210813 0.304960 0.057119
O O3 0.100192 0.208551 0.276602
O O4 0.129214 0.270614 0.479045
O O5 0.041935 0.310644 0.252725
O O6 0.092450 0.137242 0.459510
O O7 0.248080 0.125521 0.241860
O O8 0.978377 0.121840 0.215374
O O9 0.771684 0.399301 0.121706
O O10 0.692209 0.302236 0.146786
O O11 0.035762 0.390254 0.086493
O O12 0.432278 0.960066 0.253140
O O13 0.407694 0.968305 0.973188
#
# Coordination Sequence:
#
# PCOD9353855 Si02
#       8
#     4   8   8   8   4   8   8   4
#     4  12  25  35  58 100 148 186 238 270 334 426
#     4  11  22  37  54  90 145 196 222 272 312 413
#     4  11  23  40  59  97 151 177 228 271 328 419
#     4  11  24  41  66 100 138 194 219 286 346 434
#     4  10  19  39  60  90 148 186 236 260 332 428
#     4  12  22  41  65  99 139 197 231 284 348 427
#     4  11  26  46  82  98 137 179 247 301 372 411
#     4  10  26  52  72 112 126 170 250 338 350 408
#
# _framework density 21.302576999999999
#
# number of rings (size 3 to 8) (size 9 to 14) (size 15 to 20)
#    0.000    0.923    4.615    3.692    6.462    1.231 
#    0.000    0.000    0.000   15.692    0.000    0.000 
#    0.000    0.000    0.000    0.000    0.000    0.000 
#
# Total GULP energy -145343.565407 kJ/mol
# GULP energy per Si atom -5590.137131 kJ/mol
# Density = 2.125409 g / cm^3
# Si number density = 21.302577 Si / 1000 Ang^3
#
#
#
# Elastic Constant Matrix: (Units=GPa)
#
#
# Indices 1 2 3 4 5 6 
#
# 1 135.5036 30.4139 67.2214 0.0000 0.0000 0.0000
# 2 30.4139 56.8064 44.2779 0.0000 0.0000 0.0000
# 3 67.2214 44.2779 124.0972 0.0000 0.0000 0.0000
# 4 0.0000 0.0000 0.0000 27.3880 0.0000 0.0000
# 5 0.0000 0.0000 0.0000 0.0000 30.9494 0.0000
# 6 0.0000 0.0000 0.0000 0.0000 0.0000 15.1880
#
#
#
# Elastic Compliance Matrix: (Units=1/GPa)
#
#
# Indices 1 2 3 4 5 6 
#
# 1 0.010195 -0.001598 -0.004952 0.000000 0.000000 0.000000
# 2 -0.001598 0.024636 -0.007924 0.000000 0.000000 0.000000
# 3 -0.004952 -0.007924 0.013568 0.000000 0.000000 0.000000
# 4 0.000000 0.000000 0.000000 0.036512 0.000000 0.000000
# 5 0.000000 0.000000 0.000000 0.000000 0.032311 0.000000
# 6 0.000000 0.000000 0.000000 0.000000 0.000000 0.065841
#
#
# Mechanical properties :
#
#
# Convention : Reuss Voigt Hill
#
# Bulk Modulus (GPa) = 51.41530 66.69263 59.05397
# Shear Modulus (GPa) = 22.88355 26.33803 24.61079
#
# Velocity S-wave (km/s) = 3.28108 3.52003 3.40265
# Velocity P-wave (km/s) = 6.20823 6.92070 6.57412
#
# Compressibility (1/GPa) = 0.01944946
#
# Stress axis : x y z
#
# Youngs Moduli (GPa) = 98.08284 40.59093 73.70164
#
# Poissons Ratio (x) = 0.06488 0.36500
# Poissons Ratio (y) = 0.15678 0.58403
# Poissons Ratio (z) = 0.48574 0.32165
#
# Static dielectric constant tensor:
#      x y z
#    x 1.749660 0.000000 0.000000 
#    y 0.000000 1.794660 0.000000 
#    z 0.000000 0.000000 1.860260 
# 
# From -- ./inp_files/6518.got.cif
#   From: 2010.05.17/outbox.cif.g08.bks.cpg/sg37_4_cif.got.tgz:6518.got - 2010.06.03 17:53:42.
