data_PCOD9353053
_publ_section_title
;
Structure prediction by ZEFSAII (Michael W. Deem and Ramdas Pophale) SiO2 
 PCOD9353053
Probable space group: C M C 21
;
_chemical_formula_sum "Si O2"
_cell_formula_units_Z 40
_cell_length_a 30.449473
_cell_length_b 4.963893
_cell_length_c 9.571661
_cell_angle_alpha 90.000000
_cell_angle_beta 90.000000
_cell_angle_gamma 90.000000
_cell_volume 1446.736707
_symmetry_space_group_name_H-M "C M C 21"
_symmetry_group_IT_number 36
_symmetry_cell_setting 'orthorhombic'
loop_
_space_group_symop_operation_xyz
x,y,z
-x,-y,1/2+z
x,-y,1/2+z
-x,y,z
1/2+x,1/2+y,z
1/2-x,1/2-y,1/2+z
1/2+x,1/2-y,1/2+z
1/2-x,1/2+y,z
loop_
_atom_site_type_symbol
_atom_site_label
_atom_site_fract_x
_atom_site_fract_y
_atom_site_fract_z
Si Si1 0.425655 0.224266 0.173490
Si Si2 0.356664 0.460543 0.977955
Si Si3 0.000000 0.047171 0.335225
Si Si4 0.000000 0.563093 0.514086
Si Si5 0.348033 0.839414 0.214923
Si Si6 0.219857 0.421375 0.436513
O O1 0.401943 0.369446 0.044827
O O2 0.456493 0.428798 0.259177
O O3 0.387389 0.046167 0.246232
O O4 0.457824 0.009378 0.103000
O O5 0.347611 0.738725 0.055971
O O6 0.357719 0.426450 0.811561
O O7 0.318682 0.243231 0.018119
O O8 0.000000 0.873752 0.477107
O O9 0.000000 0.359220 0.380506
O O10 0.301461 0.924465 0.280177
O O11 0.239309 0.717744 0.454492
#
# Coordination Sequence:
#
# PCOD9353053 Si02
#       6
#     8   8   4   4   8   8
#     4  11  26  46  77 110 161 208 264 326 405 477
#     4  10  26  44  79 109 157 207 271 326 406 480
#     4  11  28  47  76 111 160 202 268 319 399 477
#     4  11  28  49  76 113 156 208 262 327 391 483
#     4  10  26  46  77 115 157 215 267 335 401 490
#     4  10  26  49  75 114 157 212 271 337 402 477
#
# _framework density 27.648433000000001
#
# number of rings (size 3 to 8) (size 9 to 14) (size 15 to 20)
#    1.200    0.400    0.000    1.200   14.000    4.800 
#    0.000    0.000    0.000    0.000    0.000    0.000 
#    0.000    0.000    0.000    0.000    0.000    0.000 
#
# Total GULP energy -111970.288440 kJ/mol
# GULP energy per Si atom -5598.514422 kJ/mol
# Density = 2.758550 g / cm^3
# Si number density = 27.648433 Si / 1000 Ang^3
#
#
#
# Elastic Constant Matrix: (Units=GPa)
#
#
# Indices 1 2 3 4 5 6 
#
# 1 156.0368 29.0503 29.4079 0.0000 0.0000 0.0000
# 2 29.0503 131.9621 24.6293 0.0000 0.0000 0.0000
# 3 29.4079 24.6293 79.0852 0.0000 0.0000 0.0000
# 4 0.0000 0.0000 0.0000 43.5178 0.0000 0.0000
# 5 0.0000 0.0000 0.0000 0.0000 48.9793 0.0000
# 6 0.0000 0.0000 0.0000 0.0000 0.0000 33.1457
#
#
#
# Elastic Compliance Matrix: (Units=1/GPa)
#
#
# Indices 1 2 3 4 5 6 
#
# 1 0.007046 -0.001128 -0.002269 0.000000 0.000000 0.000000
# 2 -0.001128 0.008226 -0.002142 0.000000 0.000000 0.000000
# 3 -0.002269 -0.002142 0.014156 0.000000 0.000000 0.000000
# 4 0.000000 0.000000 0.000000 0.022979 0.000000 0.000000
# 5 0.000000 0.000000 0.000000 0.000000 0.020417 0.000000
# 6 0.000000 0.000000 0.000000 0.000000 0.000000 0.030170
#
#
# Mechanical properties :
#
#
# Convention : Reuss Voigt Hill
#
# Bulk Modulus (GPa) = 54.49714 59.25100 56.87407
# Shear Modulus (GPa) = 41.60133 44.06169 42.83151
#
# Velocity S-wave (km/s) = 3.88320 3.99637 3.94019
# Velocity P-wave (km/s) = 6.31341 6.53998 6.42769
#
# Compressibility (1/GPa) = 0.01834959
#
# Stress axis : x y z
#
# Youngs Moduli (GPa) = 141.91796 121.56487 70.64375
#
# Poissons Ratio (x) = 0.13709 0.16029
# Poissons Ratio (y) = 0.16004 0.15135
# Poissons Ratio (z) = 0.32201 0.26045
#
# Static dielectric constant tensor:
#      x y z
#    x 2.185020 0.000000 0.000000 
#    y 0.000000 2.145300 0.000000 
#    z 0.000000 0.000000 2.237180 
# 
# From -- ./inp_files/9571.got.cif
#   From: 2010.05.17/outbox.cif.g08.bks.cpg/sg36_5_cif.got.tgz:9571.got - 2010.06.03 17:41:39.
