data_PCOD9353566
_publ_section_title
;
Structure prediction by ZEFSAII (Michael W. Deem and Ramdas Pophale) SiO2 
 PCOD9353566
Probable space group: C C C 2
;
_chemical_formula_sum "Si O2"
_cell_formula_units_Z 48
_cell_length_a 26.609758
_cell_length_b 8.083764
_cell_length_c 9.211068
_cell_angle_alpha 90.000000
_cell_angle_beta 90.000000
_cell_angle_gamma 90.000000
_cell_volume 1981.365239
_symmetry_space_group_name_H-M "C C C 2"
_symmetry_group_IT_number 37
_symmetry_cell_setting 'orthorhombic'
loop_
_space_group_symop_operation_xyz
x,y,z
-x,-y,z
-x,y,1/2+z
x,-y,1/2+z
1/2+x,1/2+y,z
1/2-x,1/2-y,z
1/2-x,1/2+y,1/2+z
1/2+x,1/2-y,1/2+z
loop_
_atom_site_type_symbol
_atom_site_label
_atom_site_fract_x
_atom_site_fract_y
_atom_site_fract_z
Si Si1 0.947225 0.668607 0.737500
Si Si2 0.840625 0.054467 0.766871
Si Si3 0.250000 0.750000 0.891504
Si Si4 0.838319 0.687942 0.875293
Si Si5 0.500000 0.000000 0.984963
Si Si6 0.611018 0.643028 0.534940
Si Si7 0.312510 0.948501 0.095872
O O1 0.895750 0.651824 0.827771
O O2 0.956886 0.539720 0.604196
O O3 0.937623 0.829517 0.636173
O O4 0.987643 0.644959 0.867337
O O5 0.825592 0.873450 0.830326
O O6 0.859360 0.009457 0.607597
O O7 0.795364 0.178911 0.796021
O O8 0.888359 0.112846 0.864512
O O9 0.264349 0.893121 0.006726
O O10 0.806797 0.569404 0.766579
O O11 0.829759 0.623680 0.035847
O O12 0.645624 0.807819 0.555226
#
# Coordination Sequence:
#
# PCOD9353566 Si02
#       7
#     8   8   4   8   4   8   8
#     4   9  18  33  56  85 117 139 187 232 284 351
#     4   9  20  36  58  78 110 153 193 236 291 330
#     4  10  20  36  52  82 116 146 200 256 280 328
#     4  10  20  37  56  82 112 157 192 230 290 363
#     4  10  18  32  60  92 112 144 178 248 302 330
#     4   9  19  38  55  79 112 155 190 228 282 358
#     4   9  20  33  53  77 111 147 191 239 288 327
#
# _framework density 24.225722000000001
#
# number of rings (size 3 to 8) (size 9 to 14) (size 15 to 20)
#    0.000    3.000    0.000    2.000    0.000    7.333 
#    0.000    6.667    0.000   12.000    0.000    0.000 
#    0.000    0.000    0.000    0.000    0.000    0.000 
#
# Total GULP energy -133622.441392 kJ/mol
# GULP energy per Si atom -5567.601725 kJ/mol
# Density = 2.417058 g / cm^3
# Si number density = 24.225722 Si / 1000 Ang^3
#
#
#
# Elastic Constant Matrix: (Units=GPa)
#
#
# Indices 1 2 3 4 5 6 
#
# 1 50.1120 9.5977 25.6380 0.0000 0.0000 0.0000
# 2 9.5977 54.7771 17.1449 0.0000 0.0000 0.0000
# 3 25.6380 17.1449 104.9832 0.0000 0.0000 0.0000
# 4 0.0000 0.0000 0.0000 33.7798 0.0000 0.0000
# 5 0.0000 0.0000 0.0000 0.0000 21.2694 0.0000
# 6 0.0000 0.0000 0.0000 0.0000 0.0000 22.6273
#
#
#
# Elastic Compliance Matrix: (Units=1/GPa)
#
#
# Indices 1 2 3 4 5 6 
#
# 1 0.023101 -0.002405 -0.005249 0.000000 0.000000 0.000000
# 2 -0.002405 0.019490 -0.002596 0.000000 0.000000 0.000000
# 3 -0.005249 -0.002596 0.011231 0.000000 0.000000 0.000000
# 4 0.000000 0.000000 0.000000 0.029603 0.000000 0.000000
# 5 0.000000 0.000000 0.000000 0.000000 0.047016 0.000000
# 6 0.000000 0.000000 0.000000 0.000000 0.000000 0.044194
#
#
# Mechanical properties :
#
#
# Convention : Reuss Voigt Hill
#
# Bulk Modulus (GPa) = 30.00889 34.95926 32.48407
# Shear Modulus (GPa) = 24.24337 26.03475 25.13906
#
# Velocity S-wave (km/s) = 3.16686 3.28178 3.22483
# Velocity P-wave (km/s) = 5.07800 5.36862 5.22533
#
# Compressibility (1/GPa) = 0.03332345
#
# Stress axis : x y z
#
# Youngs Moduli (GPa) = 43.28766 51.30951 89.03900
#
# Poissons Ratio (x) = 0.12339 0.46735
# Poissons Ratio (y) = 0.10410 0.23111
# Poissons Ratio (z) = 0.22721 0.13318
#
# Static dielectric constant tensor:
#      x y z
#    x 2.028040 0.000000 0.000000 
#    y 0.000000 1.979420 0.000000 
#    z 0.000000 0.000000 1.962580 
# 
# From -- ./inp_files/4960.got.cif
#   From: 2010.05.17/outbox.cif.g08.bks.cpg/sg37_3_cif.got.tgz:4960.got - 2010.06.03 17:53:42.
