data_PCOD9353100
_publ_section_title
;
Structure prediction by ZEFSAII (Michael W. Deem and Ramdas Pophale) SiO2 
 PCOD9353100
Probable space group: C M C 21
;
_chemical_formula_sum "Si O2"
_cell_formula_units_Z 64
_cell_length_a 18.368529
_cell_length_b 8.104460
_cell_length_c 18.953532
_cell_angle_alpha 90.000000
_cell_angle_beta 90.000000
_cell_angle_gamma 90.000000
_cell_volume 2821.555610
_symmetry_space_group_name_H-M "C M C 21"
_symmetry_group_IT_number 36
_symmetry_cell_setting 'orthorhombic'
loop_
_space_group_symop_operation_xyz
x,y,z
-x,-y,1/2+z
x,-y,1/2+z
-x,y,z
1/2+x,1/2+y,z
1/2-x,1/2-y,1/2+z
1/2+x,1/2-y,1/2+z
1/2-x,1/2+y,z
loop_
_atom_site_type_symbol
_atom_site_label
_atom_site_fract_x
_atom_site_fract_y
_atom_site_fract_z
Si Si1 0.581207 0.404779 0.642770
Si Si2 0.202783 0.665873 0.226223
Si Si3 0.150506 0.679343 0.539860
Si Si4 0.147049 0.025076 0.277325
Si Si5 0.821723 0.858332 0.404865
Si Si6 0.664862 0.017042 0.850782
Si Si7 0.186264 0.181293 0.579115
Si Si8 0.916539 0.358379 0.471014
O O1 0.500000 0.436851 0.616749
O O2 0.611620 0.236587 0.610832
O O3 0.583800 0.414825 0.727116
O O4 0.638249 0.540852 0.615656
O O5 0.171593 0.840765 0.252638
O O6 0.284290 0.640108 0.256785
O O7 0.163340 0.513843 0.266646
O O8 0.198294 0.681444 0.141749
O O9 0.158992 0.836380 0.486539
O O10 0.233720 0.627910 0.554163
O O11 0.102324 0.537619 0.504750
O O12 0.133993 0.994017 0.359892
O O13 0.835277 0.671799 0.378348
O O14 0.739070 0.906657 0.383833
O O15 0.601742 0.118610 0.888348
O O16 0.140498 0.245092 0.512688
O O17 0.000000 0.312983 0.483113
#
# Coordination Sequence:
#
# PCOD9353100 Si02
#       8
#     8   8   8   8   8   8   8   8
#     4  11  23  37  54  82 117 146 176 227 285 327
#     4   9  18  32  55  82 102 135 186 229 258 311
#     4  11  21  36  58  83 106 146 190 225 265 327
#     4   9  18  34  53  80 106 138 178 227 267 317
#     4   9  18  32  55  82 102 135 186 229 258 311
#     4   9  18  34  53  80 106 138 178 227 267 317
#     4  11  21  36  58  83 106 146 190 225 265 327
#     4  11  23  37  54  82 117 146 176 227 285 327
#
# _framework density 22.682523
#
# number of rings (size 3 to 8) (size 9 to 14) (size 15 to 20)
#    0.000    2.000    2.500    1.500    3.500    0.000 
#    0.000   11.250    0.000    0.000    0.000    8.750 
#    0.000    0.000    0.000    0.000    0.000    0.000 
#
# Total GULP energy -178555.421597 kJ/mol
# GULP energy per Si atom -5579.856925 kJ/mol
# Density = 2.263090 g / cm^3
# Si number density = 22.682523 Si / 1000 Ang^3
#
#
#
# Elastic Constant Matrix: (Units=GPa)
#
#
# Indices 1 2 3 4 5 6 
#
# 1 36.1826 -8.5007 4.4202 0.0000 0.0000 0.0000
# 2 -8.5007 52.7819 -2.6441 0.0000 0.0000 0.0000
# 3 4.4202 -2.6441 46.9375 0.0000 0.0000 0.0000
# 4 0.0000 0.0000 0.0000 16.4693 0.0000 0.0000
# 5 0.0000 0.0000 0.0000 0.0000 20.7359 0.0000
# 6 0.0000 0.0000 0.0000 0.0000 0.0000 6.6983
#
#
#
# Elastic Compliance Matrix: (Units=1/GPa)
#
#
# Indices 1 2 3 4 5 6 
#
# 1 0.029009 0.004548 -0.002476 0.000000 0.000000 0.000000
# 2 0.004548 0.019713 0.000682 0.000000 0.000000 0.000000
# 3 -0.002476 0.000682 0.021576 0.000000 0.000000 0.000000
# 4 0.000000 0.000000 0.000000 0.060719 0.000000 0.000000
# 5 0.000000 0.000000 0.000000 0.000000 0.048225 0.000000
# 6 0.000000 0.000000 0.000000 0.000000 0.000000 0.149291
#
#
# Mechanical properties :
#
#
# Convention : Reuss Voigt Hill
#
# Bulk Modulus (GPa) = 13.19148 13.60586 13.39867
# Shear Modulus (GPa) = 14.35574 18.28916 16.32245
#
# Velocity S-wave (km/s) = 2.51848 2.84264 2.68546
# Velocity P-wave (km/s) = 3.77959 4.09702 3.94150
#
# Compressibility (1/GPa) = 0.07580652
#
# Stress axis : x y z
#
# Youngs Moduli (GPa) = 34.47262 50.72921 46.34678
#
# Poissons Ratio (x) = -0.23071 0.11473
# Poissons Ratio (y) = -0.15678 -0.03162
# Poissons Ratio (z) = 0.08534 -0.03461
#
# Static dielectric constant tensor:
#      x y z
#    x 1.789960 0.000000 0.000000 
#    y 0.000000 1.861950 0.000000 
#    z 0.000000 0.000000 2.010690 
# 
# From -- ./inp_files/16229.got.cif
#   From: 2010.05.17/outbox.cif.g08.bks.cpg/sg36_9_cif.got.tgz:16229.got - 2010.06.03 17:41:39.
