data_PCOD9353812
_publ_section_title
;
Structure prediction by ZEFSAII (Michael W. Deem and Ramdas Pophale) SiO2 
 PCOD9353812
Probable space group: C C C 2
;
_chemical_formula_sum "Si O2"
_cell_formula_units_Z 48
_cell_length_a 11.909166
_cell_length_b 15.491289
_cell_length_c 11.603331
_cell_angle_alpha 90.000000
_cell_angle_beta 90.000000
_cell_angle_gamma 90.000000
_cell_volume 2140.679185
_symmetry_space_group_name_H-M "C C C 2"
_symmetry_group_IT_number 37
_symmetry_cell_setting 'orthorhombic'
loop_
_space_group_symop_operation_xyz
x,y,z
-x,-y,z
-x,y,1/2+z
x,-y,1/2+z
1/2+x,1/2+y,z
1/2-x,1/2-y,z
1/2-x,1/2+y,1/2+z
1/2+x,1/2-y,1/2+z
loop_
_atom_site_type_symbol
_atom_site_label
_atom_site_fract_x
_atom_site_fract_y
_atom_site_fract_z
Si Si1 0.757259 0.415684 0.711520
Si Si2 0.944566 0.906852 0.376154
Si Si3 0.400383 0.895390 0.939426
Si Si4 0.289101 0.395311 0.598063
Si Si5 0.646824 0.905888 0.977229
Si Si6 0.828474 0.829723 0.837498
O O1 0.642081 0.386616 0.772790
O O2 0.849900 0.401053 0.811179
O O3 0.737463 0.513421 0.663223
O O4 0.803973 0.370524 0.596621
O O5 0.876821 0.911786 0.495479
O O6 0.047229 0.840448 0.384827
O O7 0.000000 0.000000 0.351637
O O8 0.528425 0.864275 0.940725
O O9 0.387999 0.993975 0.983991
O O10 0.317535 0.852206 0.032535
O O11 0.335019 0.336652 0.700295
O O12 0.749182 0.905050 0.887980
O O13 0.750000 0.750000 0.871116
#
# Coordination Sequence:
#
# PCOD9353812 Si02
#       6
#     8   8   8   8   8   8
#     4  10  19  36  65  98 126 159 226 289 331 371
#     4  11  22  39  69  98 126 167 231 294 329 387
#     4   9  19  35  63  94 125 160 216 280 324 384
#     4  10  21  39  61  94 124 168 218 272 334 392
#     4  10  21  35  60  92 127 170 212 265 335 392
#     4  12  26  43  60  92 136 173 215 272 346 409
#
# _framework density 22.422791
#
# number of rings (size 3 to 8) (size 9 to 14) (size 15 to 20)
#    0.000    1.667    3.333    2.000    7.000    1.333 
#    3.000    0.000    0.000    0.000    0.000    0.000 
#    0.000    0.000    0.000    0.000    0.000    0.000 
#
# Total GULP energy -133801.210340 kJ/mol
# GULP energy per Si atom -5575.050431 kJ/mol
# Density = 2.237176 g / cm^3
# Si number density = 22.422791 Si / 1000 Ang^3
#
#
#
# Elastic Constant Matrix: (Units=GPa)
#
#
# Indices 1 2 3 4 5 6 
#
# 1 186.9785 13.0147 92.7562 0.0000 0.0000 0.0000
# 2 13.0147 29.6150 8.6046 0.0000 0.0000 0.0000
# 3 92.7562 8.6046 142.0841 0.0000 0.0000 0.0000
# 4 0.0000 0.0000 0.0000 -1.1476 0.0000 0.0000
# 5 0.0000 0.0000 0.0000 0.0000 19.7669 0.0000
# 6 0.0000 0.0000 0.0000 0.0000 0.0000 18.8894
#
#
#
# Elastic Compliance Matrix: (Units=1/GPa)
#
#
# Indices 1 2 3 4 5 6 
#
# 1 0.008029 -0.002042 -0.005118 0.000000 0.000000 0.000000
# 2 -0.002042 0.034891 -0.000780 0.000000 0.000000 0.000000
# 3 -0.005118 -0.000780 0.010427 0.000000 0.000000 0.000000
# 4 0.000000 0.000000 0.000000 -0.871372 0.000000 0.000000
# 5 0.000000 0.000000 0.000000 0.000000 0.050590 0.000000
# 6 0.000000 0.000000 0.000000 0.000000 0.000000 0.052940
#
#
# Mechanical properties :
#
#
# Convention : Reuss Voigt Hill
#
# Bulk Modulus (GPa) = 26.69031 65.26983 45.98007
# Shear Modulus (GPa) = -7.28728 23.78852 8.25062
#
# Velocity S-wave (km/s) = -1.80472 3.26069 1.92030
# Velocity P-wave (km/s) = 2.75434 6.58392 5.04651
#
# Compressibility (1/GPa) = 0.03746678
#
# Stress axis : x y z
#
# Youngs Moduli (GPa) = 124.54391 28.66104 95.90883
#
# Poissons Ratio (x) = 0.05851 0.49087
# Poissons Ratio (y) = 0.25426 0.07483
# Poissons Ratio (z) = 0.63743 0.02236
#
# Static dielectric constant tensor:
#      x y z
#    x 1.903880 0.000000 0.000000 
#    y 0.000000 2.261940 0.000000 
#    z 0.000000 0.000000 1.820920 
# 
# From -- ./inp_files/7186.got.cif
#   From: 2010.05.17/outbox.cif.g08.bks.cpg/sg37_4_cif.got.tgz:7186.got - 2010.06.03 17:53:42.
