data_PCOD9353762
_publ_section_title
;
Structure prediction by ZEFSAII (Michael W. Deem and Ramdas Pophale) SiO2 
 PCOD9353762
Probable space group: C C C 2
;
_chemical_formula_sum "Si O2"
_cell_formula_units_Z 64
_cell_length_a 20.957442
_cell_length_b 8.236660
_cell_length_c 17.581972
_cell_angle_alpha 90.000000
_cell_angle_beta 90.000000
_cell_angle_gamma 90.000000
_cell_volume 3034.988125
_symmetry_space_group_name_H-M "C C C 2"
_symmetry_group_IT_number 37
_symmetry_cell_setting 'orthorhombic'
loop_
_space_group_symop_operation_xyz
x,y,z
-x,-y,z
-x,y,1/2+z
x,-y,1/2+z
1/2+x,1/2+y,z
1/2-x,1/2-y,z
1/2-x,1/2+y,1/2+z
1/2+x,1/2-y,1/2+z
loop_
_atom_site_type_symbol
_atom_site_label
_atom_site_fract_x
_atom_site_fract_y
_atom_site_fract_z
Si Si1 0.277621 0.564124 0.846400
Si Si2 0.590150 0.325008 0.826484
Si Si3 0.937889 0.393189 0.109301
Si Si4 0.060635 0.890767 0.000726
Si Si5 0.643398 0.033980 0.358254
Si Si6 0.827060 0.427240 0.536014
Si Si7 0.809882 0.954912 0.017511
Si Si8 0.966109 0.679006 0.770663
O O1 0.250000 0.750000 0.856361
O O2 0.345170 0.579229 0.801613
O O3 0.215002 0.461008 0.822626
O O4 0.297429 0.488880 0.927938
O O5 0.571078 0.385454 0.910510
O O6 0.523333 0.307159 0.782297
O O7 0.614992 0.140136 0.835093
O O8 0.934436 0.297929 0.188387
O O9 0.000000 0.500000 0.117079
O O10 0.948912 0.284918 0.035431
O O11 0.877603 0.505962 0.094793
O O12 0.126305 0.951997 0.037965
O O13 0.000000 0.000000 0.018904
O O14 0.652445 0.031968 0.449340
O O15 0.591706 0.167772 0.331733
O O16 0.821156 0.233479 0.534878
O O17 0.757700 0.501991 0.553348
O O18 0.000000 0.500000 0.774848
#
# Coordination Sequence:
#
# PCOD9353762 Si02
#       8
#     8   8   8   8   8   8   8   8
#     4   8  15  29  53  84 115 144 189 241 307 345
#     4   9  17  32  54  85 109 149 190 242 294 345
#     4  11  23  37  57  84 119 160 193 237 295 355
#     4  11  22  35  58  88 118 149 200 243 289 348
#     4   9  16  30  58  83 107 146 193 244 285 352
#     4  10  19  35  61  86 116 148 197 247 295 344
#     4   9  20  33  55  92 118 145 191 256 293 339
#     4   9  20  34  54  82 117 149 195 238 291 355
#
# _framework density 21.087395999999998
#
# number of rings (size 3 to 8) (size 9 to 14) (size 15 to 20)
#    0.000    2.500    1.250    0.750    5.250    0.000 
#    0.000    0.625   22.000    4.500    0.000    0.000 
#    0.000    0.000    0.000    0.000    0.000    0.000 
#
# Total GULP energy -178291.581671 kJ/mol
# GULP energy per Si atom -5571.611927 kJ/mol
# Density = 2.103940 g / cm^3
# Si number density = 21.087396 Si / 1000 Ang^3
#
#
#
# Elastic Constant Matrix: (Units=GPa)
#
#
# Indices 1 2 3 4 5 6 
#
# 1 192.6048 26.7067 48.6731 0.0000 0.0000 0.0000
# 2 26.7067 23.4956 1.7884 0.0000 0.0000 0.0000
# 3 48.6731 1.7884 35.1662 0.0000 0.0000 0.0000
# 4 0.0000 0.0000 0.0000 -4.0465 0.0000 0.0000
# 5 0.0000 0.0000 0.0000 0.0000 -13.3889 0.0000
# 6 0.0000 0.0000 0.0000 0.0000 0.0000 20.0338
#
#
#
# Elastic Compliance Matrix: (Units=1/GPa)
#
#
# Indices 1 2 3 4 5 6 
#
# 1 0.009985 -0.010338 -0.013294 0.000000 0.000000 0.000000
# 2 -0.010338 0.053429 0.011591 0.000000 0.000000 0.000000
# 3 -0.013294 0.011591 0.046248 0.000000 0.000000 0.000000
# 4 0.000000 0.000000 0.000000 -0.247128 0.000000 0.000000
# 5 0.000000 0.000000 0.000000 0.000000 -0.074689 0.000000
# 6 0.000000 0.000000 0.000000 0.000000 0.000000 0.049916
#
#
# Mechanical properties :
#
#
# Convention : Reuss Voigt Hill
#
# Bulk Modulus (GPa) = 11.68496 45.06699 28.37597
# Shear Modulus (GPa) = -45.60793 12.12624 -16.74084
#
# Velocity S-wave (km/s) = -4.65564 2.40062 -2.82064
# Velocity P-wave (km/s) = 4.83185 5.39461 1.69633
#
# Compressibility (1/GPa) = 0.08558012
#
# Stress axis : x y z
#
# Youngs Moduli (GPa) = 100.14958 18.71626 21.62270
#
# Poissons Ratio (x) = 0.19348 0.28746
# Poissons Ratio (y) = 1.03532 -0.25063
# Poissons Ratio (z) = 1.33144 -0.21694
#
# Static dielectric constant tensor:
#      x y z
#    x 1.900260 0.000000 0.000000 
#    y 0.000000 1.777090 0.000000 
#    z 0.000000 0.000000 1.729390 
# 
# From -- ./inp_files/17374.got.cif
#   From: 2010.05.17/outbox.cif.g08.bks.cpg/sg37_9_cif.got.tgz:17374.got - 2010.06.03 17:53:42.
