data_PCOD9353686
_publ_section_title
;
Structure prediction by ZEFSAII (Michael W. Deem and Ramdas Pophale) SiO2 
 PCOD9353686
Probable space group: C C C 2
;
_chemical_formula_sum "Si O2"
_cell_formula_units_Z 56
_cell_length_a 14.451226
_cell_length_b 5.226996
_cell_length_c 31.917022
_cell_angle_alpha 90.000000
_cell_angle_beta 90.000000
_cell_angle_gamma 90.000000
_cell_volume 2410.900148
_symmetry_space_group_name_H-M "C C C 2"
_symmetry_group_IT_number 37
_symmetry_cell_setting 'orthorhombic'
loop_
_space_group_symop_operation_xyz
x,y,z
-x,-y,z
-x,y,1/2+z
x,-y,1/2+z
1/2+x,1/2+y,z
1/2-x,1/2-y,z
1/2-x,1/2+y,1/2+z
1/2+x,1/2-y,1/2+z
loop_
_atom_site_type_symbol
_atom_site_label
_atom_site_fract_x
_atom_site_fract_y
_atom_site_fract_z
Si Si1 0.361116 0.244033 0.896670
Si Si2 0.136993 0.747857 0.752325
Si Si3 0.138229 0.248665 0.703888
Si Si4 0.561823 0.247360 0.488339
Si Si5 0.393404 0.045261 0.611820
Si Si6 0.863159 0.755555 0.347495
Si Si7 0.888134 0.046933 0.572689
O O1 0.250000 0.250000 0.895722
O O2 0.390531 0.194890 0.944176
O O3 0.392043 0.514666 0.877819
O O4 0.392356 0.014145 0.866791
O O5 0.250000 0.750000 0.752777
O O6 0.108812 0.469800 0.736040
O O7 0.105936 0.795485 0.799783
O O8 0.108272 0.971726 0.720437
O O9 0.250000 0.250000 0.702980
O O10 0.108140 0.335058 0.657925
O O11 0.500000 0.500000 0.481912
O O12 0.626677 0.326599 0.527315
O O13 0.500000 0.000000 0.499630
O O14 0.351839 0.263757 0.581905
O O15 0.500000 0.000000 0.600248
O O16 0.355224 0.758720 0.606218
O O17 0.750000 0.750000 0.346540
O O18 0.000000 0.000000 0.575664
#
# Coordination Sequence:
#
# PCOD9353686 Si02
#       7
#     8   8   8   8   8   8   8
#     4  10  20  34  54  81 108 134 172 220 264 305
#     4   9  17  30  50  74 100 133 171 208 247 300
#     4  10  19  31  49  75 103 129 165 212 258 301
#     4  11  21  36  57  79 105 138 177 215 258 312
#     4  10  19  33  52  72  96 129 168 207 249 298
#     4   9  17  31  52  76 103 137 175 212 252 305
#     4   9  18  33  53  73  95 130 173 208 240 299
#
# _framework density 23.227837999999998
#
# number of rings (size 3 to 8) (size 9 to 14) (size 15 to 20)
#    0.000    2.286    0.000    4.714    0.000    3.429 
#    0.000    1.429    0.000    8.571    0.000    0.000 
#    0.000    0.000    0.000    0.000    0.000    0.000 
#
# Total GULP energy -156509.278068 kJ/mol
# GULP energy per Si atom -5589.617074 kJ/mol
# Density = 2.317497 g / cm^3
# Si number density = 23.227838 Si / 1000 Ang^3
#
#
#
# Elastic Constant Matrix: (Units=GPa)
#
#
# Indices 1 2 3 4 5 6 
#
# 1 72.0608 9.2375 1.4028 0.0000 0.0000 0.0000
# 2 9.2375 135.1727 43.9428 0.0000 0.0000 0.0000
# 3 1.4028 43.9428 145.1558 0.0000 0.0000 0.0000
# 4 0.0000 0.0000 0.0000 49.1476 0.0000 0.0000
# 5 0.0000 0.0000 0.0000 0.0000 16.5817 0.0000
# 6 0.0000 0.0000 0.0000 0.0000 0.0000 -12.6984
#
#
#
# Elastic Compliance Matrix: (Units=1/GPa)
#
#
# Indices 1 2 3 4 5 6 
#
# 1 0.014004 -0.001013 0.000171 0.000000 0.000000 0.000000
# 2 -0.001013 0.008279 -0.002496 0.000000 0.000000 0.000000
# 3 0.000171 -0.002496 0.007643 0.000000 0.000000 0.000000
# 4 0.000000 0.000000 0.000000 0.020347 0.000000 0.000000
# 5 0.000000 0.000000 0.000000 0.000000 0.060307 0.000000
# 6 0.000000 0.000000 0.000000 0.000000 0.000000 -0.078750
#
#
# Mechanical properties :
#
#
# Convention : Reuss Voigt Hill
#
# Bulk Modulus (GPa) = 43.01093 51.28394 47.14743
# Shear Modulus (GPa) = 108.09573 30.45993 69.27783
#
# Velocity S-wave (km/s) = 6.82921 3.62519 5.46718
# Velocity P-wave (km/s) = 8.98562 6.29677 7.75857
#
# Compressibility (1/GPa) = 0.02324991
#
# Stress axis : x y z
#
# Youngs Moduli (GPa) = 71.40993 120.79198 130.83474
#
# Poissons Ratio (x) = 0.12232 -0.02240
# Poissons Ratio (y) = 0.07231 0.32662
# Poissons Ratio (z) = -0.01223 0.30155
#
# Static dielectric constant tensor:
#      x y z
#    x 1.914450 0.000000 0.000000 
#    y 0.000000 1.818380 0.000000 
#    z 0.000000 0.000000 1.845050 
# 
# From -- ./inp_files/20551.got.cif
#   From: 2010.05.17/outbox.cif.g08.bks.cpg/sg37_11_cif.got.tgz:20551.got - 2010.06.03 17:53:42.
