data_PCOD9353878
_publ_section_title
;
Structure prediction by ZEFSAII (Michael W. Deem and Ramdas Pophale) SiO2 
 PCOD9353878
Probable space group: C C C 2
;
_chemical_formula_sum "Si O2"
_cell_formula_units_Z 64
_cell_length_a 10.862495
_cell_length_b 15.951958
_cell_length_c 18.634228
_cell_angle_alpha 90.000000
_cell_angle_beta 90.000000
_cell_angle_gamma 90.000000
_cell_volume 3228.902952
_symmetry_space_group_name_H-M "C C C 2"
_symmetry_group_IT_number 37
_symmetry_cell_setting 'orthorhombic'
loop_
_space_group_symop_operation_xyz
x,y,z
-x,-y,z
-x,y,1/2+z
x,-y,1/2+z
1/2+x,1/2+y,z
1/2-x,1/2-y,z
1/2-x,1/2+y,1/2+z
1/2+x,1/2-y,1/2+z
loop_
_atom_site_type_symbol
_atom_site_label
_atom_site_fract_x
_atom_site_fract_y
_atom_site_fract_z
Si Si1 0.777880 0.383569 0.622570
Si Si2 0.037278 0.238275 0.288987
Si Si3 0.781440 0.375097 0.786291
Si Si4 0.633266 0.045311 0.055582
Si Si5 0.558439 0.636416 0.917712
Si Si6 0.425188 0.273197 0.062554
Si Si7 0.199703 0.036636 0.420831
Si Si8 0.620116 0.213143 0.149637
O O1 0.816258 0.395208 0.704800
O O2 0.779923 0.473259 0.587332
O O3 0.646752 0.339976 0.611225
O O4 0.867421 0.317070 0.582627
O O5 0.109596 0.318925 0.319993
O O6 0.154500 0.177338 0.276083
O O7 0.949782 0.187956 0.343413
O O8 0.969149 0.270593 0.217573
O O9 0.751828 0.448251 0.841092
O O10 0.626090 0.121225 0.112991
O O11 0.500000 0.000000 0.047053
O O12 0.698529 0.063952 0.979445
O O13 0.422913 0.594418 0.928654
O O14 0.654046 0.559564 0.923816
O O15 0.588264 0.700851 0.981037
O O16 0.565733 0.270026 0.085583
O O17 0.750000 0.250000 0.171200
#
# Coordination Sequence:
#
# PCOD9353878 Si02
#       8
#     8   8   8   8   8   8   8   8
#     4  11  21  40  71  91 120 177 226 262 320 400
#     4  10  20  40  63  93 122 170 219 272 321 392
#     4  10  19  40  69  90 122 168 226 265 326 393
#     4  12  24  43  64  97 139 170 220 277 332 392
#     4  10  22  40  66  93 134 168 222 276 322 389
#     4  11  20  41  67  92 124 170 228 264 317 393
#     4  10  23  41  62  99 132 173 216 271 335 391
#     4  12  25  41  63  98 135 169 219 278 328 386
#
# _framework density 19.820974
#
# number of rings (size 3 to 8) (size 9 to 14) (size 15 to 20)
#    0.000    1.250    5.000    1.500    1.750    1.000 
#    2.250    4.375    0.000    0.000    0.000    0.000 
#    0.000    0.000    0.000    0.000    0.000    0.000 
#
# Total GULP energy -178375.621767 kJ/mol
# GULP energy per Si atom -5574.238180 kJ/mol
# Density = 1.977586 g / cm^3
# Si number density = 19.820974 Si / 1000 Ang^3
#
#
#
# Elastic Constant Matrix: (Units=GPa)
#
#
# Indices 1 2 3 4 5 6 
#
# 1 64.0478 30.9799 17.7775 0.0000 0.0000 0.0000
# 2 30.9799 83.3867 63.2288 0.0000 0.0000 0.0000
# 3 17.7775 63.2288 128.3110 0.0000 0.0000 0.0000
# 4 0.0000 0.0000 0.0000 31.5185 0.0000 0.0000
# 5 0.0000 0.0000 0.0000 0.0000 31.9672 0.0000
# 6 0.0000 0.0000 0.0000 0.0000 0.0000 18.2960
#
#
#
# Elastic Compliance Matrix: (Units=1/GPa)
#
#
# Indices 1 2 3 4 5 6 
#
# 1 0.019182 -0.008161 0.001364 0.000000 0.000000 0.000000
# 2 -0.008161 0.022618 -0.010015 0.000000 0.000000 0.000000
# 3 0.001364 -0.010015 0.012540 0.000000 0.000000 0.000000
# 4 0.000000 0.000000 0.000000 0.031727 0.000000 0.000000
# 5 0.000000 0.000000 0.000000 0.000000 0.031282 0.000000
# 6 0.000000 0.000000 0.000000 0.000000 0.000000 0.054657
#
#
# Mechanical properties :
#
#
# Convention : Reuss Voigt Hill
#
# Bulk Modulus (GPa) = 48.27153 55.52421 51.89787
# Shear Modulus (GPa) = 23.52547 27.27364 25.39955
#
# Velocity S-wave (km/s) = 3.44888 3.71347 3.58362
# Velocity P-wave (km/s) = 6.34557 6.81617 6.58508
#
# Compressibility (1/GPa) = 0.02071614
#
# Stress axis : x y z
#
# Youngs Moduli (GPa) = 52.13196 44.21216 79.74576
#
# Poissons Ratio (x) = 0.36080 -0.10875
# Poissons Ratio (y) = 0.42543 0.79866
# Poissons Ratio (z) = -0.07109 0.44279
#
# Static dielectric constant tensor:
#      x y z
#    x 1.762090 0.000000 0.000000 
#    y 0.000000 1.689730 0.000000 
#    z 0.000000 0.000000 1.702240 
# 
# From -- ./inp_files/15083.got.cif
#   From: 2010.05.17/outbox.cif.g08.bks.cpg/sg37_8_cif.got.tgz:15083.got - 2010.06.03 17:53:42.
