data_PCOD9353318
_publ_section_title
;
Structure prediction by ZEFSAII (Michael W. Deem and Ramdas Pophale) SiO2 
 PCOD9353318
Probable space group: C M C 21
;
_chemical_formula_sum "Si O2"
_cell_formula_units_Z 24
_cell_length_a 9.000000
_cell_length_b 30.000000
_cell_length_c 9.000000
_cell_angle_alpha 90.000000
_cell_angle_beta 90.000000
_cell_angle_gamma 90.000000
_cell_volume 2430.000000
_symmetry_space_group_name_H-M "C M C 21"
_symmetry_group_IT_number 36
_symmetry_cell_setting 'orthorhombic'
loop_
_space_group_symop_operation_xyz
x,y,z
-x,-y,1/2+z
x,-y,1/2+z
-x,y,z
1/2+x,1/2+y,z
1/2-x,1/2-y,1/2+z
1/2+x,1/2-y,1/2+z
1/2-x,1/2+y,z
loop_
_atom_site_type_symbol
_atom_site_label
_atom_site_fract_x
_atom_site_fract_y
_atom_site_fract_z
Si Si1 0.821069 0.732986 0.997020
Si Si2 0.318452 0.986295 0.449024
Si Si3 0.171676 0.358209 0.632730
Si Si4 0.321349 0.443806 0.747175
Si Si5 0.820152 0.308582 0.176198
Si Si6 0.329290 0.101154 0.797109
O O1 0.777565 0.692770 0.110508
O O2 0.781964 0.716470 0.831394
O O3 0.000000 0.736319 0.003854
O O4 0.747046 0.778994 0.045627
O O5 0.500000 0.987006 0.457935
O O6 0.250253 0.969527 0.604496
O O7 0.270170 0.948287 0.327606
O O8 0.251996 0.032555 0.390385
O O9 0.270074 0.392407 0.726728
O O10 0.169183 0.377290 0.463075
O O11 0.000000 0.359121 0.685178
O O12 0.500000 0.447393 0.747521
O O13 0.765032 0.359843 0.193196
O O14 0.000000 0.309753 0.166215
O O15 0.500000 0.094875 0.749251
#
# Coordination Sequence:
#
# PCOD9353318 Si02
#       6
#     8   8   8   8   8   8
#     4   9  18  32  50  73  99 128 165 204 240 291
#     4  10  19  35  56  74  97 136 176 202 241 306
#     4   8  15  31  51  68  92 131 172 201 235 295
#     4  11  21  33  51  79 107 127 160 214 262 292
#     4   9  17  31  50  72  98 126 159 202 247 286
#     4   7  13  28  50  70  89 122 168 205 231 280
#
# _framework density 9.8765429999999999
#
# number of rings (size 3 to 8) (size 9 to 14) (size 15 to 20)
#    0.000    3.000    0.000    5.000    0.000    1.333 
#    0.000    9.167    0.000    6.000    0.000    0.000 
#    0.000    0.000    0.000    0.000    0.000    0.000 
#
# Total GULP energy -133787.148347 kJ/mol
# GULP energy per Si atom -5574.464514 kJ/mol
# Density = 0.985406 g / cm^3
# Si number density = 9.876543 Si / 1000 Ang^3
#
#
#
# Elastic Constant Matrix: (Units=GPa)
#
#
# Indices 1 2 3 4 5 6 
#
# 1 57.7675 -5.3087 -1.2354 0.0000 0.0000 0.0000
# 2 -5.3087 27.1273 -21.7613 0.0000 0.0000 0.0000
# 3 -1.2354 -21.7613 3.3943 0.0000 0.0000 0.0000
# 4 0.0000 0.0000 0.0000 34.1426 0.0000 0.0000
# 5 0.0000 0.0000 0.0000 0.0000 20.5547 0.0000
# 6 0.0000 0.0000 0.0000 0.0000 0.0000 17.3476
#
#
#
# Elastic Compliance Matrix: (Units=1/GPa)
#
#
# Indices 1 2 3 4 5 6 
#
# 1 0.016985 -0.001999 -0.006636 0.000000 0.000000 0.000000
# 2 -0.001999 -0.008662 -0.056264 0.000000 0.000000 0.000000
# 3 -0.006636 -0.056264 -0.068519 0.000000 0.000000 0.000000
# 4 0.000000 0.000000 0.000000 0.029289 0.000000 0.000000
# 5 0.000000 0.000000 0.000000 0.000000 0.048651 0.000000
# 6 0.000000 0.000000 0.000000 0.000000 0.000000 0.057645
#
#
# Mechanical properties :
#
#
# Convention : Reuss Voigt Hill
#
# Bulk Modulus (GPa) = -5.26333 3.51982 -0.87175
# Shear Modulus (GPa) = 35.24734 22.18196 28.71465
#
# Velocity S-wave (km/s) = 4.22879 3.35470 3.81685
# Velocity P-wave (km/s) = 4.60144 4.09770 4.35685
#
# Compressibility (1/GPa) = -0.18999380
#
# Stress axis : x y z
#
# Youngs Moduli (GPa) = 58.87501 -115.44027 -14.59456
#
# Poissons Ratio (x) = -0.23080 -0.09685
# Poissons Ratio (y) = 0.11771 -0.82115
# Poissons Ratio (z) = 0.39068 -6.49511
#
# Static dielectric constant tensor:
#      x y z
#    x 1.660210 0.000000 0.000000 
#    y 0.000000 1.737490 0.000000 
#    z 0.000000 0.000000 1.711930 
# 
# From -- ./inp_files/2725.got.cif
#   From: 2010.05.17/outbox.ucp.g08.bks.cvg/sg36_2_cif.got.tgz:2725.got - 2010.06.11 10:37:26.
