data_PCOD9353562
_publ_section_title
;
Structure prediction by ZEFSAII (Michael W. Deem and Ramdas Pophale) SiO2 
 PCOD9353562
Probable space group: C C C 2
;
_chemical_formula_sum "Si O2"
_cell_formula_units_Z 48
_cell_length_a 7.990943
_cell_length_b 14.409038
_cell_length_c 17.752981
_cell_angle_alpha 90.000000
_cell_angle_beta 90.000000
_cell_angle_gamma 90.000000
_cell_volume 2044.110212
_symmetry_space_group_name_H-M "C C C 2"
_symmetry_group_IT_number 37
_symmetry_cell_setting 'orthorhombic'
loop_
_space_group_symop_operation_xyz
x,y,z
-x,-y,z
-x,y,1/2+z
x,-y,1/2+z
1/2+x,1/2+y,z
1/2-x,1/2-y,z
1/2-x,1/2+y,1/2+z
1/2+x,1/2-y,1/2+z
loop_
_atom_site_type_symbol
_atom_site_label
_atom_site_fract_x
_atom_site_fract_y
_atom_site_fract_z
Si Si1 0.586989 0.857659 0.762350
Si Si2 0.567106 0.697941 0.355664
Si Si3 0.341520 0.874631 0.085468
Si Si4 0.831911 0.052005 0.598709
Si Si5 0.491292 0.287993 0.025943
Si Si6 0.232894 0.036157 0.274551
O O1 0.550225 0.758620 0.800114
O O2 0.625160 0.852622 0.673357
O O3 0.411561 0.911497 0.773323
O O4 0.726890 0.929109 0.793659
O O5 0.750000 0.750000 0.361868
O O6 0.486318 0.694935 0.437565
O O7 0.611576 0.595655 0.326525
O O8 0.483173 0.820971 0.039911
O O9 0.163889 0.831236 0.059836
O O10 0.318231 0.984489 0.075128
O O11 0.830800 0.047452 0.689090
O O12 0.847931 0.155830 0.568970
O O13 0.000000 0.000000 0.571606
#
# Coordination Sequence:
#
# PCOD9353562 Si02
#       6
#     8   8   8   8   8   8
#     4   9  18  32  57  85 114 147 205 249 298 368
#     4  10  18  32  56  84 117 162 193 246 318 366
#     4   9  17  32  54  83 109 151 199 249 293 364
#     4   9  18  32  54  81 112 148 202 252 291 360
#     4  10  18  32  56  83 115 157 200 239 310 374
#     4   9  18  33  55  85 113 149 202 255 299 361
#
# _framework density 23.482099999999999
#
# number of rings (size 3 to 8) (size 9 to 14) (size 15 to 20)
#    0.000    2.667    1.667    1.000    0.000    0.000 
#    0.000    2.500   18.333    0.000   13.000    0.000 
#    0.000    0.000    0.000    0.000    0.000    0.000 
#
# Total GULP energy -134075.561304 kJ/mol
# GULP energy per Si atom -5586.481721 kJ/mol
# Density = 2.342865 g / cm^3
# Si number density = 23.482100 Si / 1000 Ang^3
#
#
#
# Elastic Constant Matrix: (Units=GPa)
#
#
# Indices 1 2 3 4 5 6 
#
# 1 105.5659 44.2981 28.1265 0.0000 0.0000 0.0000
# 2 44.2981 165.1663 62.7951 0.0000 0.0000 0.0000
# 3 28.1265 62.7951 85.3724 0.0000 0.0000 0.0000
# 4 0.0000 0.0000 0.0000 22.8380 0.0000 0.0000
# 5 0.0000 0.0000 0.0000 0.0000 -2.5159 0.0000
# 6 0.0000 0.0000 0.0000 0.0000 0.0000 27.0662
#
#
#
# Elastic Compliance Matrix: (Units=1/GPa)
#
#
# Indices 1 2 3 4 5 6 
#
# 1 0.010915 -0.002166 -0.002003 0.000000 0.000000 0.000000
# 2 -0.002166 0.008835 -0.005785 0.000000 0.000000 0.000000
# 3 -0.002003 -0.005785 0.016628 0.000000 0.000000 0.000000
# 4 0.000000 0.000000 0.000000 0.043787 0.000000 0.000000
# 5 0.000000 0.000000 0.000000 0.000000 -0.397468 0.000000
# 6 0.000000 0.000000 0.000000 0.000000 0.000000 0.036947
#
#
# Mechanical properties :
#
#
# Convention : Reuss Voigt Hill
#
# Bulk Modulus (GPa) = 60.71311 69.61600 65.16456
# Shear Modulus (GPa) = -19.61097 24.20330 2.29617
#
# Velocity S-wave (km/s) = -2.89302 3.21395 0.98993
# Velocity P-wave (km/s) = 3.84080 6.59420 5.39607
#
# Compressibility (1/GPa) = 0.01647091
#
# Stress axis : x y z
#
# Youngs Moduli (GPa) = 91.61430 113.18928 60.13883
#
# Poissons Ratio (x) = 0.24517 0.12045
# Poissons Ratio (y) = 0.19844 0.34789
# Poissons Ratio (z) = 0.18350 0.65477
#
# Static dielectric constant tensor:
#      x y z
#    x 1.912640 0.000000 0.000000 
#    y 0.000000 1.875030 0.000000 
#    z 0.000000 0.000000 1.792570 
# 
# From -- ./inp_files/16295.got.cif
#   From: 2010.05.17/outbox.cif.g08.bks.cpg/sg37_9_cif.got.tgz:16295.got - 2010.06.03 17:53:42.
