data_PCOD9353641
_publ_section_title
;
Structure prediction by ZEFSAII (Michael W. Deem and Ramdas Pophale) SiO2 
 PCOD9353641
Probable space group: C C C 2
;
_chemical_formula_sum "Si O2"
_cell_formula_units_Z 44
_cell_length_a 7.418501
_cell_length_b 15.596754
_cell_length_c 13.716264
_cell_angle_alpha 90.000000
_cell_angle_beta 90.000000
_cell_angle_gamma 90.000000
_cell_volume 1587.033950
_symmetry_space_group_name_H-M "C C C 2"
_symmetry_group_IT_number 37
_symmetry_cell_setting 'orthorhombic'
loop_
_space_group_symop_operation_xyz
x,y,z
-x,-y,z
-x,y,1/2+z
x,-y,1/2+z
1/2+x,1/2+y,z
1/2-x,1/2-y,z
1/2-x,1/2+y,1/2+z
1/2+x,1/2-y,1/2+z
loop_
_atom_site_type_symbol
_atom_site_label
_atom_site_fract_x
_atom_site_fract_y
_atom_site_fract_z
Si Si1 0.400834 0.107190 0.926480
Si Si2 0.132626 0.338359 0.717565
Si Si3 0.305232 0.348854 0.422804
Si Si4 0.716662 0.526883 0.571496
Si Si5 0.800214 0.128560 0.709284
Si Si6 0.750000 0.250000 0.552754
O O1 0.317464 0.113984 0.819208
O O2 0.613968 0.101873 0.911284
O O3 0.372061 0.196481 0.981071
O O4 0.318247 0.040511 0.002098
O O5 0.250000 0.250000 0.714056
O O6 0.176817 0.396553 0.624523
O O7 0.912112 0.343621 0.718149
O O8 0.250000 0.250000 0.446355
O O9 0.404576 0.413267 0.498470
O O10 0.386437 0.352443 0.313998
O O11 0.672788 0.465275 0.664141
O O12 0.866511 0.190604 0.623691
#
# Coordination Sequence:
#
# PCOD9353641 Si02
#       6
#     8   8   8   8   8   4
#     4  10  21  36  59  85 117 157 195 243 293 363
#     4  11  21  36  58  92 117 152 194 251 299 349
#     4  11  21  36  58  92 117 152 194 251 299 349
#     4  11  21  34  57  89 123 145 193 249 309 343
#     4  10  21  36  59  85 117 157 195 243 293 363
#     4  10  18  38  56  82 110 162 194 230 294 358
#
# _framework density 27.724675999999999
#
# number of rings (size 3 to 8) (size 9 to 14) (size 15 to 20)
#    0.000    1.455    1.818    6.000    0.000    2.909 
#    0.000    0.000    0.000   17.455    0.000    0.000 
#    0.000    0.000    0.000    0.000    0.000    0.000 
#
# Total GULP energy -122870.984592 kJ/mol
# GULP energy per Si atom -5585.044754 kJ/mol
# Density = 2.766157 g / cm^3
# Si number density = 27.724676 Si / 1000 Ang^3
#
#
#
# Elastic Constant Matrix: (Units=GPa)
#
#
# Indices 1 2 3 4 5 6 
#
# 1 116.3606 32.8189 27.3612 0.0000 0.0000 0.0000
# 2 32.8189 147.8042 55.2325 0.0000 0.0000 0.0000
# 3 27.3612 55.2325 161.9853 0.0000 0.0000 0.0000
# 4 0.0000 0.0000 0.0000 48.9529 0.0000 0.0000
# 5 0.0000 0.0000 0.0000 0.0000 17.7866 0.0000
# 6 0.0000 0.0000 0.0000 0.0000 0.0000 31.2244
#
#
#
# Elastic Compliance Matrix: (Units=1/GPa)
#
#
# Indices 1 2 3 4 5 6 
#
# 1 0.009306 -0.001695 -0.000994 0.000000 0.000000 0.000000
# 2 -0.001695 0.008062 -0.002463 0.000000 0.000000 0.000000
# 3 -0.000994 -0.002463 0.007181 0.000000 0.000000 0.000000
# 4 0.000000 0.000000 0.000000 0.020428 0.000000 0.000000
# 5 0.000000 0.000000 0.000000 0.000000 0.056222 0.000000
# 6 0.000000 0.000000 0.000000 0.000000 0.000000 0.032026
#
#
# Mechanical properties :
#
#
# Convention : Reuss Voigt Hill
#
# Bulk Modulus (GPa) = 70.19524 72.99724 71.59624
# Shear Modulus (GPa) = 33.72064 40.30860 37.01462
#
# Velocity S-wave (km/s) = 3.49129 3.81713 3.65784
# Velocity P-wave (km/s) = 6.45180 6.76859 6.61209
#
# Compressibility (1/GPa) = 0.01424598
#
# Stress axis : x y z
#
# Youngs Moduli (GPa) = 107.46086 124.03352 139.25596
#
# Poissons Ratio (x) = 0.21022 0.13841
# Poissons Ratio (y) = 0.18213 0.34295
# Poissons Ratio (z) = 0.10681 0.30546
#
# Static dielectric constant tensor:
#      x y z
#    x 2.291780 0.000000 0.000000 
#    y 0.000000 2.238110 0.000000 
#    z 0.000000 0.000000 2.191740 
# 
# From -- ./inp_files/11460.got.cif
#   From: 2010.05.17/outbox.cif.g08.bks.cpg/sg37_6_cif.got.tgz:11460.got - 2010.06.03 17:53:42.
