data_PCOD9353655
_publ_section_title
;
Structure prediction by ZEFSAII (Michael W. Deem and Ramdas Pophale) SiO2 
 PCOD9353655
Probable space group: C C C 2
;
_chemical_formula_sum "Si O2"
_cell_formula_units_Z 48
_cell_length_a 7.584311
_cell_length_b 22.979319
_cell_length_c 12.730334
_cell_angle_alpha 90.000000
_cell_angle_beta 90.000000
_cell_angle_gamma 90.000000
_cell_volume 2218.671913
_symmetry_space_group_name_H-M "C C C 2"
_symmetry_group_IT_number 37
_symmetry_cell_setting 'orthorhombic'
loop_
_space_group_symop_operation_xyz
x,y,z
-x,-y,z
-x,y,1/2+z
x,-y,1/2+z
1/2+x,1/2+y,z
1/2-x,1/2-y,z
1/2-x,1/2+y,1/2+z
1/2+x,1/2-y,1/2+z
loop_
_atom_site_type_symbol
_atom_site_label
_atom_site_fract_x
_atom_site_fract_y
_atom_site_fract_z
Si Si1 0.224412 0.375281 0.930990
Si Si2 0.132309 0.874698 0.649628
Si Si3 0.912165 0.791057 0.767445
Si Si4 0.710043 0.000812 0.862763
Si Si5 0.750000 0.750000 0.383608
Si Si6 0.500000 0.500000 0.685236
Si Si7 0.184236 0.627219 0.879815
O O1 0.350445 0.338093 0.855450
O O2 0.258923 0.444326 0.928485
O O3 0.025856 0.369911 0.889421
O O4 0.249749 0.357213 0.050993
O O5 0.244732 0.873225 0.758973
O O6 0.982275 0.827307 0.669701
O O7 0.041413 0.937748 0.633272
O O8 0.750000 0.750000 0.743612
O O9 0.073787 0.753352 0.813134
O O10 0.500000 0.000000 0.839102
O O11 0.828036 0.993655 0.759527
O O12 0.744349 0.063184 0.917490
O O13 0.750855 0.686268 0.435660
#
# Coordination Sequence:
#
# PCOD9353655 Si02
#       7
#     8   8   8   8   4   4   8
#     4  11  21  43  68  99 135 181 231 284 347 414
#     4  10  23  41  70 103 133 184 233 282 349 423
#     4  11  22  44  70  95 139 183 221 297 344 404
#     4   9  19  36  67  92 130 175 214 278 348 390
#     4  10  20  40  66  92 132 180 220 266 350 398
#     4  10  18  40  64  94 138 172 218 286 342 396
#     4   9  20  41  66  98 137 176 219 294 331 407
#
# _framework density 21.634564999999998
#
# number of rings (size 3 to 8) (size 9 to 14) (size 15 to 20)
#    0.000    2.000    3.333    0.000    0.000    0.667 
#    7.500   23.333    0.000    0.000    0.000    0.000 
#    0.000    0.000    0.000    0.000    0.000    0.000 
#
# Total GULP energy -133813.507378 kJ/mol
# GULP energy per Si atom -5575.562807 kJ/mol
# Density = 2.158532 g / cm^3
# Si number density = 21.634565 Si / 1000 Ang^3
#
#
#
# Elastic Constant Matrix: (Units=GPa)
#
#
# Indices 1 2 3 4 5 6 
#
# 1 120.9124 45.9626 35.7129 0.0000 0.0000 0.0000
# 2 45.9626 167.6017 28.7186 0.0000 0.0000 0.0000
# 3 35.7129 28.7186 57.2772 0.0000 0.0000 0.0000
# 4 0.0000 0.0000 0.0000 -378.8913 0.0000 0.0000
# 5 0.0000 0.0000 0.0000 0.0000 15.6632 0.0000
# 6 0.0000 0.0000 0.0000 0.0000 0.0000 33.4386
#
#
#
# Elastic Compliance Matrix: (Units=1/GPa)
#
#
# Indices 1 2 3 4 5 6 
#
# 1 0.010694 -0.001958 -0.005686 0.000000 0.000000 0.000000
# 2 -0.001958 0.006886 -0.002231 0.000000 0.000000 0.000000
# 3 -0.005686 -0.002231 0.022123 0.000000 0.000000 0.000000
# 4 0.000000 0.000000 0.000000 -0.002639 0.000000 0.000000
# 5 0.000000 0.000000 0.000000 0.000000 0.063844 0.000000
# 6 0.000000 0.000000 0.000000 0.000000 0.000000 0.029906
#
#
# Mechanical properties :
#
#
# Convention : Reuss Voigt Hill
#
# Bulk Modulus (GPa) = 50.12171 62.95328 56.53749
# Shear Modulus (GPa) = 31.80331 -50.26477 -9.23073
#
# Velocity S-wave (km/s) = 3.83825 -4.82535 -2.06783
# Velocity P-wave (km/s) = 6.54680 1.37247 4.52642
#
# Compressibility (1/GPa) = 0.01995144
#
# Stress axis : x y z
#
# Youngs Moduli (GPa) = 93.50706 145.22260 45.20155
#
# Poissons Ratio (x) = 0.28442 0.25702
# Poissons Ratio (y) = 0.18313 0.10087
# Poissons Ratio (z) = 0.53169 0.32406
#
# Static dielectric constant tensor:
#      x y z
#    x 1.762330 0.000000 0.000000 
#    y 0.000000 2.349860 0.000000 
#    z 0.000000 0.000000 1.736970 
# 
# From -- ./inp_files/6410.got.cif
#   From: 2010.05.17/outbox.cif.g08.bks.cpg/sg37_4_cif.got.tgz:6410.got - 2010.06.03 17:53:42.
