data_PCOD9353746
_publ_section_title
;
Structure prediction by ZEFSAII (Michael W. Deem and Ramdas Pophale) SiO2 
 PCOD9353746
Probable space group: C C C 2
;
_chemical_formula_sum "Si O2"
_cell_formula_units_Z 64
_cell_length_a 20.109594
_cell_length_b 20.863571
_cell_length_c 8.817764
_cell_angle_alpha 90.000000
_cell_angle_beta 90.000000
_cell_angle_gamma 90.000000
_cell_volume 3699.562919
_symmetry_space_group_name_H-M "C C C 2"
_symmetry_group_IT_number 37
_symmetry_cell_setting 'orthorhombic'
loop_
_space_group_symop_operation_xyz
x,y,z
-x,-y,z
-x,y,1/2+z
x,-y,1/2+z
1/2+x,1/2+y,z
1/2-x,1/2-y,z
1/2-x,1/2+y,1/2+z
1/2+x,1/2-y,1/2+z
loop_
_atom_site_type_symbol
_atom_site_label
_atom_site_fract_x
_atom_site_fract_y
_atom_site_fract_z
Si Si1 0.570813 0.385272 0.967220
Si Si2 0.792910 0.066680 0.468596
Si Si3 0.707090 0.566680 0.329798
Si Si4 0.711278 0.816524 0.466917
Si Si5 0.930144 0.266187 0.330792
Si Si6 0.070813 0.885272 0.331173
Si Si7 0.069856 0.266187 0.467601
Si Si8 0.788722 0.683476 0.831476
O O1 0.633256 0.420906 0.895388
O O2 0.500000 0.406082 0.899197
O O3 0.578708 0.309312 0.929810
O O4 0.571095 0.392163 0.149197
O O5 0.795297 0.063372 0.649197
O O6 0.866744 0.079094 0.403005
O O7 0.747296 0.125408 0.414086
O O8 0.767979 1.000000 0.399197
O O9 0.752704 0.625408 0.384308
O O10 0.750000 0.750000 0.438141
O O11 0.634974 0.805108 0.419430
O O12 0.713920 0.827255 0.649197
O O13 0.921292 0.190688 0.368584
O O14 0.865026 0.305108 0.378964
O O15 1.000000 0.287937 0.399197
O O16 0.933847 0.269611 0.149197
O O17 0.750000 0.750000 0.860252
#
# Coordination Sequence:
#
# PCOD9353746 Si02
#       8
#     8   8   8   8   8   8   8   8
#     4  10  19  35  55  81 114 151 189 229 275 331
#     4  12  25  39  56  81 112 151 192 236 282 336
#     4  12  25  39  56  81 112 151 192 236 282 336
#     4  10  19  37  60  83 113 150 186 229 284 333
#     4   9  18  32  55  83 114 147 180 225 278 329
#     4  10  19  35  55  81 114 151 189 229 275 331
#     4   9  18  32  55  83 114 147 180 225 278 329
#     4  10  19  37  60  83 113 150 186 229 284 333
#
# _framework density 17.299340000000001
#
# number of rings (size 3 to 8) (size 9 to 14) (size 15 to 20)
#    0.000    1.750    2.500    3.000    0.000    3.000 
#    0.000    2.500    0.000    0.750    0.000    5.250 
#    0.000    0.000    0.000    0.000    0.000    0.000 
#
# Total GULP energy -178751.048154 kJ/mol
# GULP energy per Si atom -5585.970255 kJ/mol
# Density = 1.725997 g / cm^3
# Si number density = 17.299340 Si / 1000 Ang^3
#
#
#
# Elastic Constant Matrix: (Units=GPa)
#
#
# Indices 1 2 3 4 5 6 
#
# 1 119.8623 51.4674 44.6474 0.0000 0.0000 0.0000
# 2 51.4674 92.0829 51.9952 0.0000 0.0000 0.0000
# 3 44.6474 51.9952 76.9348 0.0000 0.0000 0.0000
# 4 0.0000 0.0000 0.0000 15.0592 0.0000 0.0000
# 5 0.0000 0.0000 0.0000 0.0000 33.2801 0.0000
# 6 0.0000 0.0000 0.0000 0.0000 0.0000 15.6738
#
#
#
# Elastic Compliance Matrix: (Units=1/GPa)
#
#
# Indices 1 2 3 4 5 6 
#
# 1 0.011629 -0.004349 -0.003810 0.000000 0.000000 0.000000
# 2 -0.004349 0.019188 -0.010444 0.000000 0.000000 0.000000
# 3 -0.003810 -0.010444 0.022267 0.000000 0.000000 0.000000
# 4 0.000000 0.000000 0.000000 0.066405 0.000000 0.000000
# 5 0.000000 0.000000 0.000000 0.000000 0.030048 0.000000
# 6 0.000000 0.000000 0.000000 0.000000 0.000000 0.063801
#
#
# Mechanical properties :
#
#
# Convention : Reuss Voigt Hill
#
# Bulk Modulus (GPa) = 62.97502 65.01111 63.99306
# Shear Modulus (GPa) = 19.54379 22.18728 20.86554
#
# Velocity S-wave (km/s) = 3.36481 3.58516 3.47673
# Velocity P-wave (km/s) = 7.18179 7.40267 7.29306
#
# Compressibility (1/GPa) = 0.01587931
#
# Stress axis : x y z
#
# Youngs Moduli (GPa) = 85.98988 52.11693 44.90871
#
# Poissons Ratio (x) = 0.22664 0.17109
# Poissons Ratio (y) = 0.37394 0.46903
# Poissons Ratio (z) = 0.32761 0.54431
#
# Static dielectric constant tensor:
#      x y z
#    x 1.584800 0.000000 0.000000 
#    y 0.000000 1.583360 0.000000 
#    z 0.000000 0.000000 1.574920 
# 
# From -- ./inp_files/4150.got.cif
#   From: 2010.05.17/outbox.cif.g08.bks.cpg/sg37_3_cif.got.tgz:4150.got - 2010.06.03 17:53:42.
