data_PCOD9353395
_publ_section_title
;
Structure prediction by ZEFSAII (Michael W. Deem and Ramdas Pophale) SiO2 
 PCOD9353395
Probable space group: C M C 21
;
_chemical_formula_sum "Si O2"
_cell_formula_units_Z 24
_cell_length_a 9.000000
_cell_length_b 18.000000
_cell_length_c 15.000000
_cell_angle_alpha 90.000000
_cell_angle_beta 90.000000
_cell_angle_gamma 90.000000
_cell_volume 2430.000000
_symmetry_space_group_name_H-M "C M C 21"
_symmetry_group_IT_number 36
_symmetry_cell_setting 'orthorhombic'
loop_
_space_group_symop_operation_xyz
x,y,z
-x,-y,1/2+z
x,-y,1/2+z
-x,y,z
1/2+x,1/2+y,z
1/2-x,1/2-y,1/2+z
1/2+x,1/2-y,1/2+z
1/2-x,1/2+y,z
loop_
_atom_site_type_symbol
_atom_site_label
_atom_site_fract_x
_atom_site_fract_y
_atom_site_fract_z
Si Si1 0.178965 0.146478 0.936080
Si Si2 0.669931 0.837345 0.251890
Si Si3 0.668958 0.690994 0.137831
Si Si4 0.823912 0.949416 0.120185
Si Si5 0.320900 0.981717 0.937576
Si Si6 0.825920 0.429134 0.736341
O O1 0.257943 0.180981 0.848219
O O2 0.000000 0.145534 0.924164
O O3 0.243970 0.062711 0.940081
O O4 0.209372 0.184351 0.032830
O O5 0.500000 0.865111 0.267696
O O6 0.660056 0.772251 0.179628
O O7 0.771352 0.895778 0.199733
O O8 0.500000 0.659278 0.145651
O O9 0.786231 0.652734 0.204027
O O10 0.000000 0.947046 0.107218
O O11 0.768655 0.026277 0.162898
O O12 0.743033 0.939059 0.024557
O O13 0.500000 0.987625 0.945575
O O14 0.287864 0.946455 0.839747
O O15 0.000000 0.446003 0.725363
#
# Coordination Sequence:
#
# PCOD9353395 Si02
#       6
#     8   8   8   8   8   8
#     4  11  22  39  64  93 124 166 212 262 319 378
#     4  11  24  43  64  91 129 170 210 261 318 379
#     4  10  24  43  64  91 128 167 209 262 317 375
#     4  12  24  39  63  93 125 163 211 263 310 369
#     4  11  23  39  63  95 128 166 210 262 316 373
#     4  11  23  39  64  93 124 162 208 258 312 374
#
# _framework density 9.8765429999999999
#
# number of rings (size 3 to 8) (size 9 to 14) (size 15 to 20)
#    0.000    1.000    3.333    3.500    0.000    5.333 
#    0.000    5.000    0.000    0.000    0.000    0.000 
#    0.000    0.000    0.000    0.000    0.000    0.000 
#
# Total GULP energy -133895.630223 kJ/mol
# GULP energy per Si atom -5578.984593 kJ/mol
# Density = 0.985406 g / cm^3
# Si number density = 9.876543 Si / 1000 Ang^3
#
#
#
# Elastic Constant Matrix: (Units=GPa)
#
#
# Indices 1 2 3 4 5 6 
#
# 1 107.4151 1.6138 42.3187 0.0000 0.0000 0.0000
# 2 1.6138 20.0518 -2.5378 0.0000 0.0000 0.0000
# 3 42.3187 -2.5378 151.2241 0.0000 0.0000 0.0000
# 4 0.0000 0.0000 0.0000 31.3786 0.0000 0.0000
# 5 0.0000 0.0000 0.0000 0.0000 40.0720 0.0000
# 6 0.0000 0.0000 0.0000 0.0000 0.0000 21.6692
#
#
#
# Elastic Compliance Matrix: (Units=1/GPa)
#
#
# Indices 1 2 3 4 5 6 
#
# 1 0.010493 -0.001219 -0.002957 0.000000 0.000000 0.000000
# 2 -0.001219 0.050119 0.001182 0.000000 0.000000 0.000000
# 3 -0.002957 0.001182 0.007460 0.000000 0.000000 0.000000
# 4 0.000000 0.000000 0.000000 0.031869 0.000000 0.000000
# 5 0.000000 0.000000 0.000000 0.000000 0.024955 0.000000
# 6 0.000000 0.000000 0.000000 0.000000 0.000000 0.046148
#
#
# Mechanical properties :
#
#
# Convention : Reuss Voigt Hill
#
# Bulk Modulus (GPa) = 16.10704 40.16448 28.13576
# Shear Modulus (GPa) = 25.28760 34.44373 29.86566
#
# Velocity S-wave (km/s) = 3.58185 4.18031 3.89260
# Velocity P-wave (km/s) = 5.02773 6.60889 5.87177
#
# Compressibility (1/GPa) = 0.06208466
#
# Stress axis : x y z
#
# Youngs Moduli (GPa) = 95.30263 19.95269 134.04870
#
# Poissons Ratio (x) = 0.02432 0.39635
# Poissons Ratio (y) = 0.11615 -0.15846
# Poissons Ratio (z) = 0.28179 -0.02359
#
# Static dielectric constant tensor:
#      x y z
#    x 1.697430 0.000000 0.000000 
#    y 0.000000 1.796770 0.000000 
#    z 0.000000 0.000000 1.661250 
# 
# From -- ./inp_files/10402.got.cif
#   From: 2010.05.17/outbox.ucp.g08.bks.cvg/sg36_6_cif.got.tgz:10402.got - 2010.06.11 10:37:26.
