data_PCOD9353380
_publ_section_title
;
Structure prediction by ZEFSAII (Michael W. Deem and Ramdas Pophale) SiO2 
 PCOD9353380
Probable space group: C M C 21
;
_chemical_formula_sum "Si O2"
_cell_formula_units_Z 24
_cell_length_a 9.000000
_cell_length_b 30.000000
_cell_length_c 9.000000
_cell_angle_alpha 90.000000
_cell_angle_beta 90.000000
_cell_angle_gamma 90.000000
_cell_volume 2430.000000
_symmetry_space_group_name_H-M "C M C 21"
_symmetry_group_IT_number 36
_symmetry_cell_setting 'orthorhombic'
loop_
_space_group_symop_operation_xyz
x,y,z
-x,-y,1/2+z
x,-y,1/2+z
-x,y,z
1/2+x,1/2+y,z
1/2-x,1/2-y,1/2+z
1/2+x,1/2-y,1/2+z
1/2-x,1/2+y,z
loop_
_atom_site_type_symbol
_atom_site_label
_atom_site_fract_x
_atom_site_fract_y
_atom_site_fract_z
Si Si1 0.676390 0.885340 0.954680
Si Si2 0.176944 0.726447 0.985349
Si Si3 0.322166 0.691485 0.287297
Si Si4 0.321670 0.020162 0.582025
Si Si5 0.823722 0.640622 0.792239
Si Si6 0.677563 0.446538 0.388576
O O1 0.500000 0.879949 0.931487
O O2 0.761694 0.857079 0.831611
O O3 0.707172 0.938136 0.969920
O O4 0.713695 0.865453 0.118488
O O5 0.223993 0.773887 0.917871
O O6 0.201208 0.689523 0.856883
O O7 0.000000 0.728038 0.015285
O O8 0.258558 0.710255 0.133157
O O9 0.500000 0.691111 0.280370
O O10 0.500000 0.017138 0.602173
O O11 0.243627 0.033272 0.735660
O O12 0.253292 0.975216 0.517719
O O13 0.731035 0.604579 0.885181
O O14 0.000000 0.630062 0.806030
O O15 0.500000 0.449764 0.393186
#
# Coordination Sequence:
#
# PCOD9353380 Si02
#       6
#     8   8   8   8   8   8
#     4   9  19  37  60  82 108 145 186 227 271 327
#     4  10  22  39  58  81 111 148 186 224 270 330
#     4  11  23  37  57  85 113 143 182 229 278 325
#     4  10  21  39  60  81 111 155 195 224 272 344
#     4   9  19  38  60  80 108 149 191 225 270 338
#     4  11  22  36  57  87 117 144 184 241 291 324
#
# _framework density 9.8765429999999999
#
# number of rings (size 3 to 8) (size 9 to 14) (size 15 to 20)
#    0.000    2.000    0.000    4.500    0.000    8.000 
#    0.000    1.667    0.000    0.000    0.000    0.000 
#    0.000    0.000    0.000    0.000    0.000    0.000 
#
# Total GULP energy -134116.047125 kJ/mol
# GULP energy per Si atom -5588.168630 kJ/mol
# Density = 0.985406 g / cm^3
# Si number density = 9.876543 Si / 1000 Ang^3
#
#
#
# Elastic Constant Matrix: (Units=GPa)
#
#
# Indices 1 2 3 4 5 6 
#
# 1 51.2336 11.4397 -2.9366 0.0000 0.0000 0.0000
# 2 11.4397 35.3529 -21.8587 0.0000 0.0000 0.0000
# 3 -2.9366 -21.8587 11.0879 0.0000 0.0000 0.0000
# 4 0.0000 0.0000 0.0000 33.9463 0.0000 0.0000
# 5 0.0000 0.0000 0.0000 0.0000 32.7887 0.0000
# 6 0.0000 0.0000 0.0000 0.0000 0.0000 22.3303
#
#
#
# Elastic Compliance Matrix: (Units=1/GPa)
#
#
# Indices 1 2 3 4 5 6 
#
# 1 0.018321 0.013376 0.031223 0.000000 0.000000 0.000000
# 2 0.013376 -0.119445 -0.231931 0.000000 0.000000 0.000000
# 3 0.031223 -0.231931 -0.358770 0.000000 0.000000 0.000000
# 4 0.000000 0.000000 0.000000 0.029458 0.000000 0.000000
# 5 0.000000 0.000000 0.000000 0.000000 0.030498 0.000000
# 6 0.000000 0.000000 0.000000 0.000000 0.000000 0.044782
#
#
# Mechanical properties :
#
#
# Convention : Reuss Voigt Hill
#
# Bulk Modulus (GPa) = -1.19824 7.88480 3.34328
# Shear Modulus (GPa) = -19.32908 25.21507 2.94299
#
# Velocity S-wave (km/s) = -3.13155 3.57671 1.22193
# Velocity P-wave (km/s) = 3.69911 4.58884 1.92017
#
# Compressibility (1/GPa) = -0.83455782
#
# Stress axis : x y z
#
# Youngs Moduli (GPa) = 54.58130 -8.37205 -2.78730
#
# Poissons Ratio (x) = 0.11199 0.08703
# Poissons Ratio (y) = -0.73010 -0.64646
# Poissons Ratio (z) = -1.70417 -1.94174
#
# Static dielectric constant tensor:
#      x y z
#    x 1.649070 0.000000 0.000000 
#    y 0.000000 1.692690 0.000000 
#    z 0.000000 0.000000 1.692630 
# 
# From -- ./inp_files/2651.got.cif
#   From: 2010.05.17/outbox.ucp.g08.bks.cvg/sg36_2_cif.got.tgz:2651.got - 2010.06.11 10:37:26.
