data_PCOD9353485
_publ_section_title
;
Structure prediction by ZEFSAII (Michael W. Deem and Ramdas Pophale) SiO2 
 PCOD9353485
Probable space group: C C C 2
;
_chemical_formula_sum "Si O2"
_cell_formula_units_Z 60
_cell_length_a 12.784585
_cell_length_b 16.902851
_cell_length_c 14.874159
_cell_angle_alpha 90.000000
_cell_angle_beta 90.000000
_cell_angle_gamma 90.000000
_cell_volume 3214.245302
_symmetry_space_group_name_H-M "C C C 2"
_symmetry_group_IT_number 37
_symmetry_cell_setting 'orthorhombic'
loop_
_space_group_symop_operation_xyz
x,y,z
-x,-y,z
-x,y,1/2+z
x,-y,1/2+z
1/2+x,1/2+y,z
1/2-x,1/2-y,z
1/2-x,1/2+y,1/2+z
1/2+x,1/2-y,1/2+z
loop_
_atom_site_type_symbol
_atom_site_label
_atom_site_fract_x
_atom_site_fract_y
_atom_site_fract_z
Si Si1 0.463032 0.090868 0.555780
Si Si2 0.644707 0.303578 0.148373
Si Si3 0.394747 0.948366 0.343950
Si Si4 0.553423 0.765879 0.822993
Si Si5 0.750000 0.250000 0.453993
Si Si6 0.273338 0.042234 0.671828
Si Si7 0.627225 0.235247 0.955948
Si Si8 0.687884 0.903230 0.039840
O O1 0.377586 0.084620 0.632472
O O2 0.406222 0.144243 0.480586
O O3 0.575509 0.127595 0.577461
O O4 0.500000 0.000000 0.539316
O O5 0.750000 0.250000 0.158403
O O6 0.569204 0.275492 0.227565
O O7 0.681428 0.393984 0.162184
O O8 0.604747 0.283786 0.048186
O O9 0.432562 0.860445 0.316926
O O10 0.307623 0.977138 0.273063
O O11 0.340963 0.941081 0.442002
O O12 0.500000 0.000000 0.342483
O O13 0.649787 0.745262 0.889181
O O14 0.446760 0.743439 0.873278
O O15 0.752954 0.173132 0.515777
O O16 0.262922 0.965953 0.607911
O O17 0.750000 0.250000 0.938213
#
# Coordination Sequence:
#
# PCOD9353485 Si02
#       8
#     8   8   8   8   4   8   8   8
#     4  10  17  31  53  89 129 153 196 263 319 368
#     4  11  19  35  60  88 126 169 215 255 313 397
#     4  11  19  30  53  91 132 157 191 262 326 377
#     4  11  21  36  60  93 129 173 213 256 318 401
#     4  10  18  36  60  88 128 168 210 262 318 382
#     4  11  20  34  57  93 124 163 211 259 317 384
#     4  11  21  34  60  94 130 169 207 260 325 386
#     4  10  21  32  57  92 131 160 206 268 319 377
#
# _framework density 18.666900999999999
#
# number of rings (size 3 to 8) (size 9 to 14) (size 15 to 20)
#    0.000    1.333    7.333    3.200    0.000    0.000 
#    0.000    0.000    1.467    2.400    1.733    1.867 
#    4.000    0.000    0.000    0.000    0.000    0.000 
#
# Total GULP energy -167191.569769 kJ/mol
# GULP energy per Si atom -5573.052326 kJ/mol
# Density = 1.862441 g / cm^3
# Si number density = 18.666901 Si / 1000 Ang^3
#
#
#
# Elastic Constant Matrix: (Units=GPa)
#
#
# Indices 1 2 3 4 5 6 
#
# 1 67.7132 43.5944 33.5998 0.0000 0.0000 0.0000
# 2 43.5944 104.0180 45.1490 0.0000 0.0000 0.0000
# 3 33.5998 45.1490 118.2645 0.0000 0.0000 0.0000
# 4 0.0000 0.0000 0.0000 19.7822 0.0000 0.0000
# 5 0.0000 0.0000 0.0000 0.0000 28.9661 0.0000
# 6 0.0000 0.0000 0.0000 0.0000 0.0000 34.9079
#
#
#
# Elastic Compliance Matrix: (Units=1/GPa)
#
#
# Indices 1 2 3 4 5 6 
#
# 1 0.021160 -0.007502 -0.003148 0.000000 0.000000 0.000000
# 2 -0.007502 0.014183 -0.003283 0.000000 0.000000 0.000000
# 3 -0.003148 -0.003283 0.010603 0.000000 0.000000 0.000000
# 4 0.000000 0.000000 0.000000 0.050550 0.000000 0.000000
# 5 0.000000 0.000000 0.000000 0.000000 0.034523 0.000000
# 6 0.000000 0.000000 0.000000 0.000000 0.000000 0.028647
#
#
# Mechanical properties :
#
#
# Convention : Reuss Voigt Hill
#
# Bulk Modulus (GPa) = 55.30831 59.40914 57.35872
# Shear Modulus (GPa) = 25.83194 27.90808 26.87001
#
# Velocity S-wave (km/s) = 3.72403 3.87079 3.79812
# Velocity P-wave (km/s) = 6.94151 7.20225 7.07308
#
# Compressibility (1/GPa) = 0.01808047
#
# Stress axis : x y z
#
# Youngs Moduli (GPa) = 47.25918 70.50764 94.31036
#
# Poissons Ratio (x) = 0.52894 0.29686
# Poissons Ratio (y) = 0.35454 0.30963
# Poissons Ratio (z) = 0.14876 0.23149
#
# Static dielectric constant tensor:
#      x y z
#    x 1.668630 0.000000 0.000000 
#    y 0.000000 1.762970 0.000000 
#    z 0.000000 0.000000 1.700710 
# 
# From -- ./inp_files/11751.got.cif
#   From: 2010.05.17/outbox.cif.g08.bks.cpg/sg37_6_cif.got.tgz:11751.got - 2010.06.03 17:53:42.
