data_PCOD9353826
_publ_section_title
;
Structure prediction by ZEFSAII (Michael W. Deem and Ramdas Pophale) SiO2 
 PCOD9353826
Probable space group: C C C 2
;
_chemical_formula_sum "Si O2"
_cell_formula_units_Z 60
_cell_length_a 9.631028
_cell_length_b 22.222513
_cell_length_c 13.472409
_cell_angle_alpha 90.000000
_cell_angle_beta 90.000000
_cell_angle_gamma 90.000000
_cell_volume 2883.441025
_symmetry_space_group_name_H-M "C C C 2"
_symmetry_group_IT_number 37
_symmetry_cell_setting 'orthorhombic'
loop_
_space_group_symop_operation_xyz
x,y,z
-x,-y,z
-x,y,1/2+z
x,-y,1/2+z
1/2+x,1/2+y,z
1/2-x,1/2-y,z
1/2-x,1/2+y,1/2+z
1/2+x,1/2-y,1/2+z
loop_
_atom_site_type_symbol
_atom_site_label
_atom_site_fract_x
_atom_site_fract_y
_atom_site_fract_z
Si Si1 0.760065 0.913122 0.656210
Si Si2 0.000000 0.000000 0.618129
Si Si3 0.426152 0.101756 0.847061
Si Si4 0.782399 0.430201 0.924590
Si Si5 0.413840 0.763997 0.283639
Si Si6 0.538964 0.656579 0.395578
Si Si7 0.623738 0.713269 0.585782
Si Si8 0.832514 0.943079 0.942316
O O1 0.649942 0.917732 0.744725
O O2 0.703364 0.927922 0.545021
O O3 0.816873 0.844695 0.645820
O O4 0.888360 0.958657 0.672747
O O5 0.910587 0.044324 0.546151
O O6 0.571072 0.070445 0.870780
O O7 0.448364 0.172956 0.833555
O O8 0.318876 0.087064 0.936082
O O9 0.690258 0.373039 0.893919
O O10 0.694326 0.489974 0.901466
O O11 0.250000 0.750000 0.302970
O O12 0.507471 0.710067 0.322607
O O13 0.433491 0.760677 0.165053
O O14 0.522662 0.686001 0.504729
O O15 0.430471 0.602580 0.383556
O O16 0.750000 0.750000 0.535089
#
# Coordination Sequence:
#
# PCOD9353826 Si02
#       8
#     8   4   8   8   8   8   8   8
#     4  10  20  41  66  94 130 174 219 267 335 386
#     4  10  20  40  68 100 122 168 234 282 308 398
#     4  12  24  39  64  95 137 175 209 271 343 397
#     4  10  24  42  66  95 131 171 217 275 331 397
#     4  11  22  37  61  95 130 166 218 269 318 395
#     4  11  21  39  70  92 121 176 223 264 327 388
#     4  10  19  37  62  93 127 171 210 267 322 388
#     4  11  19  42  65  93 124 163 225 273 322 380
#
# _framework density 20.808471000000001
#
# number of rings (size 3 to 8) (size 9 to 14) (size 15 to 20)
#    0.000    1.333    8.000    0.400    3.733    0.533 
#    2.400    6.667    2.933    0.000    0.000    0.000 
#    0.000    0.000    0.000    0.000    0.000    0.000 
#
# Total GULP energy -167442.255309 kJ/mol
# GULP energy per Si atom -5581.408510 kJ/mol
# Density = 2.076111 g / cm^3
# Si number density = 20.808471 Si / 1000 Ang^3
#
#
#
# Elastic Constant Matrix: (Units=GPa)
#
#
# Indices 1 2 3 4 5 6 
#
# 1 105.2665 29.5877 34.3324 0.0000 0.0000 0.0000
# 2 29.5877 102.7610 26.3384 0.0000 0.0000 0.0000
# 3 34.3324 26.3384 61.9225 0.0000 0.0000 0.0000
# 4 0.0000 0.0000 0.0000 8.2108 0.0000 0.0000
# 5 0.0000 0.0000 0.0000 0.0000 32.5818 0.0000
# 6 0.0000 0.0000 0.0000 0.0000 0.0000 32.4218
#
#
#
# Elastic Compliance Matrix: (Units=1/GPa)
#
#
# Indices 1 2 3 4 5 6 
#
# 1 0.011936 -0.001954 -0.005787 0.000000 0.000000 0.000000
# 2 -0.001954 0.011242 -0.003699 0.000000 0.000000 0.000000
# 3 -0.005787 -0.003699 0.020931 0.000000 0.000000 0.000000
# 4 0.000000 0.000000 0.000000 0.121790 0.000000 0.000000
# 5 0.000000 0.000000 0.000000 0.000000 0.030692 0.000000
# 6 0.000000 0.000000 0.000000 0.000000 0.000000 0.030843
#
#
# Mechanical properties :
#
#
# Convention : Reuss Voigt Hill
#
# Bulk Modulus (GPa) = 47.10134 50.05187 48.57661
# Shear Modulus (GPa) = 19.42581 26.62232 23.02407
#
# Velocity S-wave (km/s) = 3.05872 3.58075 3.32998
# Velocity P-wave (km/s) = 5.92952 6.41884 6.17902
#
# Compressibility (1/GPa) = 0.02123082
#
# Stress axis : x y z
#
# Youngs Moduli (GPa) = 83.77880 88.95418 47.77620
#
# Poissons Ratio (x) = 0.17377 0.27648
# Poissons Ratio (y) = 0.16366 0.17670
# Poissons Ratio (z) = 0.48483 0.32900
#
# Static dielectric constant tensor:
#      x y z
#    x 1.739320 0.000000 0.000000 
#    y 0.000000 1.761930 0.000000 
#    z 0.000000 0.000000 1.796290 
# 
# From -- ./inp_files/10963.got.cif
#   From: 2010.05.17/outbox.cif.g08.bks.cpg/sg37_6_cif.got.tgz:10963.got - 2010.06.03 17:53:42.
