data_PCOD9353390
_publ_section_title
;
Structure prediction by ZEFSAII (Michael W. Deem and Ramdas Pophale) SiO2 
 PCOD9353390
Probable space group: C M C 21
;
_chemical_formula_sum "Si O2"
_cell_formula_units_Z 26
_cell_length_a 15.000000
_cell_length_b 21.000000
_cell_length_c 9.000000
_cell_angle_alpha 90.000000
_cell_angle_beta 90.000000
_cell_angle_gamma 90.000000
_cell_volume 2835.000000
_symmetry_space_group_name_H-M "C M C 21"
_symmetry_group_IT_number 36
_symmetry_cell_setting 'orthorhombic'
loop_
_space_group_symop_operation_xyz
x,y,z
-x,-y,1/2+z
x,-y,1/2+z
-x,y,z
1/2+x,1/2+y,z
1/2-x,1/2-y,1/2+z
1/2+x,1/2-y,1/2+z
1/2-x,1/2+y,z
loop_
_atom_site_type_symbol
_atom_site_label
_atom_site_fract_x
_atom_site_fract_y
_atom_site_fract_z
Si Si1 0.286810 0.961743 0.514870
Si Si2 0.270931 0.182428 0.663228
Si Si3 0.702630 0.320223 0.506569
Si Si4 0.607067 0.064547 0.718641
Si Si5 0.000000 0.058679 0.723158
Si Si6 0.000000 0.146066 0.991564
Si Si7 0.000000 0.078073 0.287695
Si Si8 0.655203 0.577703 0.493346
O O1 0.240967 0.892018 0.555880
O O2 0.356437 0.944176 0.385691
O O3 0.341729 0.006368 0.631909
O O4 0.213013 0.014036 0.458381
O O5 0.272620 0.254852 0.597010
O O6 0.234093 0.185313 0.833418
O O7 0.359199 0.135875 0.669972
O O8 0.210304 0.137063 0.558109
O O9 0.594930 0.320596 0.513675
O O10 0.500000 0.059159 0.705788
O O11 0.087535 0.057847 0.623595
O O12 0.000000 0.119624 0.825960
O O13 0.000000 0.996446 0.822687
O O14 0.000000 0.090233 0.114124
O O15 0.908796 0.101988 0.361286
#
# Coordination Sequence:
#
# PCOD9353390 Si02
#       8
#     8   8   8   8   4   4   4   8
#     4  10  22  39  66  93 123 160 204 253 314 374
#     4  10  24  42  64  85 126 166 211 254 313 373
#     4  11  24  42  63  91 124 166 203 260 312 374
#     4  10  22  41  66  91 122 160 212 265 306 360
#     4  11  19  39  59  91 133 156 190 253 308 373
#     4  12  24  36  64  94 126 156 212 248 308 385
#     4  11  23  31  63  97 127 156 198 241 308 384
#     4  10  22  40  60  92 128 163 199 251 315 370
#
# _framework density 9.1710759999999993
#
# number of rings (size 3 to 8) (size 9 to 14) (size 15 to 20)
#    0.000    1.538    1.538    3.231    9.692    1.231 
#    0.000    0.000   13.538    0.000    0.000    0.000 
#    0.000    0.000    0.000    0.000    0.000    0.000 
#
# Total GULP energy -144808.394864 kJ/mol
# GULP energy per Si atom -5569.553649 kJ/mol
# Density = 0.915020 g / cm^3
# Si number density = 9.171076 Si / 1000 Ang^3
#
#
#
# Elastic Constant Matrix: (Units=GPa)
#
#
# Indices 1 2 3 4 5 6 
#
# 1 133.6700 46.8864 26.4304 0.0000 0.0000 0.0000
# 2 46.8864 142.7770 27.7702 0.0000 0.0000 0.0000
# 3 26.4304 27.7702 56.2427 0.0000 0.0000 0.0000
# 4 0.0000 0.0000 0.0000 38.7278 0.0000 0.0000
# 5 0.0000 0.0000 0.0000 0.0000 24.6769 0.0000
# 6 0.0000 0.0000 0.0000 0.0000 0.0000 24.1758
#
#
#
# Elastic Compliance Matrix: (Units=1/GPa)
#
#
# Indices 1 2 3 4 5 6 
#
# 1 0.008898 -0.002333 -0.003030 0.000000 0.000000 0.000000
# 2 -0.002333 0.008360 -0.003031 0.000000 0.000000 0.000000
# 3 -0.003030 -0.003031 0.020701 0.000000 0.000000 0.000000
# 4 0.000000 0.000000 0.000000 0.025821 0.000000 0.000000
# 5 0.000000 0.000000 0.000000 0.000000 0.040524 0.000000
# 6 0.000000 0.000000 0.000000 0.000000 0.000000 0.041364
#
#
# Mechanical properties :
#
#
# Convention : Reuss Voigt Hill
#
# Bulk Modulus (GPa) = 47.23510 59.42929 53.33220
# Shear Modulus (GPa) = 29.49639 32.95628 31.22634
#
# Velocity S-wave (km/s) = 4.01449 4.24341 4.13053
# Velocity P-wave (km/s) = 6.87723 7.51528 7.20332
#
# Compressibility (1/GPa) = 0.02117070
#
# Stress axis : x y z
#
# Youngs Moduli (GPa) = 112.37888 119.62279 48.30767
#
# Poissons Ratio (x) = 0.27906 0.14636
# Poissons Ratio (y) = 0.26216 0.14644
# Poissons Ratio (z) = 0.34049 0.36262
#
# Static dielectric constant tensor:
#      x y z
#    x 1.662930 0.000000 0.000000 
#    y 0.000000 1.614740 0.000000 
#    z 0.000000 0.000000 1.658980 
# 
# From -- ./inp_files/4166.got.cif
#   From: 2010.05.17/outbox.ucp.g08.bks.cvg/sg36_3_cif.got.tgz:4166.got - 2010.06.11 10:37:26.
