data_PCOD9353837
_publ_section_title
;
Structure prediction by ZEFSAII (Michael W. Deem and Ramdas Pophale) SiO2 
 PCOD9353837
Probable space group: C C C 2
;
_chemical_formula_sum "Si O2"
_cell_formula_units_Z 60
_cell_length_a 14.163333
_cell_length_b 24.243592
_cell_length_c 9.194038
_cell_angle_alpha 90.000000
_cell_angle_beta 90.000000
_cell_angle_gamma 90.000000
_cell_volume 3156.957440
_symmetry_space_group_name_H-M "C C C 2"
_symmetry_group_IT_number 37
_symmetry_cell_setting 'orthorhombic'
loop_
_space_group_symop_operation_xyz
x,y,z
-x,-y,z
-x,y,1/2+z
x,-y,1/2+z
1/2+x,1/2+y,z
1/2-x,1/2-y,z
1/2-x,1/2+y,1/2+z
1/2+x,1/2-y,1/2+z
loop_
_atom_site_type_symbol
_atom_site_label
_atom_site_fract_x
_atom_site_fract_y
_atom_site_fract_z
Si Si1 0.000000 0.500000 0.621080
Si Si2 0.026849 0.676846 0.847922
Si Si3 0.544227 0.253648 0.581043
Si Si4 0.131497 0.474926 0.375499
Si Si5 0.706540 0.876104 0.504356
Si Si6 0.795438 0.188896 0.455839
Si Si7 0.834342 0.795404 0.630340
Si Si8 0.154041 0.603942 0.341151
O O1 0.060873 0.463739 0.510834
O O2 0.073433 0.530720 0.726250
O O3 0.952907 0.626893 0.831060
O O4 0.063006 0.707011 0.702678
O O5 0.116552 0.657815 0.942528
O O6 0.961788 0.722029 0.927989
O O7 0.619452 0.303331 0.570631
O O8 0.437230 0.273122 0.600110
O O9 0.211859 0.430567 0.404896
O O10 0.157233 0.539483 0.381986
O O11 0.799689 0.838986 0.510475
O O12 0.690548 0.889406 0.675317
O O13 0.750000 0.250000 0.463961
O O14 0.837549 0.181934 0.294303
O O15 0.715819 0.141143 0.453159
O O16 0.750000 0.750000 0.630736
#
# Coordination Sequence:
#
# PCOD9353837 Si02
#       8
#     4   8   8   8   8   8   8   8
#     4  10  20  36  54  80 126 146 198 238 302 344
#     4  12  21  36  59  86 120 156 191 236 298 362
#     4  12  21  38  59  89 120 151 197 249 294 363
#     4  11  22  37  54  85 116 164 199 251 291 370
#     4  11  23  38  60  84 118 166 202 241 301 365
#     4  10  20  39  58  83 113 159 194 239 303 363
#     4  10  19  38  60  81 115 156 196 239 304 362
#     4  11  22  38  61  82 121 164 202 240 302 368
#
# _framework density 19.005642000000002
#
# number of rings (size 3 to 8) (size 9 to 14) (size 15 to 20)
#    0.000    1.067    6.667    2.400    0.000    1.067 
#    2.400    0.000    0.000    0.800    0.000    3.733 
#    0.000    0.000    0.000    0.000    0.000    0.000 
#
# Total GULP energy -167222.552941 kJ/mol
# GULP energy per Si atom -5574.085098 kJ/mol
# Density = 1.896238 g / cm^3
# Si number density = 19.005642 Si / 1000 Ang^3
#
#
#
# Elastic Constant Matrix: (Units=GPa)
#
#
# Indices 1 2 3 4 5 6 
#
# 1 85.1458 43.0375 20.0404 0.0000 0.0000 0.0000
# 2 43.0375 95.3691 26.0477 0.0000 0.0000 0.0000
# 3 20.0404 26.0477 70.9111 0.0000 0.0000 0.0000
# 4 0.0000 0.0000 0.0000 26.2887 0.0000 0.0000
# 5 0.0000 0.0000 0.0000 0.0000 14.4960 0.0000
# 6 0.0000 0.0000 0.0000 0.0000 0.0000 24.6554
#
#
#
# Elastic Compliance Matrix: (Units=1/GPa)
#
#
# Indices 1 2 3 4 5 6 
#
# 1 0.015468 -0.006432 -0.002009 0.000000 0.000000 0.000000
# 2 -0.006432 0.014329 -0.003446 0.000000 0.000000 0.000000
# 3 -0.002009 -0.003446 0.015936 0.000000 0.000000 0.000000
# 4 0.000000 0.000000 0.000000 0.038039 0.000000 0.000000
# 5 0.000000 0.000000 0.000000 0.000000 0.068984 0.000000
# 6 0.000000 0.000000 0.000000 0.000000 0.000000 0.040559
#
#
# Mechanical properties :
#
#
# Convention : Reuss Voigt Hill
#
# Bulk Modulus (GPa) = 45.53712 47.74190 46.63951
# Shear Modulus (GPa) = 22.28073 23.90805 23.09439
#
# Velocity S-wave (km/s) = 3.42763 3.55060 3.48966
# Velocity P-wave (km/s) = 6.29894 6.47946 6.38984
#
# Compressibility (1/GPa) = 0.02196011
#
# Stress axis : x y z
#
# Youngs Moduli (GPa) = 64.64791 69.78752 62.75225
#
# Poissons Ratio (x) = 0.44886 0.12607
# Poissons Ratio (y) = 0.41580 0.21623
# Poissons Ratio (z) = 0.12988 0.24048
#
# Static dielectric constant tensor:
#      x y z
#    x 1.722740 0.000000 0.000000 
#    y 0.000000 1.744940 0.000000 
#    z 0.000000 0.000000 1.693430 
# 
# From -- ./inp_files/3719.got.cif
#   From: 2010.05.17/outbox.cif.g08.bks.cpg/sg37_2_cif.got.tgz:3719.got - 2010.06.03 17:53:42.
