data_PCOD9353425
_publ_section_title
;
Structure prediction by ZEFSAII (Michael W. Deem and Ramdas Pophale) SiO2 
 PCOD9353425
Probable space group: C C C 2
;
_chemical_formula_sum "Si O2"
_cell_formula_units_Z 48
_cell_length_a 7.002680
_cell_length_b 19.678576
_cell_length_c 12.982517
_cell_angle_alpha 90.000000
_cell_angle_beta 90.000000
_cell_angle_gamma 90.000000
_cell_volume 1789.026812
_symmetry_space_group_name_H-M "C C C 2"
_symmetry_group_IT_number 37
_symmetry_cell_setting 'orthorhombic'
loop_
_space_group_symop_operation_xyz
x,y,z
-x,-y,z
-x,y,1/2+z
x,-y,1/2+z
1/2+x,1/2+y,z
1/2-x,1/2-y,z
1/2-x,1/2+y,1/2+z
1/2+x,1/2-y,1/2+z
loop_
_atom_site_type_symbol
_atom_site_label
_atom_site_fract_x
_atom_site_fract_y
_atom_site_fract_z
Si Si1 0.225183 0.082621 0.996630
Si Si2 0.000000 0.500000 0.140521
Si Si3 0.255981 0.522669 0.817937
Si Si4 0.411105 0.639547 0.684317
Si Si5 0.750000 0.750000 0.471078
Si Si6 0.491408 0.220614 0.165418
Si Si7 0.008466 0.353684 0.857773
O O1 0.185920 0.024729 0.912046
O O2 0.312733 0.144746 0.933198
O O3 0.398722 0.055357 0.069085
O O4 0.054058 0.103888 0.073183
O O5 0.174445 0.517392 0.218060
O O6 0.395441 0.579180 0.766549
O O7 0.083975 0.571338 0.856357
O O8 0.518770 0.706102 0.720763
O O9 0.213306 0.681881 0.658180
O O10 0.579594 0.760223 0.555350
O O11 0.671936 0.807689 0.393011
O O12 0.579831 0.167750 0.245646
#
# Coordination Sequence:
#
# PCOD9353425 Si02
#       7
#     8   4   8   8   4   8   8
#     4  11  18  31  58  95 122 156 206 271 319 387
#     4  10  16  26  50  90 126 148 204 260 316 360
#     4  10  18  30  56  91 123 160 201 272 322 377
#     4   9  20  38  60  88 132 157 213 272 328 380
#     4  12  24  40  68  90 130 176 224 270 344 390
#     4  10  22  42  61  92 124 177 213 274 326 391
#     4  11  20  36  58  92 124 161 221 270 311 391
#
# _framework density 26.830228999999999
#
# number of rings (size 3 to 8) (size 9 to 14) (size 15 to 20)
#    0.000    1.667    5.000    2.000    0.000    0.000 
#    3.000    0.000    0.000    1.000   13.000    0.000 
#    0.000    0.000    0.000    0.000    0.000    0.000 
#
# Total GULP energy -133646.339993 kJ/mol
# GULP energy per Si atom -5568.597500 kJ/mol
# Density = 2.676916 g / cm^3
# Si number density = 26.830229 Si / 1000 Ang^3
#
#
#
# Elastic Constant Matrix: (Units=GPa)
#
#
# Indices 1 2 3 4 5 6 
#
# 1 60.3962 11.4317 -1.4559 0.0000 0.0000 0.0000
# 2 11.4317 166.0445 60.1820 0.0000 0.0000 0.0000
# 3 -1.4559 60.1820 109.1960 0.0000 0.0000 0.0000
# 4 0.0000 0.0000 0.0000 46.4420 0.0000 0.0000
# 5 0.0000 0.0000 0.0000 0.0000 28.8133 0.0000
# 6 0.0000 0.0000 0.0000 0.0000 0.0000 16.2016
#
#
#
# Elastic Compliance Matrix: (Units=1/GPa)
#
#
# Indices 1 2 3 4 5 6 
#
# 1 0.016878 -0.001554 0.001081 0.000000 0.000000 0.000000
# 2 -0.001554 0.007669 -0.004247 0.000000 0.000000 0.000000
# 3 0.001081 -0.004247 0.011513 0.000000 0.000000 0.000000
# 4 0.000000 0.000000 0.000000 0.021532 0.000000 0.000000
# 5 0.000000 0.000000 0.000000 0.000000 0.034706 0.000000
# 6 0.000000 0.000000 0.000000 0.000000 0.000000 0.061722
#
#
# Mechanical properties :
#
#
# Convention : Reuss Voigt Hill
#
# Bulk Modulus (GPa) = 37.56586 52.88361 45.22473
# Shear Modulus (GPa) = 29.01356 35.98998 32.50177
#
# Velocity S-wave (km/s) = 3.29200 3.66648 3.48427
# Velocity P-wave (km/s) = 5.33679 6.13819 5.75147
#
# Compressibility (1/GPa) = 0.02661992
#
# Stress axis : x y z
#
# Youngs Moduli (GPa) = 59.25037 130.39702 86.85743
#
# Poissons Ratio (x) = 0.20263 -0.09393
# Poissons Ratio (y) = 0.09207 0.36891
# Poissons Ratio (z) = -0.06408 0.55384
#
# Static dielectric constant tensor:
#      x y z
#    x 2.320360 0.000000 0.000000 
#    y 0.000000 2.206070 0.000000 
#    z 0.000000 0.000000 2.163830 
# 
# From -- ./inp_files/10876.got.cif
#   From: 2010.05.17/outbox.cif.g08.bks.cpg/sg37_6_cif.got.tgz:10876.got - 2010.06.03 17:53:42.
