data_PCOD9353055
_publ_section_title
;
Structure prediction by ZEFSAII (Michael W. Deem and Ramdas Pophale) SiO2 
 PCOD9353055
Probable space group: C M C 21
;
_chemical_formula_sum "Si O2"
_cell_formula_units_Z 32
_cell_length_a 19.231534
_cell_length_b 9.182605
_cell_length_c 7.008385
_cell_angle_alpha 90.000000
_cell_angle_beta 90.000000
_cell_angle_gamma 90.000000
_cell_volume 1237.649816
_symmetry_space_group_name_H-M "C M C 21"
_symmetry_group_IT_number 36
_symmetry_cell_setting 'orthorhombic'
loop_
_space_group_symop_operation_xyz
x,y,z
-x,-y,1/2+z
x,-y,1/2+z
-x,y,z
1/2+x,1/2+y,z
1/2-x,1/2-y,1/2+z
1/2+x,1/2-y,1/2+z
1/2-x,1/2+y,z
loop_
_atom_site_type_symbol
_atom_site_label
_atom_site_fract_x
_atom_site_fract_y
_atom_site_fract_z
Si Si1 0.500000 0.025361 0.110811
Si Si2 0.634540 0.382220 0.315843
Si Si3 0.854860 0.343748 0.507266
Si Si4 0.500000 0.738313 0.959382
Si Si5 0.290990 0.670957 0.177024
O O1 0.575971 0.058008 0.012665
O O2 0.500000 0.139397 0.288582
O O3 0.500000 0.848922 0.138437
O O4 0.621874 0.303639 0.115638
O O5 0.564532 0.367756 0.435230
O O6 0.685732 0.298259 0.460410
O O7 0.669259 0.533486 0.265261
O O8 0.788563 0.381512 0.642087
O O9 0.821290 0.303091 0.304064
#
# Coordination Sequence:
#
# PCOD9353055 Si02
#       5
#     4   8   8   4   8
#     4  10  26  47  71 102 152 191 251 308 370 445
#     4  11  25  44  70 106 144 193 246 306 373 441
#     4  11  25  45  72 109 145 197 253 303 377 442
#     4  10  26  47  67 108 146 195 251 306 378 447
#     4  12  24  44  75 104 150 196 246 314 366 454
#
# _framework density 25.855457999999999
#
# number of rings (size 3 to 8) (size 9 to 14) (size 15 to 20)
#    0.000    1.000    5.000    0.000    3.500    8.000 
#    0.000    0.000    0.000    0.000    0.000    0.000 
#    0.000    0.000    0.000    0.000    0.000    0.000 
#
# Total GULP energy -89207.389109 kJ/mol
# GULP energy per Si atom -5575.461819 kJ/mol
# Density = 2.579661 g / cm^3
# Si number density = 25.855458 Si / 1000 Ang^3
#
#
#
# Elastic Constant Matrix: (Units=GPa)
#
#
# Indices 1 2 3 4 5 6 
#
# 1 207.4321 47.1035 12.0224 0.0000 0.0000 0.0000
# 2 47.1035 83.2083 23.3303 0.0000 0.0000 0.0000
# 3 12.0224 23.3303 107.8453 0.0000 0.0000 0.0000
# 4 0.0000 0.0000 0.0000 37.6349 0.0000 0.0000
# 5 0.0000 0.0000 0.0000 0.0000 26.6856 0.0000
# 6 0.0000 0.0000 0.0000 0.0000 0.0000 35.6676
#
#
#
# Elastic Compliance Matrix: (Units=1/GPa)
#
#
# Indices 1 2 3 4 5 6 
#
# 1 0.005532 -0.003150 0.000065 0.000000 0.000000 0.000000
# 2 -0.003150 0.014588 -0.002805 0.000000 0.000000 0.000000
# 3 0.000065 -0.002805 0.009872 0.000000 0.000000 0.000000
# 4 0.000000 0.000000 0.000000 0.026571 0.000000 0.000000
# 5 0.000000 0.000000 0.000000 0.000000 0.037473 0.000000
# 6 0.000000 0.000000 0.000000 0.000000 0.000000 0.028037
#
#
# Mechanical properties :
#
#
# Convention : Reuss Voigt Hill
#
# Bulk Modulus (GPa) = 54.90804 62.59979 58.75392
# Shear Modulus (GPa) = 35.73379 41.06627 38.40003
#
# Velocity S-wave (km/s) = 3.72164 3.98967 3.85799
# Velocity P-wave (km/s) = 6.30477 6.74443 6.52830
#
# Compressibility (1/GPa) = 0.01821227
#
# Stress axis : x y z
#
# Youngs Moduli (GPa) = 180.75332 68.55149 101.29613
#
# Poissons Ratio (x) = 0.21594 -0.00655
# Poissons Ratio (y) = 0.56937 0.28409
# Poissons Ratio (z) = -0.01169 0.19226
#
# Static dielectric constant tensor:
#      x y z
#    x 2.116070 0.000000 0.000000 
#    y 0.000000 2.037680 0.000000 
#    z 0.000000 0.000000 2.114340 
# 
# From -- ./inp_files/5024.got.cif
#   From: 2010.05.17/outbox.cif.g08.bks.cpg/sg36_3_cif.got.tgz:5024.got - 2010.06.03 17:41:39.
