data_PCOD9353045
_publ_section_title
;
Structure prediction by ZEFSAII (Michael W. Deem and Ramdas Pophale) SiO2 
 PCOD9353045
Probable space group: C M C 21
;
_chemical_formula_sum "Si O2"
_cell_formula_units_Z 40
_cell_length_a 18.198684
_cell_length_b 10.145302
_cell_length_c 9.427001
_cell_angle_alpha 90.000000
_cell_angle_beta 90.000000
_cell_angle_gamma 90.000000
_cell_volume 1740.517990
_symmetry_space_group_name_H-M "C M C 21"
_symmetry_group_IT_number 36
_symmetry_cell_setting 'orthorhombic'
loop_
_space_group_symop_operation_xyz
x,y,z
-x,-y,1/2+z
x,-y,1/2+z
-x,y,z
1/2+x,1/2+y,z
1/2-x,1/2-y,1/2+z
1/2+x,1/2-y,1/2+z
1/2-x,1/2+y,z
loop_
_atom_site_type_symbol
_atom_site_label
_atom_site_fract_x
_atom_site_fract_y
_atom_site_fract_z
Si Si1 0.587390 0.596986 0.052630
Si Si2 0.348687 0.935000 0.584488
Si Si3 0.183552 0.159650 0.522500
Si Si4 0.587212 0.151881 0.385003
Si Si5 0.779491 0.828075 0.714608
O O1 0.500000 0.592316 0.076551
O O2 0.622926 0.453143 0.037065
O O3 0.635035 0.665037 0.177272
O O4 0.602934 0.694057 0.918770
O O5 0.383837 0.901866 0.736197
O O6 0.357897 0.800831 0.494923
O O7 0.261218 0.937058 0.615921
O O8 0.380510 0.060473 0.508584
O O9 0.230680 0.142945 0.379177
O O10 0.234969 0.201546 0.656724
O O11 0.500000 0.138958 0.387224
#
# Coordination Sequence:
#
# PCOD9353045 Si02
#       5
#     8   8   8   8   8
#     4  11  27  46  75 112 155 196 254 325 382 441
#     4  10  26  44  77 104 148 200 258 308 373 461
#     4  10  26  47  76 105 150 193 255 307 380 441
#     4  11  25  48  73 108 153 200 251 313 385 449
#     4  10  25  43  76 105 146 193 248 307 371 456
#
# _framework density 22.981663000000001
#
# number of rings (size 3 to 8) (size 9 to 14) (size 15 to 20)
#    1.200    0.400    0.000    1.800   11.200    2.400 
#    0.000    0.000    0.000    0.000    0.000    0.000 
#    0.000    0.000    0.000    0.000    0.000    0.000 
#
# Total GULP energy -111610.395764 kJ/mol
# GULP energy per Si atom -5580.519788 kJ/mol
# Density = 2.292936 g / cm^3
# Si number density = 22.981663 Si / 1000 Ang^3
#
#
#
# Elastic Constant Matrix: (Units=GPa)
#
#
# Indices 1 2 3 4 5 6 
#
# 1 144.6901 50.6771 44.2579 0.0000 0.0000 0.0000
# 2 50.6771 118.9495 5.1988 0.0000 0.0000 0.0000
# 3 44.2579 5.1988 100.3845 0.0000 0.0000 0.0000
# 4 0.0000 0.0000 0.0000 19.7155 0.0000 0.0000
# 5 0.0000 0.0000 0.0000 0.0000 29.1683 0.0000
# 6 0.0000 0.0000 0.0000 0.0000 0.0000 41.7802
#
#
#
# Elastic Compliance Matrix: (Units=1/GPa)
#
#
# Indices 1 2 3 4 5 6 
#
# 1 0.009483 -0.003866 -0.003981 0.000000 0.000000 0.000000
# 2 -0.003866 0.010002 0.001187 0.000000 0.000000 0.000000
# 3 -0.003981 0.001187 0.011655 0.000000 0.000000 0.000000
# 4 0.000000 0.000000 0.000000 0.050722 0.000000 0.000000
# 5 0.000000 0.000000 0.000000 0.000000 0.034284 0.000000
# 6 0.000000 0.000000 0.000000 0.000000 0.000000 0.023935
#
#
# Mechanical properties :
#
#
# Convention : Reuss Voigt Hill
#
# Bulk Modulus (GPa) = 56.11719 62.69909 59.40814
# Shear Modulus (GPa) = 31.37919 35.72549 33.55234
#
# Velocity S-wave (km/s) = 3.69914 3.94702 3.82509
# Velocity P-wave (km/s) = 6.53576 6.93638 6.73905
#
# Compressibility (1/GPa) = 0.01781985
#
# Stress axis : x y z
#
# Youngs Moduli (GPa) = 105.45134 99.97795 85.79809
#
# Poissons Ratio (x) = 0.38653 0.34154
# Poissons Ratio (y) = 0.40769 -0.10180
# Poissons Ratio (z) = 0.41977 -0.11863
#
# Static dielectric constant tensor:
#      x y z
#    x 1.875630 0.000000 0.000000 
#    y 0.000000 1.965370 0.000000 
#    z 0.000000 0.000000 1.868470 
# 
# From -- ./inp_files/4535.got.cif
#   From: 2010.05.17/outbox.cif.g08.bks.cpg/sg36_3_cif.got.tgz:4535.got - 2010.06.03 17:41:39.
