data_PCOD9353328
_publ_section_title
;
Structure prediction by ZEFSAII (Michael W. Deem and Ramdas Pophale) SiO2 
 PCOD9353328
Probable space group: C M C 21
;
_chemical_formula_sum "Si O2"
_cell_formula_units_Z 32
_cell_length_a 9.000000
_cell_length_b 21.000000
_cell_length_c 18.000000
_cell_angle_alpha 90.000000
_cell_angle_beta 90.000000
_cell_angle_gamma 90.000000
_cell_volume 3402.000000
_symmetry_space_group_name_H-M "C M C 21"
_symmetry_group_IT_number 36
_symmetry_cell_setting 'orthorhombic'
loop_
_space_group_symop_operation_xyz
x,y,z
-x,-y,1/2+z
x,-y,1/2+z
-x,y,z
1/2+x,1/2+y,z
1/2-x,1/2-y,1/2+z
1/2+x,1/2-y,1/2+z
1/2-x,1/2+y,z
loop_
_atom_site_type_symbol
_atom_site_label
_atom_site_fract_x
_atom_site_fract_y
_atom_site_fract_z
Si Si1 0.819678 0.275380 0.334870
Si Si2 0.178337 0.076761 0.460456
Si Si3 0.320731 0.635034 0.298696
Si Si4 0.178313 0.303302 0.505867
Si Si5 0.177960 0.021640 0.195228
Si Si6 0.177111 0.612877 0.729553
Si Si7 0.177721 0.942731 0.524837
Si Si8 0.823393 0.320281 0.070974
O O1 0.765445 0.208046 0.301000
O O2 0.786670 0.279798 0.422034
O O3 0.767437 0.339298 0.293717
O O4 0.000000 0.274988 0.327825
O O5 0.207743 0.101844 0.377827
O O6 0.255841 0.126523 0.515840
O O7 0.000000 0.079794 0.473645
O O8 0.222631 0.002793 0.472873
O O9 0.500000 0.639406 0.289966
O O10 0.266752 0.585471 0.236766
O O11 0.242048 0.374841 0.514824
O O12 0.249004 0.248803 0.558232
O O13 0.000000 0.304381 0.514909
O O14 0.205595 0.031181 0.107955
O O15 0.000000 0.017437 0.206172
O O16 0.247998 0.956145 0.224525
O O17 0.200698 0.651673 0.653155
O O18 0.000000 0.603276 0.738598
O O19 0.000000 0.932465 0.516243
O O20 0.000000 0.314226 0.058707
#
# Coordination Sequence:
#
# PCOD9353328 Si02
#       8
#     8   8   8   8   8   8   8   8
#     4   9  19  37  59  82 110 149 192 231 278 339
#     4  10  19  37  61  83 112 152 192 233 282 338
#     4   9  18  34  59  83 109 149 194 230 275 337
#     4  11  23  39  61  84 113 154 195 237 289 345
#     4  10  21  37  60  85 113 153 192 231 280 341
#     4  10  22  38  59  84 115 151 187 234 286 339
#     4  10  22  37  57  87 119 148 189 242 288 334
#     4  11  22  37  60  86 113 148 191 240 288 335
#
# _framework density 9.4062319999999993
#
# number of rings (size 3 to 8) (size 9 to 14) (size 15 to 20)
#    0.000    2.000    2.500    0.750    3.500    1.500 
#    0.000    1.250    0.000    0.000    0.000    0.000 
#    0.000    0.000    0.000    0.000    0.000    0.000 
#
# Total GULP energy -178582.888061 kJ/mol
# GULP energy per Si atom -5580.715252 kJ/mol
# Density = 0.938482 g / cm^3
# Si number density = 9.406232 Si / 1000 Ang^3
#
#
#
# Elastic Constant Matrix: (Units=GPa)
#
#
# Indices 1 2 3 4 5 6 
#
# 1 21.5118 21.5251 11.1286 0.0000 0.0000 0.0000
# 2 21.5251 159.7321 12.5691 0.0000 0.0000 0.0000
# 3 11.1286 12.5691 21.6953 0.0000 0.0000 0.0000
# 4 0.0000 0.0000 0.0000 38.5388 0.0000 0.0000
# 5 0.0000 0.0000 0.0000 0.0000 13.1069 0.0000
# 6 0.0000 0.0000 0.0000 0.0000 0.0000 37.5051
#
#
#
# Elastic Compliance Matrix: (Units=1/GPa)
#
#
# Indices 1 2 3 4 5 6 
#
# 1 0.069871 -0.006910 -0.031837 0.000000 0.000000 0.000000
# 2 -0.006910 0.007243 -0.000651 0.000000 0.000000 0.000000
# 3 -0.031837 -0.000651 0.062801 0.000000 0.000000 0.000000
# 4 0.000000 0.000000 0.000000 0.025948 0.000000 0.000000
# 5 0.000000 0.000000 0.000000 0.000000 0.076295 0.000000
# 6 0.000000 0.000000 0.000000 0.000000 0.000000 0.026663
#
#
# Mechanical properties :
#
#
# Convention : Reuss Voigt Hill
#
# Bulk Modulus (GPa) = 16.36190 32.59830 24.48010
# Shear Modulus (GPa) = 13.58730 28.34459 20.96594
#
# Velocity S-wave (km/s) = 2.69039 3.88582 3.34199
# Velocity P-wave (km/s) = 4.28569 6.12360 5.28515
#
# Compressibility (1/GPa) = 0.06111758
#
# Stress axis : x y z
#
# Youngs Moduli (GPa) = 14.31212 138.06476 15.92335
#
# Poissons Ratio (x) = 0.95409 0.50695
# Poissons Ratio (y) = 0.09890 0.01037
# Poissons Ratio (z) = 0.45565 0.08995
#
# Static dielectric constant tensor:
#      x y z
#    x 1.640000 0.000000 0.000000 
#    y 0.000000 1.637570 0.000000 
#    z 0.000000 0.000000 1.676460 
# 
# From -- ./inp_files/13949.got.cif
#   From: 2010.05.17/outbox.ucp.g08.bks.cvg/sg36_7_cif.got.tgz:13949.got - 2010.06.11 10:37:26.
