data_PCOD9353206
_publ_section_title
;
Structure prediction by ZEFSAII (Michael W. Deem and Ramdas Pophale) SiO2 
 PCOD9353206
Probable space group: C M C 21
;
_chemical_formula_sum "Si O2"
_cell_formula_units_Z 60
_cell_length_a 17.035355
_cell_length_b 14.692722
_cell_length_c 11.591642
_cell_angle_alpha 90.000000
_cell_angle_beta 90.000000
_cell_angle_gamma 90.000000
_cell_volume 2901.338556
_symmetry_space_group_name_H-M "C M C 21"
_symmetry_group_IT_number 36
_symmetry_cell_setting 'orthorhombic'
loop_
_space_group_symop_operation_xyz
x,y,z
-x,-y,1/2+z
x,-y,1/2+z
-x,y,z
1/2+x,1/2+y,z
1/2-x,1/2-y,1/2+z
1/2+x,1/2-y,1/2+z
1/2-x,1/2+y,z
loop_
_atom_site_type_symbol
_atom_site_label
_atom_site_fract_x
_atom_site_fract_y
_atom_site_fract_z
Si Si1 0.797147 0.849718 0.311080
Si Si2 0.341136 0.156457 0.393306
Si Si3 0.373716 0.849388 0.224977
Si Si4 0.717121 0.487247 0.993682
Si Si5 0.410626 0.174416 0.988726
Si Si6 0.906144 0.865943 0.095995
Si Si7 0.500000 0.825691 0.032903
Si Si8 0.331654 0.048502 0.160880
O O1 0.814750 0.761501 0.389152
O O2 0.719275 0.828965 0.234579
O O3 0.868268 0.867512 0.223137
O O4 0.782804 0.936180 0.394516
O O5 0.280688 0.091208 0.461896
O O6 0.429316 0.149764 0.440364
O O7 0.337070 0.120318 0.262399
O O8 0.404052 0.828040 0.352213
O O9 0.429694 0.805124 0.130229
O O10 0.376446 0.957629 0.199269
O O11 0.633033 0.442360 0.015601
O O12 0.744343 0.525011 0.118671
O O13 0.500000 0.165546 0.025588
O O14 0.381858 0.269489 0.039785
O O15 0.367048 0.090163 0.044978
O O16 0.000000 0.872599 0.099651
#
# Coordination Sequence:
#
# PCOD9353206 Si02
#       8
#     8   8   8   8   8   8   4   8
#     4  12  25  46  78 100 148 192 245 303 368 442
#     4  12  26  45  72 107 151 188 239 307 367 435
#     4  12  24  43  67 105 148 190 233 295 362 438
#     4  12  24  47  70 108 139 192 247 293 370 439
#     4  11  24  41  70 103 138 190 236 286 359 439
#     4  11  25  47  72  98 137 190 247 304 356 431
#     4  12  28  44  68 114 154 184 238 312 376 426
#     4  12  23  40  69 107 141 191 233 283 371 437
#
# _framework density 20.680109000000002
#
# number of rings (size 3 to 8) (size 9 to 14) (size 15 to 20)
#    0.000    0.267    7.333    0.800    2.800    1.600 
#    0.000    1.333    0.000    0.000    0.000    0.000 
#    0.000    0.000    0.000    0.000    0.000    0.000 
#
# Total GULP energy -167149.434168 kJ/mol
# GULP energy per Si atom -5571.647806 kJ/mol
# Density = 2.063304 g / cm^3
# Si number density = 20.680109 Si / 1000 Ang^3
#
#
#
# Elastic Constant Matrix: (Units=GPa)
#
#
# Indices 1 2 3 4 5 6 
#
# 1 135.2379 42.4927 45.0786 0.0000 0.0000 0.0000
# 2 42.4927 78.1593 41.4284 0.0000 0.0000 0.0000
# 3 45.0786 41.4284 111.5759 0.0000 0.0000 0.0000
# 4 0.0000 0.0000 0.0000 20.2875 0.0000 0.0000
# 5 0.0000 0.0000 0.0000 0.0000 35.7970 0.0000
# 6 0.0000 0.0000 0.0000 0.0000 0.0000 19.1614
#
#
#
# Elastic Compliance Matrix: (Units=1/GPa)
#
#
# Indices 1 2 3 4 5 6 
#
# 1 0.009393 -0.003854 -0.002364 0.000000 0.000000 0.000000
# 2 -0.003854 0.017510 -0.004945 0.000000 0.000000 0.000000
# 3 -0.002364 -0.004945 0.011754 0.000000 0.000000 0.000000
# 4 0.000000 0.000000 0.000000 0.049291 0.000000 0.000000
# 5 0.000000 0.000000 0.000000 0.000000 0.027935 0.000000
# 6 0.000000 0.000000 0.000000 0.000000 0.000000 0.052188
#
#
# Mechanical properties :
#
#
# Convention : Reuss Voigt Hill
#
# Bulk Modulus (GPa) = 61.22855 64.77471 63.00163
# Shear Modulus (GPa) = 25.53086 28.11410 26.82248
#
# Velocity S-wave (km/s) = 3.51744 3.69111 3.60532
# Velocity P-wave (km/s) = 6.79473 7.03960 6.91824
#
# Compressibility (1/GPa) = 0.01633225
#
# Stress axis : x y z
#
# Youngs Moduli (GPa) = 106.45907 57.10874 85.07995
#
# Poissons Ratio (x) = 0.22008 0.20114
# Poissons Ratio (y) = 0.41026 0.42070
# Poissons Ratio (z) = 0.25169 0.28239
#
# Static dielectric constant tensor:
#      x y z
#    x 1.748040 0.000000 0.000000 
#    y 0.000000 1.787370 0.000000 
#    z 0.000000 0.000000 1.749150 
# 
# From -- ./inp_files/8968.got.cif
#   From: 2010.05.17/outbox.cif.g08.bks.cpg/sg36_5_cif.got.tgz:8968.got - 2010.06.03 17:41:39.
