data_PCOD9353658
_publ_section_title
;
Structure prediction by ZEFSAII (Michael W. Deem and Ramdas Pophale) SiO2 
 PCOD9353658
Probable space group: C C C 2
;
_chemical_formula_sum "Si O2"
_cell_formula_units_Z 60
_cell_length_a 14.964680
_cell_length_b 21.938137
_cell_length_c 8.532793
_cell_angle_alpha 90.000000
_cell_angle_beta 90.000000
_cell_angle_gamma 90.000000
_cell_volume 2801.292050
_symmetry_space_group_name_H-M "C C C 2"
_symmetry_group_IT_number 37
_symmetry_cell_setting 'orthorhombic'
loop_
_space_group_symop_operation_xyz
x,y,z
-x,-y,z
-x,y,1/2+z
x,-y,1/2+z
1/2+x,1/2+y,z
1/2-x,1/2-y,z
1/2-x,1/2+y,1/2+z
1/2+x,1/2-y,1/2+z
loop_
_atom_site_type_symbol
_atom_site_label
_atom_site_fract_x
_atom_site_fract_y
_atom_site_fract_z
Si Si1 0.611040 0.811593 0.891960
Si Si2 0.273455 0.573585 0.891385
Si Si3 0.568601 0.942810 0.928283
Si Si4 0.750000 0.750000 0.657330
Si Si5 0.246732 0.682411 0.675120
Si Si6 0.420306 0.676033 0.454425
Si Si7 0.108023 0.852485 0.105716
Si Si8 0.686347 0.002735 0.162615
O O1 0.548030 0.871659 0.890936
O O2 0.688119 0.797274 0.760977
O O3 0.667288 0.819234 0.050867
O O4 0.563658 0.746300 0.901621
O O5 0.238026 0.634292 0.811164
O O6 0.273137 0.527153 0.744127
O O7 0.355886 0.592401 0.998980
O O8 0.206482 0.543988 0.014378
O O9 0.500000 0.000000 0.922193
O O10 0.639075 0.956787 0.791741
O O11 0.618426 0.951746 0.095305
O O12 0.824060 0.794878 0.581334
O O13 0.250000 0.750000 0.741838
O O14 0.336782 0.671982 0.572985
O O15 0.397194 0.639993 0.294290
O O16 0.508899 0.658098 0.544270
#
# Coordination Sequence:
#
# PCOD9353658 Si02
#       8
#     8   8   8   4   8   8   8   8
#     4  10  18  40  67  94 137 187 222 282 346 427
#     4  11  23  40  69  94 132 174 233 288 334 425
#     4  11  22  42  62  90 133 182 236 286 341 395
#     4  10  20  40  66 100 138 182 234 270 360 436
#     4  10  19  39  69 103 133 181 228 286 363 426
#     4  10  22  40  66 102 143 169 222 288 373 418
#     4  11  22  41  62 102 133 182 215 296 347 424
#     4  10  24  42  62  95 124 184 238 283 329 405
#
# _framework density 21.418688
#
# number of rings (size 3 to 8) (size 9 to 14) (size 15 to 20)
#    0.000    1.600    4.667    2.000    0.933    0.000 
#   14.400    0.000    0.000    9.600    0.000    0.000 
#    0.000    0.000    0.000    0.000    0.000    0.000 
#
# Total GULP energy -167125.605499 kJ/mol
# GULP energy per Si atom -5570.853517 kJ/mol
# Density = 2.136994 g / cm^3
# Si number density = 21.418688 Si / 1000 Ang^3
#
#
#
# Elastic Constant Matrix: (Units=GPa)
#
#
# Indices 1 2 3 4 5 6 
#
# 1 30.5174 9.3547 18.0075 0.0000 0.0000 0.0000
# 2 9.3547 82.8891 27.1005 0.0000 0.0000 0.0000
# 3 18.0075 27.1005 94.2863 0.0000 0.0000 0.0000
# 4 0.0000 0.0000 0.0000 34.8521 0.0000 0.0000
# 5 0.0000 0.0000 0.0000 0.0000 13.0150 0.0000
# 6 0.0000 0.0000 0.0000 0.0000 0.0000 13.8158
#
#
#
# Elastic Compliance Matrix: (Units=1/GPa)
#
#
# Indices 1 2 3 4 5 6 
#
# 1 0.037250 -0.002073 -0.006519 0.000000 0.000000 0.000000
# 2 -0.002073 0.013431 -0.003465 0.000000 0.000000 0.000000
# 3 -0.006519 -0.003465 0.012847 0.000000 0.000000 0.000000
# 4 0.000000 0.000000 0.000000 0.028693 0.000000 0.000000
# 5 0.000000 0.000000 0.000000 0.000000 0.076834 0.000000
# 6 0.000000 0.000000 0.000000 0.000000 0.000000 0.072381
#
#
# Mechanical properties :
#
#
# Convention : Reuss Voigt Hill
#
# Bulk Modulus (GPa) = 25.37036 35.17980 30.27508
# Shear Modulus (GPa) = 17.94136 22.55193 20.24665
#
# Velocity S-wave (km/s) = 2.89736 3.24838 3.07788
# Velocity P-wave (km/s) = 4.80246 5.52537 5.17655
#
# Compressibility (1/GPa) = 0.03941608
#
# Stress axis : x y z
#
# Youngs Moduli (GPa) = 26.84564 74.45478 77.84069
#
# Poissons Ratio (x) = 0.15433 0.50741
# Poissons Ratio (y) = 0.05564 0.26968
# Poissons Ratio (z) = 0.17499 0.25795
#
# Static dielectric constant tensor:
#      x y z
#    x 1.814910 0.000000 0.000000 
#    y 0.000000 1.886640 0.000000 
#    z 0.000000 0.000000 1.801700 
# 
# From -- ./inp_files/3740.got.cif
#   From: 2010.05.17/outbox.cif.g08.bks.cpg/sg37_2_cif.got.tgz:3740.got - 2010.06.03 17:53:42.
