data_PCOD9353166
_publ_section_title
;
Structure prediction by ZEFSAII (Michael W. Deem and Ramdas Pophale) SiO2 
 PCOD9353166
Probable space group: C M C 21
;
_chemical_formula_sum "Si O2"
_cell_formula_units_Z 48
_cell_length_a 18.662955
_cell_length_b 13.915950
_cell_length_c 8.177498
_cell_angle_alpha 90.000000
_cell_angle_beta 90.000000
_cell_angle_gamma 90.000000
_cell_volume 2123.800483
_symmetry_space_group_name_H-M "C M C 21"
_symmetry_group_IT_number 36
_symmetry_cell_setting 'orthorhombic'
loop_
_space_group_symop_operation_xyz
x,y,z
-x,-y,1/2+z
x,-y,1/2+z
-x,y,z
1/2+x,1/2+y,z
1/2-x,1/2-y,1/2+z
1/2+x,1/2-y,1/2+z
1/2-x,1/2+y,z
loop_
_atom_site_type_symbol
_atom_site_label
_atom_site_fract_x
_atom_site_fract_y
_atom_site_fract_z
Si Si1 0.077914 0.852127 0.137110
Si Si2 0.176093 0.271016 0.808986
Si Si3 0.585753 0.708675 0.122893
Si Si4 0.624503 0.465145 0.831157
Si Si5 0.286117 0.962879 0.953831
Si Si6 0.681999 0.146932 0.794630
O O1 0.139812 0.773049 0.148318
O O2 0.000000 0.808818 0.162904
O O3 0.093530 0.934148 0.272028
O O4 0.080199 0.909613 0.968477
O O5 0.185626 0.384014 0.824818
O O6 0.252549 0.219422 0.831433
O O7 0.122058 0.240650 0.953842
O O8 0.500000 0.700975 0.115202
O O9 0.620720 0.608054 0.178786
O O10 0.612891 0.789723 0.251062
O O11 0.703207 0.477763 0.906247
O O12 0.324270 0.064830 0.930619
O O13 0.295405 0.912798 0.129861
#
# Coordination Sequence:
#
# PCOD9353166 Si02
#       6
#     8   8   8   8   8   8
#     4  12  24  38  59  94 130 167 205 257 331 394
#     4  11  23  41  66  93 127 169 213 267 316 388
#     4  11  25  44  65  95 132 172 214 270 331 385
#     4  12  22  39  62  89 132 162 209 265 323 390
#     4  11  23  40  65  97 119 164 218 264 310 378
#     4  11  24  42  65  94 129 166 215 265 316 383
#
# _framework density 22.600994
#
# number of rings (size 3 to 8) (size 9 to 14) (size 15 to 20)
#    0.000    0.667    5.000    3.000    2.333    1.333 
#    0.000    4.167    0.000    0.000    0.000    0.000 
#    0.000    0.000    0.000    0.000    0.000    0.000 
#
# Total GULP energy -134412.349417 kJ/mol
# GULP energy per Si atom -5600.514559 kJ/mol
# Density = 2.254955 g / cm^3
# Si number density = 22.600994 Si / 1000 Ang^3
#
#
#
# Elastic Constant Matrix: (Units=GPa)
#
#
# Indices 1 2 3 4 5 6 
#
# 1 69.6536 16.4623 14.1739 0.0000 0.0000 0.0000
# 2 16.4623 100.5389 0.7462 0.0000 0.0000 0.0000
# 3 14.1739 0.7462 60.2157 0.0000 0.0000 0.0000
# 4 0.0000 0.0000 0.0000 33.8232 0.0000 0.0000
# 5 0.0000 0.0000 0.0000 0.0000 26.4010 0.0000
# 6 0.0000 0.0000 0.0000 0.0000 0.0000 19.2747
#
#
#
# Elastic Compliance Matrix: (Units=1/GPa)
#
#
# Indices 1 2 3 4 5 6 
#
# 1 0.015704 -0.002544 -0.003665 0.000000 0.000000 0.000000
# 2 -0.002544 0.010359 0.000470 0.000000 0.000000 0.000000
# 3 -0.003665 0.000470 0.017464 0.000000 0.000000 0.000000
# 4 0.000000 0.000000 0.000000 0.029566 0.000000 0.000000
# 5 0.000000 0.000000 0.000000 0.000000 0.037877 0.000000
# 6 0.000000 0.000000 0.000000 0.000000 0.000000 0.051881
#
#
# Mechanical properties :
#
#
# Convention : Reuss Voigt Hill
#
# Bulk Modulus (GPa) = 31.20133 32.57480 31.88807
# Shear Modulus (GPa) = 27.02528 29.16817 28.09673
#
# Velocity S-wave (km/s) = 3.46172 3.59635 3.52968
# Velocity P-wave (km/s) = 5.46016 5.62932 5.54538
#
# Compressibility (1/GPa) = 0.03204991
#
# Stress axis : x y z
#
# Youngs Moduli (GPa) = 63.67864 96.52989 57.26125
#
# Poissons Ratio (x) = 0.24559 0.20986
# Poissons Ratio (y) = 0.16201 -0.02694
# Poissons Ratio (z) = 0.23338 -0.04542
#
# Static dielectric constant tensor:
#      x y z
#    x 1.797130 0.000000 0.000000 
#    y 0.000000 1.814570 0.000000 
#    z 0.000000 0.000000 1.973480 
# 
# From -- ./inp_files/4649.got.cif
#   From: 2010.05.17/outbox.cif.g08.bks.cpg/sg36_3_cif.got.tgz:4649.got - 2010.06.03 17:41:39.
