data_PCOD9353454
_publ_section_title
;
Structure prediction by ZEFSAII (Michael W. Deem and Ramdas Pophale) SiO2 
 PCOD9353454
Probable space group: C C C 2
;
_chemical_formula_sum "Si O2"
_cell_formula_units_Z 48
_cell_length_a 33.739882
_cell_length_b 14.545842
_cell_length_c 5.072068
_cell_angle_alpha 90.000000
_cell_angle_beta 90.000000
_cell_angle_gamma 90.000000
_cell_volume 2489.244136
_symmetry_space_group_name_H-M "C C C 2"
_symmetry_group_IT_number 37
_symmetry_cell_setting 'orthorhombic'
loop_
_space_group_symop_operation_xyz
x,y,z
-x,-y,z
-x,y,1/2+z
x,-y,1/2+z
1/2+x,1/2+y,z
1/2-x,1/2-y,z
1/2-x,1/2+y,1/2+z
1/2+x,1/2-y,1/2+z
loop_
_atom_site_type_symbol
_atom_site_label
_atom_site_fract_x
_atom_site_fract_y
_atom_site_fract_z
Si Si1 0.790175 0.794808 0.018510
Si Si2 0.517423 0.397512 0.970967
Si Si3 0.339899 0.742462 0.998740
Si Si4 0.158903 0.555535 0.934082
Si Si5 0.608939 0.436215 0.865741
Si Si6 0.745046 0.547132 0.394656
O O1 0.750000 0.750000 0.914324
O O2 0.811937 0.736965 0.246163
O O3 0.775468 0.876320 0.215177
O O4 0.818943 0.793383 0.765995
O O5 0.500000 0.500000 0.022791
O O6 0.510052 0.351610 0.251564
O O7 0.562534 0.409746 0.886900
O O8 0.356309 0.845572 0.036944
O O9 0.367224 0.657762 0.906229
O O10 0.146804 0.522155 0.645216
O O11 0.207504 0.555220 0.918831
O O12 0.617464 0.488759 0.593583
O O13 0.733486 0.539244 0.702349
#
# Coordination Sequence:
#
# PCOD9353454 Si02
#       6
#     8   8   8   8   8   8
#     4  12  24  39  55  73 108 143 191 240 305 358
#     4  10  16  32  59  84 111 163 201 214 257 329
#     4  12  26  38  57  84 113 149 187 247 312 344
#     4  10  21  39  59  77  98 133 194 254 289 328
#     4  12  23  38  57  87 130 162 185 235 285 359
#     4  10  21  35  56  74  91 130 190 239 278 345
#
# _framework density 19.282964
#
# number of rings (size 3 to 8) (size 9 to 14) (size 15 to 20)
#    0.000    1.000    5.000    3.500    4.667    4.000 
#    0.000    0.000    0.000    0.000    0.000    0.000 
#    0.000    4.000    0.000    0.000    0.000    0.000 
#
# Total GULP energy -133622.711347 kJ/mol
# GULP energy per Si atom -5567.612973 kJ/mol
# Density = 1.923908 g / cm^3
# Si number density = 19.282964 Si / 1000 Ang^3
#
#
#
# Elastic Constant Matrix: (Units=GPa)
#
#
# Indices 1 2 3 4 5 6 
#
# 1 25.7750 19.5193 12.1157 0.0000 0.0000 0.0000
# 2 19.5193 80.5906 -1.8669 0.0000 0.0000 0.0000
# 3 12.1157 -1.8669 98.2130 0.0000 0.0000 0.0000
# 4 0.0000 0.0000 0.0000 18.8173 0.0000 0.0000
# 5 0.0000 0.0000 0.0000 0.0000 11.1635 0.0000
# 6 0.0000 0.0000 0.0000 0.0000 0.0000 7.9257
#
#
#
# Elastic Compliance Matrix: (Units=1/GPa)
#
#
# Indices 1 2 3 4 5 6 
#
# 1 0.051445 -0.012613 -0.006586 0.000000 0.000000 0.000000
# 2 -0.012613 0.015506 0.001851 0.000000 0.000000 0.000000
# 3 -0.006586 0.001851 0.011030 0.000000 0.000000 0.000000
# 4 0.000000 0.000000 0.000000 0.053143 0.000000 0.000000
# 5 0.000000 0.000000 0.000000 0.000000 0.089578 0.000000
# 6 0.000000 0.000000 0.000000 0.000000 0.000000 0.126172
#
#
# Mechanical properties :
#
#
# Convention : Reuss Voigt Hill
#
# Bulk Modulus (GPa) = 23.10307 29.34609 26.22458
# Shear Modulus (GPa) = 12.62638 19.23534 15.93086
#
# Velocity S-wave (km/s) = 2.56167 3.16180 2.87742
# Velocity P-wave (km/s) = 4.55595 5.34612 4.96677
#
# Compressibility (1/GPa) = 0.04328430
#
# Stress axis : x y z
#
# Youngs Moduli (GPa) = 19.43842 64.49086 90.66522
#
# Poissons Ratio (x) = 0.81340 0.59712
# Poissons Ratio (y) = 0.24517 -0.16779
# Poissons Ratio (z) = 0.12802 -0.11935
#
# Static dielectric constant tensor:
#      x y z
#    x 1.665640 0.000000 0.000000 
#    y 0.000000 1.907340 0.000000 
#    z 0.000000 0.000000 1.759300 
# 
# From -- ./inp_files/1468.got.cif
#   From: 2010.05.17/outbox.cif.g08.bks.cpg/sg37_1_cif.got.tgz:1468.got - 2010.06.03 17:53:42.
