data_PCOD9353470
_publ_section_title
;
Structure prediction by ZEFSAII (Michael W. Deem and Ramdas Pophale) SiO2 
 PCOD9353470
Probable space group: C C C 2
;
_chemical_formula_sum "Si O2"
_cell_formula_units_Z 52
_cell_length_a 13.305899
_cell_length_b 18.407582
_cell_length_c 8.576791
_cell_angle_alpha 90.000000
_cell_angle_beta 90.000000
_cell_angle_gamma 90.000000
_cell_volume 2100.708504
_symmetry_space_group_name_H-M "C C C 2"
_symmetry_group_IT_number 37
_symmetry_cell_setting 'orthorhombic'
loop_
_space_group_symop_operation_xyz
x,y,z
-x,-y,z
-x,y,1/2+z
x,-y,1/2+z
1/2+x,1/2+y,z
1/2-x,1/2-y,z
1/2-x,1/2+y,1/2+z
1/2+x,1/2-y,1/2+z
loop_
_atom_site_type_symbol
_atom_site_label
_atom_site_fract_x
_atom_site_fract_y
_atom_site_fract_z
Si Si1 0.059647 0.862172 0.738230
Si Si2 0.750000 0.250000 0.421123
Si Si3 0.077684 0.442278 0.186359
Si Si4 0.251487 0.671244 0.962073
Si Si5 0.091551 0.291807 0.184550
Si Si6 0.710195 0.985068 0.467526
Si Si7 0.859797 0.900151 0.895865
O O1 0.146443 0.848628 0.867499
O O2 0.025855 0.778735 0.708587
O O3 0.106530 0.891097 0.577783
O O4 0.962413 0.903042 0.797874
O O5 0.840004 0.277147 0.534787
O O6 0.795878 0.173478 0.354004
O O7 0.028409 0.364329 0.171601
O O8 0.119807 0.466982 0.351082
O O9 0.000000 0.500000 0.130639
O O10 0.174964 0.450373 0.079144
O O11 0.250000 0.750000 0.046632
O O12 0.168020 0.688012 0.826285
O O13 0.230458 0.593838 0.043617
O O14 0.802095 0.023296 0.379125
#
# Coordination Sequence:
#
# PCOD9353470 Si02
#       7
#     8   4   8   8   8   8   8
#     4  10  21  39  66  96 126 177 218 266 316 401
#     4  10  16  38  68  80 122 174 214 252 324 392
#     4  11  23  41  65  97 129 165 222 270 329 399
#     4   9  17  38  64  87 124 169 216 261 329 385
#     4   9  16  38  66  85 119 175 213 252 331 384
#     4  11  23  41  67  93 129 177 212 272 337 386
#     4  11  22  39  65  97 133 172 220 265 327 383
#
# _framework density 24.753551999999999
#
# number of rings (size 3 to 8) (size 9 to 14) (size 15 to 20)
#    0.000    1.846    5.385    1.385    0.000    3.077 
#   16.615    1.538    6.769    0.000    0.000    0.000 
#    0.000    0.000    0.000    0.000    0.000    0.000 
#
# Total GULP energy -145125.651418 kJ/mol
# GULP energy per Si atom -5581.755824 kJ/mol
# Density = 2.469721 g / cm^3
# Si number density = 24.753552 Si / 1000 Ang^3
#
#
#
# Elastic Constant Matrix: (Units=GPa)
#
#
# Indices 1 2 3 4 5 6 
#
# 1 67.2918 22.9627 10.3996 0.0000 0.0000 0.0000
# 2 22.9627 140.9802 9.6186 0.0000 0.0000 0.0000
# 3 10.3996 9.6186 41.5400 0.0000 0.0000 0.0000
# 4 0.0000 0.0000 0.0000 23.2014 0.0000 0.0000
# 5 0.0000 0.0000 0.0000 0.0000 13.2464 0.0000
# 6 0.0000 0.0000 0.0000 0.0000 0.0000 34.7268
#
#
#
# Elastic Compliance Matrix: (Units=1/GPa)
#
#
# Indices 1 2 3 4 5 6 
#
# 1 0.016222 -0.002403 -0.003505 0.000000 0.000000 0.000000
# 2 -0.002403 0.007563 -0.001150 0.000000 0.000000 0.000000
# 3 -0.003505 -0.001150 0.025217 0.000000 0.000000 0.000000
# 4 0.000000 0.000000 0.000000 0.043101 0.000000 0.000000
# 5 0.000000 0.000000 0.000000 0.000000 0.075492 0.000000
# 6 0.000000 0.000000 0.000000 0.000000 0.000000 0.028796
#
#
# Mechanical properties :
#
#
# Convention : Reuss Voigt Hill
#
# Bulk Modulus (GPa) = 28.66391 37.30819 32.98605
# Shear Modulus (GPa) = 22.50873 28.02363 25.26618
#
# Velocity S-wave (km/s) = 3.01875 3.36833 3.19832
# Velocity P-wave (km/s) = 4.87395 5.49837 5.19555
#
# Compressibility (1/GPa) = 0.03488707
#
# Stress axis : x y z
#
# Youngs Moduli (GPa) = 61.64329 132.22176 39.65604
#
# Poissons Ratio (x) = 0.31775 0.13899
# Poissons Ratio (y) = 0.14814 0.04559
# Poissons Ratio (z) = 0.21605 0.15200
#
# Static dielectric constant tensor:
#      x y z
#    x 2.003940 0.000000 0.000000 
#    y 0.000000 2.022790 0.000000 
#    z 0.000000 0.000000 2.023300 
# 
# From -- ./inp_files/3609.got.cif
#   From: 2010.05.17/outbox.cif.g08.bks.cpg/sg37_2_cif.got.tgz:3609.got - 2010.06.03 17:53:42.
