data_PCOD9353918
_publ_section_title
;
Structure prediction by ZEFSAII (Michael W. Deem and Ramdas Pophale) SiO2 
 PCOD9353918
Probable space group: C C C 2
;
_chemical_formula_sum "Si O2"
_cell_formula_units_Z 48
_cell_length_a 15.828439
_cell_length_b 9.693638
_cell_length_c 15.316162
_cell_angle_alpha 90.000000
_cell_angle_beta 90.000000
_cell_angle_gamma 90.000000
_cell_volume 2350.037733
_symmetry_space_group_name_H-M "C C C 2"
_symmetry_group_IT_number 37
_symmetry_cell_setting 'orthorhombic'
loop_
_space_group_symop_operation_xyz
x,y,z
-x,-y,z
-x,y,1/2+z
x,-y,1/2+z
1/2+x,1/2+y,z
1/2-x,1/2-y,z
1/2-x,1/2+y,1/2+z
1/2+x,1/2-y,1/2+z
loop_
_atom_site_type_symbol
_atom_site_label
_atom_site_fract_x
_atom_site_fract_y
_atom_site_fract_z
Si Si1 0.400759 0.664207 0.216340
Si Si2 0.087193 0.403211 0.572404
Si Si3 0.839594 0.680142 0.061521
Si Si4 0.396506 0.150176 0.866102
Si Si5 0.902660 0.654549 0.370571
Si Si6 0.399003 0.356325 0.223743
O O1 0.402479 0.778848 0.140069
O O2 0.360896 0.737126 0.300717
O O3 0.364952 0.510068 0.205198
O O4 0.500056 0.638005 0.233586
O O5 0.158916 0.518790 0.585156
O O6 0.097874 0.339386 0.475673
O O7 0.000000 0.500000 0.578316
O O8 0.750000 0.750000 0.051046
O O9 0.883390 0.761414 0.139841
O O10 0.883957 0.687585 0.967107
O O11 0.497251 0.145462 0.849910
O O12 0.363994 0.995388 0.848581
O O13 0.866873 0.777750 0.311158
#
# Coordination Sequence:
#
# PCOD9353918 Si02
#       6
#     8   8   8   8   8   8
#     4  10  20  32  59  88 117 149 202 264 308 351
#     4  11  18  36  62  91 114 160 216 257 302 371
#     4  11  22  38  58  85 124 163 200 252 315 380
#     4   9  17  32  53  83 109 151 197 247 303 361
#     4   9  16  31  58  82 112 142 204 260 297 351
#     4  10  20  34  53  90 121 152 195 260 317 353
#
# _framework density 20.425204999999998
#
# number of rings (size 3 to 8) (size 9 to 14) (size 15 to 20)
#    0.000    2.000    5.000    1.000    2.333    1.333 
#    0.000    9.167    0.000    0.000    0.000    0.000 
#    0.000    0.000    0.000    0.000    0.000    0.000 
#
# Total GULP energy -133636.606959 kJ/mol
# GULP energy per Si atom -5568.191957 kJ/mol
# Density = 2.037872 g / cm^3
# Si number density = 20.425205 Si / 1000 Ang^3
#
#
#
# Elastic Constant Matrix: (Units=GPa)
#
#
# Indices 1 2 3 4 5 6 
#
# 1 24.6705 11.8189 -4.8416 0.0000 0.0000 0.0000
# 2 11.8189 195.1141 120.0721 0.0000 0.0000 0.0000
# 3 -4.8416 120.0721 131.7798 0.0000 0.0000 0.0000
# 4 0.0000 0.0000 0.0000 0.9999 0.0000 0.0000
# 5 0.0000 0.0000 0.0000 0.0000 22.5484 0.0000
# 6 0.0000 0.0000 0.0000 0.0000 0.0000 11.7944
#
#
#
# Elastic Compliance Matrix: (Units=1/GPa)
#
#
# Indices 1 2 3 4 5 6 
#
# 1 0.046687 -0.008841 0.009771 0.000000 0.000000 0.000000
# 2 -0.008841 0.013341 -0.012481 0.000000 0.000000 0.000000
# 3 0.009771 -0.012481 0.019320 0.000000 0.000000 0.000000
# 4 0.000000 0.000000 0.000000 1.000073 0.000000 0.000000
# 5 0.000000 0.000000 0.000000 0.000000 0.044349 0.000000
# 6 0.000000 0.000000 0.000000 0.000000 0.000000 0.084786
#
#
# Mechanical properties :
#
#
# Convention : Reuss Voigt Hill
#
# Bulk Modulus (GPa) = 17.77909 67.29591 42.53750
# Shear Modulus (GPa) = 3.99870 22.03622 13.01746
#
# Velocity S-wave (km/s) = 1.40071 3.28818 2.52726
# Velocity P-wave (km/s) = 3.36740 6.88732 5.42100
#
# Compressibility (1/GPa) = 0.05624586
#
# Stress axis : x y z
#
# Youngs Moduli (GPa) = 21.41917 74.95429 51.76109
#
# Poissons Ratio (x) = 0.66266 -0.50574
# Poissons Ratio (y) = 0.18936 0.64603
# Poissons Ratio (z) = -0.20928 0.93550
#
# Static dielectric constant tensor:
#      x y z
#    x 1.653950 0.000000 0.000000 
#    y 0.000000 1.776000 0.000000 
#    z 0.000000 0.000000 1.741760 
# 
# From -- ./inp_files/12836.got.cif
#   From: 2010.05.17/outbox.cif.g08.bks.cpg/sg37_7_cif.got.tgz:12836.got - 2010.06.03 17:53:42.
