data_PCOD9353126
_publ_section_title
;
Structure prediction by ZEFSAII (Michael W. Deem and Ramdas Pophale) SiO2 
 PCOD9353126
Probable space group: C M C 21
;
_chemical_formula_sum "Si O2"
_cell_formula_units_Z 48
_cell_length_a 21.545912
_cell_length_b 9.399365
_cell_length_c 11.000759
_cell_angle_alpha 90.000000
_cell_angle_beta 90.000000
_cell_angle_gamma 90.000000
_cell_volume 2227.850514
_symmetry_space_group_name_H-M "C M C 21"
_symmetry_group_IT_number 36
_symmetry_cell_setting 'orthorhombic'
loop_
_space_group_symop_operation_xyz
x,y,z
-x,-y,1/2+z
x,-y,1/2+z
-x,y,z
1/2+x,1/2+y,z
1/2-x,1/2-y,1/2+z
1/2+x,1/2-y,1/2+z
1/2-x,1/2+y,z
loop_
_atom_site_type_symbol
_atom_site_label
_atom_site_fract_x
_atom_site_fract_y
_atom_site_fract_z
Si Si1 0.639850 0.104871 0.431760
Si Si2 0.425981 0.823183 0.517880
Si Si3 0.647290 0.390454 0.863187
Si Si4 0.238937 0.819165 0.069993
Si Si5 0.762648 0.569450 0.220331
Si Si6 0.072963 0.168168 0.777201
O O1 0.692379 0.178279 0.514364
O O2 0.681613 0.060386 0.315062
O O3 0.590286 0.214900 0.378355
O O4 0.606388 0.976045 0.500496
O O5 0.500000 0.840827 0.512737
O O6 0.401566 0.727503 0.405516
O O7 0.412912 0.737970 0.644573
O O8 0.701051 0.350939 0.768163
O O9 0.612194 0.528703 0.813251
O O10 0.691334 0.402502 0.982522
O O11 0.219199 0.659105 0.100762
O O12 0.240533 0.912153 0.190788
O O13 0.000000 0.134506 0.778718
#
# Coordination Sequence:
#
# PCOD9353126 Si02
#       6
#     8   8   8   8   8   8
#     4  11  22  39  63  90 123 163 205 252 312 371
#     4  11  24  42  63  89 125 167 212 259 305 364
#     4  11  22  39  63  90 123 163 205 252 312 371
#     4  11  22  37  61  92 123 155 196 252 309 366
#     4  11  22  37  61  92 123 155 196 252 309 366
#     4  11  24  42  63  89 125 167 212 259 305 364
#
# _framework density 21.545431000000001
#
# number of rings (size 3 to 8) (size 9 to 14) (size 15 to 20)
#    0.000    1.000    0.000    8.000    0.000    5.333 
#    0.000    0.000    0.000   10.000    0.000    0.000 
#    0.000    0.000    0.000    0.000    0.000    0.000 
#
# Total GULP energy -134028.672953 kJ/mol
# GULP energy per Si atom -5584.528040 kJ/mol
# Density = 2.149639 g / cm^3
# Si number density = 21.545431 Si / 1000 Ang^3
#
#
#
# Elastic Constant Matrix: (Units=GPa)
#
#
# Indices 1 2 3 4 5 6 
#
# 1 136.7056 49.8501 40.8039 0.0000 0.0000 0.0000
# 2 49.8501 92.5943 26.8891 0.0000 0.0000 0.0000
# 3 40.8039 26.8891 55.0528 0.0000 0.0000 0.0000
# 4 0.0000 0.0000 0.0000 36.1773 0.0000 0.0000
# 5 0.0000 0.0000 0.0000 0.0000 20.3337 0.0000
# 6 0.0000 0.0000 0.0000 0.0000 0.0000 36.2907
#
#
#
# Elastic Compliance Matrix: (Units=1/GPa)
#
#
# Indices 1 2 3 4 5 6 
#
# 1 0.010505 -0.003955 -0.005854 0.000000 0.000000 0.000000
# 2 -0.003955 0.014074 -0.003942 0.000000 0.000000 0.000000
# 3 -0.005854 -0.003942 0.024429 0.000000 0.000000 0.000000
# 4 0.000000 0.000000 0.000000 0.027642 0.000000 0.000000
# 5 0.000000 0.000000 0.000000 0.000000 0.049179 0.000000
# 6 0.000000 0.000000 0.000000 0.000000 0.000000 0.027555
#
#
# Mechanical properties :
#
#
# Convention : Reuss Voigt Hill
#
# Bulk Modulus (GPa) = 46.50304 57.71541 52.10922
# Shear Modulus (GPa) = 26.58794 29.68101 28.13447
#
# Velocity S-wave (km/s) = 3.51670 3.71563 3.61753
# Velocity P-wave (km/s) = 6.17415 6.72710 6.45655
#
# Compressibility (1/GPa) = 0.02150397
#
# Stress axis : x y z
#
# Youngs Moduli (GPa) = 95.19635 71.05209 40.93545
#
# Poissons Ratio (x) = 0.28104 0.23963
# Poissons Ratio (y) = 0.37654 0.16139
# Poissons Ratio (z) = 0.55726 0.28012
#
# Static dielectric constant tensor:
#      x y z
#    x 1.786090 0.000000 0.000000 
#    y 0.000000 1.746040 0.000000 
#    z 0.000000 0.000000 1.854990 
# 
# From -- ./inp_files/9419.got.cif
#   From: 2010.05.17/outbox.cif.g08.bks.cpg/sg36_5_cif.got.tgz:9419.got - 2010.06.03 17:41:39.
