data_PCOD9353307
_publ_section_title
;
Structure prediction by ZEFSAII (Michael W. Deem and Ramdas Pophale) SiO2 
 PCOD9353307
Probable space group: C M C 21
;
_chemical_formula_sum "Si O2"
_cell_formula_units_Z 32
_cell_length_a 9.000000
_cell_length_b 21.000000
_cell_length_c 18.000000
_cell_angle_alpha 90.000000
_cell_angle_beta 90.000000
_cell_angle_gamma 90.000000
_cell_volume 3402.000000
_symmetry_space_group_name_H-M "C M C 21"
_symmetry_group_IT_number 36
_symmetry_cell_setting 'orthorhombic'
loop_
_space_group_symop_operation_xyz
x,y,z
-x,-y,1/2+z
x,-y,1/2+z
-x,y,z
1/2+x,1/2+y,z
1/2-x,1/2-y,1/2+z
1/2+x,1/2-y,1/2+z
1/2-x,1/2+y,z
loop_
_atom_site_type_symbol
_atom_site_label
_atom_site_fract_x
_atom_site_fract_y
_atom_site_fract_z
Si Si1 0.176189 0.702360 0.442280
Si Si2 0.176460 0.266604 0.688446
Si Si3 0.174333 0.316849 0.522460
Si Si4 0.828679 0.124153 0.709895
Si Si5 0.818938 0.987766 0.733423
Si Si6 0.179469 0.950690 0.564648
Si Si7 0.677133 0.641677 0.299659
Si Si8 0.170764 0.907501 0.034351
O O1 0.246086 0.770288 0.464337
O O2 0.239095 0.678159 0.364390
O O3 0.228422 0.646040 0.497701
O O4 0.000000 0.707730 0.441927
O O5 0.186512 0.278286 0.600438
O O6 0.230852 0.196143 0.713136
O O7 0.273954 0.320901 0.726115
O O8 0.000000 0.272704 0.707382
O O9 0.246111 0.386763 0.533263
O O10 0.000000 0.323583 0.505268
O O11 0.831337 0.105787 0.622607
O O12 0.000000 0.129312 0.735398
O O13 0.762875 0.059964 0.746688
O O14 0.776339 0.962846 0.650986
O O15 0.777991 0.932422 0.790862
O O16 0.000000 0.991440 0.732435
O O17 0.000000 0.943678 0.562685
O O18 0.214463 0.018281 0.524334
O O19 0.500000 0.644311 0.309598
O O20 0.000000 0.899646 0.007408
#
# Coordination Sequence:
#
# PCOD9353307 Si02
#       8
#     8   8   8   8   8   8   8   8
#     4  12  25  39  56  79 113 153 198 241 288 344
#     4  10  19  33  56  84 114 146 183 232 284 337
#     4  11  21  35  57  85 117 151 190 237 288 337
#     4   8  14  29  54  82 110 138 177 225 272 326
#     4   8  15  29  53  82 107 138 179 225 269 326
#     4   9  17  32  57  87 115 143 184 231 277 335
#     4  11  22  37  57  80 112 149 190 233 287 348
#     4   9  17  34  58  83 112 146 185 228 281 339
#
# _framework density 9.4062319999999993
#
# number of rings (size 3 to 8) (size 9 to 14) (size 15 to 20)
#    0.000    2.250    2.500    3.375    0.000    1.000 
#    0.000    1.250    0.000    7.500    0.000    0.000 
#    0.000    0.000    0.000    0.000    0.000    0.000 
#
# Total GULP energy -178371.756368 kJ/mol
# GULP energy per Si atom -5574.117386 kJ/mol
# Density = 0.938482 g / cm^3
# Si number density = 9.406232 Si / 1000 Ang^3
#
#
#
# Elastic Constant Matrix: (Units=GPa)
#
#
# Indices 1 2 3 4 5 6 
#
# 1 50.5993 14.4406 -0.6724 0.0000 0.0000 0.0000
# 2 14.4406 105.4894 -26.2051 0.0000 0.0000 0.0000
# 3 -0.6724 -26.2051 1.8246 0.0000 0.0000 0.0000
# 4 0.0000 0.0000 0.0000 12.9603 0.0000 0.0000
# 5 0.0000 0.0000 0.0000 0.0000 19.0206 0.0000
# 6 0.0000 0.0000 0.0000 0.0000 0.0000 29.1055
#
#
#
# Elastic Compliance Matrix: (Units=1/GPa)
#
#
# Indices 1 2 3 4 5 6 
#
# 1 0.019827 0.000350 0.012335 0.000000 0.000000 0.000000
# 2 0.000350 -0.003686 -0.052804 0.000000 0.000000 0.000000
# 3 0.012335 -0.052804 -0.205766 0.000000 0.000000 0.000000
# 4 0.000000 0.000000 0.000000 0.077159 0.000000 0.000000
# 5 0.000000 0.000000 0.000000 0.000000 0.052575 0.000000
# 6 0.000000 0.000000 0.000000 0.000000 0.000000 0.034358
#
#
# Mechanical properties :
#
#
# Convention : Reuss Voigt Hill
#
# Bulk Modulus (GPa) = -3.70560 14.78215 5.53828
# Shear Modulus (GPa) = -141.84133 23.57395 -59.13369
#
# Velocity S-wave (km/s) = -8.69260 3.54376 -5.61262
# Velocity P-wave (km/s) = 10.13520 4.96175 6.24913
#
# Compressibility (1/GPa) = -0.26986189
#
# Stress axis : x y z
#
# Youngs Moduli (GPa) = 50.43598 -271.32346 -4.85988
#
# Poissons Ratio (x) = 0.09501 0.05995
# Poissons Ratio (y) = -0.01766 -0.25662
# Poissons Ratio (z) = -0.62215 -14.32699
#
# Static dielectric constant tensor:
#      x y z
#    x 1.627400 0.000000 0.000000 
#    y 0.000000 1.675690 0.000000 
#    z 0.000000 0.000000 1.695920 
# 
# From -- ./inp_files/13900.got.cif
#   From: 2010.05.17/outbox.ucp.g08.bks.cvg/sg36_7_cif.got.tgz:13900.got - 2010.06.11 10:37:26.
