data_PCOD9353707
_publ_section_title
;
Structure prediction by ZEFSAII (Michael W. Deem and Ramdas Pophale) SiO2 
 PCOD9353707
Probable space group: C C C 2
;
_chemical_formula_sum "Si O2"
_cell_formula_units_Z 64
_cell_length_a 15.690638
_cell_length_b 8.665166
_cell_length_c 24.428693
_cell_angle_alpha 90.000000
_cell_angle_beta 90.000000
_cell_angle_gamma 90.000000
_cell_volume 3321.373540
_symmetry_space_group_name_H-M "C C C 2"
_symmetry_group_IT_number 37
_symmetry_cell_setting 'orthorhombic'
loop_
_space_group_symop_operation_xyz
x,y,z
-x,-y,z
-x,y,1/2+z
x,-y,1/2+z
1/2+x,1/2+y,z
1/2-x,1/2-y,z
1/2-x,1/2+y,1/2+z
1/2+x,1/2-y,1/2+z
loop_
_atom_site_type_symbol
_atom_site_label
_atom_site_fract_x
_atom_site_fract_y
_atom_site_fract_z
Si Si1 0.342563 0.201575 0.390700
Si Si2 0.416022 0.886047 0.392940
Si Si3 0.654634 0.820585 0.777703
Si Si4 0.493383 0.812251 0.197500
Si Si5 0.158439 0.309483 0.264355
Si Si6 0.492871 0.815261 0.570519
Si Si7 0.919797 0.113873 0.983827
Si Si8 0.653060 0.302733 0.495099
O O1 0.250000 0.250000 0.408864
O O2 0.355019 0.242969 0.327187
O O3 0.408464 0.289166 0.428970
O O4 0.345157 0.018715 0.397069
O O5 0.398079 0.804552 0.334813
O O6 0.397945 0.772004 0.443162
O O7 0.500000 0.000000 0.392097
O O8 0.750000 0.750000 0.780241
O O9 0.591991 0.762002 0.729530
O O10 0.662727 0.004558 0.767618
O O11 0.578819 0.757657 0.228129
O O12 0.494733 0.772104 0.133731
O O13 0.500000 0.000000 0.200695
O O14 0.250000 0.250000 0.244949
O O15 0.563300 0.731385 0.533069
O O16 0.402261 0.756596 0.546839
O O17 0.500000 0.000000 0.564379
O O18 0.000000 0.000000 0.980964
O O19 0.846451 0.988498 0.992657
O O20 0.750000 0.250000 0.495498
#
# Coordination Sequence:
#
# PCOD9353707 Si02
#       8
#     8   8   8   8   8   8   8   8
#     4  10  19  33  53  80 111 141 174 215 266 331
#     4  11  20  34  58  82 113 153 187 220 277 348
#     4  10  20  36  57  85 115 145 186 235 280 333
#     4   9  19  38  60  79 106 149 192 229 278 340
#     4   9  19  36  57  83 113 145 182 226 279 337
#     4  10  21  39  59  77 106 148 192 230 278 346
#     4  10  21  36  54  77 110 141 178 227 273 326
#     4  11  22  36  56  85 115 144 184 238 290 337
#
# _framework density 19.269137000000001
#
# number of rings (size 3 to 8) (size 9 to 14) (size 15 to 20)
#    0.000    2.000    0.000    5.625    0.000    2.500 
#    0.000    8.750    0.000    0.000    0.000    0.000 
#    0.000    0.000    0.000    0.000    0.000    0.000 
#
# Total GULP energy -178441.777273 kJ/mol
# GULP energy per Si atom -5576.305540 kJ/mol
# Density = 1.922528 g / cm^3
# Si number density = 19.269137 Si / 1000 Ang^3
#
#
#
# Elastic Constant Matrix: (Units=GPa)
#
#
# Indices 1 2 3 4 5 6 
#
# 1 115.1237 20.9761 67.6517 0.0000 0.0000 0.0000
# 2 20.9761 47.8837 36.4055 0.0000 0.0000 0.0000
# 3 67.6517 36.4055 130.4359 0.0000 0.0000 0.0000
# 4 0.0000 0.0000 0.0000 2.7583 0.0000 0.0000
# 5 0.0000 0.0000 0.0000 0.0000 14.9078 0.0000
# 6 0.0000 0.0000 0.0000 0.0000 0.0000 32.9342
#
#
#
# Elastic Compliance Matrix: (Units=1/GPa)
#
#
# Indices 1 2 3 4 5 6 
#
# 1 0.012513 -0.000695 -0.006296 0.000000 0.000000 0.000000
# 2 -0.000695 0.026548 -0.007049 0.000000 0.000000 0.000000
# 3 -0.006296 -0.007049 0.012900 0.000000 0.000000 0.000000
# 4 0.000000 0.000000 0.000000 0.362539 0.000000 0.000000
# 5 0.000000 0.000000 0.000000 0.000000 0.067079 0.000000
# 6 0.000000 0.000000 0.000000 0.000000 0.000000 0.030364
#
#
# Mechanical properties :
#
#
# Convention : Reuss Voigt Hill
#
# Bulk Modulus (GPa) = 41.87580 60.38998 51.13289
# Shear Modulus (GPa) = 9.12440 21.34740 15.23590
#
# Velocity S-wave (km/s) = 2.17842 3.33206 2.81497
# Velocity P-wave (km/s) = 5.30157 6.79792 6.09583
#
# Compressibility (1/GPa) = 0.02388014
#
# Stress axis : x y z
#
# Youngs Moduli (GPa) = 79.91938 37.66795 77.52209
#
# Poissons Ratio (x) = 0.02616 0.48807
# Poissons Ratio (y) = 0.05551 0.54648
# Poissons Ratio (z) = 0.50316 0.26554
#
# Static dielectric constant tensor:
#      x y z
#    x 1.730520 0.000000 0.000000 
#    y 0.000000 1.687430 0.000000 
#    z 0.000000 0.000000 1.674270 
# 
# From -- ./inp_files/18878.got.cif
#   From: 2010.05.17/outbox.cif.g08.bks.cpg/sg37_10_cif.got.tgz:18878.got - 2010.06.03 17:53:42.
