data_PCOD9353903
_publ_section_title
;
Structure prediction by ZEFSAII (Michael W. Deem and Ramdas Pophale) SiO2 
 PCOD9353903
Probable space group: C C C 2
;
_chemical_formula_sum "Si O2"
_cell_formula_units_Z 48
_cell_length_a 26.780454
_cell_length_b 12.498927
_cell_length_c 5.460115
_cell_angle_alpha 90.000000
_cell_angle_beta 90.000000
_cell_angle_gamma 90.000000
_cell_volume 1827.647584
_symmetry_space_group_name_H-M "C C C 2"
_symmetry_group_IT_number 37
_symmetry_cell_setting 'orthorhombic'
loop_
_space_group_symop_operation_xyz
x,y,z
-x,-y,z
-x,y,1/2+z
x,-y,1/2+z
1/2+x,1/2+y,z
1/2-x,1/2-y,z
1/2-x,1/2+y,1/2+z
1/2+x,1/2-y,1/2+z
loop_
_atom_site_type_symbol
_atom_site_label
_atom_site_fract_x
_atom_site_fract_y
_atom_site_fract_z
Si Si1 0.806761 0.961796 0.120820
Si Si2 0.280717 0.138815 0.618488
Si Si3 0.427127 0.248834 0.872863
Si Si4 0.325953 0.788781 0.622294
Si Si5 0.941200 0.027896 0.342357
Si Si6 0.015840 0.365435 0.539834
O O1 0.801936 0.832798 0.128415
O O2 0.832300 0.003535 0.367919
O O3 0.757003 0.961913 0.611859
O O4 0.250000 0.250000 0.610395
O O5 0.314093 0.149685 0.373572
O O6 0.307458 0.147737 0.881094
O O7 0.383889 0.230019 0.063626
O O8 0.425782 0.358300 0.726367
O O9 0.482456 0.240504 0.987694
O O10 0.431939 0.155399 0.669195
O O11 0.924269 0.952383 0.122122
O O12 0.000000 0.000000 0.372132
O O13 0.018812 0.410238 0.264930
#
# Coordination Sequence:
#
# PCOD9353903 Si02
#       6
#     8   8   8   8   8   8
#     4  12  23  42  66  90 120 169 219 263 344 390
#     4  12  24  44  66  87 134 157 220 282 344 366
#     4  10  22  35  57  79 120 159 225 238 300 351
#     4  12  26  39  67  98 120 177 226 272 299 403
#     4  10  20  29  45  65 101 151 194 242 283 323
#     4   8  18  32  55  72 116 162 199 248 296 351
#
# _framework density 26.263268
#
# number of rings (size 3 to 8) (size 9 to 14) (size 15 to 20)
#    1.000    0.333    3.333    3.500    4.667    1.333 
#    0.000    0.000    0.000    0.000    0.000    0.000 
#    0.000    0.000    0.000   52.500    0.000   23.333 
#
# Total GULP energy -133657.834890 kJ/mol
# GULP energy per Si atom -5569.076454 kJ/mol
# Density = 2.620349 g / cm^3
# Si number density = 26.263268 Si / 1000 Ang^3
#
#
#
# Elastic Constant Matrix: (Units=GPa)
#
#
# Indices 1 2 3 4 5 6 
#
# 1 70.7466 12.6348 6.2572 0.0000 0.0000 0.0000
# 2 12.6348 78.7423 -6.0323 0.0000 0.0000 0.0000
# 3 6.2572 -6.0323 201.8917 0.0000 0.0000 0.0000
# 4 0.0000 0.0000 0.0000 55.3737 0.0000 0.0000
# 5 0.0000 0.0000 0.0000 0.0000 38.1759 0.0000
# 6 0.0000 0.0000 0.0000 0.0000 0.0000 30.3307
#
#
#
# Elastic Compliance Matrix: (Units=1/GPa)
#
#
# Indices 1 2 3 4 5 6 
#
# 1 0.014607 -0.002384 -0.000524 0.000000 0.000000 0.000000
# 2 -0.002384 0.013118 0.000466 0.000000 0.000000 0.000000
# 3 -0.000524 0.000466 0.004983 0.000000 0.000000 0.000000
# 4 0.000000 0.000000 0.000000 0.018059 0.000000 0.000000
# 5 0.000000 0.000000 0.000000 0.000000 0.026195 0.000000
# 6 0.000000 0.000000 0.000000 0.000000 0.000000 0.032970
#
#
# Mechanical properties :
#
#
# Convention : Reuss Voigt Hill
#
# Bulk Modulus (GPa) = 35.94008 41.90001 38.92005
# Shear Modulus (GPa) = 40.29314 47.34411 43.81863
#
# Velocity S-wave (km/s) = 3.92114 4.25040 4.08908
# Velocity P-wave (km/s) = 5.84933 6.33059 6.09471
#
# Compressibility (1/GPa) = 0.02782409
#
# Stress axis : x y z
#
# Youngs Moduli (GPa) = 68.46006 76.23196 200.66989
#
# Poissons Ratio (x) = 0.18173 0.10514
# Poissons Ratio (y) = 0.16321 -0.09348
# Poissons Ratio (z) = 0.03587 -0.03551
#
# Static dielectric constant tensor:
#      x y z
#    x 2.124280 0.000000 0.000000 
#    y 0.000000 1.880200 0.000000 
#    z 0.000000 0.000000 2.233490 
# 
# From -- ./inp_files/1489.got.cif
#   From: 2010.05.17/outbox.cif.g08.bks.cpg/sg37_1_cif.got.tgz:1489.got - 2010.06.03 17:53:42.
