data_PCOD9353768
_publ_section_title
;
Structure prediction by ZEFSAII (Michael W. Deem and Ramdas Pophale) SiO2 
 PCOD9353768
Probable space group: C C C 2
;
_chemical_formula_sum "Si O2"
_cell_formula_units_Z 64
_cell_length_a 8.711913
_cell_length_b 14.195896
_cell_length_c 24.676187
_cell_angle_alpha 90.000000
_cell_angle_beta 90.000000
_cell_angle_gamma 90.000000
_cell_volume 3051.788215
_symmetry_space_group_name_H-M "C C C 2"
_symmetry_group_IT_number 37
_symmetry_cell_setting 'orthorhombic'
loop_
_space_group_symop_operation_xyz
x,y,z
-x,-y,z
-x,y,1/2+z
x,-y,1/2+z
1/2+x,1/2+y,z
1/2-x,1/2-y,z
1/2-x,1/2+y,1/2+z
1/2+x,1/2-y,1/2+z
loop_
_atom_site_type_symbol
_atom_site_label
_atom_site_fract_x
_atom_site_fract_y
_atom_site_fract_z
Si Si1 0.566605 0.739713 0.167100
Si Si2 0.844804 0.150930 0.372023
Si Si3 0.880972 0.567234 0.685180
Si Si4 0.069970 0.769556 0.951774
Si Si5 0.817630 0.513230 0.072989
Si Si6 0.077330 0.101748 0.749649
Si Si7 0.373579 0.082111 0.961236
Si Si8 0.381523 0.329617 0.567458
O O1 0.750000 0.750000 0.161413
O O2 0.475434 0.840244 0.164810
O O3 0.524460 0.684133 0.222205
O O4 0.497781 0.678339 0.117352
O O5 0.750000 0.250000 0.367638
O O6 0.884280 0.115577 0.312512
O O7 0.747266 0.083299 0.411969
O O8 0.003027 0.170053 0.403328
O O9 0.812006 0.496020 0.638847
O O10 0.739075 0.604255 0.718604
O O11 0.000000 0.500000 0.716497
O O12 0.250000 0.750000 0.946879
O O13 0.973776 0.674674 0.953834
O O14 0.039817 0.813163 0.010429
O O15 0.708870 0.426048 0.060508
O O16 0.000000 0.500000 0.067601
O O17 0.794998 0.582463 0.021467
O O18 0.000000 0.000000 0.740887
O O19 0.500000 0.000000 0.956823
O O20 0.250000 0.250000 0.575630
#
# Coordination Sequence:
#
# PCOD9353768 Si02
#       8
#     8   8   8   8   8   8   8   8
#     4  12  25  43  67 101 136 179 229 282 345 411
#     4  10  24  46  69  93 132 183 228 280 339 401
#     4  11  23  43  70  97 136 180 226 280 344 407
#     4  10  22  39  65  97 133 175 224 273 338 406
#     4  10  19  35  64  93 133 175 215 272 335 401
#     4  12  26  47  69  99 136 178 236 288 339 407
#     4  10  21  39  64  99 134 171 224 274 336 406
#     4  11  19  38  62  92 134 176 217 269 340 400
#
# _framework density 20.971311
#
# number of rings (size 3 to 8) (size 9 to 14) (size 15 to 20)
#    0.000    1.250    2.500    4.875    1.750    4.500 
#    2.250    2.500    0.000    0.000    0.000    0.000 
#    0.000    0.000    0.000    0.000    0.000    0.000 
#
# Total GULP energy -178425.496189 kJ/mol
# GULP energy per Si atom -5575.796756 kJ/mol
# Density = 2.092358 g / cm^3
# Si number density = 20.971311 Si / 1000 Ang^3
#
#
#
# Elastic Constant Matrix: (Units=GPa)
#
#
# Indices 1 2 3 4 5 6 
#
# 1 115.3615 29.3472 61.5895 0.0000 0.0000 0.0000
# 2 29.3472 49.6214 20.3371 0.0000 0.0000 0.0000
# 3 61.5895 20.3371 142.4144 0.0000 0.0000 0.0000
# 4 0.0000 0.0000 0.0000 51.5754 0.0000 0.0000
# 5 0.0000 0.0000 0.0000 0.0000 22.2936 0.0000
# 6 0.0000 0.0000 0.0000 0.0000 0.0000 12.3936
#
#
#
# Elastic Compliance Matrix: (Units=1/GPa)
#
#
# Indices 1 2 3 4 5 6 
#
# 1 0.012549 -0.005521 -0.004639 0.000000 0.000000 0.000000
# 2 -0.005521 0.023834 -0.001016 0.000000 0.000000 0.000000
# 3 -0.004639 -0.001016 0.009173 0.000000 0.000000 0.000000
# 4 0.000000 0.000000 0.000000 0.019389 0.000000 0.000000
# 5 0.000000 0.000000 0.000000 0.000000 0.044856 0.000000
# 6 0.000000 0.000000 0.000000 0.000000 0.000000 0.080687
#
#
# Mechanical properties :
#
#
# Convention : Reuss Voigt Hill
#
# Bulk Modulus (GPa) = 43.09367 58.88277 50.98822
# Shear Modulus (GPa) = 22.66806 30.32742 26.49774
#
# Velocity S-wave (km/s) = 3.29128 3.80694 3.55846
# Velocity P-wave (km/s) = 5.91920 6.88930 6.42259
#
# Compressibility (1/GPa) = 0.02320526
#
# Stress axis : x y z
#
# Youngs Moduli (GPa) = 79.68471 41.95667 109.01574
#
# Poissons Ratio (x) = 0.23164 0.50571
# Poissons Ratio (y) = 0.43993 0.11076
# Poissons Ratio (z) = 0.36964 0.04263
#
# Static dielectric constant tensor:
#      x y z
#    x 1.758690 0.000000 0.000000 
#    y 0.000000 1.196070 0.000000 
#    z 0.000000 0.000000 1.770790 
# 
# From -- ./inp_files/18515.got.cif
#   From: 2010.05.17/outbox.cif.g08.bks.cpg/sg37_10_cif.got.tgz:18515.got - 2010.06.03 17:53:42.
