data_PCOD9353441
_publ_section_title
;
Structure prediction by ZEFSAII (Michael W. Deem and Ramdas Pophale) SiO2 
 PCOD9353441
Probable space group: C C C 2
;
_chemical_formula_sum "Si O2"
_cell_formula_units_Z 32
_cell_length_a 8.054666
_cell_length_b 30.251398
_cell_length_c 5.402428
_cell_angle_alpha 90.000000
_cell_angle_beta 90.000000
_cell_angle_gamma 90.000000
_cell_volume 1316.382116
_symmetry_space_group_name_H-M "C C C 2"
_symmetry_group_IT_number 37
_symmetry_cell_setting 'orthorhombic'
loop_
_space_group_symop_operation_xyz
x,y,z
-x,-y,z
-x,y,1/2+z
x,-y,1/2+z
1/2+x,1/2+y,z
1/2-x,1/2-y,z
1/2-x,1/2+y,1/2+z
1/2+x,1/2-y,1/2+z
loop_
_atom_site_type_symbol
_atom_site_label
_atom_site_fract_x
_atom_site_fract_y
_atom_site_fract_z
Si Si1 0.056430 0.738087 0.722460
Si Si2 0.309247 0.981977 0.097580
Si Si3 0.100413 0.618842 0.014952
Si Si4 0.574906 0.337064 0.183659
O O1 0.250000 0.750000 0.743880
O O2 0.018931 0.714905 0.462815
O O3 0.956284 0.784475 0.702929
O O4 0.321469 0.930187 0.047020
O O5 0.500000 0.000000 0.118801
O O6 0.231689 0.993485 0.362089
O O7 0.246471 0.652521 0.077655
O O8 0.965612 0.622068 0.235302
O O9 0.545993 0.354048 0.462812
#
# Coordination Sequence:
#
# PCOD9353441 Si02
#       4
#     8   8   8   8
#     4  10  21  42  67  93 121 161 201 248 304 366
#     4  10  16  30  51  87 115 148 201 257 287 346
#     4  12  21  35  63  93 116 163 208 258 300 355
#     4  10  23  43  59  86 131 165 194 252 307 369
#
# _framework density 24.309052999999999
#
# number of rings (size 3 to 8) (size 9 to 14) (size 15 to 20)
#    0.000    1.500    5.000    2.250    0.000    0.000 
#    0.000   30.000    0.000    4.500    0.000    0.000 
#    0.000    0.000    0.000    0.000    0.000    0.000 
#
# Total GULP energy -89538.756173 kJ/mol
# GULP energy per Si atom -5596.172261 kJ/mol
# Density = 2.425372 g / cm^3
# Si number density = 24.309053 Si / 1000 Ang^3
#
#
#
# Elastic Constant Matrix: (Units=GPa)
#
#
# Indices 1 2 3 4 5 6 
#
# 1 52.8494 25.9735 0.4814 0.0000 0.0000 0.0000
# 2 25.9735 70.5821 -13.3345 0.0000 0.0000 0.0000
# 3 0.4814 -13.3345 197.0726 0.0000 0.0000 0.0000
# 4 0.0000 0.0000 0.0000 30.2728 0.0000 0.0000
# 5 0.0000 0.0000 0.0000 0.0000 26.2812 0.0000
# 6 0.0000 0.0000 0.0000 0.0000 0.0000 3.8713
#
#
#
# Elastic Compliance Matrix: (Units=1/GPa)
#
#
# Indices 1 2 3 4 5 6 
#
# 1 0.023179 -0.008651 -0.000642 0.000000 0.000000 0.000000
# 2 -0.008651 0.017580 0.001211 0.000000 0.000000 0.000000
# 3 -0.000642 0.001211 0.005158 0.000000 0.000000 0.000000
# 4 0.000000 0.000000 0.000000 0.033033 0.000000 0.000000
# 5 0.000000 0.000000 0.000000 0.000000 0.038050 0.000000
# 6 0.000000 0.000000 0.000000 0.000000 0.000000 0.258313
#
#
# Mechanical properties :
#
#
# Convention : Reuss Voigt Hill
#
# Bulk Modulus (GPa) = 33.61073 38.52721 36.06897
# Shear Modulus (GPa) = 12.45654 32.57730 22.51692
#
# Velocity S-wave (km/s) = 2.26613 3.66475 3.04678
# Velocity P-wave (km/s) = 4.55012 5.81296 5.21987
#
# Compressibility (1/GPa) = 0.02975240
#
# Stress axis : x y z
#
# Youngs Moduli (GPa) = 43.14216 56.88244 193.88276
#
# Poissons Ratio (x) = 0.49209 0.12447
# Poissons Ratio (y) = 0.37322 -0.23472
# Poissons Ratio (z) = 0.02770 -0.06886
#
# Static dielectric constant tensor:
#      x y z
#    x 1.850210 0.000000 0.000000 
#    y 0.000000 1.951810 0.000000 
#    z 0.000000 0.000000 2.121190 
# 
# From -- ./inp_files/153.got.cif
#   From: 2010.05.17/outbox.cif.g08.bks.cpg/sg37_1_cif.got.tgz:153.got - 2010.06.03 17:53:42.
