data_PCOD9353549
_publ_section_title
;
Structure prediction by ZEFSAII (Michael W. Deem and Ramdas Pophale) SiO2 
 PCOD9353549
Probable space group: C C C 2
;
_chemical_formula_sum "Si O2"
_cell_formula_units_Z 64
_cell_length_a 17.895635
_cell_length_b 5.620275
_cell_length_c 29.861021
_cell_angle_alpha 90.000000
_cell_angle_beta 90.000000
_cell_angle_gamma 90.000000
_cell_volume 3003.373416
_symmetry_space_group_name_H-M "C C C 2"
_symmetry_group_IT_number 37
_symmetry_cell_setting 'orthorhombic'
loop_
_space_group_symop_operation_xyz
x,y,z
-x,-y,z
-x,y,1/2+z
x,-y,1/2+z
1/2+x,1/2+y,z
1/2-x,1/2-y,z
1/2-x,1/2+y,1/2+z
1/2+x,1/2-y,1/2+z
loop_
_atom_site_type_symbol
_atom_site_label
_atom_site_fract_x
_atom_site_fract_y
_atom_site_fract_z
Si Si1 0.678135 0.075682 0.029440
Si Si2 0.665418 0.527670 0.769266
Si Si3 0.664285 0.530437 0.663122
Si Si4 0.165093 0.467524 0.128839
Si Si5 0.578572 0.025323 0.887853
Si Si6 0.663069 0.968243 0.302693
Si Si7 0.072644 0.841063 0.976323
Si Si8 0.326626 0.273059 0.944653
O O1 0.750000 0.250000 0.034268
O O2 0.671469 0.934537 0.075568
O O3 0.597399 0.195604 0.019774
O O4 0.684887 0.914002 0.985015
O O5 0.666479 0.568705 0.716267
O O6 0.631900 0.766514 0.791822
O O7 0.749819 0.497328 0.789101
O O8 0.631801 0.264204 0.777119
O O9 0.750309 0.498587 0.647285
O O10 0.630564 0.271320 0.650380
O O11 0.631871 0.770212 0.640230
O O12 0.563796 0.191599 0.930799
O O13 0.500000 0.000000 0.863237
O O14 0.643847 0.094703 0.854028
O O15 0.606645 0.786202 0.911342
O O16 0.148563 0.986243 0.967066
O O17 0.000000 0.000000 0.983641
O O18 0.250000 0.250000 0.918110
#
# Coordination Sequence:
#
# PCOD9353549 Si02
#       8
#     8   8   8   8   8   8   8   8
#     4  11  22  36  55  96 125 156 217 271 313 367
#     4  10  20  37  55  94 127 158 198 258 327 389
#     4  10  18  31  55  83 133 160 195 245 339 372
#     4  10  19  29  54  86 125 161 198 252 311 373
#     4  11  25  41  59  89 118 165 221 258 315 389
#     4  10  21  34  60  82 124 153 201 262 310 365
#     4  11  24  43  63  81 127 176 211 259 322 390
#     4  11  24  37  64  84 124 164 205 264 321 366
#
# _framework density 21.309373000000001
#
# number of rings (size 3 to 8) (size 9 to 14) (size 15 to 20)
#    0.000    1.500    3.750    3.750    7.000    1.000 
#    0.000    0.000    0.000    0.000    0.000    5.250 
#    0.000    0.000    0.000    0.000    0.000    0.000 
#
# Total GULP energy -178185.470384 kJ/mol
# GULP energy per Si atom -5568.295950 kJ/mol
# Density = 2.126087 g / cm^3
# Si number density = 21.309373 Si / 1000 Ang^3
#
#
#
# Elastic Constant Matrix: (Units=GPa)
#
#
# Indices 1 2 3 4 5 6 
#
# 1 51.1573 10.1509 14.8404 0.0000 0.0000 0.0000
# 2 10.1509 121.1199 -2.8424 0.0000 0.0000 0.0000
# 3 14.8404 -2.8424 81.1757 0.0000 0.0000 0.0000
# 4 0.0000 0.0000 0.0000 14.1526 0.0000 0.0000
# 5 0.0000 0.0000 0.0000 0.0000 4.0817 0.0000
# 6 0.0000 0.0000 0.0000 0.0000 0.0000 19.0353
#
#
#
# Elastic Compliance Matrix: (Units=1/GPa)
#
#
# Indices 1 2 3 4 5 6 
#
# 1 0.021051 -0.001856 -0.003914 0.000000 0.000000 0.000000
# 2 -0.001856 0.008427 0.000634 0.000000 0.000000 0.000000
# 3 -0.003914 0.000634 0.013057 0.000000 0.000000 0.000000
# 4 0.000000 0.000000 0.000000 0.070659 0.000000 0.000000
# 5 0.000000 0.000000 0.000000 0.000000 0.244996 0.000000
# 6 0.000000 0.000000 0.000000 0.000000 0.000000 0.052534
#
#
# Mechanical properties :
#
#
# Convention : Reuss Voigt Hill
#
# Bulk Modulus (GPa) = 30.99429 33.08343 32.03886
# Shear Modulus (GPa) = 11.58081 22.87416 17.22749
#
# Velocity S-wave (km/s) = 2.33375 3.27988 2.84640
# Velocity P-wave (km/s) = 4.67315 5.46832 5.08630
#
# Compressibility (1/GPa) = 0.03226401
#
# Stress axis : x y z
#
# Youngs Moduli (GPa) = 47.50340 118.67000 76.58942
#
# Poissons Ratio (x) = 0.22026 0.29973
# Poissons Ratio (y) = 0.08817 -0.04859
# Poissons Ratio (z) = 0.18591 -0.07528
#
# Static dielectric constant tensor:
#      x y z
#    x 1.800430 0.000000 0.000000 
#    y 0.000000 1.877080 0.000000 
#    z 0.000000 0.000000 1.753550 
# 
# From -- ./inp_files/19560.got.cif
#   From: 2010.05.17/outbox.cif.g08.bks.cpg/sg37_10_cif.got.tgz:19560.got - 2010.06.03 17:53:42.
