data_PCOD9353818
_publ_section_title
;
Structure prediction by ZEFSAII (Michael W. Deem and Ramdas Pophale) SiO2 
 PCOD9353818
Probable space group: C C C 2
;
_chemical_formula_sum "Si O2"
_cell_formula_units_Z 56
_cell_length_a 13.731863
_cell_length_b 5.461897
_cell_length_c 30.222531
_cell_angle_alpha 90.000000
_cell_angle_beta 90.000000
_cell_angle_gamma 90.000000
_cell_volume 2266.750915
_symmetry_space_group_name_H-M "C C C 2"
_symmetry_group_IT_number 37
_symmetry_cell_setting 'orthorhombic'
loop_
_space_group_symop_operation_xyz
x,y,z
-x,-y,z
-x,y,1/2+z
x,-y,1/2+z
1/2+x,1/2+y,z
1/2-x,1/2-y,z
1/2-x,1/2+y,1/2+z
1/2+x,1/2-y,1/2+z
loop_
_atom_site_type_symbol
_atom_site_label
_atom_site_fract_x
_atom_site_fract_y
_atom_site_fract_z
Si Si1 0.899689 0.264365 0.700370
Si Si2 0.250000 0.250000 0.496064
Si Si3 0.640579 0.146004 0.450632
Si Si4 0.107169 0.873432 0.065226
Si Si5 0.382562 0.727092 0.165371
Si Si6 0.367921 0.245167 0.300473
Si Si7 0.132565 0.248442 0.851666
Si Si8 0.500000 0.000000 0.016825
O O1 0.849392 0.504623 0.680311
O O2 0.916211 0.283673 0.752566
O O3 0.000870 0.246515 0.673471
O O4 0.851173 0.999805 0.695344
O O5 0.168380 0.363950 0.463300
O O6 0.192339 0.066326 0.529950
O O7 0.750000 0.250000 0.455067
O O8 0.602180 0.221347 0.402689
O O9 0.554460 0.193760 0.485352
O O10 0.139888 0.854667 0.115603
O O11 0.082013 0.600635 0.049006
O O12 0.000000 0.000000 0.063974
O O13 0.250000 0.250000 0.293898
O O14 0.393406 0.495928 0.326628
O O15 0.392819 0.000145 0.327222
O O16 0.250000 0.250000 0.853319
#
# Coordination Sequence:
#
# PCOD9353818 Si02
#       8
#     8   4   8   8   8   8   8   4
#     4  10  19  37  58  86 115 160 216 253 322 399
#     4  10  24  38  64 100 122 178 230 274 336 420
#     4  10  21  39  63  92 129 170 220 271 345 402
#     4  11  21  41  63  90 133 171 226 276 343 402
#     4  10  21  37  62  83 119 172 207 260 335 386
#     4  10  20  37  58  92 117 166 209 268 327 401
#     4   9  20  35  62  85 126 164 210 264 336 397
#     4  10  22  38  62  92 126 170 220 278 330 414
#
# _framework density 24.704962999999999
#
# number of rings (size 3 to 8) (size 9 to 14) (size 15 to 20)
#    0.000    2.000    1.429    2.571    5.000    0.000 
#    2.571    4.286    0.000    0.000    0.000    0.000 
#    0.000    0.000    0.000    0.000    0.000    0.000 
#
# Total GULP energy -156160.006628 kJ/mol
# GULP energy per Si atom -5577.143094 kJ/mol
# Density = 2.464873 g / cm^3
# Si number density = 24.704963 Si / 1000 Ang^3
#
#
#
# Elastic Constant Matrix: (Units=GPa)
#
#
# Indices 1 2 3 4 5 6 
#
# 1 106.1850 -2.9395 -9.6568 0.0000 0.0000 0.0000
# 2 -2.9395 149.2208 48.4566 0.0000 0.0000 0.0000
# 3 -9.6568 48.4566 146.5890 0.0000 0.0000 0.0000
# 4 0.0000 0.0000 0.0000 -0.4046 0.0000 0.0000
# 5 0.0000 0.0000 0.0000 0.0000 108.4185 0.0000
# 6 0.0000 0.0000 0.0000 0.0000 0.0000 -15.3330
#
#
#
# Elastic Compliance Matrix: (Units=1/GPa)
#
#
# Indices 1 2 3 4 5 6 
#
# 1 0.009474 -0.000018 0.000630 0.000000 0.000000 0.000000
# 2 -0.000018 0.007507 -0.002483 0.000000 0.000000 0.000000
# 3 0.000630 -0.002483 0.007684 0.000000 0.000000 0.000000
# 4 0.000000 0.000000 0.000000 -2.471703 0.000000 0.000000
# 5 0.000000 0.000000 0.000000 0.000000 0.009224 0.000000
# 6 0.000000 0.000000 0.000000 0.000000 0.000000 -0.065219
#
#
# Mechanical properties :
#
#
# Convention : Reuss Voigt Hill
#
# Bulk Modulus (GPa) = 47.79135 52.63503 50.21319
# Shear Modulus (GPa) = -2.00617 42.94516 20.46950
#
# Velocity S-wave (km/s) = -0.90212 4.17384 2.88159
# Velocity P-wave (km/s) = 4.27805 6.67680 5.60720
#
# Compressibility (1/GPa) = 0.02092429
#
# Stress axis : x y z
#
# Youngs Moduli (GPa) = 105.54841 133.20231 130.14006
#
# Poissons Ratio (x) = 0.00239 -0.08200
# Poissons Ratio (y) = 0.00190 0.32312
# Poissons Ratio (z) = -0.06650 0.33072
#
# Static dielectric constant tensor:
#      x y z
#    x 2.006490 0.000000 0.000000 
#    y 0.000000 2.059640 0.000000 
#    z 0.000000 0.000000 1.881110 
# 
# From -- ./inp_files/20572.got.cif
#   From: 2010.05.17/outbox.cif.g08.bks.cpg/sg37_11_cif.got.tgz:20572.got - 2010.06.03 17:53:42.
