data_PCOD9353708
_publ_section_title
;
Structure prediction by ZEFSAII (Michael W. Deem and Ramdas Pophale) SiO2 
 PCOD9353708
Probable space group: C C C 2
;
_chemical_formula_sum "Si O2"
_cell_formula_units_Z 64
_cell_length_a 19.020938
_cell_length_b 18.376117
_cell_length_c 9.655798
_cell_angle_alpha 90.000000
_cell_angle_beta 90.000000
_cell_angle_gamma 90.000000
_cell_volume 3375.000558
_symmetry_space_group_name_H-M "C C C 2"
_symmetry_group_IT_number 37
_symmetry_cell_setting 'orthorhombic'
loop_
_space_group_symop_operation_xyz
x,y,z
-x,-y,z
-x,y,1/2+z
x,-y,1/2+z
1/2+x,1/2+y,z
1/2-x,1/2-y,z
1/2-x,1/2+y,1/2+z
1/2+x,1/2-y,1/2+z
loop_
_atom_site_type_symbol
_atom_site_label
_atom_site_fract_x
_atom_site_fract_y
_atom_site_fract_z
Si Si1 0.074866 0.279326 0.967560
Si Si2 0.057998 0.264308 0.651714
Si Si3 0.332708 0.729486 0.923208
Si Si4 0.274986 0.418981 0.351200
Si Si5 0.582041 0.603681 0.998130
Si Si6 0.320085 0.509338 0.102724
Si Si7 0.042463 0.907501 0.192875
Si Si8 0.187468 0.308634 0.170866
O O1 0.066662 0.296718 0.805025
O O2 0.087472 0.191338 0.986504
O O3 0.141144 0.319743 0.036195
O O4 0.004809 0.295005 0.056852
O O5 0.127009 0.258696 0.555678
O O6 0.043298 0.179502 0.679858
O O7 0.250000 0.750000 0.938151
O O8 0.332627 0.644391 0.883032
O O9 0.361072 0.769054 0.786107
O O10 0.298627 0.485295 0.255408
O O11 0.263216 0.450671 0.505251
O O12 0.218464 0.376967 0.255353
O O13 0.549132 0.575752 0.854593
O O14 0.655811 0.565497 0.028505
O O15 0.531113 0.575951 0.120361
O O16 0.389218 0.559688 0.117947
O O17 0.250000 0.250000 0.141988
#
# Coordination Sequence:
#
# PCOD9353708 Si02
#       8
#     8   8   8   8   8   8   8   8
#     4  10  20  33  53  77 109 143 180 232 283 327
#     4  10  19  33  53  81 111 140 180 225 276 335
#     4   9  18  35  55  76 107 148 180 227 280 331
#     4  10  22  34  53  72 107 147 191 232 276 326
#     4  10  21  31  44  72 101 146 183 225 259 319
#     4  12  20  33  48  69 101 147 189 231 265 317
#     4  10  21  30  44  68 107 141 184 216 260 310
#     4   9  19  37  53  74 102 146 187 235 286 329
#
# _framework density 18.962959000000001
#
# number of rings (size 3 to 8) (size 9 to 14) (size 15 to 20)
#    0.000    2.250    2.500    2.625    1.750    3.500 
#    0.000    2.500    0.000    0.000    0.000    0.000 
#    0.000   27.000    0.000    0.000    0.000    0.000 
#
# Total GULP energy -178179.425100 kJ/mol
# GULP energy per Si atom -5568.107034 kJ/mol
# Density = 1.891980 g / cm^3
# Si number density = 18.962959 Si / 1000 Ang^3
#
#
#
# Elastic Constant Matrix: (Units=GPa)
#
#
# Indices 1 2 3 4 5 6 
#
# 1 52.5936 1.8716 43.1049 0.0000 0.0000 0.0000
# 2 1.8716 22.8941 6.2996 0.0000 0.0000 0.0000
# 3 43.1049 6.2996 131.2947 0.0000 0.0000 0.0000
# 4 0.0000 0.0000 0.0000 -8.6160 0.0000 0.0000
# 5 0.0000 0.0000 0.0000 0.0000 28.6443 0.0000
# 6 0.0000 0.0000 0.0000 0.0000 0.0000 14.0211
#
#
#
# Elastic Compliance Matrix: (Units=1/GPa)
#
#
# Indices 1 2 3 4 5 6 
#
# 1 0.026014 0.000226 -0.008552 0.000000 0.000000 0.000000
# 2 0.000226 0.044266 -0.002198 0.000000 0.000000 0.000000
# 3 -0.008552 -0.002198 0.010529 0.000000 0.000000 0.000000
# 4 0.000000 0.000000 0.000000 -0.116063 0.000000 0.000000
# 5 0.000000 0.000000 0.000000 0.000000 0.034911 0.000000
# 6 0.000000 0.000000 0.000000 0.000000 0.000000 0.071321
#
#
# Mechanical properties :
#
#
# Convention : Reuss Voigt Hill
#
# Bulk Modulus (GPa) = 16.73282 34.37053 25.55167
# Shear Modulus (GPa) = 44.66434 17.17695 30.92065
#
# Velocity S-wave (km/s) = 4.85846 3.01294 4.04243
# Velocity P-wave (km/s) = 6.34948 5.50165 5.94071
#
# Compressibility (1/GPa) = 0.05976280
#
# Stress axis : x y z
#
# Youngs Moduli (GPa) = 38.44024 22.59083 94.97162
#
# Poissons Ratio (x) = -0.00511 0.81216
# Poissons Ratio (y) = -0.00870 0.20877
# Poissons Ratio (z) = 0.32872 0.04966
#
# Static dielectric constant tensor:
#      x y z
#    x 1.713380 0.000000 0.000000 
#    y 0.000000 1.709650 0.000000 
#    z 0.000000 0.000000 1.708600 
# 
# From -- ./inp_files/4445.got.cif
#   From: 2010.05.17/outbox.cif.g08.bks.cpg/sg37_3_cif.got.tgz:4445.got - 2010.06.03 17:53:42.
