data_PCOD9353678
_publ_section_title
;
Structure prediction by ZEFSAII (Michael W. Deem and Ramdas Pophale) SiO2 
 PCOD9353678
Probable space group: C C C 2
;
_chemical_formula_sum "Si O2"
_cell_formula_units_Z 48
_cell_length_a 30.231322
_cell_length_b 13.589448
_cell_length_c 5.143241
_cell_angle_alpha 90.000000
_cell_angle_beta 90.000000
_cell_angle_gamma 90.000000
_cell_volume 2112.982159
_symmetry_space_group_name_H-M "C C C 2"
_symmetry_group_IT_number 37
_symmetry_cell_setting 'orthorhombic'
loop_
_space_group_symop_operation_xyz
x,y,z
-x,-y,z
-x,y,1/2+z
x,-y,1/2+z
1/2+x,1/2+y,z
1/2-x,1/2-y,z
1/2-x,1/2+y,1/2+z
1/2+x,1/2-y,1/2+z
loop_
_atom_site_type_symbol
_atom_site_label
_atom_site_fract_x
_atom_site_fract_y
_atom_site_fract_z
Si Si1 0.795736 0.067654 0.084420
Si Si2 0.481949 0.359036 0.470303
Si Si3 0.295736 0.932346 0.229767
Si Si4 0.391396 0.432671 0.660896
Si Si5 0.481949 0.140964 0.843877
Si Si6 0.108604 0.432671 0.653287
O O1 0.750000 0.121648 0.157093
O O2 0.843311 0.117148 0.125516
O O3 0.795256 0.977010 0.294028
O O4 0.515210 0.404125 0.682946
O O5 0.433450 0.366703 0.590012
O O6 0.500000 0.250000 0.407091
O O7 0.343311 0.882852 0.188669
O O8 0.295256 0.977010 0.520159
O O9 0.392910 0.520846 0.447574
O O10 0.515210 0.095875 0.631235
O O11 0.433450 0.133297 0.724170
O O12 0.107090 0.479153 0.366607
#
# Coordination Sequence:
#
# PCOD9353678 Si02
#       6
#     8   8   8   8   8   8
#     4   8  14  25  41  64  95 122 145 184 237 286
#     4  10  21  35  48  65  94 132 166 199 244 292
#     4   8  14  25  41  64  95 122 145 184 237 286
#     4  10  19  30  48  73  97 124 162 204 241 285
#     4  10  21  35  48  65  94 132 166 199 244 292
#     4  10  19  30  48  73  97 124 162 204 241 285
#
# _framework density 22.716711
#
# number of rings (size 3 to 8) (size 9 to 14) (size 15 to 20)
#    0.000    2.667    0.000    2.000    0.000    4.000 
#    0.000    0.000    0.000    0.000    0.000    4.667 
#    0.000   10.667    0.000    0.000    0.000    0.667 
#
# Total GULP energy -133704.875952 kJ/mol
# GULP energy per Si atom -5571.036498 kJ/mol
# Density = 2.266501 g / cm^3
# Si number density = 22.716711 Si / 1000 Ang^3
#
#
#
# Elastic Constant Matrix: (Units=GPa)
#
#
# Indices 1 2 3 4 5 6 
#
# 1 234.4823 17.0463 5.0013 0.0000 0.0000 0.0000
# 2 17.0463 54.1211 -11.1778 0.0000 0.0000 0.0000
# 3 5.0013 -11.1778 143.4829 0.0000 0.0000 0.0000
# 4 0.0000 0.0000 0.0000 11.2048 0.0000 0.0000
# 5 0.0000 0.0000 0.0000 0.0000 39.7498 0.0000
# 6 0.0000 0.0000 0.0000 0.0000 0.0000 4.7823
#
#
#
# Elastic Compliance Matrix: (Units=1/GPa)
#
#
# Indices 1 2 3 4 5 6 
#
# 1 0.004374 -0.001432 -0.000264 0.000000 0.000000 0.000000
# 2 -0.001432 0.019248 0.001549 0.000000 0.000000 0.000000
# 3 -0.000264 0.001549 0.007099 0.000000 0.000000 0.000000
# 4 0.000000 0.000000 0.000000 0.089247 0.000000 0.000000
# 5 0.000000 0.000000 0.000000 0.000000 0.025157 0.000000
# 6 0.000000 0.000000 0.000000 0.000000 0.000000 0.209103
#
#
# Mechanical properties :
#
#
# Convention : Reuss Voigt Hill
#
# Bulk Modulus (GPa) = 32.86435 50.42512 41.64473
# Shear Modulus (GPa) = 13.71117 39.22849 26.46983
#
# Velocity S-wave (km/s) = 2.45944 4.16005 3.41723
# Velocity P-wave (km/s) = 4.75011 6.73203 5.82597
#
# Compressibility (1/GPa) = 0.03042811
#
# Stress axis : x y z
#
# Youngs Moduli (GPa) = 228.59886 51.95284 140.85731
#
# Poissons Ratio (x) = 0.07441 0.03720
# Poissons Ratio (y) = 0.32743 -0.21825
# Poissons Ratio (z) = 0.06036 -0.08050
#
# Static dielectric constant tensor:
#      x y z
#    x 1.945590 0.000000 0.000000 
#    y 0.000000 2.246290 0.000000 
#    z 0.000000 0.000000 1.980220 
# 
# From -- ./inp_files/1467.got.cif
#   From: 2010.05.17/outbox.cif.g08.bks.cpg/sg37_1_cif.got.tgz:1467.got - 2010.06.03 17:53:42.
