data_PCOD9353123
_publ_section_title
;
Structure prediction by ZEFSAII (Michael W. Deem and Ramdas Pophale) SiO2 
 PCOD9353123
Probable space group: C M C 21
;
_chemical_formula_sum "Si O2"
_cell_formula_units_Z 64
_cell_length_a 9.183593
_cell_length_b 28.882547
_cell_length_c 14.163867
_cell_angle_alpha 90.000000
_cell_angle_beta 90.000000
_cell_angle_gamma 90.000000
_cell_volume 3756.902784
_symmetry_space_group_name_H-M "C M C 21"
_symmetry_group_IT_number 36
_symmetry_cell_setting 'orthorhombic'
loop_
_space_group_symop_operation_xyz
x,y,z
-x,-y,1/2+z
x,-y,1/2+z
-x,y,z
1/2+x,1/2+y,z
1/2-x,1/2-y,1/2+z
1/2+x,1/2-y,1/2+z
1/2-x,1/2+y,z
loop_
_atom_site_type_symbol
_atom_site_label
_atom_site_fract_x
_atom_site_fract_y
_atom_site_fract_z
Si Si1 0.674779 0.176347 0.997450
Si Si2 0.169410 0.418810 0.124375
Si Si3 0.169076 0.532779 0.813279
Si Si4 0.673080 0.421689 0.485995
Si Si5 0.825418 0.232804 0.380872
Si Si6 0.175170 0.825236 0.064975
Si Si7 0.672894 0.490647 0.649510
Si Si8 0.174120 0.734267 0.182653
O O1 0.500000 0.169326 0.992691
O O2 0.757024 0.128811 0.980751
O O3 0.713173 0.216601 0.922778
O O4 0.709687 0.197508 0.100492
O O5 0.175134 0.423962 0.238941
O O6 0.242562 0.372287 0.088584
O O7 0.259074 0.464742 0.095319
O O8 0.000000 0.422088 0.097069
O O9 0.253989 0.546374 0.906378
O O10 0.246819 0.493087 0.750635
O O11 0.000000 0.522356 0.830955
O O12 0.500000 0.419709 0.471216
O O13 0.700410 0.445433 0.587517
O O14 0.787362 0.195649 0.462120
O O15 0.751339 0.224897 0.281001
O O16 0.000000 0.231719 0.370956
O O17 0.212038 0.784825 0.140129
O O18 0.000000 0.832007 0.068197
O O19 0.500000 0.496852 0.661251
O O20 0.000000 0.733484 0.195026
#
# Coordination Sequence:
#
# PCOD9353123 Si02
#       8
#     8   8   8   8   8   8   8   8
#     4   9  20  37  54  77 111 145 179 220 269 321
#     4   9  19  33  52  79 103 131 171 213 261 313
#     4   9  20  35  54  80 107 136 173 215 263 316
#     4  11  22  35  57  84 109 141 180 223 270 320
#     4   9  19  34  52  75 104 141 180 218 265 317
#     4   9  18  33  52  74 104 140 173 215 268 316
#     4   9  19  36  54  76 107 138 173 220 266 313
#     4   9  19  35  53  75 105 142 179 218 266 316
#
# _framework density 17.035308000000001
#
# number of rings (size 3 to 8) (size 9 to 14) (size 15 to 20)
#    0.750    2.000    0.000    2.625    1.750    4.000 
#    0.000    3.750    0.000    1.500    0.000    0.000 
#    0.000    0.000    0.000    0.000    0.000    0.000 
#
# Total GULP energy -178208.639306 kJ/mol
# GULP energy per Si atom -5569.019978 kJ/mol
# Density = 1.699653 g / cm^3
# Si number density = 17.035308 Si / 1000 Ang^3
#
#
#
# Elastic Constant Matrix: (Units=GPa)
#
#
# Indices 1 2 3 4 5 6 
#
# 1 47.4025 11.9507 21.4643 0.0000 0.0000 0.0000
# 2 11.9507 18.8327 -7.4804 0.0000 0.0000 0.0000
# 3 21.4643 -7.4804 64.9979 0.0000 0.0000 0.0000
# 4 0.0000 0.0000 0.0000 9.3773 0.0000 0.0000
# 5 0.0000 0.0000 0.0000 0.0000 31.9527 0.0000
# 6 0.0000 0.0000 0.0000 0.0000 0.0000 26.5590
#
#
#
# Elastic Compliance Matrix: (Units=1/GPa)
#
#
# Indices 1 2 3 4 5 6 
#
# 1 0.034791 -0.027917 -0.014702 0.000000 0.000000 0.000000
# 2 -0.027917 0.078044 0.018201 0.000000 0.000000 0.000000
# 3 -0.014702 0.018201 0.022335 0.000000 0.000000 0.000000
# 4 0.000000 0.000000 0.000000 0.106640 0.000000 0.000000
# 5 0.000000 0.000000 0.000000 0.000000 0.031296 0.000000
# 6 0.000000 0.000000 0.000000 0.000000 0.000000 0.037652
#
#
# Mechanical properties :
#
#
# Convention : Reuss Voigt Hill
#
# Bulk Modulus (GPa) = 11.58298 20.34470 15.96384
# Shear Modulus (GPa) = 12.87421 20.59772 16.73596
#
# Velocity S-wave (km/s) = 2.75205 3.48101 3.13777
# Velocity P-wave (km/s) = 4.11248 5.30332 4.74540
#
# Compressibility (1/GPa) = 0.08633354
#
# Stress axis : x y z
#
# Youngs Moduli (GPa) = 28.74274 12.81327 44.77304
#
# Poissons Ratio (x) = 0.35771 0.65826
# Poissons Ratio (y) = 0.80242 -0.81491
# Poissons Ratio (z) = 0.42258 -0.23321
#
# Static dielectric constant tensor:
#      x y z
#    x 1.564230 0.000000 0.000000 
#    y 0.000000 1.560270 0.000000 
#    z 0.000000 0.000000 1.576630 
# 
# From -- ./inp_files/11201.got.cif
#   From: 2010.05.17/outbox.cif.g08.bks.cpg/sg36_6_cif.got.tgz:11201.got - 2010.06.03 17:41:39.
