data_PCOD9353718
_publ_section_title
;
Structure prediction by ZEFSAII (Michael W. Deem and Ramdas Pophale) SiO2 
 PCOD9353718
Probable space group: C C C 2
;
_chemical_formula_sum "Si O2"
_cell_formula_units_Z 60
_cell_length_a 5.266787
_cell_length_b 24.964465
_cell_length_c 21.642182
_cell_angle_alpha 90.000000
_cell_angle_beta 90.000000
_cell_angle_gamma 90.000000
_cell_volume 2845.568622
_symmetry_space_group_name_H-M "C C C 2"
_symmetry_group_IT_number 37
_symmetry_cell_setting 'orthorhombic'
loop_
_space_group_symop_operation_xyz
x,y,z
-x,-y,z
-x,y,1/2+z
x,-y,1/2+z
1/2+x,1/2+y,z
1/2-x,1/2-y,z
1/2-x,1/2+y,1/2+z
1/2+x,1/2-y,1/2+z
loop_
_atom_site_type_symbol
_atom_site_label
_atom_site_fract_x
_atom_site_fract_y
_atom_site_fract_z
Si Si1 0.363779 0.886309 0.048330
Si Si2 0.500000 0.500000 0.105239
Si Si3 0.998286 0.218919 0.427434
Si Si4 0.112402 0.439915 0.167579
Si Si5 0.990929 0.902483 0.877845
Si Si6 0.495142 0.235862 0.564904
Si Si7 0.161725 0.062616 0.003514
Si Si8 0.006229 0.564998 0.806669
O O1 0.465485 0.906964 0.114943
O O2 0.560581 0.911637 0.999684
O O3 0.069347 0.902091 0.035782
O O4 0.444446 0.824505 0.045301
O O5 0.408573 0.452265 0.150498
O O6 0.704561 0.512474 0.050034
O O7 0.750000 0.250000 0.404614
O O8 0.992195 0.157405 0.407052
O O9 0.994694 0.227456 0.502466
O O10 0.250000 0.250000 0.406317
O O11 0.066766 0.419021 0.235898
O O12 0.000000 0.500000 0.166148
O O13 0.760699 0.911506 0.830143
O O14 0.261048 0.914632 0.847951
O O15 0.935412 0.942463 0.934682
O O16 0.750000 0.250000 0.599166
O O17 0.250000 0.250000 0.603857
O O18 0.000000 0.500000 0.809407
#
# Coordination Sequence:
#
# PCOD9353718 Si02
#       8
#     8   4   8   8   8   8   8   8
#     4  11  21  38  64  95 122 162 203 265 317 386
#     4  10  22  36  62  90 124 164 206 258 318 370
#     4  10  19  35  62  89 122 161 203 254 320 396
#     4  10  22  42  64  90 126 171 225 255 309 372
#     4  12  24  42  62  97 131 173 213 267 322 390
#     4  10  19  33  57  87 119 154 195 246 320 385
#     4  11  22  35  59  90 132 152 201 251 326 378
#     4  11  27  42  65  86 131 182 228 258 305 376
#
# _framework density 21.085415999999999
#
# number of rings (size 3 to 8) (size 9 to 14) (size 15 to 20)
#    0.000    1.333    1.333    6.000    5.600    0.000 
#    0.000    0.000    0.000    4.800    0.000    0.000 
#    0.000    0.000    0.000    0.000    0.000    0.000 
#
# Total GULP energy -167059.939744 kJ/mol
# GULP energy per Si atom -5568.664658 kJ/mol
# Density = 2.103742 g / cm^3
# Si number density = 21.085416 Si / 1000 Ang^3
#
#
#
# Elastic Constant Matrix: (Units=GPa)
#
#
# Indices 1 2 3 4 5 6 
#
# 1 151.6615 28.4671 12.7741 0.0000 0.0000 0.0000
# 2 28.4671 94.1395 20.9365 0.0000 0.0000 0.0000
# 3 12.7741 20.9365 102.3077 0.0000 0.0000 0.0000
# 4 0.0000 0.0000 0.0000 157.2592 0.0000 0.0000
# 5 0.0000 0.0000 0.0000 0.0000 20.1359 0.0000
# 6 0.0000 0.0000 0.0000 0.0000 0.0000 35.7617
#
#
#
# Elastic Compliance Matrix: (Units=1/GPa)
#
#
# Indices 1 2 3 4 5 6 
#
# 1 0.007011 -0.002017 -0.000463 0.000000 0.000000 0.000000
# 2 -0.002017 0.011709 -0.002144 0.000000 0.000000 0.000000
# 3 -0.000463 -0.002144 0.010271 0.000000 0.000000 0.000000
# 4 0.000000 0.000000 0.000000 0.006359 0.000000 0.000000
# 5 0.000000 0.000000 0.000000 0.000000 0.049663 0.000000
# 6 0.000000 0.000000 0.000000 0.000000 0.000000 0.027963
#
#
# Mechanical properties :
#
#
# Convention : Reuss Voigt Hill
#
# Bulk Modulus (GPa) = 50.65030 52.49602 51.57316
# Shear Modulus (GPa) = 38.81816 61.69344 50.25580
#
# Velocity S-wave (km/s) = 4.29534 5.41501 4.88734
# Velocity P-wave (km/s) = 6.97664 8.00296 7.50736
#
# Compressibility (1/GPa) = 0.01974322
#
# Stress axis : x y z
#
# Youngs Moduli (GPa) = 142.62821 85.40111 97.36127
#
# Poissons Ratio (x) = 0.17228 0.04504
# Poissons Ratio (y) = 0.28772 0.20878
# Poissons Ratio (z) = 0.06598 0.18313
#
# Static dielectric constant tensor:
#      x y z
#    x 1.970540 0.000000 0.000000 
#    y 0.000000 1.815050 0.000000 
#    z 0.000000 0.000000 1.754960 
# 
# From -- ./inp_files/15965.got.cif
#   From: 2010.05.17/outbox.cif.g08.bks.cpg/sg37_8_cif.got.tgz:15965.got - 2010.06.03 17:53:42.
