data_PCOD9353598
_publ_section_title
;
Structure prediction by ZEFSAII (Michael W. Deem and Ramdas Pophale) SiO2 
 PCOD9353598
Probable space group: C C C 2
;
_chemical_formula_sum "Si O2"
_cell_formula_units_Z 60
_cell_length_a 23.166820
_cell_length_b 13.327140
_cell_length_c 9.852238
_cell_angle_alpha 90.000000
_cell_angle_beta 90.000000
_cell_angle_gamma 90.000000
_cell_volume 3041.853394
_symmetry_space_group_name_H-M "C C C 2"
_symmetry_group_IT_number 37
_symmetry_cell_setting 'orthorhombic'
loop_
_space_group_symop_operation_xyz
x,y,z
-x,-y,z
-x,y,1/2+z
x,-y,1/2+z
1/2+x,1/2+y,z
1/2-x,1/2-y,z
1/2-x,1/2+y,1/2+z
1/2+x,1/2-y,1/2+z
loop_
_atom_site_type_symbol
_atom_site_label
_atom_site_fract_x
_atom_site_fract_y
_atom_site_fract_z
Si Si1 0.566441 0.329367 0.224010
Si Si2 0.142673 0.367504 0.775215
Si Si3 0.758098 0.144080 0.669517
Si Si4 0.285987 0.607922 0.961739
Si Si5 0.520801 0.385074 0.506967
Si Si6 0.669699 0.989190 0.037266
Si Si7 0.868806 0.014824 0.594660
Si Si8 0.750000 0.750000 0.694098
O O1 0.602346 0.229900 0.259223
O O2 0.526918 0.350874 0.353820
O O3 0.605305 0.429146 0.193722
O O4 0.524085 0.321657 0.094798
O O5 0.137451 0.432544 0.636258
O O6 0.208004 0.322637 0.776152
O O7 0.137253 0.433584 0.912959
O O8 0.750000 0.250000 0.595954
O O9 0.778382 0.164030 0.822081
O O10 0.697823 0.089079 0.643505
O O11 0.808666 0.068112 0.628170
O O12 0.226493 0.544245 0.974475
O O13 0.346279 0.547503 0.963157
O O14 0.286862 0.680509 0.091817
O O15 0.500000 0.500000 0.509133
O O16 0.584711 0.398489 0.569289
#
# Coordination Sequence:
#
# PCOD9353598 Si02
#       8
#     8   8   8   8   8   8   8   4
#     4  11  23  42  67  95 123 171 217 275 348 386
#     4  11  23  41  67  90 128 176 213 271 325 394
#     4  11  22  34  56  95 134 173 209 254 302 380
#     4  10  18  35  53  86 133 169 206 246 305 373
#     4  10  22  41  63  94 129 158 215 279 329 395
#     4  10  23  39  57  91 130 167 214 257 311 385
#     4  10  21  36  61  95 132 171 211 262 324 386
#     4  10  20  34  58  90 128 174 208 236 310 392
#
# _framework density 19.724817000000002
#
# number of rings (size 3 to 8) (size 9 to 14) (size 15 to 20)
#    0.000    1.600    3.333    2.000    2.800    2.133 
#    0.000    1.333    0.000    2.400    0.000    0.000 
#    0.000    0.000    0.000    0.000    0.000    0.000 
#
# Total GULP energy -167068.237079 kJ/mol
# GULP energy per Si atom -5568.941236 kJ/mol
# Density = 1.967992 g / cm^3
# Si number density = 19.724817 Si / 1000 Ang^3
#
#
#
# Elastic Constant Matrix: (Units=GPa)
#
#
# Indices 1 2 3 4 5 6 
#
# 1 41.0599 5.3839 23.9398 0.0000 0.0000 0.0000
# 2 5.3839 51.3923 18.4457 0.0000 0.0000 0.0000
# 3 23.9398 18.4457 92.7055 0.0000 0.0000 0.0000
# 4 0.0000 0.0000 0.0000 356.3066 0.0000 0.0000
# 5 0.0000 0.0000 0.0000 0.0000 -6.2632 0.0000
# 6 0.0000 0.0000 0.0000 0.0000 0.0000 18.5804
#
#
#
# Elastic Compliance Matrix: (Units=1/GPa)
#
#
# Indices 1 2 3 4 5 6 
#
# 1 0.028678 -0.000373 -0.007331 0.000000 0.000000 0.000000
# 2 -0.000373 0.020959 -0.004074 0.000000 0.000000 0.000000
# 3 -0.007331 -0.004074 0.013491 0.000000 0.000000 0.000000
# 4 0.000000 0.000000 0.000000 0.002807 0.000000 0.000000
# 5 0.000000 0.000000 0.000000 0.000000 -0.159662 0.000000
# 6 0.000000 0.000000 0.000000 0.000000 0.000000 0.053820
#
#
# Mechanical properties :
#
#
# Convention : Reuss Voigt Hill
#
# Bulk Modulus (GPa) = 25.27075 31.18848 28.22962
# Shear Modulus (GPa) = -1582.45055 82.88398 -749.78328
#
# Velocity S-wave (km/s) = -28.35499 6.48933 -19.51786
# Velocity P-wave (km/s) = 32.54486 8.48496 22.21681
#
# Compressibility (1/GPa) = 0.03957144
#
# Stress axis : x y z
#
# Youngs Moduli (GPa) = 34.86978 47.71111 74.12513
#
# Poissons Ratio (x) = 0.01779 0.54345
# Poissons Ratio (y) = 0.01300 0.30199
# Poissons Ratio (z) = 0.25565 0.19438
#
# Static dielectric constant tensor:
#      x y z
#    x 1.725290 0.000000 0.000000 
#    y 0.000000 1.025220 0.000000 
#    z 0.000000 0.000000 1.735320 
# 
# From -- ./inp_files/4844.got.cif
#   From: 2010.05.17/outbox.cif.g08.bks.cpg/sg37_3_cif.got.tgz:4844.got - 2010.06.03 17:53:42.
