data_PCOD9353936
_publ_section_title
;
Structure prediction by ZEFSAII (Michael W. Deem and Ramdas Pophale) SiO2 
 PCOD9353936
Probable space group: C C C 2
;
_chemical_formula_sum "Si O2"
_cell_formula_units_Z 32
_cell_length_a 10.315509
_cell_length_b 13.905041
_cell_length_c 8.515915
_cell_angle_alpha 90.000000
_cell_angle_beta 90.000000
_cell_angle_gamma 90.000000
_cell_volume 1221.502201
_symmetry_space_group_name_H-M "C C C 2"
_symmetry_group_IT_number 37
_symmetry_cell_setting 'orthorhombic'
loop_
_space_group_symop_operation_xyz
x,y,z
-x,-y,z
-x,y,1/2+z
x,-y,1/2+z
1/2+x,1/2+y,z
1/2-x,1/2-y,z
1/2-x,1/2+y,1/2+z
1/2+x,1/2-y,1/2+z
loop_
_atom_site_type_symbol
_atom_site_label
_atom_site_fract_x
_atom_site_fract_y
_atom_site_fract_z
Si Si1 0.500000 0.000000 0.554181
Si Si2 0.216356 0.068545 0.077454
Si Si3 0.634997 0.382558 0.250384
Si Si4 0.250000 0.250000 0.309150
Si Si5 0.403043 0.801931 0.116537
O O1 0.651532 0.018495 0.498608
O O2 0.489021 0.103771 0.633766
O O3 0.239062 0.156425 0.197552
O O4 0.140881 0.984454 0.166957
O O5 0.130242 0.104423 0.934008
O O6 0.545015 0.296951 0.188511
O O7 0.775731 0.338809 0.207049
O O8 0.362451 0.222015 0.437444
#
# Coordination Sequence:
#
# PCOD9353936 Si02
#       5
#     4   8   8   4   8
#     4  10  22  36  62  94 120 146 204 270 302 332
#     4  11  20  34  57  87 119 160 204 251 302 362
#     4   9  18  33  53  80 118 161 199 237 301 376
#     4  10  20  34  52  80 122 166 202 238 306 384
#     4   9  19  35  53  83 120 156 198 251 303 362
#
# _framework density 26.197251999999999
#
# number of rings (size 3 to 8) (size 9 to 14) (size 15 to 20)
#    0.000    2.500    0.000    6.000    0.000    9.000 
#    0.000    0.000    0.000    3.000    0.000   24.500 
#    0.000    0.000    0.000    0.000    0.000    0.000 
#
# Total GULP energy -89215.426021 kJ/mol
# GULP energy per Si atom -5575.964126 kJ/mol
# Density = 2.613763 g / cm^3
# Si number density = 26.197252 Si / 1000 Ang^3
#
#
#
# Elastic Constant Matrix: (Units=GPa)
#
#
# Indices 1 2 3 4 5 6 
#
# 1 91.5988 26.7969 8.5371 0.0000 0.0000 0.0000
# 2 26.7969 298.2087 118.7255 0.0000 0.0000 0.0000
# 3 8.5371 118.7255 193.3463 0.0000 0.0000 0.0000
# 4 0.0000 0.0000 0.0000 182.2876 0.0000 0.0000
# 5 0.0000 0.0000 0.0000 0.0000 41.7540 0.0000
# 6 0.0000 0.0000 0.0000 0.0000 0.0000 37.3188
#
#
#
# Elastic Compliance Matrix: (Units=1/GPa)
#
#
# Indices 1 2 3 4 5 6 
#
# 1 0.011216 -0.001073 0.000164 0.000000 0.000000 0.000000
# 2 -0.001073 0.004541 -0.002741 0.000000 0.000000 0.000000
# 3 0.000164 -0.002741 0.006848 0.000000 0.000000 0.000000
# 4 0.000000 0.000000 0.000000 0.005486 0.000000 0.000000
# 5 0.000000 0.000000 0.000000 0.000000 0.023950 0.000000
# 6 0.000000 0.000000 0.000000 0.000000 0.000000 0.026796
#
#
# Mechanical properties :
#
#
# Convention : Reuss Voigt Hill
#
# Bulk Modulus (GPa) = 65.34224 99.03032 82.18628
# Shear Modulus (GPa) = 54.80113 80.87837 67.83975
#
# Velocity S-wave (km/s) = 4.57865 5.56236 5.09431
# Velocity P-wave (km/s) = 7.27658 8.89590 8.12667
#
# Compressibility (1/GPa) = 0.01530404
#
# Stress axis : x y z
#
# Youngs Moduli (GPa) = 89.15976 220.21138 146.02723
#
# Poissons Ratio (x) = 0.23629 -0.02390
# Poissons Ratio (y) = 0.09567 0.40028
# Poissons Ratio (z) = -0.01459 0.60362
#
# Static dielectric constant tensor:
#      x y z
#    x 2.590470 0.000000 0.000000 
#    y 0.000000 1.808200 0.000000 
#    z 0.000000 0.000000 2.015630 
# 
# From -- ./inp_files/2597.got.cif
#   From: 2010.05.17/outbox.cif.g08.bks.cpg/sg37_2_cif.got.tgz:2597.got - 2010.06.03 17:53:42.
