data_PCOD9353280
_publ_section_title
;
Structure prediction by ZEFSAII (Michael W. Deem and Ramdas Pophale) SiO2 
 PCOD9353280
Probable space group: C M C 21
;
_chemical_formula_sum "Si O2"
_cell_formula_units_Z 48
_cell_length_a 7.244055
_cell_length_b 29.160512
_cell_length_c 7.917116
_cell_angle_alpha 90.000000
_cell_angle_beta 90.000000
_cell_angle_gamma 90.000000
_cell_volume 1672.414377
_symmetry_space_group_name_H-M "C M C 21"
_symmetry_group_IT_number 36
_symmetry_cell_setting 'orthorhombic'
loop_
_space_group_symop_operation_xyz
x,y,z
-x,-y,1/2+z
x,-y,1/2+z
-x,y,z
1/2+x,1/2+y,z
1/2-x,1/2-y,1/2+z
1/2+x,1/2-y,1/2+z
1/2-x,1/2+y,z
loop_
_atom_site_type_symbol
_atom_site_label
_atom_site_fract_x
_atom_site_fract_y
_atom_site_fract_z
Si Si1 0.220361 0.677722 0.176140
Si Si2 0.717752 0.842776 0.217832
Si Si3 0.780175 0.735830 0.492869
Si Si4 0.224262 0.426377 0.425539
Si Si5 0.724711 0.013030 0.598453
Si Si6 0.282390 0.905967 0.876677
O O1 0.291466 0.711048 0.325716
O O2 0.248034 0.710247 0.014915
O O3 0.288500 0.626950 0.225879
O O4 0.000000 0.673316 0.189098
O O5 0.500000 0.836830 0.252420
O O6 0.793948 0.794343 0.150823
O O7 0.790895 0.876205 0.365983
O O8 0.728800 0.873674 0.045163
O O9 0.000000 0.729674 0.491207
O O10 0.282574 0.460266 0.576722
O O11 0.000000 0.421899 0.435745
O O12 0.269396 0.459307 0.266491
O O13 0.500000 0.012363 0.592144
O O14 0.789840 0.045801 0.445542
O O15 0.500000 0.913938 0.842323
#
# Coordination Sequence:
#
# PCOD9353280 Si02
#       6
#     8   8   8   8   8   8
#     4   9  17  29  44  61  82 109 140 172 205 242
#     4   7  11  21  35  49  69 100 131 155 187 234
#     4   9  17  29  44  61  82 109 140 172 205 242
#     4   8  12  18  29  45  66  93 123 152 183 223
#     4   8  12  18  29  45  66  93 123 152 183 223
#     4   7  11  21  35  49  69 100 131 155 187 234
#
# _framework density 28.701021000000001
#
# number of rings (size 3 to 8) (size 9 to 14) (size 15 to 20)
#    0.000    4.000    0.000    4.000    0.000    0.667 
#    0.000    1.667    0.000    6.000    0.000    0.000 
#    0.000    1.333    0.000    3.000    0.000    8.667 
#
# Total GULP energy -134115.695753 kJ/mol
# GULP energy per Si atom -5588.153990 kJ/mol
# Density = 2.863570 g / cm^3
# Si number density = 28.701021 Si / 1000 Ang^3
#
#
#
# Elastic Constant Matrix: (Units=GPa)
#
#
# Indices 1 2 3 4 5 6 
#
# 1 128.3034 -4.4179 -13.4096 0.0000 0.0000 0.0000
# 2 -4.4179 258.9583 13.2042 0.0000 0.0000 0.0000
# 3 -13.4096 13.2042 95.0622 0.0000 0.0000 0.0000
# 4 0.0000 0.0000 0.0000 66.2087 0.0000 0.0000
# 5 0.0000 0.0000 0.0000 0.0000 -1.4557 0.0000
# 6 0.0000 0.0000 0.0000 0.0000 0.0000 -26.0338
#
#
#
# Elastic Compliance Matrix: (Units=1/GPa)
#
#
# Indices 1 2 3 4 5 6 
#
# 1 0.007912 0.000079 0.001105 0.000000 0.000000 0.000000
# 2 0.000079 0.003890 -0.000529 0.000000 0.000000 0.000000
# 3 0.001105 -0.000529 0.010749 0.000000 0.000000 0.000000
# 4 0.000000 0.000000 0.000000 0.015104 0.000000 0.000000
# 5 0.000000 0.000000 0.000000 0.000000 -0.686939 0.000000
# 6 0.000000 0.000000 0.000000 0.000000 0.000000 -0.038412
#
#
# Mechanical properties :
#
#
# Convention : Reuss Voigt Hill
#
# Bulk Modulus (GPa) = 41.91076 52.56415 47.23746
# Shear Modulus (GPa) = -7.34159 40.20698 16.43270
#
# Velocity S-wave (km/s) = -1.60110 3.74691 2.39539
# Velocity P-wave (km/s) = 3.34906 6.08878 4.91373
#
# Compressibility (1/GPa) = 0.02386022
#
# Stress axis : x y z
#
# Youngs Moduli (GPa) = 126.38648 257.07258 93.03332
#
# Poissons Ratio (x) = -0.02021 -0.10282
# Poissons Ratio (y) = -0.00994 0.04924
# Poissons Ratio (z) = -0.13968 0.13605
#
# Static dielectric constant tensor:
#      x y z
#    x 2.134180 0.000000 0.000000 
#    y 0.000000 2.190410 0.000000 
#    z 0.000000 0.000000 2.383090 
# 
# From -- ./inp_files/3502.got.cif
#   From: 2010.05.17/outbox.cif.g08.bks.cpg/sg36_2_cif.got.tgz:3502.got - 2010.06.03 17:41:39.
