data_PCOD9353181
_publ_section_title
;
Structure prediction by ZEFSAII (Michael W. Deem and Ramdas Pophale) SiO2 
 PCOD9353181
Probable space group: C M C 21
;
_chemical_formula_sum "Si O2"
_cell_formula_units_Z 40
_cell_length_a 21.223848
_cell_length_b 9.347274
_cell_length_c 8.380139
_cell_angle_alpha 90.000000
_cell_angle_beta 90.000000
_cell_angle_gamma 90.000000
_cell_volume 1662.494903
_symmetry_space_group_name_H-M "C M C 21"
_symmetry_group_IT_number 36
_symmetry_cell_setting 'orthorhombic'
loop_
_space_group_symop_operation_xyz
x,y,z
-x,-y,1/2+z
x,-y,1/2+z
-x,y,z
1/2+x,1/2+y,z
1/2-x,1/2-y,1/2+z
1/2+x,1/2-y,1/2+z
1/2-x,1/2+y,z
loop_
_atom_site_type_symbol
_atom_site_label
_atom_site_fract_x
_atom_site_fract_y
_atom_site_fract_z
Si Si1 0.741295 0.546884 0.000000
Si Si2 0.500000 0.075583 0.012256
Si Si3 0.000000 0.723278 0.663011
Si Si4 0.590413 0.567143 0.997644
Si Si5 0.089502 0.213921 0.672345
Si Si6 0.775922 0.699966 0.308953
O O1 0.665817 0.548804 0.977814
O O2 0.744918 0.598436 0.180125
O O3 0.779966 0.403630 0.963406
O O4 0.763932 0.668477 0.876277
O O5 0.441305 0.141180 0.110706
O O6 0.500000 0.904938 0.031392
O O7 0.500000 0.141363 0.833492
O O8 0.060857 0.826176 0.631031
O O9 0.573488 0.405258 0.040455
O O10 0.567153 0.638355 0.834943
O O11 0.161868 0.247158 0.717794
#
# Coordination Sequence:
#
# PCOD9353181 Si02
#       6
#     8   4   4   8   8   8
#     4  11  23  42  65  98 135 177 232 290 353 425
#     4  12  27  46  67 106 144 186 240 302 363 420
#     4  12  27  46  71 100 142 190 240 300 361 426
#     4  11  23  44  69  98 135 188 238 288 350 429
#     4  11  24  43  69  98 136 183 235 290 352 422
#     4  11  24  41  67  99 135 180 229 289 354 423
#
# _framework density 24.060224999999999
#
# number of rings (size 3 to 8) (size 9 to 14) (size 15 to 20)
#    0.000    0.800    0.000    8.400    0.000    8.000 
#    0.000    0.000    0.000    0.000    0.000    0.000 
#    0.000    0.000    0.000    0.000    0.000    0.000 
#
# Total GULP energy -111607.179032 kJ/mol
# GULP energy per Si atom -5580.358952 kJ/mol
# Density = 2.400546 g / cm^3
# Si number density = 24.060225 Si / 1000 Ang^3
#
#
#
# Elastic Constant Matrix: (Units=GPa)
#
#
# Indices 1 2 3 4 5 6 
#
# 1 45.2651 1.8645 7.7112 0.0000 0.0000 0.0000
# 2 1.8645 145.7775 11.1595 0.0000 0.0000 0.0000
# 3 7.7112 11.1595 79.4179 0.0000 0.0000 0.0000
# 4 0.0000 0.0000 0.0000 40.8052 0.0000 0.0000
# 5 0.0000 0.0000 0.0000 0.0000 21.4049 0.0000
# 6 0.0000 0.0000 0.0000 0.0000 0.0000 24.2694
#
#
#
# Elastic Compliance Matrix: (Units=1/GPa)
#
#
# Indices 1 2 3 4 5 6 
#
# 1 0.022466 -0.000122 -0.002164 0.000000 0.000000 0.000000
# 2 -0.000122 0.006935 -0.000963 0.000000 0.000000 0.000000
# 3 -0.002164 -0.000963 0.012937 0.000000 0.000000 0.000000
# 4 0.000000 0.000000 0.000000 0.024507 0.000000 0.000000
# 5 0.000000 0.000000 0.000000 0.000000 0.046718 0.000000
# 6 0.000000 0.000000 0.000000 0.000000 0.000000 0.041204
#
#
# Mechanical properties :
#
#
# Convention : Reuss Voigt Hill
#
# Bulk Modulus (GPa) = 27.90128 34.65900 31.28014
# Shear Modulus (GPa) = 28.86656 33.94428 31.40542
#
# Velocity S-wave (km/s) = 3.46752 3.76014 3.61679
# Velocity P-wave (km/s) = 5.25863 5.76957 5.52001
#
# Compressibility (1/GPa) = 0.03584064
#
# Stress axis : x y z
#
# Youngs Moduli (GPa) = 44.51216 144.19571 77.29751
#
# Poissons Ratio (x) = 0.01754 0.16729
# Poissons Ratio (y) = 0.00542 0.07441
# Poissons Ratio (z) = 0.09634 0.13881
#
# Static dielectric constant tensor:
#      x y z
#    x 2.202810 0.000000 0.000000 
#    y 0.000000 1.969520 0.000000 
#    z 0.000000 0.000000 1.960330 
# 
# From -- ./inp_files/5496.got.cif
#   From: 2010.05.17/outbox.cif.g08.bks.cpg/sg36_3_cif.got.tgz:5496.got - 2010.06.03 17:41:39.
