data_PCOD9353369
_publ_section_title
;
Structure prediction by ZEFSAII (Michael W. Deem and Ramdas Pophale) SiO2 
 PCOD9353369
Probable space group: C M C 21
;
_chemical_formula_sum "Si O2"
_cell_formula_units_Z 32
_cell_length_a 30.000000
_cell_length_b 12.000000
_cell_length_c 9.000000
_cell_angle_alpha 90.000000
_cell_angle_beta 90.000000
_cell_angle_gamma 90.000000
_cell_volume 3240.000000
_symmetry_space_group_name_H-M "C M C 21"
_symmetry_group_IT_number 36
_symmetry_cell_setting 'orthorhombic'
loop_
_space_group_symop_operation_xyz
x,y,z
-x,-y,1/2+z
x,-y,1/2+z
-x,y,z
1/2+x,1/2+y,z
1/2-x,1/2-y,1/2+z
1/2+x,1/2-y,1/2+z
1/2-x,1/2+y,z
loop_
_atom_site_type_symbol
_atom_site_label
_atom_site_fract_x
_atom_site_fract_y
_atom_site_fract_z
Si Si1 0.135784 0.709042 0.490630
Si Si2 0.049491 0.617945 0.638533
Si Si3 0.777767 0.028318 0.227632
Si Si4 0.701854 0.753114 0.404286
Si Si5 0.295655 0.370018 0.447366
Si Si6 0.821230 0.451532 0.193003
Si Si7 0.450519 0.125756 0.990703
Si Si8 0.634911 0.185798 0.150066
O O1 0.089941 0.686903 0.571656
O O2 0.162932 0.818069 0.530296
O O3 0.170039 0.609544 0.535037
O O4 0.129046 0.724787 0.316868
O O5 0.050998 0.495755 0.566163
O O6 0.000000 0.664215 0.607516
O O7 0.054966 0.609608 0.815047
O O8 0.792925 0.140830 0.309436
O O9 0.804563 0.924762 0.291112
O O10 0.725317 0.004865 0.242556
O O11 0.781226 0.030154 0.051689
O O12 0.752868 0.790683 0.435022
O O13 0.675841 0.848401 0.307841
O O14 0.674915 0.758233 0.558091
O O15 0.854359 0.554722 0.178852
O O16 0.500000 0.172577 0.018687
O O17 0.410306 0.195489 0.057619
#
# Coordination Sequence:
#
# PCOD9353369 Si02
#       8
#     8   8   8   8   8   8   8   8
#     4  12  24  37  60  90 119 156 205 244 303 361
#     4  10  21  38  59  85 121 157 197 245 302 370
#     4  11  25  41  58  80 116 161 204 257 294 345
#     4  11  24  40  59  83 119 163 210 248 296 357
#     4  11  26  39  61  82 116 157 203 257 298 350
#     4  11  22  39  55  83 117 160 206 248 295 345
#     4  10  21  36  57  87 122 161 196 240 302 369
#     4  12  23  34  60  88 122 161 200 247 294 365
#
# _framework density 9.8765429999999999
#
# number of rings (size 3 to 8) (size 9 to 14) (size 15 to 20)
#    0.000    1.000    3.750    3.000    5.250    1.500 
#    0.000    0.000    0.000    0.000    0.000    1.750 
#    0.000    0.000    0.000    0.000    0.000    0.000 
#
# Total GULP energy -178284.707103 kJ/mol
# GULP energy per Si atom -5571.397097 kJ/mol
# Density = 0.985406 g / cm^3
# Si number density = 9.876543 Si / 1000 Ang^3
#
#
#
# Elastic Constant Matrix: (Units=GPa)
#
#
# Indices 1 2 3 4 5 6 
#
# 1 -31.3129 70.3063 20.3617 0.0000 0.0000 0.0000
# 2 70.3063 31.3723 41.9473 0.0000 0.0000 0.0000
# 3 20.3617 41.9473 102.6474 0.0000 0.0000 0.0000
# 4 0.0000 0.0000 0.0000 17.3464 0.0000 0.0000
# 5 0.0000 0.0000 0.0000 0.0000 29.1314 0.0000
# 6 0.0000 0.0000 0.0000 0.0000 0.0000 16.3731
#
#
#
# Elastic Compliance Matrix: (Units=1/GPa)
#
#
# Indices 1 2 3 4 5 6 
#
# 1 -0.003275 0.014265 -0.005180 0.000000 0.000000 0.000000
# 2 0.014265 0.008136 -0.006154 0.000000 0.000000 0.000000
# 3 -0.005180 -0.006154 0.013285 0.000000 0.000000 0.000000
# 4 0.000000 0.000000 0.000000 0.057649 0.000000 0.000000
# 5 0.000000 0.000000 0.000000 0.000000 0.034327 0.000000
# 6 0.000000 0.000000 0.000000 0.000000 0.000000 0.061076
#
#
# Mechanical properties :
#
#
# Convention : Reuss Voigt Hill
#
# Bulk Modulus (GPa) = 41.65439 40.88195 41.26817
# Shear Modulus (GPa) = 28.84535 10.57628 19.71082
#
# Velocity S-wave (km/s) = 3.82553 2.31643 3.16232
# Velocity P-wave (km/s) = 6.37544 5.28166 5.85415
#
# Compressibility (1/GPa) = 0.02400707
#
# Stress axis : x y z
#
# Youngs Moduli (GPa) = -305.35254 122.91422 75.27503
#
# Poissons Ratio (x) = -1.75338 0.38991
# Poissons Ratio (y) = 4.35588 0.46327
# Poissons Ratio (z) = -1.58168 0.75646
#
# Static dielectric constant tensor:
#      x y z
#    x 1.784070 0.000000 0.000000 
#    y 0.000000 1.759790 0.000000 
#    z 0.000000 0.000000 1.759890 
# 
# From -- ./inp_files/6082.got.cif
#   From: 2010.05.17/outbox.ucp.g08.bks.cvg/sg36_4_cif.got.tgz:6082.got - 2010.06.11 10:37:26.
