data_PCOD9353396
_publ_section_title
;
Structure prediction by ZEFSAII (Michael W. Deem and Ramdas Pophale) SiO2 
 PCOD9353396
Probable space group: C M C 21
;
_chemical_formula_sum "Si O2"
_cell_formula_units_Z 24
_cell_length_a 24.000000
_cell_length_b 12.000000
_cell_length_c 9.000000
_cell_angle_alpha 90.000000
_cell_angle_beta 90.000000
_cell_angle_gamma 90.000000
_cell_volume 2592.000000
_symmetry_space_group_name_H-M "C M C 21"
_symmetry_group_IT_number 36
_symmetry_cell_setting 'orthorhombic'
loop_
_space_group_symop_operation_xyz
x,y,z
-x,-y,1/2+z
x,-y,1/2+z
-x,y,z
1/2+x,1/2+y,z
1/2-x,1/2-y,1/2+z
1/2+x,1/2-y,1/2+z
1/2-x,1/2+y,z
loop_
_atom_site_type_symbol
_atom_site_label
_atom_site_fract_x
_atom_site_fract_y
_atom_site_fract_z
Si Si1 0.866602 0.888426 0.811180
Si Si2 0.190686 0.650796 0.713438
Si Si3 0.865509 0.498819 0.460142
Si Si4 0.000000 0.840947 0.198642
Si Si5 0.101312 0.330528 0.709961
Si Si6 0.500000 0.426982 0.860781
Si Si7 0.323378 0.622487 0.655432
O O1 0.836858 0.776058 0.737969
O O2 0.936201 0.885229 0.807531
O O3 0.845850 0.007210 0.736403
O O4 0.844737 0.887737 0.983271
O O5 0.176212 0.576422 0.859776
O O6 0.162255 0.584301 0.576719
O O7 0.256858 0.639769 0.679370
O O8 0.897533 0.579720 0.344105
O O9 0.897766 0.406735 0.560539
O O10 0.948715 0.756934 0.213802
O O11 0.000000 0.942199 0.316629
O O12 0.000000 0.899088 0.036134
O O13 0.152260 0.241695 0.713127
#
# Coordination Sequence:
#
# PCOD9353396 Si02
#       7
#     8   8   8   4   8   4   8
#     4  12  26  44  70 105 134 190 223 290 350 407
#     4  11  25  43  69  99 140 178 232 281 344 416
#     4  10  24  45  65  96 133 183 221 280 340 408
#     4  12  24  44  70  96 140 176 230 293 331 419
#     4  11  24  44  66  97 134 179 230 282 343 406
#     4  12  22  46  68 102 142 176 234 283 345 409
#     4  12  26  41  67 103 138 175 231 281 353 406
#
# _framework density 9.2592590000000001
#
# number of rings (size 3 to 8) (size 9 to 14) (size 15 to 20)
#    0.000    0.667    5.000    1.000    9.333    2.000 
#    0.000    3.333    0.000    0.000    0.000    0.000 
#    0.000    0.000    0.000    0.000    0.000    0.000 
#
# Total GULP energy -133748.664404 kJ/mol
# GULP energy per Si atom -5572.861017 kJ/mol
# Density = 0.923818 g / cm^3
# Si number density = 9.259259 Si / 1000 Ang^3
#
#
#
# Elastic Constant Matrix: (Units=GPa)
#
#
# Indices 1 2 3 4 5 6 
#
# 1 142.5758 57.0945 39.1724 0.0000 0.0000 0.0000
# 2 57.0945 176.4846 55.4187 0.0000 0.0000 0.0000
# 3 39.1724 55.4187 103.4713 0.0000 0.0000 0.0000
# 4 0.0000 0.0000 0.0000 55.2713 0.0000 0.0000
# 5 0.0000 0.0000 0.0000 0.0000 21.1821 0.0000
# 6 0.0000 0.0000 0.0000 0.0000 0.0000 40.8630
#
#
#
# Elastic Compliance Matrix: (Units=1/GPa)
#
#
# Indices 1 2 3 4 5 6 
#
# 1 0.008413 -0.002070 -0.002077 0.000000 0.000000 0.000000
# 2 -0.002070 0.007321 -0.003138 0.000000 0.000000 0.000000
# 3 -0.002077 -0.003138 0.012131 0.000000 0.000000 0.000000
# 4 0.000000 0.000000 0.000000 0.018093 0.000000 0.000000
# 5 0.000000 0.000000 0.000000 0.000000 0.047210 0.000000
# 6 0.000000 0.000000 0.000000 0.000000 0.000000 0.024472
#
#
# Mechanical properties :
#
#
# Convention : Reuss Voigt Hill
#
# Bulk Modulus (GPa) = 75.20092 80.65586 77.92839
# Shear Modulus (GPa) = 36.59260 41.51970 39.05615
#
# Velocity S-wave (km/s) = 4.45004 4.74018 4.59740
# Velocity P-wave (km/s) = 8.19149 8.57950 8.38774
#
# Compressibility (1/GPa) = 0.01329771
#
# Stress axis : x y z
#
# Youngs Moduli (GPa) = 118.86166 136.59318 82.43254
#
# Poissons Ratio (x) = 0.28270 0.17118
# Poissons Ratio (y) = 0.24600 0.25864
# Poissons Ratio (z) = 0.24682 0.42857
#
# Static dielectric constant tensor:
#      x y z
#    x 1.716480 0.000000 0.000000 
#    y 0.000000 1.617970 0.000000 
#    z 0.000000 0.000000 1.662210 
# 
# From -- ./inp_files/5563.got.cif
#   From: 2010.05.17/outbox.ucp.g08.bks.cvg/sg36_3_cif.got.tgz:5563.got - 2010.06.11 10:37:26.
