data_PCOD9353030
_publ_section_title
;
Structure prediction by ZEFSAII (Michael W. Deem and Ramdas Pophale) SiO2 
 PCOD9353030
Probable space group: C M C 21
;
_chemical_formula_sum "Si O2"
_cell_formula_units_Z 52
_cell_length_a 8.104925
_cell_length_b 10.308542
_cell_length_c 26.475426
_cell_angle_alpha 90.000000
_cell_angle_beta 90.000000
_cell_angle_gamma 90.000000
_cell_volume 2212.020777
_symmetry_space_group_name_H-M "C M C 21"
_symmetry_group_IT_number 36
_symmetry_cell_setting 'orthorhombic'
loop_
_space_group_symop_operation_xyz
x,y,z
-x,-y,1/2+z
x,-y,1/2+z
-x,y,z
1/2+x,1/2+y,z
1/2-x,1/2-y,1/2+z
1/2+x,1/2-y,1/2+z
1/2-x,1/2+y,z
loop_
_atom_site_type_symbol
_atom_site_label
_atom_site_fract_x
_atom_site_fract_y
_atom_site_fract_z
Si Si1 0.806344 0.846444 0.072930
Si Si2 0.690966 0.832041 0.319716
Si Si3 0.308434 0.396500 0.625717
Si Si4 0.000000 0.320363 0.805565
Si Si5 0.190376 0.006200 0.905166
Si Si6 0.691767 0.236941 0.464041
Si Si7 0.819863 0.501281 0.227287
O O1 0.782000 0.738862 0.116446
O O2 0.000000 0.862309 0.063337
O O3 0.742319 0.986976 0.090305
O O4 0.727465 0.789599 0.022536
O O5 0.500000 0.783337 0.319172
O O6 0.847941 0.748905 0.336650
O O7 0.693765 0.955483 0.358088
O O8 0.735930 0.885616 0.263817
O O9 0.500000 0.374836 0.613855
O O10 0.291983 0.450008 0.682430
O O11 0.139879 0.385024 0.766848
O O12 0.212288 0.867679 0.930795
O O13 0.000000 0.014773 0.888956
O O14 0.228085 0.116450 0.947099
O O15 0.500000 0.213192 0.455094
O O16 0.000000 0.463659 0.205058
#
# Coordination Sequence:
#
# PCOD9353030 Si02
#       7
#     8   8   8   4   8   8   8
#     4  11  25  44  67  96 135 172 224 280 344 408
#     4  11  24  43  69  99 134 183 228 278 343 406
#     4  11  25  42  68  99 130 177 223 278 342 407
#     4  10  24  46  66  92 144 172 220 290 326 398
#     4  11  25  43  68  98 137 176 223 284 341 404
#     4  11  25  44  67  98 134 173 226 283 338 413
#     4   9  24  42  62  95 133 168 225 274 326 401
#
# _framework density 23.507916999999999
#
# number of rings (size 3 to 8) (size 9 to 14) (size 15 to 20)
#    0.462    0.923    0.769    2.769    5.385    9.231 
#    0.000    0.000    0.000    0.000    0.000    0.000 
#    0.000    0.000    0.000    0.000    0.000    0.000 
#
# Total GULP energy -144833.489480 kJ/mol
# GULP energy per Si atom -5570.518826 kJ/mol
# Density = 2.345441 g / cm^3
# Si number density = 23.507917 Si / 1000 Ang^3
#
#
#
# Elastic Constant Matrix: (Units=GPa)
#
#
# Indices 1 2 3 4 5 6 
#
# 1 71.1995 16.5413 13.3095 0.0000 0.0000 0.0000
# 2 16.5413 75.1932 -8.1359 0.0000 0.0000 0.0000
# 3 13.3095 -8.1359 58.4202 0.0000 0.0000 0.0000
# 4 0.0000 0.0000 0.0000 36.1960 0.0000 0.0000
# 5 0.0000 0.0000 0.0000 0.0000 37.9267 0.0000
# 6 0.0000 0.0000 0.0000 0.0000 0.0000 -14.2478
#
#
#
# Elastic Compliance Matrix: (Units=1/GPa)
#
#
# Indices 1 2 3 4 5 6 
#
# 1 0.015724 -0.003905 -0.004126 0.000000 0.000000 0.000000
# 2 -0.003905 0.014473 0.002905 0.000000 0.000000 0.000000
# 3 -0.004126 0.002905 0.018462 0.000000 0.000000 0.000000
# 4 0.000000 0.000000 0.000000 0.027627 0.000000 0.000000
# 5 0.000000 0.000000 0.000000 0.000000 0.026367 0.000000
# 6 0.000000 0.000000 0.000000 0.000000 0.000000 -0.070186
#
#
# Mechanical properties :
#
#
# Convention : Reuss Voigt Hill
#
# Bulk Modulus (GPa) = 26.03781 27.58253 26.81017
# Shear Modulus (GPa) = 90.05723 24.18152 57.11937
#
# Velocity S-wave (km/s) = 6.19617 3.21074 4.93464
# Velocity P-wave (km/s) = 7.89241 5.05014 6.62549
#
# Compressibility (1/GPa) = 0.03840569
#
# Stress axis : x y z
#
# Youngs Moduli (GPa) = 63.59842 69.09640 54.16539
#
# Poissons Ratio (x) = 0.26985 0.22349
# Poissons Ratio (y) = 0.24838 -0.15736
# Poissons Ratio (z) = 0.26241 -0.20074
#
# Static dielectric constant tensor:
#      x y z
#    x 1.847800 0.000000 0.000000 
#    y 0.000000 1.982910 0.000000 
#    z 0.000000 0.000000 1.891700 
# 
# From -- ./inp_files/17092.got.cif
#   From: 2010.05.17/outbox.cif.g08.bks.cpg/sg36_9_cif.got.tgz:17092.got - 2010.06.03 17:41:39.
