data_PCOD9353093
_publ_section_title
;
Structure prediction by ZEFSAII (Michael W. Deem and Ramdas Pophale) SiO2 
 PCOD9353093
Probable space group: C M C 21
;
_chemical_formula_sum "Si O2"
_cell_formula_units_Z 64
_cell_length_a 21.449713
_cell_length_b 16.413183
_cell_length_c 9.931886
_cell_angle_alpha 90.000000
_cell_angle_beta 90.000000
_cell_angle_gamma 90.000000
_cell_volume 3496.600565
_symmetry_space_group_name_H-M "C M C 21"
_symmetry_group_IT_number 36
_symmetry_cell_setting 'orthorhombic'
loop_
_space_group_symop_operation_xyz
x,y,z
-x,-y,1/2+z
x,-y,1/2+z
-x,y,z
1/2+x,1/2+y,z
1/2-x,1/2-y,1/2+z
1/2+x,1/2-y,1/2+z
1/2-x,1/2+y,z
loop_
_atom_site_type_symbol
_atom_site_label
_atom_site_fract_x
_atom_site_fract_y
_atom_site_fract_z
Si Si1 0.780475 0.691817 0.060600
Si Si2 0.072965 0.823114 0.653591
Si Si3 0.713630 0.100932 0.784969
Si Si4 0.860619 0.907603 0.893678
Si Si5 0.151315 0.845067 0.179256
Si Si6 0.426574 0.577534 0.891912
Si Si7 0.782884 0.587273 0.319297
Si Si8 0.159376 0.306306 0.040959
O O1 0.827931 0.757162 0.124019
O O2 0.776343 0.618794 0.166972
O O3 0.714584 0.738609 0.048116
O O4 0.796841 0.658253 0.914010
O O5 0.111252 0.843227 0.788255
O O6 0.082849 0.896084 0.546401
O O7 0.097489 0.742808 0.577376
O O8 0.000000 0.817815 0.684187
O O9 0.785233 0.113476 0.735858
O O10 0.672510 0.130551 0.660822
O O11 0.701351 0.007662 0.821709
O O12 0.785821 0.903852 0.884141
O O13 0.888838 0.995618 0.859306
O O14 0.875776 0.890174 0.048768
O O15 0.101773 0.851587 0.298325
O O16 0.500000 0.566108 0.868218
O O17 0.829979 0.644466 0.403082
#
# Coordination Sequence:
#
# PCOD9353093 Si02
#       8
#     8   8   8   8   8   8   8   8
#     4  11  21  34  55  82 114 151 191 240 290 348
#     4  11  24  41  61  81 115 163 204 242 287 356
#     4  11  22  35  55  86 115 149 186 240 305 350
#     4  12  22  35  56  87 121 159 197 235 287 346
#     4  11  23  36  58  82 118 160 196 246 289 343
#     4  11  24  39  56  82 120 164 203 235 278 350
#     4  12  22  34  57  87 119 150 185 245 298 355
#     4  11  21  38  56  83 115 146 194 241 294 348
#
# _framework density 18.303491999999999
#
# number of rings (size 3 to 8) (size 9 to 14) (size 15 to 20)
#    0.000    0.750    5.000    5.625    0.000    2.000 
#    0.000    0.000    0.000    0.750    0.000    1.750 
#    0.000    0.000    0.000    0.000    0.000    0.000 
#
# Total GULP energy -178817.172673 kJ/mol
# GULP energy per Si atom -5588.036646 kJ/mol
# Density = 1.826183 g / cm^3
# Si number density = 18.303492 Si / 1000 Ang^3
#
#
#
# Elastic Constant Matrix: (Units=GPa)
#
#
# Indices 1 2 3 4 5 6 
#
# 1 29.1304 15.0982 1.0607 0.0000 0.0000 0.0000
# 2 15.0982 75.6967 12.3921 0.0000 0.0000 0.0000
# 3 1.0607 12.3921 83.1029 0.0000 0.0000 0.0000
# 4 0.0000 0.0000 0.0000 30.9608 0.0000 0.0000
# 5 0.0000 0.0000 0.0000 0.0000 14.1095 0.0000
# 6 0.0000 0.0000 0.0000 0.0000 0.0000 9.6289
#
#
#
# Elastic Compliance Matrix: (Units=1/GPa)
#
#
# Indices 1 2 3 4 5 6 
#
# 1 0.038322 -0.007753 0.000667 0.000000 0.000000 0.000000
# 2 -0.007753 0.015110 -0.002154 0.000000 0.000000 0.000000
# 3 0.000667 -0.002154 0.012346 0.000000 0.000000 0.000000
# 4 0.000000 0.000000 0.000000 0.032299 0.000000 0.000000
# 5 0.000000 0.000000 0.000000 0.000000 0.070874 0.000000
# 6 0.000000 0.000000 0.000000 0.000000 0.000000 0.103854
#
#
# Mechanical properties :
#
#
# Convention : Reuss Voigt Hill
#
# Bulk Modulus (GPa) = 21.14259 27.22579 24.18419
# Shear Modulus (GPa) = 16.28396 21.56513 18.92455
#
# Velocity S-wave (km/s) = 2.98596 3.43621 3.21897
# Velocity P-wave (km/s) = 4.84398 5.53627 5.20166
#
# Compressibility (1/GPa) = 0.04729790
#
# Stress axis : x y z
#
# Youngs Moduli (GPa) = 26.09440 66.18299 80.99802
#
# Poissons Ratio (x) = 0.51311 -0.05402
# Poissons Ratio (y) = 0.20231 0.17448
# Poissons Ratio (z) = -0.01740 0.14257
#
# Static dielectric constant tensor:
#      x y z
#    x 1.611020 0.000000 0.000000 
#    y 0.000000 1.646550 0.000000 
#    z 0.000000 0.000000 1.653530 
# 
# From -- ./inp_files/5345.got.cif
#   From: 2010.05.17/outbox.cif.g08.bks.cpg/sg36_3_cif.got.tgz:5345.got - 2010.06.03 17:41:39.
