data_PCOD9353169
_publ_section_title
;
Structure prediction by ZEFSAII (Michael W. Deem and Ramdas Pophale) SiO2 
 PCOD9353169
Probable space group: C M C 21
;
_chemical_formula_sum "Si O2"
_cell_formula_units_Z 52
_cell_length_a 7.592441
_cell_length_b 20.215640
_cell_length_c 14.258473
_cell_angle_alpha 90.000000
_cell_angle_beta 90.000000
_cell_angle_gamma 90.000000
_cell_volume 2188.476757
_symmetry_space_group_name_H-M "C M C 21"
_symmetry_group_IT_number 36
_symmetry_cell_setting 'orthorhombic'
loop_
_space_group_symop_operation_xyz
x,y,z
-x,-y,1/2+z
x,-y,1/2+z
-x,y,z
1/2+x,1/2+y,z
1/2-x,1/2-y,1/2+z
1/2+x,1/2-y,1/2+z
1/2-x,1/2+y,z
loop_
_atom_site_type_symbol
_atom_site_label
_atom_site_fract_x
_atom_site_fract_y
_atom_site_fract_z
Si Si1 0.000000 0.612030 0.047351
Si Si2 0.703742 0.575165 0.360958
Si Si3 0.208729 0.211850 0.476980
Si Si4 0.786790 0.284559 0.303740
Si Si5 0.500000 0.972275 0.373716
Si Si6 0.296483 0.369943 0.141921
Si Si7 0.208884 0.842913 0.679240
Si Si8 0.500000 0.971156 0.149004
O O1 0.828970 0.649149 0.088134
O O2 0.000000 0.541656 0.100891
O O3 0.000000 0.593089 0.937877
O O4 0.500000 0.556084 0.368218
O O5 0.728027 0.642571 0.420054
O O6 0.739100 0.596372 0.252710
O O7 0.830479 0.517614 0.394525
O O8 0.279854 0.267917 0.407888
O O9 0.273677 0.191990 0.579434
O O10 0.000000 0.225278 0.485573
O O11 0.718228 0.348349 0.249956
O O12 0.737549 0.221186 0.239814
O O13 0.000000 0.286040 0.303841
O O14 0.500000 0.965687 0.261773
O O15 0.500000 0.382144 0.118321
O O16 0.173946 0.431177 0.119794
O O17 0.000000 0.840328 0.659909
#
# Coordination Sequence:
#
# PCOD9353169 Si02
#       8
#     4   8   8   8   4   8   8   4
#     4  12  24  40  64  94 122 168 211 251 318 377
#     4   9  17  36  62  86 116 157 210 261 300 357
#     4   8  17  35  63  92 116 157 211 263 300 353
#     4   9  18  39  64  89 123 156 204 268 307 355
#     4  12  24  38  60  92 124 170 200 251 319 375
#     4  11  23  41  61  90 126 170 206 244 319 376
#     4   9  19  37  63  89 118 154 206 267 310 352
#     4  12  26  44  60  90 138 164 201 266 303 376
#
# _framework density 23.760819999999999
#
# number of rings (size 3 to 8) (size 9 to 14) (size 15 to 20)
#    0.000    2.154    2.308    2.769    1.077    1.846 
#    5.538    0.000    0.000    0.000    0.000    0.000 
#    0.000    0.000    0.000    0.000    0.000    0.000 
#
# Total GULP energy -145416.319056 kJ/mol
# GULP energy per Si atom -5592.935348 kJ/mol
# Density = 2.370674 g / cm^3
# Si number density = 23.760820 Si / 1000 Ang^3
#
#
#
# Elastic Constant Matrix: (Units=GPa)
#
#
# Indices 1 2 3 4 5 6 
#
# 1 82.1890 21.4713 11.9258 0.0000 0.0000 0.0000
# 2 21.4713 58.0136 14.8820 0.0000 0.0000 0.0000
# 3 11.9258 14.8820 116.8000 0.0000 0.0000 0.0000
# 4 0.0000 0.0000 0.0000 43.4011 0.0000 0.0000
# 5 0.0000 0.0000 0.0000 0.0000 15.9290 0.0000
# 6 0.0000 0.0000 0.0000 0.0000 0.0000 24.2697
#
#
#
# Elastic Compliance Matrix: (Units=1/GPa)
#
#
# Indices 1 2 3 4 5 6 
#
# 1 0.013536 -0.004813 -0.000769 0.000000 0.000000 0.000000
# 2 -0.004813 0.019531 -0.001997 0.000000 0.000000 0.000000
# 3 -0.000769 -0.001997 0.008895 0.000000 0.000000 0.000000
# 4 0.000000 0.000000 0.000000 0.023041 0.000000 0.000000
# 5 0.000000 0.000000 0.000000 0.000000 0.062779 0.000000
# 6 0.000000 0.000000 0.000000 0.000000 0.000000 0.041204
#
#
# Mechanical properties :
#
#
# Convention : Reuss Voigt Hill
#
# Bulk Modulus (GPa) = 37.30750 39.28453 38.29601
# Shear Modulus (GPa) = 25.89651 30.63485 28.26568
#
# Velocity S-wave (km/s) = 3.30492 3.59458 3.45279
# Velocity P-wave (km/s) = 5.50442 5.81354 5.66109
#
# Compressibility (1/GPa) = 0.02680426
#
# Stress axis : x y z
#
# Youngs Moduli (GPa) = 73.87773 51.20114 112.42759
#
# Poissons Ratio (x) = 0.24641 0.08644
# Poissons Ratio (y) = 0.35554 0.22453
# Poissons Ratio (z) = 0.05680 0.10225
#
# Static dielectric constant tensor:
#      x y z
#    x 1.935720 0.000000 0.000000 
#    y 0.000000 1.901560 0.000000 
#    z 0.000000 0.000000 1.962760 
# 
# From -- ./inp_files/10625.got.cif
#   From: 2010.05.17/outbox.cif.g08.bks.cpg/sg36_6_cif.got.tgz:10625.got - 2010.06.03 17:41:39.
