data_PCOD9353105
_publ_section_title
;
Structure prediction by ZEFSAII (Michael W. Deem and Ramdas Pophale) SiO2 
 PCOD9353105
Probable space group: C M C 21
;
_chemical_formula_sum "Si O2"
_cell_formula_units_Z 52
_cell_length_a 15.827732
_cell_length_b 11.799569
_cell_length_c 14.593172
_cell_angle_alpha 90.000000
_cell_angle_beta 90.000000
_cell_angle_gamma 90.000000
_cell_volume 2725.426871
_symmetry_space_group_name_H-M "C M C 21"
_symmetry_group_IT_number 36
_symmetry_cell_setting 'orthorhombic'
loop_
_space_group_symop_operation_xyz
x,y,z
-x,-y,1/2+z
x,-y,1/2+z
-x,y,z
1/2+x,1/2+y,z
1/2-x,1/2-y,1/2+z
1/2+x,1/2-y,1/2+z
1/2-x,1/2+y,z
loop_
_atom_site_type_symbol
_atom_site_label
_atom_site_fract_x
_atom_site_fract_y
_atom_site_fract_z
Si Si1 0.133179 0.311273 0.298740
Si Si2 0.841219 0.085930 0.189261
Si Si3 0.668223 0.640509 0.799070
Si Si4 0.599676 0.714046 0.495528
Si Si5 0.600649 0.452760 0.484067
Si Si6 0.000000 0.514481 0.708736
Si Si7 0.148474 0.342112 0.672280
O O1 0.122459 0.192469 0.244980
O O2 0.230856 0.347421 0.290525
O O3 0.112792 0.287521 0.404700
O O4 0.073200 0.404738 0.255839
O O5 0.739932 0.102111 0.186450
O O6 0.861452 0.968165 0.240223
O O7 0.875189 0.085261 0.085996
O O8 0.643613 0.619150 0.903941
O O9 0.631112 0.755538 0.756213
O O10 0.500000 0.710954 0.518995
O O11 0.626681 0.584827 0.475666
O O12 0.649485 0.766316 0.580605
O O13 0.500000 0.445829 0.472029
O O14 0.925623 0.432313 0.666059
#
# Coordination Sequence:
#
# PCOD9353105 Si02
#       7
#     8   8   8   8   8   4   8
#     4  11  24  42  68  97 135 180 219 272 335 402
#     4  11  23  44  67  94 135 174 221 279 334 391
#     4  11  23  44  67  94 135 174 221 279 334 391
#     4  11  21  38  64  96 127 168 219 270 327 397
#     4  11  25  40  66 101 128 171 228 280 335 397
#     4  12  24  42  66 100 130 176 226 264 332 400
#     4  11  24  42  68  97 135 180 219 272 335 402
#
# _framework density 19.07958
#
# number of rings (size 3 to 8) (size 9 to 14) (size 15 to 20)
#    0.000    0.923    6.154    0.923    2.154    0.615 
#    0.000    3.077    0.000    0.000    0.000    0.000 
#    0.000    0.000    0.000    0.000    0.000    0.000 
#
# Total GULP energy -144806.564436 kJ/mol
# GULP energy per Si atom -5569.483248 kJ/mol
# Density = 1.903615 g / cm^3
# Si number density = 19.079580 Si / 1000 Ang^3
#
#
#
# Elastic Constant Matrix: (Units=GPa)
#
#
# Indices 1 2 3 4 5 6 
#
# 1 34.8724 -4.3805 -12.3757 0.0000 0.0000 0.0000
# 2 -4.3805 34.7542 4.7428 0.0000 0.0000 0.0000
# 3 -12.3757 4.7428 55.3225 0.0000 0.0000 0.0000
# 4 0.0000 0.0000 0.0000 24.8250 0.0000 0.0000
# 5 0.0000 0.0000 0.0000 0.0000 17.4233 0.0000
# 6 0.0000 0.0000 0.0000 0.0000 0.0000 57.5466
#
#
#
# Elastic Compliance Matrix: (Units=1/GPa)
#
#
# Indices 1 2 3 4 5 6 
#
# 1 0.031463 0.003041 0.006778 0.000000 0.000000 0.000000
# 2 0.003041 0.029408 -0.001841 0.000000 0.000000 0.000000
# 3 0.006778 -0.001841 0.019750 0.000000 0.000000 0.000000
# 4 0.000000 0.000000 0.000000 0.040282 0.000000 0.000000
# 5 0.000000 0.000000 0.000000 0.000000 0.057395 0.000000
# 6 0.000000 0.000000 0.000000 0.000000 0.000000 0.017377
#
#
# Mechanical properties :
#
#
# Convention : Reuss Voigt Hill
#
# Bulk Modulus (GPa) = 10.35452 11.21357 10.78405
# Shear Modulus (GPa) = 23.59473 29.08981 26.34227
#
# Velocity S-wave (km/s) = 3.52042 3.90892 3.71974
# Velocity P-wave (km/s) = 4.68650 5.12474 4.91051
#
# Compressibility (1/GPa) = 0.09657616
#
# Stress axis : x y z
#
# Youngs Moduli (GPa) = 31.78316 34.00436 50.63334
#
# Poissons Ratio (x) = -0.10340 -0.34318
# Poissons Ratio (y) = -0.09665 0.09321
# Poissons Ratio (z) = -0.21542 0.06260
#
# Static dielectric constant tensor:
#      x y z
#    x 1.627080 0.000000 0.000000 
#    y 0.000000 1.662400 0.000000 
#    z 0.000000 0.000000 1.634680 
# 
# From -- ./inp_files/12138.got.cif
#   From: 2010.05.17/outbox.cif.g08.bks.cpg/sg36_7_cif.got.tgz:12138.got - 2010.06.03 17:41:39.
