data_PCOD9353028
_publ_section_title
;
Structure prediction by ZEFSAII (Michael W. Deem and Ramdas Pophale) SiO2 
 PCOD9353028
Probable space group: C M C 21
;
_chemical_formula_sum "Si O2"
_cell_formula_units_Z 48
_cell_length_a 22.967101
_cell_length_b 8.794482
_cell_length_c 10.705553
_cell_angle_alpha 90.000000
_cell_angle_beta 90.000000
_cell_angle_gamma 90.000000
_cell_volume 2162.347809
_symmetry_space_group_name_H-M "C M C 21"
_symmetry_group_IT_number 36
_symmetry_cell_setting 'orthorhombic'
loop_
_space_group_symop_operation_xyz
x,y,z
-x,-y,1/2+z
x,-y,1/2+z
-x,y,z
1/2+x,1/2+y,z
1/2-x,1/2-y,1/2+z
1/2+x,1/2-y,1/2+z
1/2-x,1/2+y,z
loop_
_atom_site_type_symbol
_atom_site_label
_atom_site_fract_x
_atom_site_fract_y
_atom_site_fract_z
Si Si1 0.159518 0.768434 0.525850
Si Si2 0.270073 0.208630 0.171293
Si Si3 0.780547 0.964806 0.340000
Si Si4 0.157892 0.438956 0.466671
Si Si5 0.432495 0.434652 0.681129
Si Si6 0.067779 0.834502 0.955634
O O1 0.223908 0.723368 0.574165
O O2 0.177228 0.924573 0.453679
O O3 0.138661 0.615300 0.456571
O O4 0.112538 0.810858 0.628753
O O5 0.301742 0.346783 0.236319
O O6 0.229620 0.122635 0.272002
O O7 0.315340 0.098667 0.103888
O O8 0.714687 0.924158 0.380132
O O9 0.110074 0.310320 0.442774
O O10 0.500000 0.389140 0.661268
O O11 0.424033 0.578658 0.588203
O O12 0.424549 0.441322 0.831372
O O13 0.000000 0.785987 0.952805
#
# Coordination Sequence:
#
# PCOD9353028 Si02
#       6
#     8   8   8   8   8   8
#     4  11  24  37  64  96 128 176 221 276 333 403
#     4  11  23  39  59  91 134 174 214 269 331 405
#     4  11  23  39  58  90 135 174 215 266 331 404
#     4  11  24  40  61  97 131 174 223 275 340 398
#     4  10  24  45  69  99 131 177 230 283 341 405
#     4  10  24  46  71  97 135 179 229 287 342 405
#
# _framework density 22.198097000000001
#
# number of rings (size 3 to 8) (size 9 to 14) (size 15 to 20)
#    0.000    1.333    3.333    1.000    7.000    0.667 
#    0.000    0.000    0.000    0.000    0.000    0.000 
#    0.000    0.000    0.000    0.000    0.000    0.000 
#
# Total GULP energy -133856.179542 kJ/mol
# GULP energy per Si atom -5577.340814 kJ/mol
# Density = 2.214757 g / cm^3
# Si number density = 22.198097 Si / 1000 Ang^3
#
#
#
# Elastic Constant Matrix: (Units=GPa)
#
#
# Indices 1 2 3 4 5 6 
#
# 1 113.3343 31.5895 34.7075 0.0000 0.0000 0.0000
# 2 31.5895 77.5677 25.2972 0.0000 0.0000 0.0000
# 3 34.7075 25.2972 77.7206 0.0000 0.0000 0.0000
# 4 0.0000 0.0000 0.0000 34.5366 0.0000 0.0000
# 5 0.0000 0.0000 0.0000 0.0000 39.5742 0.0000
# 6 0.0000 0.0000 0.0000 0.0000 0.0000 27.3432
#
#
#
# Elastic Compliance Matrix: (Units=1/GPa)
#
#
# Indices 1 2 3 4 5 6 
#
# 1 0.010882 -0.003185 -0.003823 0.000000 0.000000 0.000000
# 2 -0.003185 0.015355 -0.003576 0.000000 0.000000 0.000000
# 3 -0.003823 -0.003576 0.015738 0.000000 0.000000 0.000000
# 4 0.000000 0.000000 0.000000 0.028955 0.000000 0.000000
# 5 0.000000 0.000000 0.000000 0.000000 0.025269 0.000000
# 6 0.000000 0.000000 0.000000 0.000000 0.000000 0.036572
#
#
# Mechanical properties :
#
#
# Convention : Reuss Voigt Hill
#
# Bulk Modulus (GPa) = 48.05886 50.20122 49.13004
# Shear Modulus (GPa) = 31.08034 32.09268 31.58651
#
# Velocity S-wave (km/s) = 3.74590 3.80641 3.77628
# Velocity P-wave (km/s) = 6.35657 6.47940 6.41828
#
# Compressibility (1/GPa) = 0.02080782
#
# Stress axis : x y z
#
# Youngs Moduli (GPa) = 91.89580 65.12473 63.54211
#
# Poissons Ratio (x) = 0.20742 0.24291
# Poissons Ratio (y) = 0.29268 0.22720
# Poissons Ratio (z) = 0.35130 0.23286
#
# Static dielectric constant tensor:
#      x y z
#    x 1.778720 0.000000 0.000000 
#    y 0.000000 1.820700 0.000000 
#    z 0.000000 0.000000 1.906780 
# 
# From -- ./inp_files/9417.got.cif
#   From: 2010.05.17/outbox.cif.g08.bks.cpg/sg36_5_cif.got.tgz:9417.got - 2010.06.03 17:41:39.
