data_PCOD9353557
_publ_section_title
;
Structure prediction by ZEFSAII (Michael W. Deem and Ramdas Pophale) SiO2 
 PCOD9353557
Probable space group: C C C 2
;
_chemical_formula_sum "Si O2"
_cell_formula_units_Z 60
_cell_length_a 28.242358
_cell_length_b 11.040977
_cell_length_c 9.410752
_cell_angle_alpha 90.000000
_cell_angle_beta 90.000000
_cell_angle_gamma 90.000000
_cell_volume 2934.491039
_symmetry_space_group_name_H-M "C C C 2"
_symmetry_group_IT_number 37
_symmetry_cell_setting 'orthorhombic'
loop_
_space_group_symop_operation_xyz
x,y,z
-x,-y,z
-x,y,1/2+z
x,-y,1/2+z
1/2+x,1/2+y,z
1/2-x,1/2-y,z
1/2-x,1/2+y,1/2+z
1/2+x,1/2-y,1/2+z
loop_
_atom_site_type_symbol
_atom_site_label
_atom_site_fract_x
_atom_site_fract_y
_atom_site_fract_z
Si Si1 0.704533 0.842633 0.707390
Si Si2 0.027797 0.870986 0.540276
Si Si3 0.402698 0.439820 0.808018
Si Si4 0.250000 0.250000 0.244145
Si Si5 0.723461 0.076738 0.519991
Si Si6 0.689360 0.539267 0.399868
Si Si7 0.948902 0.797375 0.324602
Si Si8 0.618853 0.712799 0.563994
O O1 0.750000 0.750000 0.700212
O O2 0.654504 0.792787 0.654791
O O3 0.713181 0.950826 0.596754
O O4 0.701076 0.891625 0.868470
O O5 0.077698 0.895812 0.459811
O O6 0.035394 0.772021 0.664428
O O7 0.994838 0.813990 0.419405
O O8 0.000000 0.000000 0.575203
O O9 0.346337 0.463729 0.801205
O O10 0.427312 0.569145 0.792523
O O11 0.415135 0.351607 0.678251
O O12 0.284819 0.179457 0.137132
O O13 0.276904 0.356748 0.330235
O O14 0.778725 0.058463 0.480011
O O15 0.653231 0.612137 0.496906
O O16 0.910175 0.735369 0.428537
#
# Coordination Sequence:
#
# PCOD9353557 Si02
#       8
#     8   8   8   4   8   8   8   8
#     4  12  24  43  61  86 121 167 220 275 321 374
#     4  10  18  32  54  83 124 167 199 239 316 397
#     4  10  20  33  52  83 119 164 202 252 312 381
#     4  12  24  36  60  88 110 166 222 268 326 376
#     4  12  24  40  62  83 115 167 214 272 325 367
#     4  11  21  37  55  82 119 157 216 262 314 370
#     4  10  19  32  53  81 121 164 193 243 309 386
#     4  11  22  36  55  82 120 164 206 262 303 377
#
# _framework density 20.446475
#
# number of rings (size 3 to 8) (size 9 to 14) (size 15 to 20)
#    0.000    1.067    3.333    6.800    0.000    1.067 
#    0.000    0.000    0.000    0.000    0.000    0.000 
#    0.000   12.800    0.000    0.000    0.000    0.000 
#
# Total GULP energy -167159.567568 kJ/mol
# GULP energy per Si atom -5571.985586 kJ/mol
# Density = 2.039994 g / cm^3
# Si number density = 20.446475 Si / 1000 Ang^3
#
#
#
# Elastic Constant Matrix: (Units=GPa)
#
#
# Indices 1 2 3 4 5 6 
#
# 1 62.4210 8.2680 30.4300 0.0000 0.0000 0.0000
# 2 8.2680 48.2594 29.5745 0.0000 0.0000 0.0000
# 3 30.4300 29.5745 129.5579 0.0000 0.0000 0.0000
# 4 0.0000 0.0000 0.0000 24.2651 0.0000 0.0000
# 5 0.0000 0.0000 0.0000 0.0000 29.5064 0.0000
# 6 0.0000 0.0000 0.0000 0.0000 0.0000 13.9763
#
#
#
# Elastic Compliance Matrix: (Units=1/GPa)
#
#
# Indices 1 2 3 4 5 6 
#
# 1 0.018106 -0.000576 -0.004121 0.000000 0.000000 0.000000
# 2 -0.000576 0.024110 -0.005368 0.000000 0.000000 0.000000
# 3 -0.004121 -0.005368 0.009912 0.000000 0.000000 0.000000
# 4 0.000000 0.000000 0.000000 0.041212 0.000000 0.000000
# 5 0.000000 0.000000 0.000000 0.000000 0.033891 0.000000
# 6 0.000000 0.000000 0.000000 0.000000 0.000000 0.071549
#
#
# Mechanical properties :
#
#
# Convention : Reuss Voigt Hill
#
# Bulk Modulus (GPa) = 31.25391 41.86482 36.55936
# Shear Modulus (GPa) = 21.77928 25.01394 23.39661
#
# Velocity S-wave (km/s) = 3.26726 3.50149 3.38640
# Velocity P-wave (km/s) = 5.43619 6.07182 5.76278
#
# Compressibility (1/GPa) = 0.03199600
#
# Stress axis : x y z
#
# Youngs Moduli (GPa) = 55.23165 41.47673 100.88889
#
# Poissons Ratio (x) = 0.02391 0.41576
# Poissons Ratio (y) = 0.03184 0.54159
# Poissons Ratio (z) = 0.22761 0.22266
#
# Static dielectric constant tensor:
#      x y z
#    x 1.813620 0.000000 0.000000 
#    y 0.000000 1.761520 0.000000 
#    z 0.000000 0.000000 1.861000 
# 
# From -- ./inp_files/3112.got.cif
#   From: 2010.05.17/outbox.cif.g08.bks.cpg/sg37_2_cif.got.tgz:3112.got - 2010.06.03 17:53:42.
