data_PCOD9353792
_publ_section_title
;
Structure prediction by ZEFSAII (Michael W. Deem and Ramdas Pophale) SiO2 
 PCOD9353792
Probable space group: C C C 2
;
_chemical_formula_sum "Si O2"
_cell_formula_units_Z 64
_cell_length_a 23.078403
_cell_length_b 9.383385
_cell_length_c 15.199126
_cell_angle_alpha 90.000000
_cell_angle_beta 90.000000
_cell_angle_gamma 90.000000
_cell_volume 3291.424548
_symmetry_space_group_name_H-M "C C C 2"
_symmetry_group_IT_number 37
_symmetry_cell_setting 'orthorhombic'
loop_
_space_group_symop_operation_xyz
x,y,z
-x,-y,z
-x,y,1/2+z
x,-y,1/2+z
1/2+x,1/2+y,z
1/2-x,1/2-y,z
1/2-x,1/2+y,1/2+z
1/2+x,1/2-y,1/2+z
loop_
_atom_site_type_symbol
_atom_site_label
_atom_site_fract_x
_atom_site_fract_y
_atom_site_fract_z
Si Si1 0.164756 0.670805 0.030010
Si Si2 0.959126 0.132865 0.882083
Si Si3 0.838395 0.976142 0.448931
Si Si4 0.531992 0.650980 0.179763
Si Si5 0.160487 0.171663 0.107857
Si Si6 0.469056 0.149869 0.540422
Si Si7 0.281396 0.962938 0.658886
Si Si8 0.725915 0.089387 0.854283
O O1 0.099389 0.635941 0.057613
O O2 0.205543 0.603361 0.103599
O O3 0.171477 0.839641 0.013418
O O4 0.180973 0.602929 0.934734
O O5 0.893773 0.073493 0.893059
O O6 0.971113 0.182797 0.783314
O O7 0.971102 0.254481 0.952736
O O8 0.000000 0.000000 0.902642
O O9 0.781562 0.994447 0.390295
O O10 0.847512 0.113878 0.508913
O O11 0.500000 0.500000 0.164452
O O12 0.599654 0.644649 0.155003
O O13 0.500519 0.765999 0.118878
O O14 0.214456 0.084781 0.149401
O O15 0.180357 0.335402 0.116125
O O16 0.500000 0.000000 0.527945
O O17 0.296273 0.969945 0.762108
O O18 0.750000 0.250000 0.837115
#
# Coordination Sequence:
#
# PCOD9353792 Si02
#       8
#     8   8   8   8   8   8   8   8
#     4  10  22  39  62  87 120 163 200 247 306 365
#     4  10  22  39  64  92 120 163 209 258 309 367
#     4  10  20  38  65  86 123 159 202 253 306 366
#     4  11  23  41  64  93 123 160 213 257 308 374
#     4  11  21  36  66  88 123 154 205 255 306 361
#     4  11  23  41  61  88 126 165 203 252 311 367
#     4  11  22  37  62  93 122 161 204 249 311 370
#     4  10  19  36  60  87 117 160 203 240 301 375
#
# _framework density 19.444469000000002
#
# number of rings (size 3 to 8) (size 9 to 14) (size 15 to 20)
#    0.000    1.500    2.500    4.125    3.500    0.500 
#    2.250    0.000    8.250    0.000    0.000    0.000 
#    0.000    0.000    0.000    0.000    0.000    0.000 
#
# Total GULP energy -178791.615099 kJ/mol
# GULP energy per Si atom -5587.237972 kJ/mol
# Density = 1.940021 g / cm^3
# Si number density = 19.444469 Si / 1000 Ang^3
#
#
#
# Elastic Constant Matrix: (Units=GPa)
#
#
# Indices 1 2 3 4 5 6 
#
# 1 121.3066 44.1948 36.4129 0.0000 0.0000 0.0000
# 2 44.1948 50.4143 34.5454 0.0000 0.0000 0.0000
# 3 36.4129 34.5454 75.1192 0.0000 0.0000 0.0000
# 4 0.0000 0.0000 0.0000 -10.8788 0.0000 0.0000
# 5 0.0000 0.0000 0.0000 0.0000 23.7751 0.0000
# 6 0.0000 0.0000 0.0000 0.0000 0.0000 22.9768
#
#
#
# Elastic Compliance Matrix: (Units=1/GPa)
#
#
# Indices 1 2 3 4 5 6 
#
# 1 0.012220 -0.009715 -0.001456 0.000000 0.000000 0.000000
# 2 -0.009715 0.036685 -0.012162 0.000000 0.000000 0.000000
# 3 -0.001456 -0.012162 0.019611 0.000000 0.000000 0.000000
# 4 0.000000 0.000000 0.000000 -0.091922 0.000000 0.000000
# 5 0.000000 0.000000 0.000000 0.000000 0.042061 0.000000
# 6 0.000000 0.000000 0.000000 0.000000 0.000000 0.043522
#
#
# Mechanical properties :
#
#
# Convention : Reuss Voigt Hill
#
# Bulk Modulus (GPa) = 45.76329 53.01626 49.38978
# Shear Modulus (GPa) = 43.05703 15.95376 29.50539
#
# Velocity S-wave (km/s) = 4.71080 2.86751 3.89963
# Velocity P-wave (km/s) = 7.29214 6.18774 6.76252
#
# Compressibility (1/GPa) = 0.02185158
#
# Stress axis : x y z
#
# Youngs Moduli (GPa) = 81.83375 27.25878 50.99265
#
# Poissons Ratio (x) = 0.26481 0.07424
# Poissons Ratio (y) = 0.79500 0.62015
# Poissons Ratio (z) = 0.11914 0.33151
#
# Static dielectric constant tensor:
#      x y z
#    x 1.696850 0.000000 0.000000 
#    y 0.000000 1.665620 0.000000 
#    z 0.000000 0.000000 1.677810 
# 
# From -- ./inp_files/10968.got.cif
#   From: 2010.05.17/outbox.cif.g08.bks.cpg/sg37_6_cif.got.tgz:10968.got - 2010.06.03 17:53:42.
