data_PCOD9353916
_publ_section_title
;
Structure prediction by ZEFSAII (Michael W. Deem and Ramdas Pophale) SiO2 
 PCOD9353916
Probable space group: C C C 2
;
_chemical_formula_sum "Si O2"
_cell_formula_units_Z 64
_cell_length_a 14.689981
_cell_length_b 11.934554
_cell_length_c 15.352081
_cell_angle_alpha 90.000000
_cell_angle_beta 90.000000
_cell_angle_gamma 90.000000
_cell_volume 2691.501840
_symmetry_space_group_name_H-M "C C C 2"
_symmetry_group_IT_number 37
_symmetry_cell_setting 'orthorhombic'
loop_
_space_group_symop_operation_xyz
x,y,z
-x,-y,z
-x,y,1/2+z
x,-y,1/2+z
1/2+x,1/2+y,z
1/2-x,1/2-y,z
1/2-x,1/2+y,1/2+z
1/2+x,1/2-y,1/2+z
loop_
_atom_site_type_symbol
_atom_site_label
_atom_site_fract_x
_atom_site_fract_y
_atom_site_fract_z
Si Si1 0.076416 0.088999 0.478510
Si Si2 0.631488 0.455083 0.632514
Si Si3 0.348664 0.180537 0.449571
Si Si4 0.849955 0.986092 0.814982
Si Si5 0.644769 0.752727 0.834960
Si Si6 0.854125 0.258838 0.538617
Si Si7 0.634860 0.996950 0.797480
Si Si8 0.652953 0.005754 0.599646
O O1 0.076692 0.220352 0.459752
O O2 0.094059 0.061058 0.579183
O O3 0.150331 0.040006 0.410369
O O4 0.000000 0.000000 0.451521
O O5 0.612623 0.443581 0.734305
O O6 0.596728 0.342825 0.585684
O O7 0.739395 0.472066 0.615290
O O8 0.250000 0.250000 0.443916
O O9 0.372901 0.099621 0.366670
O O10 0.351767 0.101761 0.536066
O O11 0.895973 0.864340 0.803444
O O12 0.743080 0.977158 0.797676
O O13 0.750000 0.750000 0.801038
O O14 0.598426 0.872977 0.822483
O O15 0.650740 0.733455 0.937691
O O16 0.750000 0.250000 0.572785
O O17 0.886311 0.384668 0.551771
O O18 0.609844 0.009741 0.696110
#
# Coordination Sequence:
#
# PCOD9353916 Si02
#       8
#     8   8   8   8   8   8   8   8
#     4  12  26  41  57  83 125 176 220 259 313 394
#     4  10  20  35  58  86 118 159 209 261 323 386
#     4  12  22  37  61  89 133 170 212 272 337 400
#     4  10  20  35  58  86 118 159 209 261 323 386
#     4   9  16  29  51  80 117 148 190 247 317 385
#     4   9  16  29  51  80 117 148 190 247 317 385
#     4  10  20  32  57  94 121 154 201 269 339 384
#     4  10  20  32  57  94 121 154 201 269 339 384
#
# _framework density 23.778545999999999
#
# number of rings (size 3 to 8) (size 9 to 14) (size 15 to 20)
#    0.000    1.750    5.000    0.000    3.500    1.500 
#    0.000    0.000    0.000    3.000    0.000    1.750 
#    0.000    0.000    0.000    0.000    0.000    0.000 
#
# Total GULP energy -178218.227016 kJ/mol
# GULP energy per Si atom -5569.319594 kJ/mol
# Density = 2.372443 g / cm^3
# Si number density = 23.778546 Si / 1000 Ang^3
#
#
#
# Elastic Constant Matrix: (Units=GPa)
#
#
# Indices 1 2 3 4 5 6 
#
# 1 46.8863 16.6061 6.0789 0.0000 0.0000 0.0000
# 2 16.6061 163.9567 20.1306 0.0000 0.0000 0.0000
# 3 6.0789 20.1306 50.1884 0.0000 0.0000 0.0000
# 4 0.0000 0.0000 0.0000 23.6747 0.0000 0.0000
# 5 0.0000 0.0000 0.0000 0.0000 -6.5160 0.0000
# 6 0.0000 0.0000 0.0000 0.0000 0.0000 20.5980
#
#
#
# Elastic Compliance Matrix: (Units=1/GPa)
#
#
# Indices 1 2 3 4 5 6 
#
# 1 0.022290 -0.002026 -0.001887 0.000000 0.000000 0.000000
# 2 -0.002026 0.006599 -0.002402 0.000000 0.000000 0.000000
# 3 -0.001887 -0.002402 0.021117 0.000000 0.000000 0.000000
# 4 0.000000 0.000000 0.000000 0.042239 0.000000 0.000000
# 5 0.000000 0.000000 0.000000 0.000000 -0.153468 0.000000
# 6 0.000000 0.000000 0.000000 0.000000 0.000000 0.048549
#
#
# Mechanical properties :
#
#
# Convention : Reuss Voigt Hill
#
# Bulk Modulus (GPa) = 26.75448 38.51806 32.63627
# Shear Modulus (GPa) = 402.76116 22.09905 212.43011
#
# Velocity S-wave (km/s) = 13.02873 3.05186 9.46207
# Velocity P-wave (km/s) = 15.41448 5.35279 11.53817
#
# Compressibility (1/GPa) = 0.03737692
#
# Stress axis : x y z
#
# Youngs Moduli (GPa) = 44.86236 151.53286 47.35568
#
# Poissons Ratio (x) = 0.30699 0.08937
# Poissons Ratio (y) = 0.09089 0.11373
# Poissons Ratio (z) = 0.08467 0.36392
#
# Static dielectric constant tensor:
#      x y z
#    x 2.130500 0.000000 0.000000 
#    y 0.000000 1.951020 0.000000 
#    z 0.000000 0.000000 1.896030 
# 
# From -- ./inp_files/12716.got.cif
#   From: 2010.05.17/outbox.cif.g08.bks.cpg/sg37_7_cif.got.tgz:12716.got - 2010.06.03 17:53:42.
