data_PCOD9353452
_publ_section_title
;
Structure prediction by ZEFSAII (Michael W. Deem and Ramdas Pophale) SiO2 
 PCOD9353452
Probable space group: C C C 2
;
_chemical_formula_sum "Si O2"
_cell_formula_units_Z 64
_cell_length_a 19.367303
_cell_length_b 30.142831
_cell_length_c 5.381524
_cell_angle_alpha 90.000000
_cell_angle_beta 90.000000
_cell_angle_gamma 90.000000
_cell_volume 3141.654825
_symmetry_space_group_name_H-M "C C C 2"
_symmetry_group_IT_number 37
_symmetry_cell_setting 'orthorhombic'
loop_
_space_group_symop_operation_xyz
x,y,z
-x,-y,z
-x,y,1/2+z
x,-y,1/2+z
1/2+x,1/2+y,z
1/2-x,1/2-y,z
1/2-x,1/2+y,1/2+z
1/2+x,1/2-y,1/2+z
loop_
_atom_site_type_symbol
_atom_site_label
_atom_site_fract_x
_atom_site_fract_y
_atom_site_fract_z
Si Si1 0.618056 0.616512 0.288060
Si Si2 0.529827 0.949408 0.773194
Si Si3 0.422310 0.518534 0.709386
Si Si4 0.290875 0.388023 0.787941
Si Si5 0.820613 0.777214 0.115880
Si Si6 0.958586 0.788935 0.280614
Si Si7 0.219395 0.200532 0.622409
Si Si8 0.190745 0.471206 0.769463
O O1 0.575818 0.570732 0.255512
O O2 0.654431 0.612746 0.559383
O O3 0.569443 0.660005 0.268997
O O4 0.670334 0.614423 0.051709
O O5 0.499567 0.928202 0.523854
O O6 0.611973 0.953204 0.771126
O O7 0.500000 0.000000 0.774148
O O8 0.500000 0.500000 0.688393
O O9 0.388118 0.505335 0.447249
O O10 0.245270 0.342933 0.738094
O O11 0.243541 0.430716 0.772956
O O12 0.750000 0.750000 0.079870
O O13 0.890692 0.758370 0.230975
O O14 0.799472 0.810165 0.339416
O O15 0.838370 0.793533 0.838090
O O16 0.991099 0.781758 0.548872
O O17 0.250000 0.250000 0.596314
O O18 0.199417 0.499526 0.517869
#
# Coordination Sequence:
#
# PCOD9353452 Si02
#       8
#     8   8   8   8   8   8   8   8
#     4  12  25  41  60  80 126 161 205 265 312 376
#     4  10  16  32  57  81 112 155 200 247 299 379
#     4  10  23  39  55  73 101 157 220 234 301 361
#     4  12  24  40  59  90 126 158 213 256 322 377
#     4  10  20  39  64  92 123 160 197 246 324 394
#     4  12  24  37  64  95 129 152 210 272 315 360
#     4  10  19  38  64  89 119 156 210 249 308 383
#     4  12  23  36  57  90 126 161 212 265 320 366
#
# _framework density 20.371431000000001
#
# number of rings (size 3 to 8) (size 9 to 14) (size 15 to 20)
#    0.000    1.000    5.000    3.000    3.500    3.000 
#    0.000    0.000    0.000    0.000    0.000   21.000 
#    0.000    0.000    0.000    0.000    0.000    0.000 
#
# Total GULP energy -178188.175895 kJ/mol
# GULP energy per Si atom -5568.380497 kJ/mol
# Density = 2.032506 g / cm^3
# Si number density = 20.371431 Si / 1000 Ang^3
#
#
#
# Elastic Constant Matrix: (Units=GPa)
#
#
# Indices 1 2 3 4 5 6 
#
# 1 85.2307 27.2096 37.7726 0.0000 0.0000 0.0000
# 2 27.2096 62.8264 18.9865 0.0000 0.0000 0.0000
# 3 37.7726 18.9865 192.5191 0.0000 0.0000 0.0000
# 4 0.0000 0.0000 0.0000 9.7220 0.0000 0.0000
# 5 0.0000 0.0000 0.0000 0.0000 18.0277 0.0000
# 6 0.0000 0.0000 0.0000 0.0000 0.0000 27.1126
#
#
#
# Elastic Compliance Matrix: (Units=1/GPa)
#
#
# Indices 1 2 3 4 5 6 
#
# 1 0.014541 -0.005602 -0.002300 0.000000 0.000000 0.000000
# 2 -0.005602 0.018564 -0.000732 0.000000 0.000000 0.000000
# 3 -0.002300 -0.000732 0.005718 0.000000 0.000000 0.000000
# 4 0.000000 0.000000 0.000000 0.102859 0.000000 0.000000
# 5 0.000000 0.000000 0.000000 0.000000 0.055470 0.000000
# 6 0.000000 0.000000 0.000000 0.000000 0.000000 0.036883
#
#
# Mechanical properties :
#
#
# Convention : Reuss Voigt Hill
#
# Bulk Modulus (GPa) = 46.39476 56.50150 51.44813
# Shear Modulus (GPa) = 19.34315 28.07962 23.71139
#
# Velocity S-wave (km/s) = 3.08478 3.71669 3.41538
# Velocity P-wave (km/s) = 5.95917 6.79810 6.39241
#
# Compressibility (1/GPa) = 0.02155416
#
# Stress axis : x y z
#
# Youngs Moduli (GPa) = 68.77157 53.86680 174.89247
#
# Poissons Ratio (x) = 0.30178 0.40233
# Poissons Ratio (y) = 0.38528 0.12796
# Poissons Ratio (z) = 0.15820 0.03941
#
# Static dielectric constant tensor:
#      x y z
#    x 1.886050 0.000000 0.000000 
#    y 0.000000 1.996420 0.000000 
#    z 0.000000 0.000000 1.951460 
# 
# From -- ./inp_files/905.got.cif
#   From: 2010.05.17/outbox.cif.g08.bks.cpg/sg37_1_cif.got.tgz:905.got - 2010.06.03 17:53:42.
