data_PCOD9353440
_publ_section_title
;
Structure prediction by ZEFSAII (Michael W. Deem and Ramdas Pophale) SiO2 
 PCOD9353440
Probable space group: C C C 2
;
_chemical_formula_sum "Si O2"
_cell_formula_units_Z 48
_cell_length_a 16.349012
_cell_length_b 23.256857
_cell_length_c 5.331398
_cell_angle_alpha 90.000000
_cell_angle_beta 90.000000
_cell_angle_gamma 90.000000
_cell_volume 2027.139517
_symmetry_space_group_name_H-M "C C C 2"
_symmetry_group_IT_number 37
_symmetry_cell_setting 'orthorhombic'
loop_
_space_group_symop_operation_xyz
x,y,z
-x,-y,z
-x,y,1/2+z
x,-y,1/2+z
1/2+x,1/2+y,z
1/2-x,1/2-y,z
1/2-x,1/2+y,1/2+z
1/2+x,1/2-y,1/2+z
loop_
_atom_site_type_symbol
_atom_site_label
_atom_site_fract_x
_atom_site_fract_y
_atom_site_fract_z
Si Si1 0.305606 0.340339 0.000000
Si Si2 0.971949 0.327125 0.815630
Si Si3 0.528569 0.301017 0.666991
Si Si4 0.837476 0.970450 0.005275
Si Si5 0.846474 0.482075 0.045441
Si Si6 0.703239 0.150386 0.010983
O O1 0.346015 0.403139 0.956840
O O2 0.249461 0.327060 0.758994
O O3 0.380624 0.298358 0.054725
O O4 0.257106 0.344775 0.260846
O O5 0.000525 0.263013 0.740235
O O6 0.882411 0.322002 0.933539
O O7 0.974637 0.355588 0.538303
O O8 0.474943 0.329181 0.444557
O O9 0.869511 0.007580 0.772183
O O10 0.738964 0.981773 0.023855
O O11 0.891304 0.495300 0.788563
O O12 0.819577 0.416146 0.060767
#
# Coordination Sequence:
#
# PCOD9353440 Si02
#       6
#     8   8   8   8   8   8
#     4  12  21  34  63  97 115 150 208 259 294 351
#     4  10  23  44  62  80 119 168 199 239 314 378
#     4  10  23  44  62  80 119 168 199 239 314 378
#     4  10  16  30  50  84 119 156 181 233 298 373
#     4  10  16  30  50  84 119 156 181 233 298 373
#     4  12  21  34  63  97 115 150 208 259 294 351
#
# _framework density 23.678687
#
# number of rings (size 3 to 8) (size 9 to 14) (size 15 to 20)
#    0.000    1.333    6.667    2.000    0.000    0.667 
#    0.000    1.667    0.000    6.000    0.000    0.000 
#    0.000    0.000    0.000    0.000    0.000    0.000 
#
# Total GULP energy -133948.091300 kJ/mol
# GULP energy per Si atom -5581.170471 kJ/mol
# Density = 2.362479 g / cm^3
# Si number density = 23.678687 Si / 1000 Ang^3
#
#
#
# Elastic Constant Matrix: (Units=GPa)
#
#
# Indices 1 2 3 4 5 6 
#
# 1 72.5360 20.5033 55.8840 0.0000 0.0000 0.0000
# 2 20.5033 37.6032 14.7003 0.0000 0.0000 0.0000
# 3 55.8840 14.7003 265.7892 0.0000 0.0000 0.0000
# 4 0.0000 0.0000 0.0000 13.9237 0.0000 0.0000
# 5 0.0000 0.0000 0.0000 0.0000 25.2359 0.0000
# 6 0.0000 0.0000 0.0000 0.0000 0.0000 120.6116
#
#
#
# Elastic Compliance Matrix: (Units=1/GPa)
#
#
# Indices 1 2 3 4 5 6 
#
# 1 0.019031 -0.009007 -0.003503 0.000000 0.000000 0.000000
# 2 -0.009007 0.031444 0.000155 0.000000 0.000000 0.000000
# 3 -0.003503 0.000155 0.004490 0.000000 0.000000 0.000000
# 4 0.000000 0.000000 0.000000 0.071820 0.000000 0.000000
# 5 0.000000 0.000000 0.000000 0.000000 0.039626 0.000000
# 6 0.000000 0.000000 0.000000 0.000000 0.000000 0.008291
#
#
# Mechanical properties :
#
#
# Convention : Reuss Voigt Hill
#
# Bulk Modulus (GPa) = 33.05323 62.01150 47.53237
# Shear Modulus (GPa) = 23.86633 50.94361 37.40497
#
# Velocity S-wave (km/s) = 3.17823 4.64341 3.97884
# Velocity P-wave (km/s) = 5.23999 7.41579 6.42073
#
# Compressibility (1/GPa) = 0.03025423
#
# Stress axis : x y z
#
# Youngs Moduli (GPa) = 52.54480 31.80222 222.69661
#
# Poissons Ratio (x) = 0.28646 0.78017
# Poissons Ratio (y) = 0.47329 -0.03446
# Poissons Ratio (z) = 0.18408 -0.00492
#
# Static dielectric constant tensor:
#      x y z
#    x 1.890830 0.000000 0.000000 
#    y 0.000000 1.916500 0.000000 
#    z 0.000000 0.000000 2.145240 
# 
# From -- ./inp_files/592.got.cif
#   From: 2010.05.17/outbox.cif.g08.bks.cpg/sg37_1_cif.got.tgz:592.got - 2010.06.03 17:53:42.
