data_PCOD9353455
_publ_section_title
;
Structure prediction by ZEFSAII (Michael W. Deem and Ramdas Pophale) SiO2 
 PCOD9353455
Probable space group: C C C 2
;
_chemical_formula_sum "Si O2"
_cell_formula_units_Z 40
_cell_length_a 27.414993
_cell_length_b 11.894051
_cell_length_c 5.085636
_cell_angle_alpha 90.000000
_cell_angle_beta 90.000000
_cell_angle_gamma 90.000000
_cell_volume 1658.300411
_symmetry_space_group_name_H-M "C C C 2"
_symmetry_group_IT_number 37
_symmetry_cell_setting 'orthorhombic'
loop_
_space_group_symop_operation_xyz
x,y,z
-x,-y,z
-x,y,1/2+z
x,-y,1/2+z
1/2+x,1/2+y,z
1/2-x,1/2-y,z
1/2-x,1/2+y,1/2+z
1/2+x,1/2-y,1/2+z
loop_
_atom_site_type_symbol
_atom_site_label
_atom_site_fract_x
_atom_site_fract_y
_atom_site_fract_z
Si Si1 0.788494 0.574074 0.065020
Si Si2 0.296980 0.700612 0.801233
Si Si3 0.968785 0.197062 0.966113
Si Si4 0.444683 0.047929 0.399653
Si Si5 0.625769 0.566066 0.622675
O O1 0.797955 0.478773 0.283405
O O2 0.731501 0.610925 0.115912
O O3 0.815017 0.691739 0.135333
O O4 0.250000 0.750000 0.959716
O O5 0.335125 0.650283 0.999390
O O6 0.949174 0.324618 0.988253
O O7 0.927240 0.113261 0.054511
O O8 0.013427 0.183323 0.168145
O O9 0.500000 0.000000 0.354121
O O10 0.420465 0.028956 0.119618
O O11 0.630780 0.457382 0.431124
#
# Coordination Sequence:
#
# PCOD9353455 Si02
#       5
#     8   8   8   8   8
#     4   9  18  34  60  89 122 155 197 252 312 367
#     4   8  22  39  68  93 124 168 212 258 325 401
#     4  12  23  40  66  93 131 171 230 264 318 390
#     4  10  16  32  60  88 112 160 200 249 326 367
#     4  12  27  46  65  93 131 176 221 269 330 387
#
# _framework density 24.121079999999999
#
# number of rings (size 3 to 8) (size 9 to 14) (size 15 to 20)
#    1.200    0.400    4.000    2.400    0.000    7.200 
#    0.000    2.000    0.000    0.000    0.000    0.000 
#    0.000    0.000    0.000    0.000    0.000    0.000 
#
# Total GULP energy -111751.439486 kJ/mol
# GULP energy per Si atom -5587.571974 kJ/mol
# Density = 2.406618 g / cm^3
# Si number density = 24.121080 Si / 1000 Ang^3
#
#
#
# Elastic Constant Matrix: (Units=GPa)
#
#
# Indices 1 2 3 4 5 6 
#
# 1 39.0915 13.9071 -8.4845 0.0000 0.0000 0.0000
# 2 13.9071 62.9561 -9.3745 0.0000 0.0000 0.0000
# 3 -8.4845 -9.3745 78.7868 0.0000 0.0000 0.0000
# 4 0.0000 0.0000 0.0000 13.8345 0.0000 0.0000
# 5 0.0000 0.0000 0.0000 0.0000 11.0579 0.0000
# 6 0.0000 0.0000 0.0000 0.0000 0.0000 40.6159
#
#
#
# Elastic Compliance Matrix: (Units=1/GPa)
#
#
# Indices 1 2 3 4 5 6 
#
# 1 0.028179 -0.005877 0.002335 0.000000 0.000000 0.000000
# 2 -0.005877 0.017396 0.001437 0.000000 0.000000 0.000000
# 3 0.002335 0.001437 0.013115 0.000000 0.000000 0.000000
# 4 0.000000 0.000000 0.000000 0.072283 0.000000 0.000000
# 5 0.000000 0.000000 0.000000 0.000000 0.090433 0.000000
# 6 0.000000 0.000000 0.000000 0.000000 0.000000 0.024621
#
#
# Mechanical properties :
#
#
# Convention : Reuss Voigt Hill
#
# Bulk Modulus (GPa) = 18.35518 19.21450 18.78484
# Shear Modulus (GPa) = 18.62916 25.42076 22.02496
#
# Velocity S-wave (km/s) = 2.78208 3.24988 3.02503
# Velocity P-wave (km/s) = 4.23628 4.69738 4.47278
#
# Compressibility (1/GPa) = 0.05448053
#
# Stress axis : x y z
#
# Youngs Moduli (GPa) = 35.48786 57.48350 76.24889
#
# Poissons Ratio (x) = 0.33783 -0.17806
# Poissons Ratio (y) = 0.20856 -0.10957
# Poissons Ratio (z) = -0.08287 -0.08261
#
# Static dielectric constant tensor:
#      x y z
#    x 2.147990 0.000000 0.000000 
#    y 0.000000 1.971120 0.000000 
#    z 0.000000 0.000000 1.923030 
# 
# From -- ./inp_files/1457.got.cif
#   From: 2010.05.17/outbox.cif.g08.bks.cpg/sg37_1_cif.got.tgz:1457.got - 2010.06.03 17:53:42.
