data_PCOD9353597
_publ_section_title
;
Structure prediction by ZEFSAII (Michael W. Deem and Ramdas Pophale) SiO2 
 PCOD9353597
Probable space group: C C C 2
;
_chemical_formula_sum "Si O2"
_cell_formula_units_Z 48
_cell_length_a 14.197402
_cell_length_b 10.255537
_cell_length_c 14.938870
_cell_angle_alpha 90.000000
_cell_angle_beta 90.000000
_cell_angle_gamma 90.000000
_cell_volume 2175.129074
_symmetry_space_group_name_H-M "C C C 2"
_symmetry_group_IT_number 37
_symmetry_cell_setting 'orthorhombic'
loop_
_space_group_symop_operation_xyz
x,y,z
-x,-y,z
-x,y,1/2+z
x,-y,1/2+z
1/2+x,1/2+y,z
1/2-x,1/2-y,z
1/2-x,1/2+y,1/2+z
1/2+x,1/2-y,1/2+z
loop_
_atom_site_type_symbol
_atom_site_label
_atom_site_fract_x
_atom_site_fract_y
_atom_site_fract_z
Si Si1 0.949506 0.642820 0.083710
Si Si2 0.780847 0.095676 0.451642
Si Si3 0.756502 0.536738 0.146047
Si Si4 0.117245 0.709632 0.198641
Si Si5 0.613067 0.481225 0.276544
Si Si6 0.084386 0.401655 0.894880
O O1 0.847546 0.630172 0.128569
O O2 0.000000 0.500000 0.079083
O O3 0.021593 0.720155 0.143225
O O4 0.940820 0.687643 0.980846
O O5 0.750000 0.250000 0.443174
O O6 0.855591 0.051807 0.377678
O O7 0.680975 0.028984 0.424658
O O8 0.800721 0.053252 0.552887
O O9 0.813490 0.397526 0.155509
O O10 0.688683 0.577176 0.228666
O O11 0.143760 0.857589 0.215845
O O12 0.099698 0.661552 0.299542
O O13 0.500000 0.500000 0.271106
O O14 0.000000 0.500000 0.882740
#
# Coordination Sequence:
#
# PCOD9353597 Si02
#       6
#     8   8   8   8   8   8
#     4   8  18  33  60 101 119 149 216 275 319 368
#     4  11  22  43  69  95 130 174 221 272 345 404
#     4  10  21  40  68  95 122 170 224 277 315 402
#     4  11  20  41  67  93 129 172 218 265 336 401
#     4  12  26  43  63  92 137 186 215 265 339 410
#     4  10  18  34  67  94 123 163 212 276 322 385
#
# _framework density 22.067654999999998
#
# number of rings (size 3 to 8) (size 9 to 14) (size 15 to 20)
#    0.000    1.667    3.333    3.000    0.000    3.333 
#    3.000    0.000    0.000    0.000    0.000    0.000 
#    0.000    0.000    0.000    0.000    0.000    0.000 
#
# Total GULP energy -133678.003356 kJ/mol
# GULP energy per Si atom -5569.916807 kJ/mol
# Density = 2.201743 g / cm^3
# Si number density = 22.067655 Si / 1000 Ang^3
#
#
#
# Elastic Constant Matrix: (Units=GPa)
#
#
# Indices 1 2 3 4 5 6 
#
# 1 129.4022 10.7495 60.2837 0.0000 0.0000 0.0000
# 2 10.7495 34.6886 15.6711 0.0000 0.0000 0.0000
# 3 60.2837 15.6711 148.5488 0.0000 0.0000 0.0000
# 4 0.0000 0.0000 0.0000 20.8162 0.0000 0.0000
# 5 0.0000 0.0000 0.0000 0.0000 53.0906 0.0000
# 6 0.0000 0.0000 0.0000 0.0000 0.0000 11.9187
#
#
#
# Elastic Compliance Matrix: (Units=1/GPa)
#
#
# Indices 1 2 3 4 5 6 
#
# 1 0.009583 -0.001273 -0.003755 0.000000 0.000000 0.000000
# 2 -0.001273 0.030440 -0.002694 0.000000 0.000000 0.000000
# 3 -0.003755 -0.002694 0.008540 0.000000 0.000000 0.000000
# 4 0.000000 0.000000 0.000000 0.048040 0.000000 0.000000
# 5 0.000000 0.000000 0.000000 0.000000 0.018836 0.000000
# 6 0.000000 0.000000 0.000000 0.000000 0.000000 0.083902
#
#
# Mechanical properties :
#
#
# Convention : Reuss Voigt Hill
#
# Bulk Modulus (GPa) = 30.19553 54.00535 42.10044
# Shear Modulus (GPa) = 22.14125 32.22746 27.18436
#
# Velocity S-wave (km/s) = 3.17098 3.82566 3.51360
# Velocity P-wave (km/s) = 5.20766 6.63626 5.96488
#
# Compressibility (1/GPa) = 0.03311748
#
# Stress axis : x y z
#
# Youngs Moduli (GPa) = 104.35459 32.85175 117.10027
#
# Poissons Ratio (x) = 0.04183 0.43965
# Poissons Ratio (y) = 0.13288 0.31552
# Poissons Ratio (z) = 0.39180 0.08852
#
# Static dielectric constant tensor:
#      x y z
#    x 1.861260 0.000000 0.000000 
#    y 0.000000 1.914940 0.000000 
#    z 0.000000 0.000000 1.876430 
# 
# From -- ./inp_files/12088.got.cif
#   From: 2010.05.17/outbox.cif.g08.bks.cpg/sg37_7_cif.got.tgz:12088.got - 2010.06.03 17:53:42.
