data_PCOD9353646
_publ_section_title
;
Structure prediction by ZEFSAII (Michael W. Deem and Ramdas Pophale) SiO2 
 PCOD9353646
Probable space group: C C C 2
;
_chemical_formula_sum "Si O2"
_cell_formula_units_Z 48
_cell_length_a 12.161596
_cell_length_b 12.112976
_cell_length_c 14.720918
_cell_angle_alpha 90.000000
_cell_angle_beta 90.000000
_cell_angle_gamma 90.000000
_cell_volume 2168.584367
_symmetry_space_group_name_H-M "C C C 2"
_symmetry_group_IT_number 37
_symmetry_cell_setting 'orthorhombic'
loop_
_space_group_symop_operation_xyz
x,y,z
-x,-y,z
-x,y,1/2+z
x,-y,1/2+z
1/2+x,1/2+y,z
1/2-x,1/2-y,z
1/2-x,1/2+y,1/2+z
1/2+x,1/2-y,1/2+z
loop_
_atom_site_type_symbol
_atom_site_label
_atom_site_fract_x
_atom_site_fract_y
_atom_site_fract_z
Si Si1 0.795790 0.108095 0.244190
Si Si2 0.500000 0.500000 0.993638
Si Si3 0.750000 0.750000 0.570463
Si Si4 0.669761 0.415642 0.643122
Si Si5 0.932215 0.674069 0.780316
Si Si6 0.034583 0.249386 0.451972
Si Si7 0.592729 0.172308 0.622356
O O1 0.767151 0.149718 0.141364
O O2 0.878009 0.203028 0.275994
O O3 0.679416 0.104451 0.295901
O O4 0.848333 0.990181 0.231463
O O5 0.398353 0.468630 0.060225
O O6 0.478897 0.616080 0.942777
O O7 0.853549 0.733910 0.506600
O O8 0.625972 0.293178 0.659288
O O9 0.800176 0.403813 0.625566
O O10 0.992117 0.638729 0.687521
O O11 0.020643 0.683521 0.859524
O O12 0.943372 0.300493 0.520033
#
# Coordination Sequence:
#
# PCOD9353646 Si02
#       7
#     8   4   4   8   8   8   8
#     4  10  19  40  62  86 117 167 204 234 314 377
#     4  10  20  36  62  96 112 164 212 250 314 368
#     4  10  18  38  64  82 118 164 196 242 302 374
#     4  10  20  35  65  84 120 159 204 252 310 366
#     4  10  22  37  62  88 120 163 201 253 303 370
#     4  11  21  39  62  90 125 155 210 255 308 369
#     4  10  21  38  59  90 121 158 203 262 305 352
#
# _framework density 22.134255
#
# number of rings (size 3 to 8) (size 9 to 14) (size 15 to 20)
#    0.000    2.000    5.000    1.000    0.000    8.667 
#    0.000    0.000    7.333    0.000    0.000    0.000 
#    0.000    0.000    0.000    0.000    0.000    0.000 
#
# Total GULP energy -133906.629556 kJ/mol
# GULP energy per Si atom -5579.442898 kJ/mol
# Density = 2.208388 g / cm^3
# Si number density = 22.134255 Si / 1000 Ang^3
#
#
#
# Elastic Constant Matrix: (Units=GPa)
#
#
# Indices 1 2 3 4 5 6 
#
# 1 79.8369 -8.4183 3.8568 0.0000 0.0000 0.0000
# 2 -8.4183 40.5035 3.3637 0.0000 0.0000 0.0000
# 3 3.8568 3.3637 54.5007 0.0000 0.0000 0.0000
# 4 0.0000 0.0000 0.0000 11.6147 0.0000 0.0000
# 5 0.0000 0.0000 0.0000 0.0000 21.9020 0.0000
# 6 0.0000 0.0000 0.0000 0.0000 0.0000 21.6601
#
#
#
# Elastic Compliance Matrix: (Units=1/GPa)
#
#
# Indices 1 2 3 4 5 6 
#
# 1 0.012869 0.002765 -0.001081 0.000000 0.000000 0.000000
# 2 0.002765 0.025410 -0.001764 0.000000 0.000000 0.000000
# 3 -0.001081 -0.001764 0.018534 0.000000 0.000000 0.000000
# 4 0.000000 0.000000 0.000000 0.086098 0.000000 0.000000
# 5 0.000000 0.000000 0.000000 0.000000 0.045658 0.000000
# 6 0.000000 0.000000 0.000000 0.000000 0.000000 0.046168
#
#
# Mechanical properties :
#
#
# Convention : Reuss Voigt Hill
#
# Bulk Modulus (GPa) = 17.65162 19.16060 18.40611
# Shear Modulus (GPa) = 19.70194 22.77130 21.23662
#
# Velocity S-wave (km/s) = 2.98671 3.21094 3.10085
# Velocity P-wave (km/s) = 4.45937 4.73521 4.59936
#
# Compressibility (1/GPa) = 0.05665203
#
# Stress axis : x y z
#
# Youngs Moduli (GPa) = 77.70442 39.35410 53.95558
#
# Poissons Ratio (x) = -0.10880 0.05834
# Poissons Ratio (y) = -0.21482 0.09517
# Poissons Ratio (z) = 0.08402 0.06942
#
# Static dielectric constant tensor:
#      x y z
#    x 1.828680 0.000000 0.000000 
#    y 0.000000 1.885830 0.000000 
#    z 0.000000 0.000000 1.806540 
# 
# From -- ./inp_files/11538.got.cif
#   From: 2010.05.17/outbox.cif.g08.bks.cpg/sg37_6_cif.got.tgz:11538.got - 2010.06.03 17:53:42.
