data_PCOD9353990
_publ_section_title
;
Structure prediction by ZEFSAII (Michael W. Deem and Ramdas Pophale) SiO2 
 PCOD9353990
Probable space group: C C C 2
;
_chemical_formula_sum "Si O2"
_cell_formula_units_Z 64
_cell_length_a 9.688602
_cell_length_b 11.957721
_cell_length_c 23.011219
_cell_angle_alpha 90.000000
_cell_angle_beta 90.000000
_cell_angle_gamma 90.000000
_cell_volume 2665.932552
_symmetry_space_group_name_H-M "C C C 2"
_symmetry_group_IT_number 37
_symmetry_cell_setting 'orthorhombic'
loop_
_space_group_symop_operation_xyz
x,y,z
-x,-y,z
-x,y,1/2+z
x,-y,1/2+z
1/2+x,1/2+y,z
1/2-x,1/2-y,z
1/2-x,1/2+y,1/2+z
1/2+x,1/2-y,1/2+z
loop_
_atom_site_type_symbol
_atom_site_label
_atom_site_fract_x
_atom_site_fract_y
_atom_site_fract_z
Si Si1 0.079455 0.379364 0.218500
Si Si2 0.532527 0.180838 0.096071
Si Si3 0.833171 0.920659 0.586150
Si Si4 0.672488 0.854105 0.783841
Si Si5 0.338309 0.013954 0.897069
Si Si6 0.596882 0.595478 0.453878
Si Si7 0.387312 0.203369 0.983629
Si Si8 0.345255 0.505874 0.707931
O O1 0.241564 0.396366 0.227888
O O2 0.000000 0.500000 0.220258
O O3 0.054333 0.337866 0.153674
O O4 0.981795 0.318357 0.264972
O O5 0.676895 0.116960 0.096385
O O6 0.571418 0.311566 0.094589
O O7 0.462635 0.142555 0.036489
O O8 0.859835 0.947256 0.518723
O O9 0.855265 0.007670 0.637946
O O10 0.750000 0.750000 0.811059
O O11 0.676588 0.954262 0.829876
O O12 0.763791 0.893937 0.728612
O O13 0.317062 0.125223 0.935325
O O14 0.500000 0.000000 0.907495
O O15 0.239870 0.913175 0.917949
O O16 0.500000 0.500000 0.427043
O O17 0.502954 0.707471 0.460013
O O18 0.250000 0.250000 0.014023
O O19 0.500000 0.500000 0.731487
#
# Coordination Sequence:
#
# PCOD9353990 Si02
#       8
#     8   8   8   8   8   8   8   8
#     4  10  20  37  65  96 132 178 229 275 339 423
#     4  10  20  35  63  91 135 175 222 271 345 410
#     4  10  20  37  60  96 134 178 212 283 344 409
#     4  11  24  47  71  94 132 183 230 291 343 418
#     4  12  26  45  75  97 136 184 237 287 357 419
#     4  11  24  42  67  98 142 176 231 288 351 418
#     4  11  24  43  65 105 137 181 233 289 354 430
#     4  11  23  39  65  98 136 169 230 276 346 404
#
# _framework density 24.006609000000001
#
# number of rings (size 3 to 8) (size 9 to 14) (size 15 to 20)
#    0.000    1.250    3.750    3.375    1.750    4.500 
#    0.000    1.875    2.750    0.000    0.000    0.000 
#    0.000    0.000    0.000    0.000    0.000    0.000 
#
# Total GULP energy -178658.712334 kJ/mol
# GULP energy per Si atom -5583.084760 kJ/mol
# Density = 2.395197 g / cm^3
# Si number density = 24.006609 Si / 1000 Ang^3
#
#
#
# Elastic Constant Matrix: (Units=GPa)
#
#
# Indices 1 2 3 4 5 6 
#
# 1 168.3438 29.7116 36.2282 0.0000 0.0000 0.0000
# 2 29.7116 31.7707 2.6382 0.0000 0.0000 0.0000
# 3 36.2282 2.6382 92.7024 0.0000 0.0000 0.0000
# 4 0.0000 0.0000 0.0000 21.9466 0.0000 0.0000
# 5 0.0000 0.0000 0.0000 0.0000 -34.0310 0.0000
# 6 0.0000 0.0000 0.0000 0.0000 0.0000 37.0761
#
#
#
# Elastic Compliance Matrix: (Units=1/GPa)
#
#
# Indices 1 2 3 4 5 6 
#
# 1 0.007798 -0.007056 -0.002847 0.000000 0.000000 0.000000
# 2 -0.007056 0.037935 0.001678 0.000000 0.000000 0.000000
# 3 -0.002847 0.001678 0.011852 0.000000 0.000000 0.000000
# 4 0.000000 0.000000 0.000000 0.045565 0.000000 0.000000
# 5 0.000000 0.000000 0.000000 0.000000 -0.029385 0.000000
# 6 0.000000 0.000000 0.000000 0.000000 0.000000 0.026972
#
#
# Mechanical properties :
#
#
# Convention : Reuss Voigt Hill
#
# Bulk Modulus (GPa) = 24.31001 47.77474 36.04238
# Shear Modulus (GPa) = 38.19727 19.94760 29.07243
#
# Velocity S-wave (km/s) = 3.99321 2.88570 3.48374
# Velocity P-wave (km/s) = 5.60440 5.57197 5.58821
#
# Compressibility (1/GPa) = 0.04113532
#
# Stress axis : x y z
#
# Youngs Moduli (GPa) = 128.23344 26.36065 84.37416
#
# Poissons Ratio (x) = 0.18601 0.24019
# Poissons Ratio (y) = 0.90487 -0.14159
# Poissons Ratio (z) = 0.36505 -0.04424
#
# Static dielectric constant tensor:
#      x y z
#    x 2.239350 0.000000 0.000000 
#    y 0.000000 2.081050 0.000000 
#    z 0.000000 0.000000 1.905970 
# 
# From -- ./inp_files/18518.got.cif
#   From: 2010.05.17/outbox.cif.g08.bks.cpg/sg37_10_cif.got.tgz:18518.got - 2010.06.03 17:53:42.
