data_PCOD9353561
_publ_section_title
;
Structure prediction by ZEFSAII (Michael W. Deem and Ramdas Pophale) SiO2 
 PCOD9353561
Probable space group: C C C 2
;
_chemical_formula_sum "Si O2"
_cell_formula_units_Z 64
_cell_length_a 21.919475
_cell_length_b 18.401267
_cell_length_c 7.728310
_cell_angle_alpha 90.000000
_cell_angle_beta 90.000000
_cell_angle_gamma 90.000000
_cell_volume 3117.183791
_symmetry_space_group_name_H-M "C C C 2"
_symmetry_group_IT_number 37
_symmetry_cell_setting 'orthorhombic'
loop_
_space_group_symop_operation_xyz
x,y,z
-x,-y,z
-x,y,1/2+z
x,-y,1/2+z
1/2+x,1/2+y,z
1/2-x,1/2-y,z
1/2-x,1/2+y,1/2+z
1/2+x,1/2-y,1/2+z
loop_
_atom_site_type_symbol
_atom_site_label
_atom_site_fract_x
_atom_site_fract_y
_atom_site_fract_z
Si Si1 0.455943 0.408245 0.829930
Si Si2 0.326413 0.417025 0.717610
Si Si3 0.789600 0.934218 0.116046
Si Si4 0.556509 0.242570 0.292608
Si Si5 0.427648 0.771550 0.696953
Si Si6 0.582332 0.392000 0.730214
Si Si7 0.313706 0.251732 0.643469
Si Si8 0.705739 0.184412 0.771672
O O1 0.397931 0.441399 0.729493
O O2 0.457386 0.326757 0.746241
O O3 0.526751 0.431312 0.827351
O O4 0.436197 0.401474 0.028737
O O5 0.286932 0.478574 0.624229
O O6 0.324297 0.338571 0.627573
O O7 0.303532 0.410699 0.917746
O O8 0.848206 0.916084 0.236078
O O9 0.735333 0.889198 0.201536
O O10 0.565977 0.242261 0.495354
O O11 0.494013 0.199863 0.253902
O O12 0.621662 0.222250 0.212635
O O13 0.417304 0.692770 0.785266
O O14 0.365032 0.813662 0.719778
O O15 0.250000 0.250000 0.751709
O O16 0.298177 0.203482 0.475591
O O17 0.750000 0.250000 0.702445
#
# Coordination Sequence:
#
# PCOD9353561 Si02
#       8
#     8   8   8   8   8   8   8   8
#     4   8  17  32  50  76 109 159 203 243 297 347
#     4  10  24  40  58  85 125 163 207 263 314 377
#     4  11  24  39  59  86 126 165 213 259 315 371
#     4   9  18  32  55  86 119 155 195 257 312 368
#     4  10  18  32  56  82 123 154 203 257 310 361
#     4   9  17  32  50  78 111 160 206 252 287 359
#     4  10  23  39  61  89 123 157 209 250 313 373
#     4  11  23  37  60  87 121 166 215 256 310 366
#
# _framework density 20.531354
#
# number of rings (size 3 to 8) (size 9 to 14) (size 15 to 20)
#    0.000    2.250    1.250    1.500    5.250    4.500 
#    0.000    2.500    0.000    0.000    0.000    0.875 
#    0.000    0.000    0.000    0.000    0.000    0.000 
#
# Total GULP energy -178344.780918 kJ/mol
# GULP energy per Si atom -5573.274404 kJ/mol
# Density = 2.048462 g / cm^3
# Si number density = 20.531354 Si / 1000 Ang^3
#
#
#
# Elastic Constant Matrix: (Units=GPa)
#
#
# Indices 1 2 3 4 5 6 
#
# 1 186.6687 31.0596 25.3372 0.0000 0.0000 0.0000
# 2 31.0596 44.0726 15.0054 0.0000 0.0000 0.0000
# 3 25.3372 15.0054 58.5666 0.0000 0.0000 0.0000
# 4 0.0000 0.0000 0.0000 13.7408 0.0000 0.0000
# 5 0.0000 0.0000 0.0000 0.0000 34.9037 0.0000
# 6 0.0000 0.0000 0.0000 0.0000 0.0000 31.6944
#
#
#
# Elastic Compliance Matrix: (Units=1/GPa)
#
#
# Indices 1 2 3 4 5 6 
#
# 1 0.006223 -0.003800 -0.001718 0.000000 0.000000 0.000000
# 2 -0.003800 0.027179 -0.005320 0.000000 0.000000 0.000000
# 3 -0.001718 -0.005320 0.019181 0.000000 0.000000 0.000000
# 4 0.000000 0.000000 0.000000 0.072776 0.000000 0.000000
# 5 0.000000 0.000000 0.000000 0.000000 0.028650 0.000000
# 6 0.000000 0.000000 0.000000 0.000000 0.000000 0.031551
#
#
# Mechanical properties :
#
#
# Convention : Reuss Voigt Hill
#
# Bulk Modulus (GPa) = 32.35579 48.01248 40.18414
# Shear Modulus (GPa) = 22.98441 30.59482 26.78962
#
# Velocity S-wave (km/s) = 3.34949 3.86444 3.61614
# Velocity P-wave (km/s) = 5.54547 6.58388 6.08686
#
# Compressibility (1/GPa) = 0.03090637
#
# Stress axis : x y z
#
# Youngs Moduli (GPa) = 160.70321 36.79288 52.13520
#
# Poissons Ratio (x) = 0.13982 0.08959
# Poissons Ratio (y) = 0.61072 0.27733
# Poissons Ratio (z) = 0.27615 0.19572
#
# Static dielectric constant tensor:
#      x y z
#    x 1.840260 0.000000 0.000000 
#    y 0.000000 1.775170 0.000000 
#    z 0.000000 0.000000 1.768810 
# 
# From -- ./inp_files/4438.got.cif
#   From: 2010.05.17/outbox.cif.g08.bks.cpg/sg37_3_cif.got.tgz:4438.got - 2010.06.03 17:53:42.
