data_PCOD9353127
_publ_section_title
;
Structure prediction by ZEFSAII (Michael W. Deem and Ramdas Pophale) SiO2 
 PCOD9353127
Probable space group: C M C 21
;
_chemical_formula_sum "Si O2"
_cell_formula_units_Z 32
_cell_length_a 7.728063
_cell_length_b 34.143825
_cell_length_c 4.921778
_cell_angle_alpha 90.000000
_cell_angle_beta 90.000000
_cell_angle_gamma 90.000000
_cell_volume 1298.688056
_symmetry_space_group_name_H-M "C M C 21"
_symmetry_group_IT_number 36
_symmetry_cell_setting 'orthorhombic'
loop_
_space_group_symop_operation_xyz
x,y,z
-x,-y,1/2+z
x,-y,1/2+z
-x,y,z
1/2+x,1/2+y,z
1/2-x,1/2-y,1/2+z
1/2+x,1/2-y,1/2+z
1/2-x,1/2+y,z
loop_
_atom_site_type_symbol
_atom_site_label
_atom_site_fract_x
_atom_site_fract_y
_atom_site_fract_z
Si Si1 0.199680 0.649684 0.283370
Si Si2 0.289056 0.523423 0.496428
Si Si3 0.800098 0.273870 0.482056
Si Si4 0.699589 0.601883 0.783592
O O1 0.273568 0.687941 0.133167
O O2 0.290480 0.635807 0.556760
O O3 0.000000 0.657809 0.353533
O O4 0.209328 0.615767 0.056597
O O5 0.237222 0.512281 0.193699
O O6 0.500000 0.525623 0.493229
O O7 0.228343 0.563611 0.631132
O O8 0.710956 0.260304 0.206768
O O9 0.000000 0.282003 0.414699
O O10 0.500000 0.594148 0.858423
#
# Coordination Sequence:
#
# PCOD9353127 Si02
#       4
#     8   8   8   8
#     4  11  24  41  59  84 122 159 186 229 299 355
#     4   9  17  31  53  82 114 145 184 239 291 329
#     4  11  24  41  62  87 116 153 194 237 289 345
#     4  11  22  37  62  91 114 149 202 245 279 335
#
# _framework density 24.640252
#
# number of rings (size 3 to 8) (size 9 to 14) (size 15 to 20)
#    0.000    1.500    0.000    5.250    0.000   14.000 
#    0.000    0.000    0.000   15.000    0.000    0.000 
#    0.000    0.000    0.000    0.000    0.000    0.000 
#
# Total GULP energy -89589.526540 kJ/mol
# GULP energy per Si atom -5599.345409 kJ/mol
# Density = 2.458417 g / cm^3
# Si number density = 24.640252 Si / 1000 Ang^3
#
#
#
# Elastic Constant Matrix: (Units=GPa)
#
#
# Indices 1 2 3 4 5 6 
#
# 1 48.4832 -6.6829 -2.8045 0.0000 0.0000 0.0000
# 2 -6.6829 64.9605 -0.4734 0.0000 0.0000 0.0000
# 3 -2.8045 -0.4734 115.2865 0.0000 0.0000 0.0000
# 4 0.0000 0.0000 0.0000 42.6272 0.0000 0.0000
# 5 0.0000 0.0000 0.0000 0.0000 96.0087 0.0000
# 6 0.0000 0.0000 0.0000 0.0000 0.0000 -93.6693
#
#
#
# Elastic Compliance Matrix: (Units=1/GPa)
#
#
# Indices 1 2 3 4 5 6 
#
# 1 0.020953 0.002159 0.000519 0.000000 0.000000 0.000000
# 2 0.002159 0.015617 0.000117 0.000000 0.000000 0.000000
# 3 0.000519 0.000117 0.008687 0.000000 0.000000 0.000000
# 4 0.000000 0.000000 0.000000 0.023459 0.000000 0.000000
# 5 0.000000 0.000000 0.000000 0.000000 0.010416 0.000000
# 6 0.000000 0.000000 0.000000 0.000000 0.000000 -0.010676
#
#
# Mechanical properties :
#
#
# Convention : Reuss Voigt Hill
#
# Bulk Modulus (GPa) = 19.66696 23.20096 21.43396
# Shear Modulus (GPa) = 62.64398 24.90607 43.77502
#
# Velocity S-wave (km/s) = 5.04764 3.18274 4.21951
# Velocity P-wave (km/s) = 6.47846 4.78986 5.69707
#
# Compressibility (1/GPa) = 0.05084671
#
# Stress axis : x y z
#
# Youngs Moduli (GPa) = 47.72511 64.03286 115.11276
#
# Poissons Ratio (x) = -0.13827 -0.05970
# Poissons Ratio (y) = -0.10306 -0.01343
# Poissons Ratio (z) = -0.02475 -0.00747
#
# Static dielectric constant tensor:
#      x y z
#    x 1.875660 0.000000 0.000000 
#    y 0.000000 2.020750 0.000000 
#    z 0.000000 0.000000 1.858240 
# 
# From -- ./inp_files/227.got.cif
#   From: 2010.05.17/outbox.cif.g08.bks.cpg/sg36_1_cif.got.tgz:227.got - 2010.06.03 17:41:39.
