data_PCOD9353020
_publ_section_title
;
Structure prediction by ZEFSAII (Michael W. Deem and Ramdas Pophale) SiO2 
 PCOD9353020
Probable space group: C M C 21
;
_chemical_formula_sum "Si O2"
_cell_formula_units_Z 28
_cell_length_a 13.101406
_cell_length_b 16.975000
_cell_length_c 4.955858
_cell_angle_alpha 90.000000
_cell_angle_beta 90.000000
_cell_angle_gamma 90.000000
_cell_volume 1102.164814
_symmetry_space_group_name_H-M "C M C 21"
_symmetry_group_IT_number 36
_symmetry_cell_setting 'orthorhombic'
loop_
_space_group_symop_operation_xyz
x,y,z
-x,-y,1/2+z
x,-y,1/2+z
-x,y,z
1/2+x,1/2+y,z
1/2-x,1/2-y,1/2+z
1/2+x,1/2-y,1/2+z
1/2-x,1/2+y,z
loop_
_atom_site_type_symbol
_atom_site_label
_atom_site_fract_x
_atom_site_fract_y
_atom_site_fract_z
Si Si1 0.613379 0.675311 0.062400
Si Si2 0.171338 0.329082 0.379636
Si Si3 0.251844 0.443372 0.764589
Si Si4 0.000000 0.444012 0.163967
O O1 0.500000 0.679863 0.949935
O O2 0.630574 0.746073 0.274810
O O3 0.637210 0.595100 0.223342
O O4 0.705116 0.676415 0.839919
O O5 0.179186 0.368557 0.681308
O O6 0.096409 0.389586 0.232377
O O7 0.239153 0.509074 0.534922
O O8 0.000000 0.517778 0.370049
#
# Coordination Sequence:
#
# PCOD9353020 Si02
#       4
#     8   8   8   4
#     4  10  24  46  73 108 151 203 253 313 387 460
#     4  10  24  45  75 106 156 192 261 306 389 460
#     4  10  24  44  72 105 148 192 250 314 374 451
#     4  12  26  48  80 114 152 200 254 326 392 454
#
# _framework density 25.404547000000001
#
# number of rings (size 3 to 8) (size 9 to 14) (size 15 to 20)
#    1.714    0.000    1.429    1.714    4.000    3.429 
#    2.571    2.857    0.000    0.000    0.000    0.000 
#    0.000    0.000    0.000    0.000    0.000    0.000 
#
# Total GULP energy -78053.401091 kJ/mol
# GULP energy per Si atom -5575.242935 kJ/mol
# Density = 2.534673 g / cm^3
# Si number density = 25.404547 Si / 1000 Ang^3
#
#
#
# Elastic Constant Matrix: (Units=GPa)
#
#
# Indices 1 2 3 4 5 6 
#
# 1 183.0567 66.8854 52.1626 0.0000 0.0000 0.0000
# 2 66.8854 144.9078 25.4889 0.0000 0.0000 0.0000
# 3 52.1626 25.4889 75.9231 0.0000 0.0000 0.0000
# 4 0.0000 0.0000 0.0000 32.8427 0.0000 0.0000
# 5 0.0000 0.0000 0.0000 0.0000 18.2391 0.0000
# 6 0.0000 0.0000 0.0000 0.0000 0.0000 46.2216
#
#
#
# Elastic Compliance Matrix: (Units=1/GPa)
#
#
# Indices 1 2 3 4 5 6 
#
# 1 0.007732 -0.002800 -0.004372 0.000000 0.000000 0.000000
# 2 -0.002800 0.008348 -0.000879 0.000000 0.000000 0.000000
# 3 -0.004372 -0.000879 0.016470 0.000000 0.000000 0.000000
# 4 0.000000 0.000000 0.000000 0.030448 0.000000 0.000000
# 5 0.000000 0.000000 0.000000 0.000000 0.054827 0.000000
# 6 0.000000 0.000000 0.000000 0.000000 0.000000 0.021635
#
#
# Mechanical properties :
#
#
# Convention : Reuss Voigt Hill
#
# Bulk Modulus (GPa) = 60.79753 76.99572 68.89662
# Shear Modulus (GPa) = 31.04746 36.75073 33.89909
#
# Velocity S-wave (km/s) = 3.49968 3.80757 3.65687
# Velocity P-wave (km/s) = 6.34933 7.05009 6.70887
#
# Compressibility (1/GPa) = 0.01644804
#
# Stress axis : x y z
#
# Youngs Moduli (GPa) = 129.34019 119.79205 60.71600
#
# Poissons Ratio (x) = 0.33537 0.26545
# Poissons Ratio (y) = 0.36211 0.05337
# Poissons Ratio (z) = 0.56548 0.10530
#
# Static dielectric constant tensor:
#      x y z
#    x 2.085020 0.000000 0.000000 
#    y 0.000000 2.032420 0.000000 
#    z 0.000000 0.000000 2.022440 
# 
# From -- ./inp_files/672.got.cif
#   From: 2010.05.17/outbox.cif.g08.bks.cpg/sg36_1_cif.got.tgz:672.got - 2010.06.03 17:41:39.
