data_PCOD9353478
_publ_section_title
;
Structure prediction by ZEFSAII (Michael W. Deem and Ramdas Pophale) SiO2 
 PCOD9353478
Probable space group: C C C 2
;
_chemical_formula_sum "Si O2"
_cell_formula_units_Z 52
_cell_length_a 17.686376
_cell_length_b 16.987884
_cell_length_c 9.197018
_cell_angle_alpha 90.000000
_cell_angle_beta 90.000000
_cell_angle_gamma 90.000000
_cell_volume 2763.281801
_symmetry_space_group_name_H-M "C C C 2"
_symmetry_group_IT_number 37
_symmetry_cell_setting 'orthorhombic'
loop_
_space_group_symop_operation_xyz
x,y,z
-x,-y,z
-x,y,1/2+z
x,-y,1/2+z
1/2+x,1/2+y,z
1/2-x,1/2-y,z
1/2-x,1/2+y,1/2+z
1/2+x,1/2-y,1/2+z
loop_
_atom_site_type_symbol
_atom_site_label
_atom_site_fract_x
_atom_site_fract_y
_atom_site_fract_z
Si Si1 0.063204 0.893445 0.617970
Si Si2 0.000000 0.000000 0.875393
Si Si3 0.408365 0.989297 0.448636
Si Si4 0.051050 0.344300 0.781533
Si Si5 0.836850 0.768868 0.251691
Si Si6 0.607914 0.900600 0.213569
Si Si7 0.548079 0.742791 0.510317
O O1 0.138566 0.842155 0.650081
O O2 0.998492 0.829644 0.577427
O O3 0.040466 0.938950 0.765799
O O4 0.058181 0.954793 0.483770
O O5 0.375025 0.066395 0.373099
O O6 0.500000 0.000000 0.458049
O O7 0.397055 0.910080 0.353313
O O8 0.371643 0.967491 0.600392
O O9 0.078919 0.291175 0.648921
O O10 0.982481 0.392890 0.709010
O O11 0.010642 0.292681 0.908493
O O12 0.750000 0.750000 0.280002
O O13 0.864416 0.686356 0.182271
O O14 0.885267 0.778986 0.399374
#
# Coordination Sequence:
#
# PCOD9353478 Si02
#       7
#     8   4   8   8   8   8   8
#     4  11  19  39  64  96 119 155 210 275 315 382
#     4  10  22  34  68 102 114 150 222 282 326 346
#     4  10  18  28  49  86 120 143 189 240 276 333
#     4  10  17  28  52  86 116 148 194 240 279 339
#     4  11  24  40  60  88 127 164 200 257 327 381
#     4  10  20  31  51  79 115 158 190 233 284 352
#     4  11  18  34  62  89 115 156 205 249 299 368
#
# _framework density 18.818203
#
# number of rings (size 3 to 8) (size 9 to 14) (size 15 to 20)
#    0.000    1.538    6.154    1.385    4.308    0.000 
#    0.000    1.538    0.000    8.308    0.000    0.000 
#    0.000    0.000    0.000    0.000    0.000    0.000 
#
# Total GULP energy -144792.992247 kJ/mol
# GULP energy per Si atom -5568.961240 kJ/mol
# Density = 1.877537 g / cm^3
# Si number density = 18.818203 Si / 1000 Ang^3
#
#
#
# Elastic Constant Matrix: (Units=GPa)
#
#
# Indices 1 2 3 4 5 6 
#
# 1 46.9366 16.3409 14.6394 0.0000 0.0000 0.0000
# 2 16.3409 98.0841 49.5066 0.0000 0.0000 0.0000
# 3 14.6394 49.5066 105.7049 0.0000 0.0000 0.0000
# 4 0.0000 0.0000 0.0000 52.5757 0.0000 0.0000
# 5 0.0000 0.0000 0.0000 0.0000 7.5717 0.0000
# 6 0.0000 0.0000 0.0000 0.0000 0.0000 8.1154
#
#
#
# Elastic Compliance Matrix: (Units=1/GPa)
#
#
# Indices 1 2 3 4 5 6 
#
# 1 0.022879 -0.002897 -0.001812 0.000000 0.000000 0.000000
# 2 -0.002897 0.013718 -0.006024 0.000000 0.000000 0.000000
# 3 -0.001812 -0.006024 0.012532 0.000000 0.000000 0.000000
# 4 0.000000 0.000000 0.000000 0.019020 0.000000 0.000000
# 5 0.000000 0.000000 0.000000 0.000000 0.132071 0.000000
# 6 0.000000 0.000000 0.000000 0.000000 0.000000 0.123222
#
#
# Mechanical properties :
#
#
# Convention : Reuss Voigt Hill
#
# Bulk Modulus (GPa) = 36.14734 45.74438 40.94586
# Shear Modulus (GPa) = 14.11912 25.00181 19.56047
#
# Velocity S-wave (km/s) = 2.74211 3.64895 3.22754
# Velocity P-wave (km/s) = 5.41073 6.48956 5.97455
#
# Compressibility (1/GPa) = 0.02766455
#
# Stress axis : x y z
#
# Youngs Moduli (GPa) = 43.70811 72.89477 79.79315
#
# Poissons Ratio (x) = 0.21119 0.14456
# Poissons Ratio (y) = 0.12663 0.48065
# Poissons Ratio (z) = 0.07918 0.43910
#
# Static dielectric constant tensor:
#      x y z
#    x 1.705130 0.000000 0.000000 
#    y 0.000000 1.720400 0.000000 
#    z 0.000000 0.000000 1.738360 
# 
# From -- ./inp_files/4055.got.cif
#   From: 2010.05.17/outbox.cif.g08.bks.cpg/sg37_3_cif.got.tgz:4055.got - 2010.06.03 17:53:42.
