data_PCOD9353212
_publ_section_title
;
Structure prediction by ZEFSAII (Michael W. Deem and Ramdas Pophale) SiO2 
 PCOD9353212
Probable space group: C M C 21
;
_chemical_formula_sum "Si O2"
_cell_formula_units_Z 48
_cell_length_a 8.830444
_cell_length_b 22.123894
_cell_length_c 12.810172
_cell_angle_alpha 90.000000
_cell_angle_beta 90.000000
_cell_angle_gamma 90.000000
_cell_volume 2502.643971
_symmetry_space_group_name_H-M "C M C 21"
_symmetry_group_IT_number 36
_symmetry_cell_setting 'orthorhombic'
loop_
_space_group_symop_operation_xyz
x,y,z
-x,-y,1/2+z
x,-y,1/2+z
-x,y,z
1/2+x,1/2+y,z
1/2-x,1/2-y,1/2+z
1/2+x,1/2-y,1/2+z
1/2-x,1/2+y,z
loop_
_atom_site_type_symbol
_atom_site_label
_atom_site_fract_x
_atom_site_fract_y
_atom_site_fract_z
Si Si1 0.320737 0.317806 0.726120
Si Si2 0.318613 0.304938 0.146911
Si Si3 0.176901 0.397893 0.559399
Si Si4 0.321465 0.002022 0.413541
Si Si5 0.681857 0.141175 0.436968
Si Si6 0.179421 0.886704 0.346912
O O1 0.500000 0.315294 0.738805
O O2 0.259354 0.259251 0.666104
O O3 0.272194 0.375263 0.656390
O O4 0.239284 0.321898 0.837423
O O5 0.500000 0.297851 0.141927
O O6 0.282411 0.347769 0.245992
O O7 0.256792 0.334584 0.041836
O O8 0.195455 0.468103 0.525799
O O9 0.233514 0.365867 0.452133
O O10 0.000000 0.385907 0.577968
O O11 0.500000 0.998976 0.386807
O O12 0.274554 0.071025 0.418099
O O13 0.230211 0.956924 0.338003
O O14 0.500000 0.144244 0.444812
O O15 0.000000 0.883342 0.365225
#
# Coordination Sequence:
#
# PCOD9353212 Si02
#       6
#     8   8   8   8   8   8
#     4  12  26  42  63  91 124 166 208 256 312 368
#     4  11  25  43  63  90 125 165 207 258 310 368
#     4   9  19  39  64  91 122 161 204 248 303 366
#     4   8  19  38  63  92 124 163 203 248 307 369
#     4  11  24  43  64  92 125 162 208 257 307 368
#     4   9  19  37  63  92 122 159 204 251 305 361
#
# _framework density 19.179715999999999
#
# number of rings (size 3 to 8) (size 9 to 14) (size 15 to 20)
#    1.000    1.000    0.000    3.000    2.333    5.333 
#    0.000    5.000    0.000    0.000    0.000    0.000 
#    0.000    0.000    0.000    0.000    0.000    0.000 
#
# Total GULP energy -133870.558205 kJ/mol
# GULP energy per Si atom -5577.939925 kJ/mol
# Density = 1.913606 g / cm^3
# Si number density = 19.179716 Si / 1000 Ang^3
#
#
#
# Elastic Constant Matrix: (Units=GPa)
#
#
# Indices 1 2 3 4 5 6 
#
# 1 47.9072 12.3363 7.1492 0.0000 0.0000 0.0000
# 2 12.3363 47.0921 -8.1955 0.0000 0.0000 0.0000
# 3 7.1492 -8.1955 58.2080 0.0000 0.0000 0.0000
# 4 0.0000 0.0000 0.0000 91.9030 0.0000 0.0000
# 5 0.0000 0.0000 0.0000 0.0000 30.5593 0.0000
# 6 0.0000 0.0000 0.0000 0.0000 0.0000 3.8231
#
#
#
# Elastic Compliance Matrix: (Units=1/GPa)
#
#
# Indices 1 2 3 4 5 6 
#
# 1 0.023173 -0.006731 -0.003794 0.000000 0.000000 0.000000
# 2 -0.006731 0.023723 0.004167 0.000000 0.000000 0.000000
# 3 -0.003794 0.004167 0.018232 0.000000 0.000000 0.000000
# 4 0.000000 0.000000 0.000000 0.010881 0.000000 0.000000
# 5 0.000000 0.000000 0.000000 0.000000 0.032723 0.000000
# 6 0.000000 0.000000 0.000000 0.000000 0.000000 0.261569
#
#
# Mechanical properties :
#
#
# Convention : Reuss Voigt Hill
#
# Bulk Modulus (GPa) = 19.07907 19.53192 19.30550
# Shear Modulus (GPa) = 12.48476 34.71823 23.60150
#
# Velocity S-wave (km/s) = 2.55411 4.25921 3.51172
# Velocity P-wave (km/s) = 4.32054 5.86460 5.15076
#
# Compressibility (1/GPa) = 0.05241346
#
# Stress axis : x y z
#
# Youngs Moduli (GPa) = 43.15359 42.15260 54.84739
#
# Poissons Ratio (x) = 0.28372 0.20808
# Poissons Ratio (y) = 0.29045 -0.22854
# Poissons Ratio (z) = 0.16372 -0.17564
#
# Static dielectric constant tensor:
#      x y z
#    x 1.637320 0.000000 0.000000 
#    y 0.000000 1.673880 0.000000 
#    z 0.000000 0.000000 1.653970 
# 
# From -- ./inp_files/6747.got.cif
#   From: 2010.05.17/outbox.cif.g08.bks.cpg/sg36_4_cif.got.tgz:6747.got - 2010.06.03 17:41:39.
