data_PCOD9353116
_publ_section_title
;
Structure prediction by ZEFSAII (Michael W. Deem and Ramdas Pophale) SiO2 
 PCOD9353116
Probable space group: C M C 21
;
_chemical_formula_sum "Si O2"
_cell_formula_units_Z 64
_cell_length_a 19.867442
_cell_length_b 17.901886
_cell_length_c 9.512041
_cell_angle_alpha 90.000000
_cell_angle_beta 90.000000
_cell_angle_gamma 90.000000
_cell_volume 3383.097035
_symmetry_space_group_name_H-M "C M C 21"
_symmetry_group_IT_number 36
_symmetry_cell_setting 'orthorhombic'
loop_
_space_group_symop_operation_xyz
x,y,z
-x,-y,1/2+z
x,-y,1/2+z
-x,y,z
1/2+x,1/2+y,z
1/2-x,1/2-y,1/2+z
1/2+x,1/2-y,1/2+z
1/2-x,1/2+y,z
loop_
_atom_site_type_symbol
_atom_site_label
_atom_site_fract_x
_atom_site_fract_y
_atom_site_fract_z
Si Si1 0.320815 0.437875 0.921480
Si Si2 0.079356 0.345441 0.815014
Si Si3 0.850877 0.083135 0.739063
Si Si4 0.923030 0.816962 0.444889
Si Si5 0.169145 0.378205 0.561367
Si Si6 0.188450 0.170289 0.177777
Si Si7 0.164815 0.449390 0.011106
Si Si8 0.295231 0.158929 0.752599
O O1 0.344442 0.507136 0.827429
O O2 0.330354 0.363995 0.828344
O O3 0.355531 0.433457 0.073508
O O4 0.240877 0.446860 0.950365
O O5 0.089237 0.269058 0.901998
O O6 0.117755 0.339324 0.667236
O O7 0.000000 0.357514 0.797100
O O8 0.114538 0.412536 0.899996
O O9 0.908612 0.133015 0.807900
O O10 0.781106 0.128791 0.760596
O O11 0.870494 0.840209 0.564858
O O12 0.000000 0.824916 0.491284
O O13 0.244158 0.371352 0.625866
O O14 0.150101 0.465091 0.546542
O O15 0.173250 0.342977 0.407145
O O16 0.203888 0.257952 0.191607
O O17 0.166360 0.397999 0.149744
#
# Coordination Sequence:
#
# PCOD9353116 Si02
#       8
#     8   8   8   8   8   8   8   8
#     4  11  23  38  66 101 132 157 216 277 324 373
#     4  11  25  43  65  94 132 176 215 262 329 395
#     4  11  22  40  64  99 128 170 208 271 326 384
#     4  11  24  46  67  91 133 177 215 267 332 391
#     4  12  23  39  66  95 130 168 221 275 320 379
#     4  12  23  40  63 100 130 168 223 273 320 385
#     4  11  21  42  61  94 129 171 212 265 330 379
#     4  11  23  34  64  96 126 167 216 272 323 378
#
# _framework density 18.917577999999999
#
# number of rings (size 3 to 8) (size 9 to 14) (size 15 to 20)
#    0.000    0.750    5.000    3.750    5.250    0.500 
#    0.000    4.375    0.000    0.000    0.000    0.000 
#    0.000    0.000    0.000    0.000    0.000    0.000 
#
# Total GULP energy -178950.171458 kJ/mol
# GULP energy per Si atom -5592.192858 kJ/mol
# Density = 1.887452 g / cm^3
# Si number density = 18.917578 Si / 1000 Ang^3
#
#
#
# Elastic Constant Matrix: (Units=GPa)
#
#
# Indices 1 2 3 4 5 6 
#
# 1 40.7463 11.6996 18.9315 0.0000 0.0000 0.0000
# 2 11.6996 59.3482 6.8592 0.0000 0.0000 0.0000
# 3 18.9315 6.8592 107.0052 0.0000 0.0000 0.0000
# 4 0.0000 0.0000 0.0000 31.8222 0.0000 0.0000
# 5 0.0000 0.0000 0.0000 0.0000 25.6951 0.0000
# 6 0.0000 0.0000 0.0000 0.0000 0.0000 -16.1167
#
#
#
# Elastic Compliance Matrix: (Units=1/GPa)
#
#
# Indices 1 2 3 4 5 6 
#
# 1 0.028145 -0.005010 -0.004658 0.000000 0.000000 0.000000
# 2 -0.005010 0.017867 -0.000259 0.000000 0.000000 0.000000
# 3 -0.004658 -0.000259 0.010186 0.000000 0.000000 0.000000
# 4 0.000000 0.000000 0.000000 0.031425 0.000000 0.000000
# 5 0.000000 0.000000 0.000000 0.000000 0.038918 0.000000
# 6 0.000000 0.000000 0.000000 0.000000 0.000000 -0.062047
#
#
# Mechanical properties :
#
#
# Convention : Reuss Voigt Hill
#
# Bulk Modulus (GPa) = 27.51493 31.34224 29.42859
# Shear Modulus (GPa) = 51.83362 19.58742 35.71052
#
# Velocity S-wave (km/s) = 5.24015 3.22127 4.34947
# Velocity P-wave (km/s) = 7.15461 5.51717 6.38857
#
# Compressibility (1/GPa) = 0.03634390
#
# Stress axis : x y z
#
# Youngs Moduli (GPa) = 35.53035 55.96820 98.17311
#
# Poissons Ratio (x) = 0.28040 0.45732
# Poissons Ratio (y) = 0.17801 0.02542
# Poissons Ratio (z) = 0.16551 0.01449
#
# Static dielectric constant tensor:
#      x y z
#    x 1.621610 0.000000 0.000000 
#    y 0.000000 1.650380 0.000000 
#    z 0.000000 0.000000 1.669390 
# 
# From -- ./inp_files/5319.got.cif
#   From: 2010.05.17/outbox.cif.g08.bks.cpg/sg36_3_cif.got.tgz:5319.got - 2010.06.03 17:41:39.
