data_PCOD9353195
_publ_section_title
;
Structure prediction by ZEFSAII (Michael W. Deem and Ramdas Pophale) SiO2 
 PCOD9353195
Probable space group: C M C 21
;
_chemical_formula_sum "Si O2"
_cell_formula_units_Z 48
_cell_length_a 17.437647
_cell_length_b 9.419583
_cell_length_c 13.758516
_cell_angle_alpha 90.000000
_cell_angle_beta 90.000000
_cell_angle_gamma 90.000000
_cell_volume 2259.910043
_symmetry_space_group_name_H-M "C M C 21"
_symmetry_group_IT_number 36
_symmetry_cell_setting 'orthorhombic'
loop_
_space_group_symop_operation_xyz
x,y,z
-x,-y,1/2+z
x,-y,1/2+z
-x,y,z
1/2+x,1/2+y,z
1/2-x,1/2-y,1/2+z
1/2+x,1/2-y,1/2+z
1/2-x,1/2+y,z
loop_
_atom_site_type_symbol
_atom_site_label
_atom_site_fract_x
_atom_site_fract_y
_atom_site_fract_z
Si Si1 0.086450 0.819947 0.317970
Si Si2 0.367072 0.575435 0.428476
Si Si3 0.676086 0.201671 0.626740
Si Si4 0.586288 0.151915 0.818142
Si Si5 0.333480 0.542101 0.642364
Si Si6 0.685184 0.912856 0.908333
O O1 0.109470 0.919763 0.228492
O O2 0.148204 0.696573 0.332256
O O3 0.000000 0.766367 0.309555
O O4 0.095682 0.923337 0.409805
O O5 0.408368 0.691971 0.363932
O O6 0.367496 0.603982 0.542594
O O7 0.276741 0.573730 0.399861
O O8 0.612774 0.158226 0.706135
O O9 0.681451 0.373582 0.628895
O O10 0.754234 0.124925 0.660800
O O11 0.665473 0.143324 0.516891
O O12 0.500000 0.096835 0.826426
O O13 0.645175 0.060297 0.882306
#
# Coordination Sequence:
#
# PCOD9353195 Si02
#       6
#     8   8   8   8   8   8
#     4  12  25  42  66 101 136 173 218 273 338 396
#     4  11  23  44  72  96 128 176 229 275 325 390
#     4  11  25  45  71  99 133 177 230 276 332 392
#     4  12  27  44  67 102 142 177 216 276 344 400
#     4  11  25  43  71 101 131 179 229 280 324 398
#     4  11  25  46  71  97 132 180 226 280 325 398
#
# _framework density 21.239785000000001
#
# number of rings (size 3 to 8) (size 9 to 14) (size 15 to 20)
#    0.000    0.667    3.333    4.000    9.333    2.667 
#    0.000    0.000    0.000    0.000    0.000    0.000 
#    0.000    0.000    0.000    0.000    0.000    0.000 
#
# Total GULP energy -134233.106839 kJ/mol
# GULP energy per Si atom -5593.046118 kJ/mol
# Density = 2.119144 g / cm^3
# Si number density = 21.239785 Si / 1000 Ang^3
#
#
#
# Elastic Constant Matrix: (Units=GPa)
#
#
# Indices 1 2 3 4 5 6 
#
# 1 84.4458 6.1659 48.6264 0.0000 0.0000 0.0000
# 2 6.1659 62.8053 5.9596 0.0000 0.0000 0.0000
# 3 48.6264 5.9596 59.6266 0.0000 0.0000 0.0000
# 4 0.0000 0.0000 0.0000 35.1384 0.0000 0.0000
# 5 0.0000 0.0000 0.0000 0.0000 0.4756 0.0000
# 6 0.0000 0.0000 0.0000 0.0000 0.0000 3.2276
#
#
#
# Elastic Compliance Matrix: (Units=1/GPa)
#
#
# Indices 1 2 3 4 5 6 
#
# 1 0.022340 -0.000469 -0.018172 0.000000 0.000000 0.000000
# 2 -0.000469 0.016085 -0.001225 0.000000 0.000000 0.000000
# 3 -0.018172 -0.001225 0.031713 0.000000 0.000000 0.000000
# 4 0.000000 0.000000 0.000000 0.028459 0.000000 0.000000
# 5 0.000000 0.000000 0.000000 0.000000 2.102753 0.000000
# 6 0.000000 0.000000 0.000000 0.000000 0.000000 0.309830
#
#
# Mechanical properties :
#
#
# Convention : Reuss Voigt Hill
#
# Bulk Modulus (GPa) = 32.88869 36.48684 34.68777
# Shear Modulus (GPa) = 1.95233 17.51003 9.73118
#
# Velocity S-wave (km/s) = 0.95978 2.87435 2.14278
# Velocity P-wave (km/s) = 4.09223 5.31335 4.74226
#
# Compressibility (1/GPa) = 0.03040559
#
# Stress axis : x y z
#
# Youngs Moduli (GPa) = 44.76293 62.17160 31.53307
#
# Poissons Ratio (x) = 0.02915 0.57301
# Poissons Ratio (y) = 0.02099 0.03863
# Poissons Ratio (z) = 0.81342 0.07617
#
# Static dielectric constant tensor:
#      x y z
#    x 1.734630 0.000000 0.000000 
#    y 0.000000 1.769700 0.000000 
#    z 0.000000 0.000000 1.765410 
# 
# From -- ./inp_files/12502.got.cif
#   From: 2010.05.17/outbox.cif.g08.bks.cpg/sg36_7_cif.got.tgz:12502.got - 2010.06.03 17:41:39.
