data_PCOD9353859
_publ_section_title
;
Structure prediction by ZEFSAII (Michael W. Deem and Ramdas Pophale) SiO2 
 PCOD9353859
Probable space group: C C C 2
;
_chemical_formula_sum "Si O2"
_cell_formula_units_Z 40
_cell_length_a 13.938959
_cell_length_b 5.556865
_cell_length_c 25.292136
_cell_angle_alpha 90.000000
_cell_angle_beta 90.000000
_cell_angle_gamma 90.000000
_cell_volume 1959.050788
_symmetry_space_group_name_H-M "C C C 2"
_symmetry_group_IT_number 37
_symmetry_cell_setting 'orthorhombic'
loop_
_space_group_symop_operation_xyz
x,y,z
-x,-y,z
-x,y,1/2+z
x,-y,1/2+z
1/2+x,1/2+y,z
1/2-x,1/2-y,z
1/2-x,1/2+y,1/2+z
1/2+x,1/2-y,1/2+z
loop_
_atom_site_type_symbol
_atom_site_label
_atom_site_fract_x
_atom_site_fract_y
_atom_site_fract_z
Si Si1 0.648613 0.862657 0.463660
Si Si2 0.000000 0.500000 0.042430
Si Si3 0.200033 0.996174 0.164896
Si Si4 0.500000 0.500000 0.918366
Si Si5 0.000000 0.000000 0.607372
Si Si6 0.604774 0.883255 0.856848
Si Si7 0.250000 0.250000 0.768125
O O1 0.750000 0.750000 0.479219
O O2 0.597466 0.027521 0.507262
O O3 0.563424 0.671936 0.454220
O O4 0.656856 0.986495 0.406115
O O5 0.007508 0.749015 0.074973
O O6 0.250000 0.250000 0.152411
O O7 0.250000 0.750000 0.142789
O O8 0.205558 0.945797 0.227970
O O9 0.093778 0.010864 0.143421
O O10 0.576843 0.625834 0.880494
O O11 0.670181 0.864977 0.805911
O O12 0.500000 0.000000 0.847377
#
# Coordination Sequence:
#
# PCOD9353859 Si02
#       7
#     8   4   8   4   4   8   4
#     4  11  23  41  65  98 146 183 230 284 340 426
#     4  12  26  46  74 108 134 196 238 286 368 418
#     4  10  25  48  74 104 138 172 243 298 355 426
#     4  10  19  39  62  94 148 180 227 273 330 418
#     4  12  27  49  78  96 144 182 243 309 354 404
#     4  10  21  39  65 100 142 183 227 280 343 428
#     4  10  24  40  68 106 132 184 232 282 368 420
#
# _framework density 20.418050000000001
#
# number of rings (size 3 to 8) (size 9 to 14) (size 15 to 20)
#    0.600    0.800    3.000    3.000    0.000    8.800 
#    0.000    2.000    0.000    0.000    0.000    0.000 
#    0.000    0.000    0.000    0.000    0.000    0.000 
#
# Total GULP energy -111573.306864 kJ/mol
# GULP energy per Si atom -5578.665343 kJ/mol
# Density = 2.037158 g / cm^3
# Si number density = 20.418050 Si / 1000 Ang^3
#
#
#
# Elastic Constant Matrix: (Units=GPa)
#
#
# Indices 1 2 3 4 5 6 
#
# 1 148.5304 44.2358 82.1019 0.0000 0.0000 0.0000
# 2 44.2358 110.4376 45.4983 0.0000 0.0000 0.0000
# 3 82.1019 45.4983 85.7813 0.0000 0.0000 0.0000
# 4 0.0000 0.0000 0.0000 13.4479 0.0000 0.0000
# 5 0.0000 0.0000 0.0000 0.0000 137.8144 0.0000
# 6 0.0000 0.0000 0.0000 0.0000 0.0000 28.6345
#
#
#
# Elastic Compliance Matrix: (Units=1/GPa)
#
#
# Indices 1 2 3 4 5 6 
#
# 1 0.014297 -0.000114 -0.013623 0.000000 0.000000 0.000000
# 2 -0.000114 0.011588 -0.006037 0.000000 0.000000 0.000000
# 3 -0.013623 -0.006037 0.027898 0.000000 0.000000 0.000000
# 4 0.000000 0.000000 0.000000 0.074361 0.000000 0.000000
# 5 0.000000 0.000000 0.000000 0.000000 0.007256 0.000000
# 6 0.000000 0.000000 0.000000 0.000000 0.000000 0.034923
#
#
# Mechanical properties :
#
#
# Convention : Reuss Voigt Hill
#
# Bulk Modulus (GPa) = 70.25116 76.49124 73.37120
# Shear Modulus (GPa) = 23.29739 47.50692 35.40215
#
# Velocity S-wave (km/s) = 3.38156 4.82883 4.16849
# Velocity P-wave (km/s) = 7.05179 8.28457 7.69291
#
# Compressibility (1/GPa) = 0.01423464
#
# Stress axis : x y z
#
# Youngs Moduli (GPa) = 69.94457 86.29861 35.84435
#
# Poissons Ratio (x) = 0.00985 0.48832
# Poissons Ratio (y) = 0.00798 0.21639
# Poissons Ratio (z) = 0.95287 0.52097
#
# Static dielectric constant tensor:
#      x y z
#    x 1.647130 0.000000 0.000000 
#    y 0.000000 1.799530 0.000000 
#    z 0.000000 0.000000 1.726730 
# 
# From -- ./inp_files/18828.got.cif
#   From: 2010.05.17/outbox.cif.g08.bks.cpg/sg37_10_cif.got.tgz:18828.got - 2010.06.03 17:53:42.
