data_PCOD9353416
_publ_section_title
;
Structure prediction by ZEFSAII (Michael W. Deem and Ramdas Pophale) SiO2 
 PCOD9353416
Probable space group: C C C 2
;
_chemical_formula_sum "Si O2"
_cell_formula_units_Z 56
_cell_length_a 16.094715
_cell_length_b 12.194111
_cell_length_c 13.296940
_cell_angle_alpha 90.000000
_cell_angle_beta 90.000000
_cell_angle_gamma 90.000000
_cell_volume 2609.667300
_symmetry_space_group_name_H-M "C C C 2"
_symmetry_group_IT_number 37
_symmetry_cell_setting 'orthorhombic'
loop_
_space_group_symop_operation_xyz
x,y,z
-x,-y,z
-x,y,1/2+z
x,-y,1/2+z
1/2+x,1/2+y,z
1/2-x,1/2-y,z
1/2-x,1/2+y,1/2+z
1/2+x,1/2-y,1/2+z
loop_
_atom_site_type_symbol
_atom_site_label
_atom_site_fract_x
_atom_site_fract_y
_atom_site_fract_z
Si Si1 0.678509 0.037407 0.893640
Si Si2 0.367992 0.761067 0.633257
Si Si3 0.950623 0.338186 0.173486
Si Si4 0.323295 0.341702 0.724709
Si Si5 0.500000 0.000000 0.351414
Si Si6 0.196227 0.497212 0.655167
Si Si7 0.250000 0.750000 0.813180
Si Si8 0.697832 0.361915 0.449847
O O1 0.714022 0.157673 0.885352
O O2 0.581573 0.025554 0.914740
O O3 0.685064 0.997502 0.777715
O O4 0.738818 0.963340 0.959478
O O5 0.461303 0.806309 0.626681
O O6 0.327661 0.717690 0.738747
O O7 0.143455 0.828707 0.545906
O O8 0.315808 0.875628 0.626269
O O9 0.902336 0.224741 0.187583
O O10 0.882697 0.421198 0.124031
O O11 0.978851 0.398006 0.277642
O O12 0.250000 0.250000 0.727972
O O13 0.284989 0.435543 0.652876
O O14 0.342242 0.379193 0.839543
O O15 0.750000 0.250000 0.437815
#
# Coordination Sequence:
#
# PCOD9353416 Si02
#       8
#     8   8   8   8   4   8   4   8
#     4   9  18  31  57  84 114 153 201 243 294 364
#     4  11  18  29  57  87 116 148 196 261 300 347
#     4  10  15  28  54  86 117 146 207 254 288 351
#     4   8  16  29  52  82 116 158 191 230 302 376
#     4  10  14  28  54  86 112 138 208 268 280 340
#     4   8  15  30  51  81 117 148 197 242 295 359
#     4  10  18  34  54  88 114 164 192 240 298 376
#     4  10  19  33  53  89 120 151 189 252 308 359
#
# _framework density 21.458673999999998
#
# number of rings (size 3 to 8) (size 9 to 14) (size 15 to 20)
#    0.000    2.571    5.000    2.571    0.000    0.000 
#    0.000    0.000   12.571   10.286   11.143    0.000 
#    0.000    0.000    0.000    0.000    0.000    0.000 
#
# Total GULP energy -155914.308521 kJ/mol
# GULP energy per Si atom -5568.368161 kJ/mol
# Density = 2.140983 g / cm^3
# Si number density = 21.458674 Si / 1000 Ang^3
#
#
#
# Elastic Constant Matrix: (Units=GPa)
#
#
# Indices 1 2 3 4 5 6 
#
# 1 102.0308 84.1553 22.1004 0.0000 0.0000 0.0000
# 2 84.1553 116.8224 40.8817 0.0000 0.0000 0.0000
# 3 22.1004 40.8817 71.1479 0.0000 0.0000 0.0000
# 4 0.0000 0.0000 0.0000 17.4526 0.0000 0.0000
# 5 0.0000 0.0000 0.0000 0.0000 -25.0230 0.0000
# 6 0.0000 0.0000 0.0000 0.0000 0.0000 40.8956
#
#
#
# Elastic Compliance Matrix: (Units=1/GPa)
#
#
# Indices 1 2 3 4 5 6 
#
# 1 0.024717 -0.018924 0.003196 0.000000 0.000000 0.000000
# 2 -0.018924 0.025203 -0.008603 0.000000 0.000000 0.000000
# 3 0.003196 -0.008603 0.018006 0.000000 0.000000 0.000000
# 4 0.000000 0.000000 0.000000 0.057298 0.000000 0.000000
# 5 0.000000 0.000000 0.000000 0.000000 -0.039963 0.000000
# 6 0.000000 0.000000 0.000000 0.000000 0.000000 0.024452
#
#
# Mechanical properties :
#
#
# Convention : Reuss Voigt Hill
#
# Bulk Modulus (GPa) = 51.91197 64.91953 58.41575
# Shear Modulus (GPa) = 30.34023 16.18929 23.26476
#
# Velocity S-wave (km/s) = 3.76425 2.74969 3.29624
# Velocity P-wave (km/s) = 6.56787 6.35610 6.46285
#
# Compressibility (1/GPa) = 0.01926338
#
# Stress axis : x y z
#
# Youngs Moduli (GPa) = 40.45756 39.67780 55.53691
#
# Poissons Ratio (x) = 0.75086 -0.17749
# Poissons Ratio (y) = 0.76562 0.47781
# Poissons Ratio (z) = -0.12930 0.34136
#
# Static dielectric constant tensor:
#      x y z
#    x 1.830660 0.000000 0.000000 
#    y 0.000000 1.798490 0.000000 
#    z 0.000000 0.000000 1.939510 
# 
# From -- ./inp_files/12235.got.cif
#   From: 2010.05.17/outbox.cif.g08.bks.cpg/sg37_7_cif.got.tgz:12235.got - 2010.06.03 17:53:42.
