data_PCOD9353558
_publ_section_title
;
Structure prediction by ZEFSAII (Michael W. Deem and Ramdas Pophale) SiO2 
 PCOD9353558
Probable space group: C C C 2
;
_chemical_formula_sum "Si O2"
_cell_formula_units_Z 44
_cell_length_a 18.905581
_cell_length_b 5.128964
_cell_length_c 23.743090
_cell_angle_alpha 90.000000
_cell_angle_beta 90.000000
_cell_angle_gamma 90.000000
_cell_volume 2302.273518
_symmetry_space_group_name_H-M "C C C 2"
_symmetry_group_IT_number 37
_symmetry_cell_setting 'orthorhombic'
loop_
_space_group_symop_operation_xyz
x,y,z
-x,-y,z
-x,y,1/2+z
x,-y,1/2+z
1/2+x,1/2+y,z
1/2-x,1/2-y,z
1/2-x,1/2+y,1/2+z
1/2+x,1/2-y,1/2+z
loop_
_atom_site_type_symbol
_atom_site_label
_atom_site_fract_x
_atom_site_fract_y
_atom_site_fract_z
Si Si1 0.670406 0.863878 0.843630
Si Si2 0.375675 0.543633 0.442735
Si Si3 0.299619 0.002135 0.101129
Si Si4 0.250000 0.750000 0.919266
Si Si5 0.700577 0.003942 0.727940
Si Si6 0.078895 0.550124 0.010473
O O1 0.750000 0.750000 0.837915
O O2 0.624794 0.652313 0.877997
O O3 0.688620 0.113915 0.882392
O O4 0.649160 0.947162 0.780790
O O5 0.293440 0.463347 0.453391
O O6 0.398549 0.795655 0.476311
O O7 0.418371 0.298985 0.468214
O O8 0.250000 0.750000 0.101502
O O9 0.250000 0.250000 0.086063
O O10 0.327595 0.053649 0.165121
O O11 0.363767 0.935949 0.059800
O O12 0.750000 0.250000 0.743817
O O13 0.750000 0.750000 0.722326
O O14 0.000000 0.500000 0.031890
#
# Coordination Sequence:
#
# PCOD9353558 Si02
#       6
#     8   8   8   4   8   8
#     4   9  17  30  54  87 122 149 183 240 304 357
#     4  11  23  35  58  84 117 156 198 240 297 357
#     4  10  22  37  61  89 116 152 200 252 292 350
#     4  10  18  32  54  92 118 148 184 246 296 352
#     4   9  17  31  52  85 122 149 183 240 305 352
#     4  12  26  41  57  83 122 165 200 250 300 357
#
# _framework density 19.111543999999999
#
# number of rings (size 3 to 8) (size 9 to 14) (size 15 to 20)
#    0.000    1.818    2.727    1.636    3.818    0.000 
#    0.000    0.000    0.000    1.091    0.000    0.000 
#    0.000    0.000    0.000    0.000    0.000    0.000 
#
# Total GULP energy -122501.213741 kJ/mol
# GULP energy per Si atom -5568.236988 kJ/mol
# Density = 1.906805 g / cm^3
# Si number density = 19.111544 Si / 1000 Ang^3
#
#
#
# Elastic Constant Matrix: (Units=GPa)
#
#
# Indices 1 2 3 4 5 6 
#
# 1 63.5561 21.8224 58.0039 0.0000 0.0000 0.0000
# 2 21.8224 135.8522 35.4393 0.0000 0.0000 0.0000
# 3 58.0039 35.4393 106.8559 0.0000 0.0000 0.0000
# 4 0.0000 0.0000 0.0000 20.0826 0.0000 0.0000
# 5 0.0000 0.0000 0.0000 0.0000 -1.3739 0.0000
# 6 0.0000 0.0000 0.0000 0.0000 0.0000 17.9456
#
#
#
# Elastic Compliance Matrix: (Units=1/GPa)
#
#
# Indices 1 2 3 4 5 6 
#
# 1 0.031234 -0.000651 -0.016739 0.000000 0.000000 0.000000
# 2 -0.000651 0.008072 -0.002324 0.000000 0.000000 0.000000
# 3 -0.016739 -0.002324 0.019215 0.000000 0.000000 0.000000
# 4 0.000000 0.000000 0.000000 0.049794 0.000000 0.000000
# 5 0.000000 0.000000 0.000000 0.000000 -0.727864 0.000000
# 6 0.000000 0.000000 0.000000 0.000000 0.000000 0.055724
#
#
# Mechanical properties :
#
#
# Convention : Reuss Voigt Hill
#
# Bulk Modulus (GPa) = 52.37107 59.64394 56.00751
# Shear Modulus (GPa) = -9.65188 20.06412 5.20612
#
# Velocity S-wave (km/s) = -2.24972 3.24364 1.65227
# Velocity P-wave (km/s) = 4.55126 6.73085 5.74536
#
# Compressibility (1/GPa) = 0.01909451
#
# Stress axis : x y z
#
# Youngs Moduli (GPa) = 32.01641 123.89024 52.04192
#
# Poissons Ratio (x) = 0.08061 0.87112
# Poissons Ratio (y) = 0.02083 0.12094
# Poissons Ratio (z) = 0.53591 0.28790
#
# Static dielectric constant tensor:
#      x y z
#    x 1.644580 0.000000 0.000000 
#    y 0.000000 1.755830 0.000000 
#    z 0.000000 0.000000 1.786080 
# 
# From -- ./inp_files/18946.got.cif
#   From: 2010.05.17/outbox.cif.g08.bks.cpg/sg37_10_cif.got.tgz:18946.got - 2010.06.03 17:53:42.
