data_PCOD9353816
_publ_section_title
;
Structure prediction by ZEFSAII (Michael W. Deem and Ramdas Pophale) SiO2 
 PCOD9353816
Probable space group: C C C 2
;
_chemical_formula_sum "Si O2"
_cell_formula_units_Z 36
_cell_length_a 10.023305
_cell_length_b 17.266206
_cell_length_c 9.474720
_cell_angle_alpha 90.000000
_cell_angle_beta 90.000000
_cell_angle_gamma 90.000000
_cell_volume 1639.737196
_symmetry_space_group_name_H-M "C C C 2"
_symmetry_group_IT_number 37
_symmetry_cell_setting 'orthorhombic'
loop_
_space_group_symop_operation_xyz
x,y,z
-x,-y,z
-x,y,1/2+z
x,-y,1/2+z
1/2+x,1/2+y,z
1/2-x,1/2-y,z
1/2-x,1/2+y,1/2+z
1/2+x,1/2-y,1/2+z
loop_
_atom_site_type_symbol
_atom_site_label
_atom_site_fract_x
_atom_site_fract_y
_atom_site_fract_z
Si Si1 0.881168 0.285705 0.937780
Si Si2 0.325501 0.438070 0.116576
Si Si3 0.907204 0.681817 0.141536
Si Si4 0.893291 0.439402 0.062672
Si Si5 0.500000 0.500000 0.363316
O O1 0.750000 0.250000 0.006832
O O2 0.893241 0.264605 0.776035
O O3 0.852871 0.378152 0.943896
O O4 0.020679 0.273122 0.015232
O O5 0.227615 0.364162 0.108048
O O6 0.227841 0.513298 0.125081
O O7 0.417581 0.444925 0.255374
O O8 0.408261 0.450910 0.972058
O O9 0.022073 0.615496 0.168554
O O10 0.000000 0.500000 0.003646
#
# Coordination Sequence:
#
# PCOD9353816 Si02
#       5
#     8   8   8   8   4
#     4  10  21  40  61  96 129 164 222 268 329 393
#     4  10  19  37  55  93 133 163 219 265 345 368
#     4   9  21  37  65  87 119 171 215 274 315 404
#     4   8  18  34  66  93 120 164 221 271 319 390
#     4  10  22  30  54  92 140 168 196 278 328 390
#
# _framework density 21.954739
#
# number of rings (size 3 to 8) (size 9 to 14) (size 15 to 20)
#    1.333    1.333    0.000    1.333    3.111    2.667 
#    0.000   10.000    0.000    0.000    0.000    0.000 
#    0.000    0.000    0.000    0.000    0.000    0.000 
#
# Total GULP energy -100239.301445 kJ/mol
# GULP energy per Si atom -5568.850080 kJ/mol
# Density = 2.190477 g / cm^3
# Si number density = 21.954739 Si / 1000 Ang^3
#
#
#
# Elastic Constant Matrix: (Units=GPa)
#
#
# Indices 1 2 3 4 5 6 
#
# 1 138.4613 22.0006 72.5598 0.0000 0.0000 0.0000
# 2 22.0006 25.6647 10.7912 0.0000 0.0000 0.0000
# 3 72.5598 10.7912 117.8266 0.0000 0.0000 0.0000
# 4 0.0000 0.0000 0.0000 1.3109 0.0000 0.0000
# 5 0.0000 0.0000 0.0000 0.0000 35.1974 0.0000
# 6 0.0000 0.0000 0.0000 0.0000 0.0000 35.1179
#
#
#
# Elastic Compliance Matrix: (Units=1/GPa)
#
#
# Indices 1 2 3 4 5 6 
#
# 1 0.011873 -0.007388 -0.006635 0.000000 0.000000 0.000000
# 2 -0.007388 0.045122 0.000417 0.000000 0.000000 0.000000
# 3 -0.006635 0.000417 0.012535 0.000000 0.000000 0.000000
# 4 0.000000 0.000000 0.000000 0.762817 0.000000 0.000000
# 5 0.000000 0.000000 0.000000 0.000000 0.028411 0.000000
# 6 0.000000 0.000000 0.000000 0.000000 0.000000 0.028475
#
#
# Mechanical properties :
#
#
# Convention : Reuss Voigt Hill
#
# Bulk Modulus (GPa) = 23.63059 54.73952 39.18506
# Shear Modulus (GPa) = 5.37316 26.09865 15.73590
#
# Velocity S-wave (km/s) = 1.56611 3.45156 2.68011
# Velocity P-wave (km/s) = 3.74926 6.39307 5.24063
#
# Compressibility (1/GPa) = 0.04231802
#
# Stress axis : x y z
#
# Youngs Moduli (GPa) = 84.22258 22.16211 79.77741
#
# Poissons Ratio (x) = 0.16374 0.52933
# Poissons Ratio (y) = 0.62226 -0.03330
# Poissons Ratio (z) = 0.55883 -0.00925
#
# Static dielectric constant tensor:
#      x y z
#    x 1.859990 0.000000 0.000000 
#    y 0.000000 2.102790 0.000000 
#    z 0.000000 0.000000 1.837090 
# 
# From -- ./inp_files/2823.got.cif
#   From: 2010.05.17/outbox.cif.g08.bks.cpg/sg37_2_cif.got.tgz:2823.got - 2010.06.03 17:53:42.
