data_PCOD9353085
_publ_section_title
;
Structure prediction by ZEFSAII (Michael W. Deem and Ramdas Pophale) SiO2 
 PCOD9353085
Probable space group: C M C 21
;
_chemical_formula_sum "Si O2"
_cell_formula_units_Z 64
_cell_length_a 7.595152
_cell_length_b 21.616513
_cell_length_c 17.876361
_cell_angle_alpha 90.000000
_cell_angle_beta 90.000000
_cell_angle_gamma 90.000000
_cell_volume 2934.953497
_symmetry_space_group_name_H-M "C M C 21"
_symmetry_group_IT_number 36
_symmetry_cell_setting 'orthorhombic'
loop_
_space_group_symop_operation_xyz
x,y,z
-x,-y,1/2+z
x,-y,1/2+z
-x,y,z
1/2+x,1/2+y,z
1/2-x,1/2-y,1/2+z
1/2+x,1/2-y,1/2+z
1/2-x,1/2+y,z
loop_
_atom_site_type_symbol
_atom_site_label
_atom_site_fract_x
_atom_site_fract_y
_atom_site_fract_z
Si Si1 0.284836 0.393490 0.031450
Si Si2 0.286524 0.347237 0.570215
Si Si3 0.690437 0.656419 0.376184
Si Si4 0.198126 0.704983 0.228144
Si Si5 0.714733 0.529252 0.984545
Si Si6 0.205822 0.784002 0.424551
Si Si7 0.206121 0.086669 0.835761
Si Si8 0.217272 0.843159 0.192309
O O1 0.500000 0.388145 0.032731
O O2 0.226169 0.361202 0.108275
O O3 0.218562 0.365360 0.952555
O O4 0.237666 0.465507 0.024016
O O5 0.500000 0.347783 0.574620
O O6 0.211909 0.328873 0.649284
O O7 0.230158 0.412584 0.535136
O O8 0.235857 0.295935 0.509002
O O9 0.500000 0.625793 0.378515
O O10 0.747382 0.655179 0.290680
O O11 0.687249 0.730327 0.386690
O O12 0.278989 0.773971 0.216259
O O13 0.000000 0.720081 0.250175
O O14 0.500000 0.531774 0.980803
O O15 0.777116 0.538420 0.898109
O O16 0.216846 0.848414 0.380793
O O17 0.000000 0.766632 0.424276
O O18 0.275319 0.105522 0.753814
O O19 0.000000 0.070859 0.824870
O O20 0.000000 0.843003 0.193101
#
# Coordination Sequence:
#
# PCOD9353085 Si02
#       8
#     8   8   8   8   8   8   8   8
#     4   9  18  31  46  73 107 135 165 211 263 307
#     4   9  18  32  53  79 104 129 166 215 258 305
#     4  11  21  32  48  74 110 137 168 218 262 303
#     4  11  21  34  52  74 103 138 176 211 262 321
#     4   8  15  30  49  71 103 135 165 204 254 307
#     4   9  16  30  51  74 102 135 166 199 253 316
#     4   8  13  25  47  71  94 128 171 205 236 296
#     4   9  16  28  48  72  97 129 173 213 248 305
#
# _framework density 21.806137
#
# number of rings (size 3 to 8) (size 9 to 14) (size 15 to 20)
#    0.000    2.750    1.250    3.000    0.000    1.500 
#    2.250    0.000    0.000    1.500    0.000    3.500 
#    0.000    0.000    0.000    0.000    0.000    0.000 
#
# Total GULP energy -178226.083052 kJ/mol
# GULP energy per Si atom -5569.565095 kJ/mol
# Density = 2.175651 g / cm^3
# Si number density = 21.806137 Si / 1000 Ang^3
#
#
#
# Elastic Constant Matrix: (Units=GPa)
#
#
# Indices 1 2 3 4 5 6 
#
# 1 29.6174 -7.4152 -2.9227 0.0000 0.0000 0.0000
# 2 -7.4152 35.5794 18.7909 0.0000 0.0000 0.0000
# 3 -2.9227 18.7909 180.5560 0.0000 0.0000 0.0000
# 4 0.0000 0.0000 0.0000 30.4792 0.0000 0.0000
# 5 0.0000 0.0000 0.0000 0.0000 5.5748 0.0000
# 6 0.0000 0.0000 0.0000 0.0000 0.0000 -30.2130
#
#
#
# Elastic Compliance Matrix: (Units=1/GPa)
#
#
# Indices 1 2 3 4 5 6 
#
# 1 0.035630 0.007535 -0.000207 0.000000 0.000000 0.000000
# 2 0.007535 0.031334 -0.003139 0.000000 0.000000 0.000000
# 3 -0.000207 -0.003139 0.005862 0.000000 0.000000 0.000000
# 4 0.000000 0.000000 0.000000 0.032809 0.000000 0.000000
# 5 0.000000 0.000000 0.000000 0.000000 0.179377 0.000000
# 6 0.000000 0.000000 0.000000 0.000000 0.000000 -0.033098
#
#
# Mechanical properties :
#
#
# Convention : Reuss Voigt Hill
#
# Bulk Modulus (GPa) = 12.31468 29.18431 20.74950
# Shear Modulus (GPa) = 18.47711 16.98819 17.73265
#
# Velocity S-wave (km/s) = 2.91406 2.79418 2.85475
# Velocity P-wave (km/s) = 4.12092 4.88083 4.51688
#
# Compressibility (1/GPa) = 0.08120386
#
# Stress axis : x y z
#
# Youngs Moduli (GPa) = 28.06619 31.91373 170.59658
#
# Poissons Ratio (x) = -0.24048 0.03539
# Poissons Ratio (y) = -0.21149 0.53552
# Poissons Ratio (z) = 0.00582 0.10018
#
# Static dielectric constant tensor:
#      x y z
#    x 1.907820 0.000000 0.000000 
#    y 0.000000 1.778890 0.000000 
#    z 0.000000 0.000000 1.837800 
# 
# From -- ./inp_files/13945.got.cif
#   From: 2010.05.17/outbox.cif.g08.bks.cpg/sg36_7_cif.got.tgz:13945.got - 2010.06.03 17:41:39.
