data_PCOD9353109
_publ_section_title
;
Structure prediction by ZEFSAII (Michael W. Deem and Ramdas Pophale) SiO2 
 PCOD9353109
Probable space group: C M C 21
;
_chemical_formula_sum "Si O2"
_cell_formula_units_Z 40
_cell_length_a 16.278758
_cell_length_b 10.302968
_cell_length_c 10.942651
_cell_angle_alpha 90.000000
_cell_angle_beta 90.000000
_cell_angle_gamma 90.000000
_cell_volume 1835.296203
_symmetry_space_group_name_H-M "C M C 21"
_symmetry_group_IT_number 36
_symmetry_cell_setting 'orthorhombic'
loop_
_space_group_symop_operation_xyz
x,y,z
-x,-y,1/2+z
x,-y,1/2+z
-x,y,z
1/2+x,1/2+y,z
1/2-x,1/2-y,1/2+z
1/2+x,1/2-y,1/2+z
1/2-x,1/2+y,z
loop_
_atom_site_type_symbol
_atom_site_label
_atom_site_fract_x
_atom_site_fract_y
_atom_site_fract_z
Si Si1 0.233357 0.282849 0.560180
Si Si2 0.907250 0.308838 0.368619
Si Si3 0.288189 0.034349 0.714392
Si Si4 0.617845 0.539628 0.267220
Si Si5 0.588674 0.612993 0.007632
O O1 0.160859 0.258972 0.464703
O O2 0.250162 0.164971 0.653705
O O3 0.201517 0.418507 0.618585
O O4 0.325437 0.308564 0.507973
O O5 0.910144 0.187405 0.277343
O O6 0.866276 0.427328 0.294664
O O7 0.000000 0.334147 0.413668
O O8 0.082741 0.956921 0.377128
O O9 0.214534 0.974618 0.792724
O O10 0.598699 0.513788 0.123894
O O11 0.500000 0.681773 0.023675
#
# Coordination Sequence:
#
# PCOD9353109 Si02
#       5
#     8   8   8   8   8
#     4  11  25  42  70  99 144 184 231 294 351 418
#     4  12  24  43  71 102 140 186 233 289 360 422
#     4  11  23  43  70 100 138 183 233 287 349 418
#     4  11  23  42  69 102 138 183 234 286 348 415
#     4  11  21  38  66 103 138 178 235 288 344 413
#
# _framework density 21.794847000000001
#
# number of rings (size 3 to 8) (size 9 to 14) (size 15 to 20)
#    0.000    0.800    6.000    4.200    0.000    0.800 
#    0.000    2.000    0.000    0.000    0.000    0.000 
#    0.000    0.000    0.000    0.000    0.000    0.000 
#
# Total GULP energy -111398.115046 kJ/mol
# GULP energy per Si atom -5569.905752 kJ/mol
# Density = 2.174524 g / cm^3
# Si number density = 21.794847 Si / 1000 Ang^3
#
#
#
# Elastic Constant Matrix: (Units=GPa)
#
#
# Indices 1 2 3 4 5 6 
#
# 1 191.9248 16.2258 38.6553 0.0000 0.0000 0.0000
# 2 16.2258 49.6801 -3.4897 0.0000 0.0000 0.0000
# 3 38.6553 -3.4897 66.2427 0.0000 0.0000 0.0000
# 4 0.0000 0.0000 0.0000 27.5009 0.0000 0.0000
# 5 0.0000 0.0000 0.0000 0.0000 48.0215 0.0000
# 6 0.0000 0.0000 0.0000 0.0000 0.0000 352.8694
#
#
#
# Elastic Compliance Matrix: (Units=1/GPa)
#
#
# Indices 1 2 3 4 5 6 
#
# 1 0.006149 -0.002269 -0.003708 0.000000 0.000000 0.000000
# 2 -0.002269 0.021041 0.002432 0.000000 0.000000 0.000000
# 3 -0.003708 0.002432 0.017388 0.000000 0.000000 0.000000
# 4 0.000000 0.000000 0.000000 0.036362 0.000000 0.000000
# 5 0.000000 0.000000 0.000000 0.000000 0.020824 0.000000
# 6 0.000000 0.000000 0.000000 0.000000 0.000000 0.002834
#
#
# Mechanical properties :
#
#
# Convention : Reuss Voigt Hill
#
# Bulk Modulus (GPa) = 26.67440 45.62561 36.15001
# Shear Modulus (GPa) = 40.26343 102.77544 71.51943
#
# Velocity S-wave (km/s) = 4.30278 6.87446 5.73464
# Velocity P-wave (km/s) = 6.07871 9.16463 7.77628
#
# Compressibility (1/GPa) = 0.03748912
#
# Stress axis : x y z
#
# Youngs Moduli (GPa) = 162.62979 47.52710 57.51190
#
# Poissons Ratio (x) = 0.10783 0.21324
# Poissons Ratio (y) = 0.36896 -0.13989
# Poissons Ratio (z) = 0.60298 -0.11560
#
# Static dielectric constant tensor:
#      x y z
#    x 1.849060 0.000000 0.000000 
#    y 0.000000 1.842600 0.000000 
#    z 0.000000 0.000000 1.914890 
# 
# From -- ./inp_files/8260.got.cif
#   From: 2010.05.17/outbox.cif.g08.bks.cpg/sg36_5_cif.got.tgz:8260.got - 2010.06.03 17:41:39.
