data_PCOD9353501
_publ_section_title
;
Structure prediction by ZEFSAII (Michael W. Deem and Ramdas Pophale) SiO2 
 PCOD9353501
Probable space group: C C C 2
;
_chemical_formula_sum "Si O2"
_cell_formula_units_Z 48
_cell_length_a 14.563598
_cell_length_b 7.829844
_cell_length_c 18.555010
_cell_angle_alpha 90.000000
_cell_angle_beta 90.000000
_cell_angle_gamma 90.000000
_cell_volume 2115.840787
_symmetry_space_group_name_H-M "C C C 2"
_symmetry_group_IT_number 37
_symmetry_cell_setting 'orthorhombic'
loop_
_space_group_symop_operation_xyz
x,y,z
-x,-y,z
-x,y,1/2+z
x,-y,1/2+z
1/2+x,1/2+y,z
1/2-x,1/2-y,z
1/2-x,1/2+y,1/2+z
1/2+x,1/2-y,1/2+z
loop_
_atom_site_type_symbol
_atom_site_label
_atom_site_fract_x
_atom_site_fract_y
_atom_site_fract_z
Si Si1 0.828106 0.634936 0.116180
Si Si2 0.513581 0.213412 0.153187
Si Si3 0.286579 0.011754 0.276828
Si Si4 0.103800 0.836173 0.297213
Si Si5 0.145266 0.312099 0.526390
Si Si6 0.059751 0.676033 0.870534
O O1 0.750000 0.750000 0.085401
O O2 0.794787 0.540231 0.190072
O O3 0.856933 0.507642 0.053379
O O4 0.909802 0.759097 0.138598
O O5 0.554647 0.308374 0.220769
O O6 0.577726 0.262363 0.086713
O O7 0.500000 0.000000 0.164220
O O8 0.179641 0.986275 0.298831
O O9 0.334960 0.835805 0.300095
O O10 0.354934 0.147342 0.314928
O O11 0.017775 0.815543 0.350739
O O12 0.250000 0.250000 0.531510
O O13 0.104950 0.291456 0.447564
O O14 0.000000 0.500000 0.871459
#
# Coordination Sequence:
#
# PCOD9353501 Si02
#       6
#     8   8   8   8   8   8
#     4  11  22  38  63  95 129 164 211 275 327 380
#     4  10  17  35  63  88 116 160 213 253 303 380
#     4  10  19  34  62  93 124 159 216 270 321 390
#     4  10  17  34  64  94 117 159 223 264 306 391
#     4  11  23  41  65  88 125 171 216 259 322 397
#     4  10  20  38  60  93 121 170 215 267 327 390
#
# _framework density 22.686018000000001
#
# number of rings (size 3 to 8) (size 9 to 14) (size 15 to 20)
#    0.000    1.667    5.000    3.000    0.000    0.667 
#    9.000    3.333    0.000    0.000    0.000    0.000 
#    0.000    0.000    0.000    0.000    0.000    0.000 
#
# Total GULP energy -133875.362977 kJ/mol
# GULP energy per Si atom -5578.140124 kJ/mol
# Density = 2.263438 g / cm^3
# Si number density = 22.686018 Si / 1000 Ang^3
#
#
#
# Elastic Constant Matrix: (Units=GPa)
#
#
# Indices 1 2 3 4 5 6 
#
# 1 188.7791 33.4713 45.6373 0.0000 0.0000 0.0000
# 2 33.4713 66.4936 9.1094 0.0000 0.0000 0.0000
# 3 45.6373 9.1094 111.1183 0.0000 0.0000 0.0000
# 4 0.0000 0.0000 0.0000 191.1401 0.0000 0.0000
# 5 0.0000 0.0000 0.0000 0.0000 21.1356 0.0000
# 6 0.0000 0.0000 0.0000 0.0000 0.0000 15.1454
#
#
#
# Elastic Compliance Matrix: (Units=1/GPa)
#
#
# Indices 1 2 3 4 5 6 
#
# 1 0.006386 -0.002888 -0.002386 0.000000 0.000000 0.000000
# 2 -0.002888 0.016516 -0.000168 0.000000 0.000000 0.000000
# 3 -0.002386 -0.000168 0.009993 0.000000 0.000000 0.000000
# 4 0.000000 0.000000 0.000000 0.005232 0.000000 0.000000
# 5 0.000000 0.000000 0.000000 0.000000 0.047313 0.000000
# 6 0.000000 0.000000 0.000000 0.000000 0.000000 0.066027
#
#
# Mechanical properties :
#
#
# Convention : Reuss Voigt Hill
#
# Bulk Modulus (GPa) = 45.43095 60.31413 52.87254
# Shear Modulus (GPa) = 29.46596 64.02910 46.74753
#
# Velocity S-wave (km/s) = 3.60788 5.31839 4.54434
# Velocity P-wave (km/s) = 6.11761 8.02234 7.13383
#
# Compressibility (1/GPa) = 0.02201143
#
# Stress axis : x y z
#
# Youngs Moduli (GPa) = 156.59191 60.54868 100.06841
#
# Poissons Ratio (x) = 0.17485 0.23877
# Poissons Ratio (y) = 0.45219 0.01681
# Poissons Ratio (z) = 0.37364 0.01017
#
# Static dielectric constant tensor:
#      x y z
#    x 1.893790 0.000000 0.000000 
#    y 0.000000 1.764430 0.000000 
#    z 0.000000 0.000000 1.796930 
# 
# From -- ./inp_files/14976.got.cif
#   From: 2010.05.17/outbox.cif.g08.bks.cpg/sg37_8_cif.got.tgz:14976.got - 2010.06.03 17:53:42.
