data_PCOD9353062
_publ_section_title
;
Structure prediction by ZEFSAII (Michael W. Deem and Ramdas Pophale) SiO2 
 PCOD9353062
Probable space group: C M C 21
;
_chemical_formula_sum "Si O2"
_cell_formula_units_Z 32
_cell_length_a 13.359999
_cell_length_b 11.286128
_cell_length_c 8.680150
_cell_angle_alpha 90.000000
_cell_angle_beta 90.000000
_cell_angle_gamma 90.000000
_cell_volume 1308.816096
_symmetry_space_group_name_H-M "C M C 21"
_symmetry_group_IT_number 36
_symmetry_cell_setting 'orthorhombic'
loop_
_space_group_symop_operation_xyz
x,y,z
-x,-y,1/2+z
x,-y,1/2+z
-x,y,z
1/2+x,1/2+y,z
1/2-x,1/2-y,1/2+z
1/2+x,1/2-y,1/2+z
1/2-x,1/2+y,z
loop_
_atom_site_type_symbol
_atom_site_label
_atom_site_fract_x
_atom_site_fract_y
_atom_site_fract_z
Si Si1 0.000000 0.391135 0.507270
Si Si2 0.672566 0.661939 0.209774
Si Si3 0.890570 0.736512 0.249206
Si Si4 0.500000 0.847860 0.151435
Si Si5 0.609646 0.530816 0.930943
O O1 0.091182 0.314772 0.578698
O O2 0.000000 0.388811 0.327781
O O3 0.000000 0.526305 0.564628
O O4 0.779760 0.693074 0.282142
O O5 0.601353 0.766792 0.142110
O O6 0.619963 0.593865 0.349424
O O7 0.684313 0.572750 0.063947
O O8 0.886649 0.873942 0.291723
O O9 0.000000 0.698607 0.322734
O O10 0.500000 0.538809 0.005255
#
# Coordination Sequence:
#
# PCOD9353062 Si02
#       5
#     4   8   8   4   8
#     4  10  28  47  69 108 146 189 236 300 356 445
#     4  12  27  45  78 108 145 195 245 301 370 430
#     4   9  26  46  71 102 150 192 242 297 361 429
#     4  12  28  47  77 106 144 193 244 294 376 431
#     4  11  24  47  72 109 146 188 247 305 357 435
#
# _framework density 24.449577999999999
#
# number of rings (size 3 to 8) (size 9 to 14) (size 15 to 20)
#    0.750    0.500    2.500    0.000   14.000    0.000 
#    0.000    0.000    0.000    0.000    0.000    0.000 
#    0.000    0.000    0.000    0.000    0.000    0.000 
#
# Total GULP energy -89201.475205 kJ/mol
# GULP energy per Si atom -5575.092200 kJ/mol
# Density = 2.439393 g / cm^3
# Si number density = 24.449578 Si / 1000 Ang^3
#
#
#
# Elastic Constant Matrix: (Units=GPa)
#
#
# Indices 1 2 3 4 5 6 
#
# 1 148.6723 31.9831 10.9250 0.0000 0.0000 0.0000
# 2 31.9831 92.8373 51.3453 0.0000 0.0000 0.0000
# 3 10.9250 51.3453 53.0343 0.0000 0.0000 0.0000
# 4 0.0000 0.0000 0.0000 57.2203 0.0000 0.0000
# 5 0.0000 0.0000 0.0000 0.0000 2.2977 0.0000
# 6 0.0000 0.0000 0.0000 0.0000 0.0000 4.5464
#
#
#
# Elastic Compliance Matrix: (Units=1/GPa)
#
#
# Indices 1 2 3 4 5 6 
#
# 1 0.007364 -0.003655 0.002022 0.000000 0.000000 0.000000
# 2 -0.003655 0.025001 -0.023452 0.000000 0.000000 0.000000
# 3 0.002022 -0.023452 0.041145 0.000000 0.000000 0.000000
# 4 0.000000 0.000000 0.000000 0.017476 0.000000 0.000000
# 5 0.000000 0.000000 0.000000 0.000000 0.435221 0.000000
# 6 0.000000 0.000000 0.000000 0.000000 0.000000 0.219953
#
#
# Mechanical properties :
#
#
# Convention : Reuss Voigt Hill
#
# Bulk Modulus (GPa) = 42.84723 53.67230 48.25976
# Shear Modulus (GPa) = 6.21804 26.16557 16.19181
#
# Velocity S-wave (km/s) = 1.59647 3.27492 2.57622
# Velocity P-wave (km/s) = 4.57833 6.02495 5.35075
#
# Compressibility (1/GPa) = 0.02333873
#
# Stress axis : x y z
#
# Youngs Moduli (GPa) = 135.79688 39.99774 24.30454
#
# Poissons Ratio (x) = 0.14619 -0.04914
# Poissons Ratio (y) = 0.49635 0.57000
# Poissons Ratio (z) = -0.27454 0.93804
#
# Static dielectric constant tensor:
#      x y z
#    x 2.066120 0.000000 0.000000 
#    y 0.000000 1.940210 0.000000 
#    z 0.000000 0.000000 1.969590 
# 
# From -- ./inp_files/3697.got.cif
#   From: 2010.05.17/outbox.cif.g08.bks.cpg/sg36_2_cif.got.tgz:3697.got - 2010.06.03 17:41:39.
