data_PCOD9353884
_publ_section_title
;
Structure prediction by ZEFSAII (Michael W. Deem and Ramdas Pophale) SiO2 
 PCOD9353884
Probable space group: C C C 2
;
_chemical_formula_sum "Si O2"
_cell_formula_units_Z 40
_cell_length_a 12.957090
_cell_length_b 13.927113
_cell_length_c 9.657883
_cell_angle_alpha 90.000000
_cell_angle_beta 90.000000
_cell_angle_gamma 90.000000
_cell_volume 1742.811892
_symmetry_space_group_name_H-M "C C C 2"
_symmetry_group_IT_number 37
_symmetry_cell_setting 'orthorhombic'
loop_
_space_group_symop_operation_xyz
x,y,z
-x,-y,z
-x,y,1/2+z
x,-y,1/2+z
1/2+x,1/2+y,z
1/2-x,1/2-y,z
1/2-x,1/2+y,1/2+z
1/2+x,1/2-y,1/2+z
loop_
_atom_site_type_symbol
_atom_site_label
_atom_site_fract_x
_atom_site_fract_y
_atom_site_fract_z
Si Si1 0.981160 0.897173 0.974880
Si Si2 0.420608 0.912476 0.864121
Si Si3 0.488627 0.791780 0.622002
Si Si4 0.167224 0.818512 0.271709
Si Si5 0.285339 0.358751 0.462596
O O1 0.894141 0.897350 0.857947
O O2 0.095744 0.870912 0.919132
O O3 0.945485 0.809877 0.071048
O O4 0.000000 0.000000 0.043245
O O5 0.419108 0.857314 0.718078
O O6 0.301596 0.930179 0.905519
O O7 0.500000 0.000000 0.849639
O O8 0.467307 0.847888 0.989149
O O9 0.582837 0.758224 0.718632
O O10 0.250000 0.750000 0.346268
O O11 0.213147 0.862483 0.130584
O O12 0.250000 0.250000 0.426904
#
# Coordination Sequence:
#
# PCOD9353884 Si02
#       5
#     8   8   8   8   8
#     4  11  24  43  73 107 149 201 249 297 368 454
#     4  12  24  44  79 108 143 197 246 309 377 445
#     4  11  22  46  70 104 150 183 245 308 365 438
#     4  10  19  40  75  94 148 200 235 297 374 420
#     4  10  20  45  69  97 152 201 228 308 383 421
#
# _framework density 22.951414
#
# number of rings (size 3 to 8) (size 9 to 14) (size 15 to 20)
#    0.000    1.200    8.000    0.600    0.000    4.800 
#    3.600    5.000    0.000    0.000    0.000    0.000 
#    0.000    0.000    0.000    0.000    0.000    0.000 
#
# Total GULP energy -111666.295360 kJ/mol
# GULP energy per Si atom -5583.314768 kJ/mol
# Density = 2.289918 g / cm^3
# Si number density = 22.951414 Si / 1000 Ang^3
#
#
#
# Elastic Constant Matrix: (Units=GPa)
#
#
# Indices 1 2 3 4 5 6 
#
# 1 95.4611 27.9694 34.7584 0.0000 0.0000 0.0000
# 2 27.9694 95.8526 18.9299 0.0000 0.0000 0.0000
# 3 34.7584 18.9299 57.4458 0.0000 0.0000 0.0000
# 4 0.0000 0.0000 0.0000 16.4191 0.0000 0.0000
# 5 0.0000 0.0000 0.0000 0.0000 30.7952 0.0000
# 6 0.0000 0.0000 0.0000 0.0000 0.0000 24.8550
#
#
#
# Elastic Compliance Matrix: (Units=1/GPa)
#
#
# Indices 1 2 3 4 5 6 
#
# 1 0.014008 -0.002582 -0.007625 0.000000 0.000000 0.000000
# 2 -0.002582 0.011635 -0.002272 0.000000 0.000000 0.000000
# 3 -0.007625 -0.002272 0.022770 0.000000 0.000000 0.000000
# 4 0.000000 0.000000 0.000000 0.060905 0.000000 0.000000
# 5 0.000000 0.000000 0.000000 0.000000 0.032473 0.000000
# 6 0.000000 0.000000 0.000000 0.000000 0.000000 0.040233
#
#
# Mechanical properties :
#
#
# Convention : Reuss Voigt Hill
#
# Bulk Modulus (GPa) = 42.63371 45.78611 44.20991
# Shear Modulus (GPa) = 23.27748 25.55396 24.41572
#
# Velocity S-wave (km/s) = 3.18812 3.34038 3.26513
# Velocity P-wave (km/s) = 5.67169 5.90508 5.78956
#
# Compressibility (1/GPa) = 0.02345562
#
# Stress axis : x y z
#
# Youngs Moduli (GPa) = 71.38629 85.94991 43.91725
#
# Poissons Ratio (x) = 0.22189 0.33488
# Poissons Ratio (y) = 0.18430 0.09977
# Poissons Ratio (z) = 0.54433 0.19527
#
# Static dielectric constant tensor:
#      x y z
#    x 1.911890 0.000000 0.000000 
#    y 0.000000 1.910750 0.000000 
#    z 0.000000 0.000000 1.903310 
# 
# From -- ./inp_files/3326.got.cif
#   From: 2010.05.17/outbox.cif.g08.bks.cpg/sg37_2_cif.got.tgz:3326.got - 2010.06.03 17:53:42.
