data_PCOD9353034
_publ_section_title
;
Structure prediction by ZEFSAII (Michael W. Deem and Ramdas Pophale) SiO2 
 PCOD9353034
Probable space group: C M C 21
;
_chemical_formula_sum "Si O2"
_cell_formula_units_Z 60
_cell_length_a 12.201409
_cell_length_b 7.870443
_cell_length_c 24.767719
_cell_angle_alpha 90.000000
_cell_angle_beta 90.000000
_cell_angle_gamma 90.000000
_cell_volume 2378.456292
_symmetry_space_group_name_H-M "C M C 21"
_symmetry_group_IT_number 36
_symmetry_cell_setting 'orthorhombic'
loop_
_space_group_symop_operation_xyz
x,y,z
-x,-y,1/2+z
x,-y,1/2+z
-x,y,z
1/2+x,1/2+y,z
1/2-x,1/2-y,1/2+z
1/2+x,1/2-y,1/2+z
1/2-x,1/2+y,z
loop_
_atom_site_type_symbol
_atom_site_label
_atom_site_fract_x
_atom_site_fract_y
_atom_site_fract_z
Si Si1 0.881479 0.284866 0.072670
Si Si2 0.852125 0.486577 0.470027
Si Si3 0.784760 0.406803 0.633956
Si Si4 0.881882 0.990352 0.346841
Si Si5 0.000000 0.501297 0.362165
Si Si6 0.113737 0.899160 0.964731
Si Si7 0.697056 0.822696 0.302359
Si Si8 0.129492 0.112904 0.705085
O O1 0.855154 0.431860 0.116597
O O2 0.779337 0.161326 0.081583
O O3 0.000000 0.207242 0.084372
O O4 0.885031 0.377012 0.015009
O O5 0.905750 0.523334 0.411397
O O6 0.882659 0.293266 0.484143
O O7 0.721621 0.496297 0.472348
O O8 0.859137 0.267488 0.662587
O O9 0.685205 0.456230 0.673983
O O10 0.890970 0.105429 0.399688
O O11 0.853951 0.134662 0.302962
O O12 0.000000 0.903096 0.339869
O O13 0.787366 0.852661 0.349576
O O14 0.901737 0.451196 0.317072
O O15 0.000000 0.980112 0.983706
O O16 0.780654 0.844681 0.252075
O O17 0.000000 0.093205 0.719383
#
# Coordination Sequence:
#
# PCOD9353034 Si02
#       8
#     8   8   8   8   4   8   8   8
#     4  11  22  41  71 101 130 178 218 272 349 402
#     4  12  22  42  68  97 141 181 219 272 335 397
#     4  10  24  46  68 101 132 165 229 293 337 399
#     4  11  21  40  59  87 127 173 221 266 314 381
#     4  12  22  44  64 100 146 180 220 282 310 408
#     4  11  21  40  60  89 131 179 221 272 317 382
#     4  12  23  42  66  93 131 183 215 269 334 389
#     4  11  24  46  68  97 134 173 224 286 342 394
#
# _framework density 25.226447
#
# number of rings (size 3 to 8) (size 9 to 14) (size 15 to 20)
#    0.000    0.800    4.667    2.800    0.000    0.000 
#   13.200    3.333    0.000    0.000    0.000    0.000 
#    0.000    0.000    0.000    0.000    0.000    0.000 
#
# Total GULP energy -167107.816899 kJ/mol
# GULP energy per Si atom -5570.260563 kJ/mol
# Density = 2.516903 g / cm^3
# Si number density = 25.226447 Si / 1000 Ang^3
#
#
#
# Elastic Constant Matrix: (Units=GPa)
#
#
# Indices 1 2 3 4 5 6 
#
# 1 238.3483 14.6406 42.4544 0.0000 0.0000 0.0000
# 2 14.6406 30.6385 6.9680 0.0000 0.0000 0.0000
# 3 42.4544 6.9680 96.7197 0.0000 0.0000 0.0000
# 4 0.0000 0.0000 0.0000 36.6324 0.0000 0.0000
# 5 0.0000 0.0000 0.0000 0.0000 -0.2197 0.0000
# 6 0.0000 0.0000 0.0000 0.0000 0.0000-1472.9885
#
#
#
# Elastic Compliance Matrix: (Units=1/GPa)
#
#
# Indices 1 2 3 4 5 6 
#
# 1 0.004646 -0.001785 -0.001910 0.000000 0.000000 0.000000
# 2 -0.001785 0.033868 -0.001656 0.000000 0.000000 0.000000
# 3 -0.001910 -0.001656 0.011297 0.000000 0.000000 0.000000
# 4 0.000000 0.000000 0.000000 0.027298 0.000000 0.000000
# 5 0.000000 0.000000 0.000000 0.000000 -4.552502 0.000000
# 6 0.000000 0.000000 0.000000 0.000000 0.000000 -0.000679
#
#
# Mechanical properties :
#
#
# Convention : Reuss Voigt Hill
#
# Bulk Modulus (GPa) = 25.57105 54.87025 40.22065
# Shear Modulus (GPa) = -1.12301 -267.20558 -134.16429
#
# Velocity S-wave (km/s) = -0.66793 -10.30305 -7.30065
# Velocity P-wave (km/s) = 3.09253 10.94252 7.42209
#
# Compressibility (1/GPa) = 0.03910673
#
# Stress axis : x y z
#
# Youngs Moduli (GPa) = 215.26207 29.52598 88.51844
#
# Poissons Ratio (x) = 0.05271 0.16911
# Poissons Ratio (y) = 0.38432 0.14662
# Poissons Ratio (z) = 0.41126 0.04890
#
# Static dielectric constant tensor:
#      x y z
#    x 1.979480 0.000000 0.000000 
#    y 0.000000 2.001250 0.000000 
#    z 0.000000 0.000000 2.123210 
# 
# From -- ./inp_files/17183.got.cif
#   From: 2010.05.17/outbox.cif.g08.bks.cpg/sg36_9_cif.got.tgz:17183.got - 2010.06.03 17:41:39.
