data_PCOD9353917
_publ_section_title
;
Structure prediction by ZEFSAII (Michael W. Deem and Ramdas Pophale) SiO2 
 PCOD9353917
Probable space group: C C C 2
;
_chemical_formula_sum "Si O2"
_cell_formula_units_Z 52
_cell_length_a 14.379474
_cell_length_b 20.900766
_cell_length_c 8.577407
_cell_angle_alpha 90.000000
_cell_angle_beta 90.000000
_cell_angle_gamma 90.000000
_cell_volume 2577.871237
_symmetry_space_group_name_H-M "C C C 2"
_symmetry_group_IT_number 37
_symmetry_cell_setting 'orthorhombic'
loop_
_space_group_symop_operation_xyz
x,y,z
-x,-y,z
-x,y,1/2+z
x,-y,1/2+z
1/2+x,1/2+y,z
1/2-x,1/2-y,z
1/2-x,1/2+y,1/2+z
1/2+x,1/2-y,1/2+z
loop_
_atom_site_type_symbol
_atom_site_label
_atom_site_fract_x
_atom_site_fract_y
_atom_site_fract_z
Si Si1 0.250000 0.750000 0.232141
Si Si2 0.124512 0.818713 0.436270
Si Si3 0.303383 0.553205 0.325475
Si Si4 0.284770 0.628354 0.013591
Si Si5 0.500000 0.000000 0.135454
Si Si6 0.000000 0.000000 0.269705
Si Si7 0.637655 0.952182 0.380234
Si Si8 0.556694 0.362092 0.754822
O O1 0.165758 0.755977 0.355338
O O2 0.262347 0.689918 0.118198
O O3 0.194976 0.879445 0.417554
O O4 0.094007 0.818774 0.614800
O O5 0.037797 0.836869 0.328222
O O6 0.403286 0.519307 0.355532
O O7 0.215182 0.508569 0.361283
O O8 0.300470 0.572347 0.142012
O O9 0.197780 0.610641 0.905553
O O10 0.371382 0.634519 0.897881
O O11 0.435543 0.045195 0.240651
O O12 0.573476 0.037066 0.030081
O O13 0.968124 0.933419 0.190012
#
# Coordination Sequence:
#
# PCOD9353917 Si02
#       8
#     4   8   8   8   4   4   8   8
#     4  10  24  48  62  88 136 186 240 288 326 400
#     4  10  23  40  64  93 136 180 224 276 339 417
#     4  10  21  35  61  96 141 172 208 270 352 427
#     4  11  23  41  67  94 134 183 226 287 345 413
#     4  10  24  38  62  88 140 170 228 284 334 406
#     4  10  20  32  58 110 146 164 198 256 360 464
#     4  11  21  41  62  94 130 178 222 286 347 404
#     4  11  22  38  67 106 140 175 218 277 358 433
#
# _framework density 20.171683000000002
#
# number of rings (size 3 to 8) (size 9 to 14) (size 15 to 20)
#    0.000    1.538    3.077    2.769    4.308    3.692 
#    0.000    3.077    0.000    0.000    0.000    0.000 
#    0.000    0.000    0.000    0.000    0.000    0.000 
#
# Total GULP energy -144980.493472 kJ/mol
# GULP energy per Si atom -5576.172826 kJ/mol
# Density = 2.012577 g / cm^3
# Si number density = 20.171683 Si / 1000 Ang^3
#
#
#
# Elastic Constant Matrix: (Units=GPa)
#
#
# Indices 1 2 3 4 5 6 
#
# 1 129.5355 42.2937 46.7033 0.0000 0.0000 0.0000
# 2 42.2937 51.9513 34.3654 0.0000 0.0000 0.0000
# 3 46.7033 34.3654 110.1497 0.0000 0.0000 0.0000
# 4 0.0000 0.0000 0.0000 26.5009 0.0000 0.0000
# 5 0.0000 0.0000 0.0000 0.0000 26.3961 0.0000
# 6 0.0000 0.0000 0.0000 0.0000 0.0000 31.7595
#
#
#
# Elastic Compliance Matrix: (Units=1/GPa)
#
#
# Indices 1 2 3 4 5 6 
#
# 1 0.010978 -0.007382 -0.002352 0.000000 0.000000 0.000000
# 2 -0.007382 0.029218 -0.005986 0.000000 0.000000 0.000000
# 3 -0.002352 -0.005986 0.011943 0.000000 0.000000 0.000000
# 4 0.000000 0.000000 0.000000 0.037735 0.000000 0.000000
# 5 0.000000 0.000000 0.000000 0.000000 0.037884 0.000000
# 6 0.000000 0.000000 0.000000 0.000000 0.000000 0.031487
#
#
# Mechanical properties :
#
#
# Convention : Reuss Voigt Hill
#
# Bulk Modulus (GPa) = 48.30749 59.81793 54.06271
# Shear Modulus (GPa) = 25.30590 28.14958 26.72774
#
# Velocity S-wave (km/s) = 3.54577 3.73969 3.64402
# Velocity P-wave (km/s) = 6.38463 6.95456 6.67568
#
# Compressibility (1/GPa) = 0.02070072
#
# Stress axis : x y z
#
# Youngs Moduli (GPa) = 91.09254 34.22589 83.73004
#
# Poissons Ratio (x) = 0.25264 0.19690
# Poissons Ratio (y) = 0.67240 0.50119
# Poissons Ratio (z) = 0.21422 0.20487
#
# Static dielectric constant tensor:
#      x y z
#    x 1.743410 0.000000 0.000000 
#    y 0.000000 1.740800 0.000000 
#    z 0.000000 0.000000 1.755770 
# 
# From -- ./inp_files/3618.got.cif
#   From: 2010.05.17/outbox.cif.g08.bks.cpg/sg37_2_cif.got.tgz:3618.got - 2010.06.03 17:53:42.
