data_PCOD9353372
_publ_section_title
;
Structure prediction by ZEFSAII (Michael W. Deem and Ramdas Pophale) SiO2 
 PCOD9353372
Probable space group: C M C 21
;
_chemical_formula_sum "Si O2"
_cell_formula_units_Z 32
_cell_length_a 30.000000
_cell_length_b 12.000000
_cell_length_c 9.000000
_cell_angle_alpha 90.000000
_cell_angle_beta 90.000000
_cell_angle_gamma 90.000000
_cell_volume 3240.000000
_symmetry_space_group_name_H-M "C M C 21"
_symmetry_group_IT_number 36
_symmetry_cell_setting 'orthorhombic'
loop_
_space_group_symop_operation_xyz
x,y,z
-x,-y,1/2+z
x,-y,1/2+z
-x,y,z
1/2+x,1/2+y,z
1/2-x,1/2-y,1/2+z
1/2+x,1/2-y,1/2+z
1/2-x,1/2+y,z
loop_
_atom_site_type_symbol
_atom_site_label
_atom_site_fract_x
_atom_site_fract_y
_atom_site_fract_z
Si Si1 0.720858 0.001104 0.632900
Si Si2 0.906947 0.501209 0.134284
Si Si3 0.947552 0.906213 0.489060
Si Si4 0.055889 0.140049 0.334032
Si Si5 0.370146 0.163536 0.884270
Si Si6 0.920349 0.667375 0.383358
Si Si7 0.684869 0.154329 0.383510
Si Si8 0.762024 0.661585 0.882651
O O1 0.692103 0.078197 0.526359
O O2 0.747057 0.086266 0.737789
O O3 0.693780 0.923468 0.743407
O O4 0.746421 0.917167 0.524658
O O5 0.881055 0.418013 0.246093
O O6 0.932244 0.589638 0.241886
O O7 0.880278 0.584765 0.025324
O O8 0.931269 0.412491 0.024818
O O9 0.934179 0.882420 0.659577
O O10 0.939043 0.792125 0.397161
O O11 0.000000 0.921192 0.493346
O O12 0.932019 0.024758 0.420761
O O13 0.091838 0.237617 0.380886
O O14 0.000000 0.161782 0.348979
O O15 0.316102 0.191810 0.882494
O O16 0.866589 0.688235 0.380969
O O17 0.725434 0.241957 0.385039
#
# Coordination Sequence:
#
# PCOD9353372 Si02
#       8
#     8   8   8   8   8   8   8   8
#     4  10  21  38  56  77 117 158 193 227 300 356
#     4  10  21  36  65  87 120 156 190 243 307 364
#     4  10  23  44  65  86 119 161 199 242 297 356
#     4  10  23  44  65  86 119 161 199 242 297 356
#     4  11  20  39  61  90 117 156 201 243 301 358
#     4  11  20  39  61  90 117 156 201 243 301 358
#     4  11  21  36  57  84 113 156 193 241 290 346
#     4  11  21  36  57  84 113 156 193 241 290 346
#
# _framework density 9.8765429999999999
#
# number of rings (size 3 to 8) (size 9 to 14) (size 15 to 20)
#    0.000    1.500    1.250    6.750    1.750    0.000 
#    4.500    3.750    0.000    0.000    0.000    0.000 
#    0.000    0.000    0.000    0.000    0.000    0.000 
#
# Total GULP energy -178261.247284 kJ/mol
# GULP energy per Si atom -5570.663978 kJ/mol
# Density = 0.985406 g / cm^3
# Si number density = 9.876543 Si / 1000 Ang^3
#
#
#
# Elastic Constant Matrix: (Units=GPa)
#
#
# Indices 1 2 3 4 5 6 
#
# 1 27.5169 33.6235 6.8235 0.0000 0.0000 0.0000
# 2 33.6235 147.0984 49.4835 0.0000 0.0000 0.0000
# 3 6.8235 49.4835 122.1976 0.0000 0.0000 0.0000
# 4 0.0000 0.0000 0.0000 -62.6500 0.0000 0.0000
# 5 0.0000 0.0000 0.0000 0.0000 0.9340 0.0000
# 6 0.0000 0.0000 0.0000 0.0000 0.0000 42.1435
#
#
#
# Elastic Compliance Matrix: (Units=1/GPa)
#
#
# Indices 1 2 3 4 5 6 
#
# 1 0.050915 -0.012366 0.002165 0.000000 0.000000 0.000000
# 2 -0.012366 0.010874 -0.003713 0.000000 0.000000 0.000000
# 3 0.002165 -0.003713 0.009566 0.000000 0.000000 0.000000
# 4 0.000000 0.000000 0.000000 -0.015962 0.000000 0.000000
# 5 0.000000 0.000000 0.000000 0.000000 1.070648 0.000000
# 6 0.000000 0.000000 0.000000 0.000000 0.000000 0.023728
#
#
# Mechanical properties :
#
#
# Convention : Reuss Voigt Hill
#
# Bulk Modulus (GPa) = 22.97468 52.96377 37.96923
# Shear Modulus (GPa) = 4.19425 9.87767 7.03596
#
# Velocity S-wave (km/s) = 1.45875 2.23862 1.88936
# Velocity P-wave (km/s) = 3.80703 5.79250 4.90135
#
# Compressibility (1/GPa) = 0.04352617
#
# Stress axis : x y z
#
# Youngs Moduli (GPa) = 19.64049 91.96404 104.53601
#
# Poissons Ratio (x) = 1.13726 -0.22628
# Poissons Ratio (y) = 0.24288 0.38812
# Poissons Ratio (z) = -0.04251 0.34144
#
# Static dielectric constant tensor:
#      x y z
#    x 1.718630 0.000000 0.000000 
#    y 0.000000 1.698250 0.000000 
#    z 0.000000 0.000000 1.836290 
# 
# From -- ./inp_files/6094.got.cif
#   From: 2010.05.17/outbox.ucp.g08.bks.cvg/sg36_4_cif.got.tgz:6094.got - 2010.06.11 10:37:26.
