data_PCOD9353070
_publ_section_title
;
Structure prediction by ZEFSAII (Michael W. Deem and Ramdas Pophale) SiO2 
 PCOD9353070
Probable space group: C M C 21
;
_chemical_formula_sum "Si O2"
_cell_formula_units_Z 64
_cell_length_a 32.259682
_cell_length_b 12.351485
_cell_length_c 9.674137
_cell_angle_alpha 90.000000
_cell_angle_beta 90.000000
_cell_angle_gamma 90.000000
_cell_volume 3854.708049
_symmetry_space_group_name_H-M "C M C 21"
_symmetry_group_IT_number 36
_symmetry_cell_setting 'orthorhombic'
loop_
_space_group_symop_operation_xyz
x,y,z
-x,-y,1/2+z
x,-y,1/2+z
-x,y,z
1/2+x,1/2+y,z
1/2-x,1/2-y,1/2+z
1/2+x,1/2-y,1/2+z
1/2-x,1/2+y,z
loop_
_atom_site_type_symbol
_atom_site_label
_atom_site_fract_x
_atom_site_fract_y
_atom_site_fract_z
Si Si1 0.546045 0.067940 0.012060
Si Si2 0.954318 0.640635 0.326368
Si Si3 0.774568 0.925483 0.752502
Si Si4 0.178556 0.288850 0.161443
Si Si5 0.691055 0.826523 0.631152
Si Si6 0.366561 0.183627 0.379829
Si Si7 0.234114 0.113711 0.563016
Si Si8 0.866052 0.577465 0.901958
O O1 0.500000 0.113187 0.977625
O O2 0.550660 0.078775 0.178066
O O3 0.587118 0.114973 0.939452
O O4 0.545539 0.945950 0.951904
O O5 0.914028 0.713619 0.347694
O O6 0.000000 0.692340 0.322898
O O7 0.805609 0.826297 0.720468
O O8 0.730294 0.891089 0.688575
O O9 0.786195 0.035466 0.675650
O O10 0.766949 0.942168 0.914378
O O11 0.219949 0.353164 0.113204
O O12 0.153729 0.358473 0.274403
O O13 0.150105 0.276797 0.026311
O O14 0.664459 0.782829 0.759159
O O15 0.709211 0.725246 0.548251
O O16 0.662342 0.898600 0.534434
O O17 0.365889 0.051460 0.377320
#
# Coordination Sequence:
#
# PCOD9353070 Si02
#       8
#     8   8   8   8   8   8   8   8
#     4   9  18  30  45  68 100 137 170 205 250 300
#     4   9  18  30  45  69 101 136 171 204 248 300
#     4  11  24  38  54  73 100 135 169 215 260 296
#     4  11  24  36  51  76 104 132 177 211 248 305
#     4  11  22  36  51  74 102 132 176 208 249 300
#     4  11  20  32  52  76 100 142 169 209 247 298
#     4  11  24  38  54  72 101 135 168 216 259 299
#     4  11  20  34  50  74 104 139 172 210 245 300
#
# _framework density 16.603072999999998
#
# number of rings (size 3 to 8) (size 9 to 14) (size 15 to 20)
#    0.000    1.500    3.750    2.250    8.750    0.000 
#    0.000    0.000    0.000    0.000    0.000    0.000 
#    0.000    6.000    0.000    0.000    0.000    0.000 
#
# Total GULP energy -178485.637805 kJ/mol
# GULP energy per Si atom -5577.676181 kJ/mol
# Density = 1.656528 g / cm^3
# Si number density = 16.603073 Si / 1000 Ang^3
#
#
#
# Elastic Constant Matrix: (Units=GPa)
#
#
# Indices 1 2 3 4 5 6 
#
# 1 98.7334 3.6534 10.3588 0.0000 0.0000 0.0000
# 2 3.6534 22.9993 -7.0841 0.0000 0.0000 0.0000
# 3 10.3588 -7.0841 65.2774 0.0000 0.0000 0.0000
# 4 0.0000 0.0000 0.0000 23.9237 0.0000 0.0000
# 5 0.0000 0.0000 0.0000 0.0000 26.2998 0.0000
# 6 0.0000 0.0000 0.0000 0.0000 0.0000 8.9703
#
#
#
# Elastic Compliance Matrix: (Units=1/GPa)
#
#
# Indices 1 2 3 4 5 6 
#
# 1 0.010410 -0.002237 -0.001895 0.000000 0.000000 0.000000
# 2 -0.002237 0.045464 0.005289 0.000000 0.000000 0.000000
# 3 -0.001895 0.005289 0.016194 0.000000 0.000000 0.000000
# 4 0.000000 0.000000 0.000000 0.041800 0.000000 0.000000
# 5 0.000000 0.000000 0.000000 0.000000 0.038023 0.000000
# 6 0.000000 0.000000 0.000000 0.000000 0.000000 0.111479
#
#
# Mechanical properties :
#
#
# Convention : Reuss Voigt Hill
#
# Bulk Modulus (GPa) = 13.44417 22.31848 17.88133
# Shear Modulus (GPa) = 17.49173 23.84423 20.66798
#
# Velocity S-wave (km/s) = 3.24932 3.79375 3.53204
# Velocity P-wave (km/s) = 4.71089 5.71503 5.23708
#
# Compressibility (1/GPa) = 0.07438167
#
# Stress axis : x y z
#
# Youngs Moduli (GPa) = 96.06285 21.99545 61.75180
#
# Poissons Ratio (x) = 0.04921 0.11700
# Poissons Ratio (y) = 0.21491 -0.32660
# Poissons Ratio (z) = 0.18201 -0.11633
#
# Static dielectric constant tensor:
#      x y z
#    x 1.596990 0.000000 0.000000 
#    y 0.000000 1.546260 0.000000 
#    z 0.000000 0.000000 1.573300 
# 
# From -- ./inp_files/6087.got.cif
#   From: 2010.05.17/outbox.cif.g08.bks.cpg/sg36_4_cif.got.tgz:6087.got - 2010.06.03 17:41:39.
