data_PCOD9353368
_publ_section_title
;
Structure prediction by ZEFSAII (Michael W. Deem and Ramdas Pophale) SiO2 
 PCOD9353368
Probable space group: C M C 21
;
_chemical_formula_sum "Si O2"
_cell_formula_units_Z 32
_cell_length_a 18.000000
_cell_length_b 15.000000
_cell_length_c 12.000000
_cell_angle_alpha 90.000000
_cell_angle_beta 90.000000
_cell_angle_gamma 90.000000
_cell_volume 3240.000000
_symmetry_space_group_name_H-M "C M C 21"
_symmetry_group_IT_number 36
_symmetry_cell_setting 'orthorhombic'
loop_
_space_group_symop_operation_xyz
x,y,z
-x,-y,1/2+z
x,-y,1/2+z
-x,y,z
1/2+x,1/2+y,z
1/2-x,1/2-y,1/2+z
1/2+x,1/2-y,1/2+z
1/2-x,1/2+y,z
loop_
_atom_site_type_symbol
_atom_site_label
_atom_site_fract_x
_atom_site_fract_y
_atom_site_fract_z
Si Si1 0.646143 0.642966 0.482360
Si Si2 0.088824 0.309906 0.369853
Si Si3 0.585006 0.641092 0.713689
Si Si4 0.089259 0.945979 0.757891
Si Si5 0.669938 0.827644 0.726346
Si Si6 0.088914 0.457108 0.546694
Si Si7 0.339242 0.281910 0.656452
Si Si8 0.819548 0.368647 0.985730
O O1 0.634056 0.746824 0.454894
O O2 0.591072 0.622348 0.582100
O O3 0.619668 0.595703 0.371098
O O4 0.731250 0.620811 0.510200
O O5 0.095471 0.406719 0.426355
O O6 0.124620 0.283843 0.250992
O O7 0.000000 0.287948 0.367728
O O8 0.500000 0.653455 0.748960
O O9 0.615995 0.548164 0.759871
O O10 0.629304 0.731763 0.732751
O O11 0.118021 0.876727 0.663791
O O12 0.000000 0.947144 0.754044
O O13 0.627145 0.894771 0.641864
O O14 0.754099 0.806526 0.686822
O O15 0.672033 0.865509 0.852108
O O16 0.131767 0.550875 0.536217
O O17 0.000000 0.466659 0.569314
O O18 0.342000 0.225373 0.542983
#
# Coordination Sequence:
#
# PCOD9353368 Si02
#       8
#     8   8   8   8   8   8   8   8
#     4  11  20  41  64  96 127 170 223 272 329 403
#     4  10  20  42  72  93 128 184 233 277 334 413
#     4  11  23  41  68  96 129 174 220 275 337 404
#     4  10  23  41  66  98 133 175 220 269 338 413
#     4  12  25  45  69  99 137 176 228 288 344 409
#     4  11  27  46  68  97 135 188 239 283 342 413
#     4  11  23  42  66 101 137 173 225 285 342 402
#     4  12  27  42  69 104 138 178 224 287 348 401
#
# _framework density 9.8765429999999999
#
# number of rings (size 3 to 8) (size 9 to 14) (size 15 to 20)
#    0.000    1.000    5.000    2.625    3.500    4.000 
#    0.000    1.250    0.000    0.000    0.000    0.000 
#    0.000    0.000    0.000    0.000    0.000    0.000 
#
# Total GULP energy -178612.824340 kJ/mol
# GULP energy per Si atom -5581.650761 kJ/mol
# Density = 0.985406 g / cm^3
# Si number density = 9.876543 Si / 1000 Ang^3
#
#
#
# Elastic Constant Matrix: (Units=GPa)
#
#
# Indices 1 2 3 4 5 6 
#
# 1 118.8852 47.7457 10.7039 0.0000 0.0000 0.0000
# 2 47.7457 120.2867 12.7790 0.0000 0.0000 0.0000
# 3 10.7039 12.7790 53.3528 0.0000 0.0000 0.0000
# 4 0.0000 0.0000 0.0000 23.9758 0.0000 0.0000
# 5 0.0000 0.0000 0.0000 0.0000 29.1301 0.0000
# 6 0.0000 0.0000 0.0000 0.0000 0.0000 26.0467
#
#
#
# Elastic Compliance Matrix: (Units=1/GPa)
#
#
# Indices 1 2 3 4 5 6 
#
# 1 0.010068 -0.003881 -0.001090 0.000000 0.000000 0.000000
# 2 -0.003881 0.010026 -0.001623 0.000000 0.000000 0.000000
# 3 -0.001090 -0.001623 0.019351 0.000000 0.000000 0.000000
# 4 0.000000 0.000000 0.000000 0.041709 0.000000 0.000000
# 5 0.000000 0.000000 0.000000 0.000000 0.034329 0.000000
# 6 0.000000 0.000000 0.000000 0.000000 0.000000 0.038393
#
#
# Mechanical properties :
#
#
# Convention : Reuss Voigt Hill
#
# Bulk Modulus (GPa) = 38.08485 48.33131 43.20808
# Shear Modulus (GPa) = 28.43894 30.58358 29.51126
#
# Velocity S-wave (km/s) = 3.79848 3.93911 3.86943
# Velocity P-wave (km/s) = 6.20969 6.72381 6.47186
#
# Compressibility (1/GPa) = 0.02625716
#
# Stress axis : x y z
#
# Youngs Moduli (GPa) = 99.32337 99.73875 51.67782
#
# Poissons Ratio (x) = 0.38704 0.05635
# Poissons Ratio (y) = 0.38543 0.08387
# Poissons Ratio (z) = 0.10831 0.16187
#
# Static dielectric constant tensor:
#      x y z
#    x 1.668100 0.000000 0.000000 
#    y 0.000000 1.730790 0.000000 
#    z 0.000000 0.000000 1.724510 
# 
# From -- ./inp_files/9009.got.cif
#   From: 2010.05.17/outbox.ucp.g08.bks.cvg/sg36_5_cif.got.tgz:9009.got - 2010.06.11 10:37:26.
