data_PCOD9353845
_publ_section_title
;
Structure prediction by ZEFSAII (Michael W. Deem and Ramdas Pophale) SiO2 
 PCOD9353845
Probable space group: C C C 2
;
_chemical_formula_sum "Si O2"
_cell_formula_units_Z 60
_cell_length_a 15.666162
_cell_length_b 5.360281
_cell_length_c 30.488020
_cell_angle_alpha 90.000000
_cell_angle_beta 90.000000
_cell_angle_gamma 90.000000
_cell_volume 2560.232410
_symmetry_space_group_name_H-M "C C C 2"
_symmetry_group_IT_number 37
_symmetry_cell_setting 'orthorhombic'
loop_
_space_group_symop_operation_xyz
x,y,z
-x,-y,z
-x,y,1/2+z
x,-y,1/2+z
1/2+x,1/2+y,z
1/2-x,1/2-y,z
1/2-x,1/2+y,1/2+z
1/2+x,1/2-y,1/2+z
loop_
_atom_site_type_symbol
_atom_site_label
_atom_site_fract_x
_atom_site_fract_y
_atom_site_fract_z
Si Si1 0.082332 0.642407 0.848220
Si Si2 0.300752 0.000093 0.280622
Si Si3 0.849956 0.939625 0.085254
Si Si4 0.912023 0.372001 0.207924
Si Si5 0.147738 0.750133 0.486507
Si Si6 0.654338 0.061206 0.116610
Si Si7 0.647379 0.743288 0.441385
Si Si8 0.000000 0.000000 0.775154
O O1 0.142704 0.446831 0.823364
O O2 0.127910 0.755519 0.889901
O O3 0.052224 0.824834 0.808980
O O4 0.000000 0.500000 0.865184
O O5 0.250000 0.750000 0.270107
O O6 0.357488 0.056622 0.238120
O O7 0.250000 0.250000 0.291267
O O8 0.886709 0.220514 0.086764
O O9 0.751014 0.001880 0.099500
O O10 0.884053 0.719002 0.116593
O O11 0.859542 0.813754 0.037855
O O12 0.856547 0.321545 0.164922
O O13 0.000000 0.500000 0.194079
O O14 0.939196 0.155600 0.242139
O O15 0.250000 0.750000 0.478448
O O16 0.115188 0.487698 0.467683
O O17 0.111910 0.988057 0.461103
O O18 0.750000 0.750000 0.447117
#
# Coordination Sequence:
#
# PCOD9353845 Si02
#       8
#     8   8   8   8   8   8   8   4
#     4  12  26  48  71 102 146 202 240 289 378 443
#     4  12  27  44  73 103 142 181 242 316 354 426
#     4  10  20  40  65 105 139 177 226 300 371 417
#     4  12  27  46  69 103 147 202 244 294 373 434
#     4  10  19  38  66 102 142 177 220 294 374 428
#     4  10  23  35  67 100 136 177 241 287 342 442
#     4  10  24  38  69 108 136 177 237 302 345 431
#     4  12  24  50  74  92 146 212 246 286 364 456
#
# _framework density 23.435371
#
# number of rings (size 3 to 8) (size 9 to 14) (size 15 to 20)
#    0.000    1.067    4.000    2.000   11.200    1.600 
#    0.000    0.000    0.000    4.800    0.000    0.000 
#    0.000    0.000    0.000    0.000    0.000    0.000 
#
# Total GULP energy -167438.628300 kJ/mol
# GULP energy per Si atom -5581.287610 kJ/mol
# Density = 2.338203 g / cm^3
# Si number density = 23.435371 Si / 1000 Ang^3
#
#
#
# Elastic Constant Matrix: (Units=GPa)
#
#
# Indices 1 2 3 4 5 6 
#
# 1 44.1279 10.6330 14.5297 0.0000 0.0000 0.0000
# 2 10.6330 162.0120 51.2974 0.0000 0.0000 0.0000
# 3 14.5297 51.2974 145.8537 0.0000 0.0000 0.0000
# 4 0.0000 0.0000 0.0000 44.9469 0.0000 0.0000
# 5 0.0000 0.0000 0.0000 0.0000 18.1798 0.0000
# 6 0.0000 0.0000 0.0000 0.0000 0.0000 8.0725
#
#
#
# Elastic Compliance Matrix: (Units=1/GPa)
#
#
# Indices 1 2 3 4 5 6 
#
# 1 0.023547 -0.000903 -0.002028 0.000000 0.000000 0.000000
# 2 -0.000903 0.006981 -0.002365 0.000000 0.000000 0.000000
# 3 -0.002028 -0.002365 0.007890 0.000000 0.000000 0.000000
# 4 0.000000 0.000000 0.000000 0.022248 0.000000 0.000000
# 5 0.000000 0.000000 0.000000 0.000000 0.055006 0.000000
# 6 0.000000 0.000000 0.000000 0.000000 0.000000 0.123877
#
#
# Mechanical properties :
#
#
# Convention : Reuss Voigt Hill
#
# Bulk Modulus (GPa) = 35.93944 56.10153 46.02048
# Shear Modulus (GPa) = 19.27401 32.60874 25.94137
#
# Velocity S-wave (km/s) = 2.87092 3.73424 3.33067
# Velocity P-wave (km/s) = 5.13405 6.52560 5.87120
#
# Compressibility (1/GPa) = 0.02782459
#
# Stress axis : x y z
#
# Youngs Moduli (GPa) = 42.46862 143.25587 126.74222
#
# Poissons Ratio (x) = 0.12940 0.25703
# Poissons Ratio (y) = 0.03836 0.29976
# Poissons Ratio (z) = 0.08613 0.33881
#
# Static dielectric constant tensor:
#      x y z
#    x 2.007560 0.000000 0.000000 
#    y 0.000000 2.032900 0.000000 
#    z 0.000000 0.000000 1.867490 
# 
# From -- ./inp_files/19998.got.cif
#   From: 2010.05.17/outbox.cif.g08.bks.cpg/sg37_10_cif.got.tgz:19998.got - 2010.06.03 17:53:42.
