data_PCOD9353644
_publ_section_title
;
Structure prediction by ZEFSAII (Michael W. Deem and Ramdas Pophale) SiO2 
 PCOD9353644
Probable space group: C C C 2
;
_chemical_formula_sum "Si O2"
_cell_formula_units_Z 64
_cell_length_a 8.730166
_cell_length_b 14.034716
_cell_length_c 24.669543
_cell_angle_alpha 90.000000
_cell_angle_beta 90.000000
_cell_angle_gamma 90.000000
_cell_volume 3022.645635
_symmetry_space_group_name_H-M "C C C 2"
_symmetry_group_IT_number 37
_symmetry_cell_setting 'orthorhombic'
loop_
_space_group_symop_operation_xyz
x,y,z
-x,-y,z
-x,y,1/2+z
x,-y,1/2+z
1/2+x,1/2+y,z
1/2-x,1/2-y,z
1/2-x,1/2+y,1/2+z
1/2+x,1/2-y,1/2+z
loop_
_atom_site_type_symbol
_atom_site_label
_atom_site_fract_x
_atom_site_fract_y
_atom_site_fract_z
Si Si1 0.873521 0.169467 0.860280
Si Si2 0.839558 0.846365 0.782347
Si Si3 0.922529 0.100911 0.162265
Si Si4 0.618279 0.066146 0.099901
Si Si5 0.680203 0.026234 0.370578
Si Si6 0.683174 0.988502 0.987663
Si Si7 0.932129 0.758690 0.080567
Si Si8 0.385704 0.675394 0.981062
O O1 0.750000 0.250000 0.847182
O O2 0.939701 0.194147 0.920067
O O3 0.008264 0.168621 0.817578
O O4 0.783427 0.069153 0.863912
O O5 0.750000 0.750000 0.769136
O O6 0.892756 0.891802 0.725985
O O7 0.729056 0.907269 0.821267
O O8 0.758895 0.104593 0.133219
O O9 0.020591 0.185127 0.134895
O O10 0.000000 0.000000 0.149531
O O11 0.683473 0.992922 0.053672
O O12 0.525028 0.158469 0.078310
O O13 0.500000 0.000000 0.132605
O O14 0.500000 0.000000 0.367160
O O15 0.714694 0.069485 0.431418
O O16 0.500000 0.000000 0.980884
O O17 0.800344 0.075192 0.979842
O O18 0.750000 0.750000 0.077796
O O19 0.989339 0.816985 0.027735
O O20 0.250000 0.750000 0.993399
#
# Coordination Sequence:
#
# PCOD9353644 Si02
#       8
#     8   8   8   8   8   8   8   8
#     4  10  22  40  66  98 136 179 225 280 341 405
#     4  12  26  46  69  99 134 184 232 287 339 403
#     4  12  26  47  71  98 136 178 234 288 344 405
#     4  11  22  43  69  99 137 179 226 278 342 411
#     4  10  21  41  66  99 136 177 224 279 343 404
#     4   9  18  35  65  93 132 177 217 272 337 402
#     4  12  24  42  66 103 139 178 228 281 342 410
#     4  10  18  38  62  92 135 177 217 273 340 398
#
# _framework density 21.173504999999999
#
# number of rings (size 3 to 8) (size 9 to 14) (size 15 to 20)
#    0.000    1.250    2.500    3.750    0.000    2.500 
#    9.000    5.000    0.000    0.000    0.000    0.000 
#    0.000    0.000    0.000    0.000    0.000    0.000 
#
# Total GULP energy -178398.171563 kJ/mol
# GULP energy per Si atom -5574.942861 kJ/mol
# Density = 2.112531 g / cm^3
# Si number density = 21.173505 Si / 1000 Ang^3
#
#
#
# Elastic Constant Matrix: (Units=GPa)
#
#
# Indices 1 2 3 4 5 6 
#
# 1 118.7268 12.6338 51.7932 0.0000 0.0000 0.0000
# 2 12.6338 52.9433 8.9480 0.0000 0.0000 0.0000
# 3 51.7932 8.9480 117.6628 0.0000 0.0000 0.0000
# 4 0.0000 0.0000 0.0000 58.6844 0.0000 0.0000
# 5 0.0000 0.0000 0.0000 0.0000 25.7743 0.0000
# 6 0.0000 0.0000 0.0000 0.0000 0.0000 31.3307
#
#
#
# Elastic Compliance Matrix: (Units=1/GPa)
#
#
# Indices 1 2 3 4 5 6 
#
# 1 0.010584 -0.001761 -0.004525 0.000000 0.000000 0.000000
# 2 -0.001761 0.019427 -0.000702 0.000000 0.000000 0.000000
# 3 -0.004525 -0.000702 0.010544 0.000000 0.000000 0.000000
# 4 0.000000 0.000000 0.000000 0.017040 0.000000 0.000000
# 5 0.000000 0.000000 0.000000 0.000000 0.038798 0.000000
# 6 0.000000 0.000000 0.000000 0.000000 0.000000 0.031918
#
#
# Mechanical properties :
#
#
# Convention : Reuss Voigt Hill
#
# Bulk Modulus (GPa) = 37.62394 48.45368 43.03881
# Shear Modulus (GPa) = 33.08029 37.55508 35.31768
#
# Velocity S-wave (km/s) = 3.95694 4.21608 4.08856
# Velocity P-wave (km/s) = 6.21968 6.82893 6.53141
#
# Compressibility (1/GPa) = 0.02657882
#
# Stress axis : x y z
#
# Youngs Moduli (GPa) = 94.48171 51.47474 94.83972
#
# Poissons Ratio (x) = 0.09064 0.42915
# Poissons Ratio (y) = 0.16637 0.06660
# Poissons Ratio (z) = 0.42753 0.03615
#
# Static dielectric constant tensor:
#      x y z
#    x 1.689790 0.000000 0.000000 
#    y 0.000000 1.812760 0.000000 
#    z 0.000000 0.000000 1.779980 
# 
# From -- ./inp_files/18439.got.cif
#   From: 2010.05.17/outbox.cif.g08.bks.cpg/sg37_10_cif.got.tgz:18439.got - 2010.06.03 17:53:42.
