data_PCOD9353806
_publ_section_title
;
Structure prediction by ZEFSAII (Michael W. Deem and Ramdas Pophale) SiO2 
 PCOD9353806
Probable space group: C C C 2
;
_chemical_formula_sum "Si O2"
_cell_formula_units_Z 52
_cell_length_a 13.991001
_cell_length_b 11.643349
_cell_length_c 15.265569
_cell_angle_alpha 90.000000
_cell_angle_beta 90.000000
_cell_angle_gamma 90.000000
_cell_volume 2486.793362
_symmetry_space_group_name_H-M "C C C 2"
_symmetry_group_IT_number 37
_symmetry_cell_setting 'orthorhombic'
loop_
_space_group_symop_operation_xyz
x,y,z
-x,-y,z
-x,y,1/2+z
x,-y,1/2+z
1/2+x,1/2+y,z
1/2-x,1/2-y,z
1/2-x,1/2+y,1/2+z
1/2+x,1/2-y,1/2+z
loop_
_atom_site_type_symbol
_atom_site_label
_atom_site_fract_x
_atom_site_fract_y
_atom_site_fract_z
Si Si1 0.587240 0.582393 0.427530
Si Si2 0.195304 0.570269 0.681781
Si Si3 0.000000 0.500000 0.240657
Si Si4 0.352338 0.760019 0.523510
Si Si5 0.480993 0.166996 0.397598
Si Si6 0.216736 0.375729 0.382431
Si Si7 0.603627 0.513244 0.109525
O O1 0.500000 0.500000 0.405759
O O2 0.559303 0.704208 0.386569
O O3 0.692475 0.543806 0.397769
O O4 0.598232 0.582010 0.532901
O O5 0.097406 0.498613 0.686062
O O6 0.174171 0.663861 0.607729
O O7 0.201778 0.625748 0.778205
O O8 0.296856 0.509516 0.661999
O O9 0.008038 0.608539 0.306401
O O10 0.250000 0.750000 0.474795
O O11 0.433053 0.819667 0.465018
O O12 0.388943 0.636135 0.558165
O O13 0.385067 0.096797 0.426139
O O14 0.250000 0.250000 0.414366
O O15 0.500000 0.500000 0.156448
#
# Coordination Sequence:
#
# PCOD9353806 Si02
#       7
#     8   8   4   8   8   8   8
#     4  10  19  36  64  95 121 151 210 267 309 365
#     4  10  22  37  57  84 124 166 200 247 307 387
#     4  10  24  42  60  86 130 170 216 238 316 382
#     4  10  20  35  63  90 118 162 205 257 321 370
#     4  10  20  39  61  88 120 164 209 260 298 379
#     4   9  19  35  57  85 119 158 199 241 311 368
#     4  10  19  36  63  93 124 150 205 265 317 368
#
# _framework density 20.910463
#
# number of rings (size 3 to 8) (size 9 to 14) (size 15 to 20)
#    0.000    2.154    3.077    1.385    0.000    7.385 
#    0.000    0.000    0.000    0.000    0.000    0.000 
#    0.000    0.000    0.000    0.000    0.000    0.000 
#
# Total GULP energy -144794.116669 kJ/mol
# GULP energy per Si atom -5569.004487 kJ/mol
# Density = 2.086287 g / cm^3
# Si number density = 20.910463 Si / 1000 Ang^3
#
#
#
# Elastic Constant Matrix: (Units=GPa)
#
#
# Indices 1 2 3 4 5 6 
#
# 1 252.2693 34.8465 52.0643 0.0000 0.0000 0.0000
# 2 34.8465 57.5266 6.3327 0.0000 0.0000 0.0000
# 3 52.0643 6.3327 46.5568 0.0000 0.0000 0.0000
# 4 0.0000 0.0000 0.0000 18.3206 0.0000 0.0000
# 5 0.0000 0.0000 0.0000 0.0000 27.7770 0.0000
# 6 0.0000 0.0000 0.0000 0.0000 0.0000 30.2830
#
#
#
# Elastic Compliance Matrix: (Units=1/GPa)
#
#
# Indices 1 2 3 4 5 6 
#
# 1 0.005542 -0.002715 -0.005828 0.000000 0.000000 0.000000
# 2 -0.002715 0.018978 0.000455 0.000000 0.000000 0.000000
# 3 -0.005828 0.000455 0.027935 0.000000 0.000000 0.000000
# 4 0.000000 0.000000 0.000000 0.054583 0.000000 0.000000
# 5 0.000000 0.000000 0.000000 0.000000 0.036001 0.000000
# 6 0.000000 0.000000 0.000000 0.000000 0.000000 0.033022
#
#
# Mechanical properties :
#
#
# Convention : Reuss Voigt Hill
#
# Bulk Modulus (GPa) = 27.56491 60.31554 43.94022
# Shear Modulus (GPa) = 24.47016 32.81673 28.64344
#
# Velocity S-wave (km/s) = 3.42458 3.96585 3.70511
# Velocity P-wave (km/s) = 5.37103 7.06243 6.27399
#
# Compressibility (1/GPa) = 0.03627801
#
# Stress axis : x y z
#
# Youngs Moduli (GPa) = 180.44216 52.69261 35.79763
#
# Poissons Ratio (x) = 0.14308 0.20863
# Poissons Ratio (y) = 0.48998 -0.01630
# Poissons Ratio (z) = 1.05165 -0.02399
#
# Static dielectric constant tensor:
#      x y z
#    x 1.909060 0.000000 0.000000 
#    y 0.000000 1.808650 0.000000 
#    z 0.000000 0.000000 1.742260 
# 
# From -- ./inp_files/15285.got.cif
#   From: 2010.05.17/outbox.cif.g08.bks.cpg/sg37_8_cif.got.tgz:15285.got - 2010.06.03 17:53:42.
