data_PCOD9353077
_publ_section_title
;
Structure prediction by ZEFSAII (Michael W. Deem and Ramdas Pophale) SiO2 
 PCOD9353077
Probable space group: C M C 21
;
_chemical_formula_sum "Si O2"
_cell_formula_units_Z 48
_cell_length_a 19.699622
_cell_length_b 18.129975
_cell_length_c 4.931403
_cell_angle_alpha 90.000000
_cell_angle_beta 90.000000
_cell_angle_gamma 90.000000
_cell_volume 1761.268603
_symmetry_space_group_name_H-M "C M C 21"
_symmetry_group_IT_number 36
_symmetry_cell_setting 'orthorhombic'
loop_
_space_group_symop_operation_xyz
x,y,z
-x,-y,1/2+z
x,-y,1/2+z
-x,y,z
1/2+x,1/2+y,z
1/2-x,1/2-y,1/2+z
1/2+x,1/2-y,1/2+z
1/2-x,1/2+y,z
loop_
_atom_site_type_symbol
_atom_site_label
_atom_site_fract_x
_atom_site_fract_y
_atom_site_fract_z
Si Si1 0.760715 0.408755 0.367230
Si Si2 0.607539 0.682363 0.311268
Si Si3 0.822401 0.775093 0.298393
Si Si4 0.610147 0.454590 0.180188
Si Si5 0.500000 0.897993 0.919298
Si Si6 0.652272 0.100311 0.365292
Si Si7 0.000000 0.304777 0.427599
O O1 0.742366 0.321547 0.395161
O O2 0.692355 0.443977 0.234502
O O3 0.791279 0.430666 0.657752
O O4 0.823093 0.415310 0.165526
O O5 0.674295 0.701702 0.483819
O O6 0.584196 0.612560 0.490523
O O7 0.562473 0.753519 0.358497
O O8 0.622413 0.681428 0.992933
O O9 0.840808 0.689841 0.337317
O O10 0.590244 0.476721 0.484332
O O11 0.425447 0.927848 0.836068
O O12 0.500000 0.823008 0.742512
O O13 0.500000 0.876619 0.236214
#
# Coordination Sequence:
#
# PCOD9353077 Si02
#       7
#     8   8   8   8   4   8   4
#     4  11  23  36  60  86 119 151 200 251 314 362
#     4  11  21  36  60  84 118 163 207 242 294 360
#     4  11  20  36  55  88 122 158 190 243 296 372
#     4  11  23  42  62  86 115 153 207 272 320 351
#     4  12  24  36  60  81 132 167 196 228 284 369
#     4  12  21  37  55  91 121 160 193 234 296 377
#     4  12  20  40  54  85 120 173 206 228 288 365
#
# _framework density 27.253083
#
# number of rings (size 3 to 8) (size 9 to 14) (size 15 to 20)
#    0.000    0.667    3.333    8.000    0.000    0.000 
#    0.000    0.833    0.000    0.000    0.000   11.667 
#    0.000    0.000    0.000    0.000    0.000    0.000 
#
# Total GULP energy -133895.271472 kJ/mol
# GULP energy per Si atom -5578.969645 kJ/mol
# Density = 2.719105 g / cm^3
# Si number density = 27.253083 Si / 1000 Ang^3
#
#
#
# Elastic Constant Matrix: (Units=GPa)
#
#
# Indices 1 2 3 4 5 6 
#
# 1 91.1540 -11.7885 2.5924 0.0000 0.0000 0.0000
# 2 -11.7885 94.2276 -4.8606 0.0000 0.0000 0.0000
# 3 2.5924 -4.8606 136.1823 0.0000 0.0000 0.0000
# 4 0.0000 0.0000 0.0000 24.1690 0.0000 0.0000
# 5 0.0000 0.0000 0.0000 0.0000 43.0338 0.0000
# 6 0.0000 0.0000 0.0000 0.0000 0.0000 -685.3340
#
#
#
# Elastic Compliance Matrix: (Units=1/GPa)
#
#
# Indices 1 2 3 4 5 6 
#
# 1 0.011154 0.001387 -0.000163 0.000000 0.000000 0.000000
# 2 0.001387 0.010805 0.000359 0.000000 0.000000 0.000000
# 3 -0.000163 0.000359 0.007359 0.000000 0.000000 0.000000
# 4 0.000000 0.000000 0.000000 0.041375 0.000000 0.000000
# 5 0.000000 0.000000 0.000000 0.000000 0.023238 0.000000
# 6 0.000000 0.000000 0.000000 0.000000 0.000000 -0.001459
#
#
# Mechanical properties :
#
#
# Convention : Reuss Voigt Hill
#
# Bulk Modulus (GPa) = 30.78332 32.60564 31.69448
# Shear Modulus (GPa) = 49.93341 -101.25155 -25.65907
#
# Velocity S-wave (km/s) = 4.28508 -6.10188 -3.07173
# Velocity P-wave (km/s) = 5.98351 6.13628 0.96218
#
# Compressibility (1/GPa) = 0.03248513
#
# Stress axis : x y z
#
# Youngs Moduli (GPa) = 89.65024 92.55263 135.88771
#
# Poissons Ratio (x) = -0.12838 0.02213
# Poissons Ratio (y) = -0.12435 -0.04881
# Poissons Ratio (z) = 0.01460 -0.03325
#
# Static dielectric constant tensor:
#      x y z
#    x 2.072760 0.000000 0.000000 
#    y 0.000000 2.226300 0.000000 
#    z 0.000000 0.000000 2.019280 
# 
# From -- ./inp_files/1367.got.cif
#   From: 2010.05.17/outbox.cif.g08.bks.cpg/sg36_1_cif.got.tgz:1367.got - 2010.06.03 17:41:39.
