data_PCOD9353102
_publ_section_title
;
Structure prediction by ZEFSAII (Michael W. Deem and Ramdas Pophale) SiO2 
 PCOD9353102
Probable space group: C M C 21
;
_chemical_formula_sum "Si O2"
_cell_formula_units_Z 40
_cell_length_a 15.560580
_cell_length_b 13.949999
_cell_length_c 7.961191
_cell_angle_alpha 90.000000
_cell_angle_beta 90.000000
_cell_angle_gamma 90.000000
_cell_volume 1728.136331
_symmetry_space_group_name_H-M "C M C 21"
_symmetry_group_IT_number 36
_symmetry_cell_setting 'orthorhombic'
loop_
_space_group_symop_operation_xyz
x,y,z
-x,-y,1/2+z
x,-y,1/2+z
-x,y,z
1/2+x,1/2+y,z
1/2-x,1/2-y,1/2+z
1/2+x,1/2-y,1/2+z
1/2-x,1/2+y,z
loop_
_atom_site_type_symbol
_atom_site_label
_atom_site_fract_x
_atom_site_fract_y
_atom_site_fract_z
Si Si1 0.805438 0.202480 0.135070
Si Si2 0.094633 0.383920 0.189831
Si Si3 0.097192 0.891893 0.320310
Si Si4 0.329076 0.575131 0.455333
Si Si5 0.666045 0.934854 0.525947
O O1 0.828830 0.313857 0.132318
O O2 0.828865 0.159373 0.317984
O O3 0.712320 0.155074 0.112107
O O4 0.857970 0.164306 0.973111
O O5 0.105393 0.390168 0.387440
O O6 0.111240 0.492236 0.134296
O O7 0.000000 0.350019 0.137683
O O8 0.000000 0.859028 0.294335
O O9 0.099818 0.001160 0.386434
O O10 0.147771 0.892602 0.143493
O O11 0.243255 0.505973 0.456383
#
# Coordination Sequence:
#
# PCOD9353102 Si02
#       5
#     8   8   8   8   8
#     4  11  25  45  73 105 146 190 252 303 358 439
#     4  12  27  47  76 110 147 190 245 312 367 427
#     4  11  21  36  65 104 148 191 238 301 369 427
#     4  11  21  41  67  99 141 197 242 289 363 441
#     4  11  23  49  72 100 146 194 241 295 370 438
#
# _framework density 23.146319999999999
#
# number of rings (size 3 to 8) (size 9 to 14) (size 15 to 20)
#    0.000    0.800    6.000    3.000    2.800    2.400 
#    3.600    0.000    0.000    0.000    0.000    0.000 
#    0.000    0.000    0.000    0.000    0.000    0.000 
#
# Total GULP energy -111683.436573 kJ/mol
# GULP energy per Si atom -5584.171829 kJ/mol
# Density = 2.309364 g / cm^3
# Si number density = 23.146320 Si / 1000 Ang^3
#
#
#
# Elastic Constant Matrix: (Units=GPa)
#
#
# Indices 1 2 3 4 5 6 
#
# 1 80.3149 24.8475 32.8910 0.0000 0.0000 0.0000
# 2 24.8475 92.8926 14.3017 0.0000 0.0000 0.0000
# 3 32.8910 14.3017 119.4068 0.0000 0.0000 0.0000
# 4 0.0000 0.0000 0.0000 17.9215 0.0000 0.0000
# 5 0.0000 0.0000 0.0000 0.0000 17.7428 0.0000
# 6 0.0000 0.0000 0.0000 0.0000 0.0000 10.3890
#
#
#
# Elastic Compliance Matrix: (Units=1/GPa)
#
#
# Indices 1 2 3 4 5 6 
#
# 1 0.015047 -0.003450 -0.003731 0.000000 0.000000 0.000000
# 2 -0.003450 0.011759 -0.000458 0.000000 0.000000 0.000000
# 3 -0.003731 -0.000458 0.009457 0.000000 0.000000 0.000000
# 4 0.000000 0.000000 0.000000 0.055799 0.000000 0.000000
# 5 0.000000 0.000000 0.000000 0.000000 0.056361 0.000000
# 6 0.000000 0.000000 0.000000 0.000000 0.000000 0.096255
#
#
# Mechanical properties :
#
#
# Convention : Reuss Voigt Hill
#
# Bulk Modulus (GPa) = 47.65704 48.52162 48.08933
# Shear Modulus (GPa) = 18.73002 23.91560 21.32281
#
# Velocity S-wave (km/s) = 2.84773 3.21789 3.03845
# Velocity P-wave (km/s) = 5.60776 5.90041 5.75595
#
# Compressibility (1/GPa) = 0.02098326
#
# Stress axis : x y z
#
# Youngs Moduli (GPa) = 66.46063 85.04475 105.73725
#
# Poissons Ratio (x) = 0.29343 0.39454
# Poissons Ratio (y) = 0.22931 0.04842
# Poissons Ratio (z) = 0.24799 0.03895
#
# Static dielectric constant tensor:
#      x y z
#    x 1.924760 0.000000 0.000000 
#    y 0.000000 1.877200 0.000000 
#    z 0.000000 0.000000 1.906460 
# 
# From -- ./inp_files/3811.got.cif
#   From: 2010.05.17/outbox.cif.g08.bks.cpg/sg36_2_cif.got.tgz:3811.got - 2010.06.03 17:41:39.
