data_PCOD9353231
_publ_section_title
;
Structure prediction by ZEFSAII (Michael W. Deem and Ramdas Pophale) SiO2 
 PCOD9353231
Probable space group: C M C 21
;
_chemical_formula_sum "Si O2"
_cell_formula_units_Z 44
_cell_length_a 12.223284
_cell_length_b 13.705254
_cell_length_c 12.659969
_cell_angle_alpha 90.000000
_cell_angle_beta 90.000000
_cell_angle_gamma 90.000000
_cell_volume 2120.838670
_symmetry_space_group_name_H-M "C M C 21"
_symmetry_group_IT_number 36
_symmetry_cell_setting 'orthorhombic'
loop_
_space_group_symop_operation_xyz
x,y,z
-x,-y,1/2+z
x,-y,1/2+z
-x,y,z
1/2+x,1/2+y,z
1/2-x,1/2-y,1/2+z
1/2+x,1/2-y,1/2+z
1/2-x,1/2+y,z
loop_
_atom_site_type_symbol
_atom_site_label
_atom_site_fract_x
_atom_site_fract_y
_atom_site_fract_z
Si Si1 0.181438 0.619886 0.795090
Si Si2 0.249283 0.762556 0.624147
Si Si3 0.628479 0.604679 0.953824
Si Si4 0.817912 0.119697 0.453305
Si Si5 0.500000 0.750227 0.374745
Si Si6 0.871493 0.395452 0.793468
O O1 0.175494 0.690782 0.694912
O O2 0.300942 0.624424 0.848079
O O3 0.151221 0.509281 0.768172
O O4 0.095355 0.664603 0.876680
O O5 0.177358 0.828951 0.546748
O O6 0.322689 0.689893 0.554093
O O7 0.321721 0.829315 0.700774
O O8 0.500000 0.621132 0.939547
O O9 0.651706 0.491023 0.979490
O O10 0.698799 0.124170 0.399433
O O11 0.904625 0.165133 0.372823
O O12 0.000000 0.378537 0.807205
#
# Coordination Sequence:
#
# PCOD9353231 Si02
#       6
#     8   8   8   8   4   8
#     4  11  25  45  66  97 131 178 217 267 340 388
#     4  12  24  42  64 100 130 170 220 268 336 384
#     4  11  25  44  68  97 133 172 225 274 320 399
#     4  11  25  45  66  97 131 178 217 267 340 388
#     4  12  20  48  66  88 136 180 206 268 332 404
#     4  11  25  44  68  97 133 172 225 274 320 399
#
# _framework density 20.746509
#
# number of rings (size 3 to 8) (size 9 to 14) (size 15 to 20)
#    0.000    0.727    5.455    1.091    2.545    2.909 
#    0.000    3.636    0.000    0.000    0.000    0.000 
#    0.000    0.000    0.000    0.000    0.000    0.000 
#
# Total GULP energy -122474.756466 kJ/mol
# GULP energy per Si atom -5567.034385 kJ/mol
# Density = 2.069929 g / cm^3
# Si number density = 20.746509 Si / 1000 Ang^3
#
#
#
# Elastic Constant Matrix: (Units=GPa)
#
#
# Indices 1 2 3 4 5 6 
#
# 1 135.1777 16.7057 7.2894 0.0000 0.0000 0.0000
# 2 16.7057 147.9123 30.5259 0.0000 0.0000 0.0000
# 3 7.2894 30.5259 44.7180 0.0000 0.0000 0.0000
# 4 0.0000 0.0000 0.0000 41.7912 0.0000 0.0000
# 5 0.0000 0.0000 0.0000 0.0000 0.2129 0.0000
# 6 0.0000 0.0000 0.0000 0.0000 0.0000 24.7000
#
#
#
# Elastic Compliance Matrix: (Units=1/GPa)
#
#
# Indices 1 2 3 4 5 6 
#
# 1 0.007524 -0.000695 -0.000752 0.000000 0.000000 0.000000
# 2 -0.000695 0.007934 -0.005302 0.000000 0.000000 0.000000
# 3 -0.000752 -0.005302 0.026105 0.000000 0.000000 0.000000
# 4 0.000000 0.000000 0.000000 0.023929 0.000000 0.000000
# 5 0.000000 0.000000 0.000000 0.000000 4.697168 0.000000
# 6 0.000000 0.000000 0.000000 0.000000 0.000000 0.040486
#
#
# Mechanical properties :
#
#
# Convention : Reuss Voigt Hill
#
# Bulk Modulus (GPa) = 35.63345 48.53889 42.08617
# Shear Modulus (GPa) = 1.03606 31.55995 16.29800
#
# Velocity S-wave (km/s) = 0.70744 3.90451 2.80586
# Velocity P-wave (km/s) = 4.22850 6.61618 5.55221
#
# Compressibility (1/GPa) = 0.02806352
#
# Stress axis : x y z
#
# Youngs Moduli (GPa) = 132.90674 126.04749 38.30734
#
# Poissons Ratio (x) = 0.08754 0.02882
# Poissons Ratio (y) = 0.09231 0.20312
# Poissons Ratio (z) = 0.10000 0.66836
#
# Static dielectric constant tensor:
#      x y z
#    x 1.724150 0.000000 0.000000 
#    y 0.000000 1.750380 0.000000 
#    z 0.000000 0.000000 2.465060 
# 
# From -- ./inp_files/11471.got.cif
#   From: 2010.05.17/outbox.cif.g08.bks.cpg/sg36_6_cif.got.tgz:11471.got - 2010.06.03 17:41:39.
