data_PCOD9353138
_publ_section_title
;
Structure prediction by ZEFSAII (Michael W. Deem and Ramdas Pophale) SiO2 
 PCOD9353138
Probable space group: C M C 21
;
_chemical_formula_sum "Si O2"
_cell_formula_units_Z 64
_cell_length_a 18.502537
_cell_length_b 12.366535
_cell_length_c 13.325374
_cell_angle_alpha 90.000000
_cell_angle_beta 90.000000
_cell_angle_gamma 90.000000
_cell_volume 3049.009092
_symmetry_space_group_name_H-M "C M C 21"
_symmetry_group_IT_number 36
_symmetry_cell_setting 'orthorhombic'
loop_
_space_group_symop_operation_xyz
x,y,z
-x,-y,1/2+z
x,-y,1/2+z
-x,y,z
1/2+x,1/2+y,z
1/2-x,1/2-y,1/2+z
1/2+x,1/2-y,1/2+z
1/2-x,1/2+y,z
loop_
_atom_site_type_symbol
_atom_site_label
_atom_site_fract_x
_atom_site_fract_y
_atom_site_fract_z
Si Si1 0.168832 0.879976 0.298830
Si Si2 0.808502 0.624487 0.650270
Si Si3 0.415989 0.928863 0.620424
Si Si4 0.803514 0.661433 0.411268
Si Si5 0.421303 0.759704 0.259029
Si Si6 0.919703 0.480473 0.385865
Si Si7 0.854583 0.102422 0.403190
Si Si8 0.414798 0.320505 0.114592
O O1 0.240733 0.883684 0.226627
O O2 0.167287 0.773695 0.368093
O O3 0.278668 0.657492 0.375125
O O4 0.105499 0.881221 0.216310
O O5 0.859507 0.517678 0.659633
O O6 0.795142 0.642067 0.531562
O O7 0.857134 0.727091 0.681202
O O8 0.500000 0.944404 0.654051
O O9 0.392801 0.804764 0.634631
O O10 0.416768 0.947669 0.501745
O O11 0.856287 0.566958 0.371323
O O12 0.840533 0.979282 0.374292
O O13 0.500000 0.761585 0.209981
O O14 0.412727 0.657976 0.330953
O O15 0.414453 0.867654 0.327241
O O16 0.000000 0.527929 0.368305
O O17 0.875923 0.129002 0.517491
O O18 0.500000 0.319562 0.094632
#
# Coordination Sequence:
#
# PCOD9353138 Si02
#       8
#     8   8   8   8   8   8   8   8
#     4  12  28  45  68 105 138 185 235 283 350 423
#     4  11  23  42  68 104 140 176 223 293 351 413
#     4   9  19  38  69 101 132 169 218 280 347 407
#     4  11  25  45  68 100 141 178 224 289 350 411
#     4  11  22  40  69 103 135 178 229 278 341 413
#     4   9  19  38  66  99 132 171 220 281 342 400
#     4  12  25  45  68  98 140 188 234 282 342 423
#     4  11  25  47  70  98 136 187 237 286 347 420
#
# _framework density 20.990427
#
# number of rings (size 3 to 8) (size 9 to 14) (size 15 to 20)
#    0.000    1.250    3.750    1.500    3.500    3.000 
#    0.000    0.000    0.000    0.000    0.000    0.000 
#    0.000    0.000    0.000    0.000    0.000    0.000 
#
# Total GULP energy -178658.355684 kJ/mol
# GULP energy per Si atom -5583.073615 kJ/mol
# Density = 2.094265 g / cm^3
# Si number density = 20.990427 Si / 1000 Ang^3
#
#
#
# Elastic Constant Matrix: (Units=GPa)
#
#
# Indices 1 2 3 4 5 6 
#
# 1 64.0699 5.9072 1.4862 0.0000 0.0000 0.0000
# 2 5.9072 55.2456 18.0479 0.0000 0.0000 0.0000
# 3 1.4862 18.0479 60.9639 0.0000 0.0000 0.0000
# 4 0.0000 0.0000 0.0000 25.8910 0.0000 0.0000
# 5 0.0000 0.0000 0.0000 0.0000 -38.2755 0.0000
# 6 0.0000 0.0000 0.0000 0.0000 0.0000 22.7031
#
#
#
# Elastic Compliance Matrix: (Units=1/GPa)
#
#
# Indices 1 2 3 4 5 6 
#
# 1 0.015764 -0.001727 0.000127 0.000000 0.000000 0.000000
# 2 -0.001727 0.020228 -0.005946 0.000000 0.000000 0.000000
# 3 0.000127 -0.005946 0.018160 0.000000 0.000000 0.000000
# 4 0.000000 0.000000 0.000000 0.038623 0.000000 0.000000
# 5 0.000000 0.000000 0.000000 0.000000 -0.026126 0.000000
# 6 0.000000 0.000000 0.000000 0.000000 0.000000 0.044047
#
#
# Mechanical properties :
#
#
# Convention : Reuss Voigt Hill
#
# Bulk Modulus (GPa) = 25.60160 25.68466 25.64313
# Shear Modulus (GPa) = 36.02056 12.38626 24.20341
#
# Velocity S-wave (km/s) = 4.14701 2.43181 3.39937
# Velocity P-wave (km/s) = 5.92904 4.48864 5.25840
#
# Compressibility (1/GPa) = 0.03906006
#
# Stress axis : x y z
#
# Youngs Moduli (GPa) = 63.43468 49.43583 55.06484
#
# Poissons Ratio (x) = 0.08538 -0.00699
# Poissons Ratio (y) = 0.10956 0.32743
# Poissons Ratio (z) = -0.00805 0.29396
#
# Static dielectric constant tensor:
#      x y z
#    x 1.776820 0.000000 0.000000 
#    y 0.000000 1.738260 0.000000 
#    z 0.000000 0.000000 1.757000 
# 
# From -- ./inp_files/12692.got.cif
#   From: 2010.05.17/outbox.cif.g08.bks.cpg/sg36_7_cif.got.tgz:12692.got - 2010.06.03 17:41:39.
