data_PCOD9353248
_publ_section_title
;
Structure prediction by ZEFSAII (Michael W. Deem and Ramdas Pophale) SiO2 
 PCOD9353248
Probable space group: C M C 21
;
_chemical_formula_sum "Si O2"
_cell_formula_units_Z 40
_cell_length_a 14.909461
_cell_length_b 11.504398
_cell_length_c 9.808717
_cell_angle_alpha 90.000000
_cell_angle_beta 90.000000
_cell_angle_gamma 90.000000
_cell_volume 1682.434036
_symmetry_space_group_name_H-M "C M C 21"
_symmetry_group_IT_number 36
_symmetry_cell_setting 'orthorhombic'
loop_
_space_group_symop_operation_xyz
x,y,z
-x,-y,1/2+z
x,-y,1/2+z
-x,y,z
1/2+x,1/2+y,z
1/2-x,1/2-y,1/2+z
1/2+x,1/2-y,1/2+z
1/2-x,1/2+y,z
loop_
_atom_site_type_symbol
_atom_site_label
_atom_site_fract_x
_atom_site_fract_y
_atom_site_fract_z
Si Si1 0.651217 0.378510 0.432570
Si Si2 0.151218 0.878511 0.873645
Si Si3 0.606028 0.271026 0.153107
Si Si4 0.702696 0.045275 0.153107
Si Si5 0.901166 0.691581 0.653107
O O1 0.600890 0.500000 0.403107
O O2 0.656781 0.321194 0.284783
O O3 0.736767 0.421512 0.521298
O O4 0.608704 0.278520 0.525428
O O5 0.236768 0.921512 0.784917
O O6 0.108705 0.778520 0.780787
O O7 0.156781 0.821195 0.021432
O O8 0.500000 0.301289 0.153107
O O9 0.619555 0.133222 0.153107
O O10 0.668375 0.913996 0.153108
O O11 0.000000 0.639679 0.653107
#
# Coordination Sequence:
#
# PCOD9353248 Si02
#       5
#     8   8   8   8   8
#     4  11  27  46  75 106 148 198 250 301 369 453
#     4  11  27  46  75 106 148 198 250 301 369 453
#     4  12  26  46  73 109 152 195 251 312 376 437
#     4  11  27  45  76 107 149 201 255 305 366 451
#     4  11  26  49  76 110 153 194 246 313 377 436
#
# _framework density 23.775078000000001
#
# number of rings (size 3 to 8) (size 9 to 14) (size 15 to 20)
#    0.000    0.800    0.000    5.400   16.800    4.800 
#    0.000    4.000    0.000    0.000    0.000    2.800 
#    0.000    0.000    0.000    0.000    0.000    0.000 
#
# Total GULP energy -111828.325945 kJ/mol
# GULP energy per Si atom -5591.416297 kJ/mol
# Density = 2.372096 g / cm^3
# Si number density = 23.775078 Si / 1000 Ang^3
#
#
#
# Elastic Constant Matrix: (Units=GPa)
#
#
# Indices 1 2 3 4 5 6 
#
# 1 149.2683 63.6931 53.3914 0.0000 0.0000 0.0000
# 2 63.6931 185.7593 64.7578 0.0000 0.0000 0.0000
# 3 53.3914 64.7578 232.9245 0.0000 0.0000 0.0000
# 4 0.0000 0.0000 0.0000 -66.0851 0.0000 0.0000
# 5 0.0000 0.0000 0.0000 0.0000 -41.0016 0.0000
# 6 0.0000 0.0000 0.0000 0.0000 0.0000 162.7510
#
#
#
# Elastic Compliance Matrix: (Units=1/GPa)
#
#
# Indices 1 2 3 4 5 6 
#
# 1 0.008143 -0.002371 -0.001207 0.000000 0.000000 0.000000
# 2 -0.002371 0.006652 -0.001306 0.000000 0.000000 0.000000
# 3 -0.001207 -0.001306 0.004933 0.000000 0.000000 0.000000
# 4 0.000000 0.000000 0.000000 -0.015132 0.000000 0.000000
# 5 0.000000 0.000000 0.000000 0.000000 -0.024389 0.000000
# 6 0.000000 0.000000 0.000000 0.000000 0.000000 0.006144
#
#
# Mechanical properties :
#
#
# Convention : Reuss Voigt Hill
#
# Bulk Modulus (GPa) = 100.41116 103.51520 101.96318
# Shear Modulus (GPa) = -8908.40682 36.87349 -4435.76667
#
# Velocity S-wave (km/s) = -61.27876 3.94246 -43.24085
# Velocity P-wave (km/s) = 70.45889 8.02234 49.49797
#
# Compressibility (1/GPa) = 0.00995905
#
# Stress axis : x y z
#
# Youngs Moduli (GPa) = 122.80529 150.34118 202.71630
#
# Poissons Ratio (x) = 0.35649 0.24474
# Poissons Ratio (y) = 0.29119 0.26469
# Poissons Ratio (z) = 0.14826 0.19631
#
# Static dielectric constant tensor:
#      x y z
#    x 1.904170 0.000000 0.000000 
#    y 0.000000 1.907740 0.000000 
#    z 0.000000 0.000000 1.897550 
# 
# From -- ./inp_files/4527.got.cif
#   From: 2010.05.17/outbox.cif.g08.bks.cpg/sg36_3_cif.got.tgz:4527.got - 2010.06.03 17:41:39.
