data_PCOD9353281
_publ_section_title
;
Structure prediction by ZEFSAII (Michael W. Deem and Ramdas Pophale) SiO2 
 PCOD9353281
Probable space group: C M C 21
;
_chemical_formula_sum "Si O2"
_cell_formula_units_Z 64
_cell_length_a 7.255570
_cell_length_b 26.445823
_cell_length_c 13.017828
_cell_angle_alpha 90.000000
_cell_angle_beta 90.000000
_cell_angle_gamma 90.000000
_cell_volume 2497.854588
_symmetry_space_group_name_H-M "C M C 21"
_symmetry_group_IT_number 36
_symmetry_cell_setting 'orthorhombic'
loop_
_space_group_symop_operation_xyz
x,y,z
-x,-y,1/2+z
x,-y,1/2+z
-x,y,z
1/2+x,1/2+y,z
1/2-x,1/2-y,1/2+z
1/2+x,1/2-y,1/2+z
1/2-x,1/2+y,z
loop_
_atom_site_type_symbol
_atom_site_label
_atom_site_fract_x
_atom_site_fract_y
_atom_site_fract_z
Si Si1 0.776751 0.707860 0.171860
Si Si2 0.789225 0.179861 0.625453
Si Si3 0.725096 0.572157 0.615963
Si Si4 0.223729 0.960364 0.893431
Si Si5 0.276751 0.792140 0.897104
Si Si6 0.289225 0.320139 0.443511
Si Si7 0.725096 0.427843 0.452999
Si Si8 0.223729 0.960364 0.675531
O O1 0.712108 0.766393 0.160829
O O2 0.720809 0.688613 0.284482
O O3 0.711769 0.680886 0.068318
O O4 0.000000 0.707361 0.167450
O O5 0.709921 0.125925 0.657733
O O6 0.788232 0.180886 0.500646
O O7 0.000000 0.180642 0.661054
O O8 0.500000 0.573449 0.618745
O O9 0.783943 0.566325 0.497243
O O10 0.777126 0.519511 0.668130
O O11 0.000000 0.959235 0.895401
O O12 0.285393 0.938964 0.784481
O O13 0.277127 0.019511 0.900833
O O14 0.500000 0.792639 0.901514
O O15 0.212108 0.733607 0.908135
O O16 0.500000 0.319358 0.407911
O O17 0.209921 0.374075 0.411230
O O18 0.500000 0.426552 0.450217
O O19 0.783943 0.433675 0.571719
O O20 0.000000 0.959235 0.673562
#
# Coordination Sequence:
#
# PCOD9353281 Si02
#       8
#     8   8   8   8   8   8   8   8
#     4   9  18  31  44  60  85 114 142 174 212 251
#     4   9  17  29  45  64  85 110 142 177 209 245
#     4   8  14  23  35  55  81 106 133 164 200 243
#     4   8  13  21  33  52  81 110 131 159 202 245
#     4   9  18  31  44  60  85 114 142 174 212 251
#     4   9  17  29  45  64  85 110 142 177 209 245
#     4   8  14  23  35  55  81 106 133 164 200 243
#     4   8  13  21  33  52  81 110 131 159 202 245
#
# _framework density 25.621988000000002
#
# number of rings (size 3 to 8) (size 9 to 14) (size 15 to 20)
#    0.000    3.500    0.000    1.500    0.000    2.500 
#    0.000    7.500    0.000    0.000    0.000    3.500 
#    0.000    2.000    0.000    0.000    0.000    0.000 
#
# Total GULP energy -178743.558851 kJ/mol
# GULP energy per Si atom -5585.736214 kJ/mol
# Density = 2.556367 g / cm^3
# Si number density = 25.621988 Si / 1000 Ang^3
#
#
#
# Elastic Constant Matrix: (Units=GPa)
#
#
# Indices 1 2 3 4 5 6 
#
# 1 123.0821 -3.6428 -3.9438 0.0000 0.0000 0.0000
# 2 -3.6428 123.0090 -8.9302 0.0000 0.0000 0.0000
# 3 -3.9438 -8.9302 147.2877 0.0000 0.0000 0.0000
# 4 0.0000 0.0000 0.0000 -21.8313 0.0000 0.0000
# 5 0.0000 0.0000 0.0000 0.0000 -5.0757 0.0000
# 6 0.0000 0.0000 0.0000 0.0000 0.0000 -9.7979
#
#
#
# Elastic Compliance Matrix: (Units=1/GPa)
#
#
# Indices 1 2 3 4 5 6 
#
# 1 0.008140 0.000258 0.000234 0.000000 0.000000 0.000000
# 2 0.000258 0.008174 0.000502 0.000000 0.000000 0.000000
# 3 0.000234 0.000502 0.006826 0.000000 0.000000 0.000000
# 4 0.000000 0.000000 0.000000 -0.045806 0.000000 0.000000
# 5 0.000000 0.000000 0.000000 0.000000 -0.197017 0.000000
# 6 0.000000 0.000000 0.000000 0.000000 0.000000 -0.102063
#
#
# Mechanical properties :
#
#
# Convention : Reuss Voigt Hill
#
# Bulk Modulus (GPa) = 39.79667 40.03833 39.91750
# Shear Modulus (GPa) = -15.85498 19.98539 2.06521
#
# Velocity S-wave (km/s) = -2.49027 2.79589 0.89876
# Velocity P-wave (km/s) = 2.70136 5.10717 4.08537
#
# Compressibility (1/GPa) = 0.02512773
#
# Stress axis : x y z
#
# Youngs Moduli (GPa) = 122.85340 122.34501 146.49538
#
# Poissons Ratio (x) = -0.03157 -0.03422
# Poissons Ratio (y) = -0.03170 -0.07361
# Poissons Ratio (z) = -0.02870 -0.06148
#
# Static dielectric constant tensor:
#      x y z
#    x 2.011390 0.000000 0.000000 
#    y 0.000000 1.975850 0.000000 
#    z 0.000000 0.000000 1.982430 
# 
# From -- ./inp_files/11188.got.cif
#   From: 2010.05.17/outbox.cif.g08.bks.cpg/sg36_6_cif.got.tgz:11188.got - 2010.06.03 17:41:39.
