data_PCOD9353305
_publ_section_title
;
Structure prediction by ZEFSAII (Michael W. Deem and Ramdas Pophale) SiO2 
 PCOD9353305
Probable space group: C M C 21
;
_chemical_formula_sum "Si O2"
_cell_formula_units_Z 24
_cell_length_a 9.000000
_cell_length_b 30.000000
_cell_length_c 9.000000
_cell_angle_alpha 90.000000
_cell_angle_beta 90.000000
_cell_angle_gamma 90.000000
_cell_volume 2430.000000
_symmetry_space_group_name_H-M "C M C 21"
_symmetry_group_IT_number 36
_symmetry_cell_setting 'orthorhombic'
loop_
_space_group_symop_operation_xyz
x,y,z
-x,-y,1/2+z
x,-y,1/2+z
-x,y,z
1/2+x,1/2+y,z
1/2-x,1/2-y,1/2+z
1/2+x,1/2-y,1/2+z
1/2-x,1/2+y,z
loop_
_atom_site_type_symbol
_atom_site_label
_atom_site_fract_x
_atom_site_fract_y
_atom_site_fract_z
Si Si1 0.679803 0.144616 0.501910
Si Si2 0.818764 0.473420 0.500957
Si Si3 0.680900 0.941740 0.176744
Si Si4 0.323995 0.721831 0.678412
Si Si5 0.677210 0.193680 0.986806
Si Si6 0.319272 0.888636 0.676753
O O1 0.500000 0.148977 0.501163
O O2 0.722721 0.107276 0.623384
O O3 0.752301 0.190185 0.553896
O O4 0.727608 0.127715 0.339190
O O5 0.772313 0.522244 0.553275
O O6 0.768109 0.457140 0.339296
O O7 0.774403 0.437849 0.626779
O O8 0.000000 0.473758 0.495724
O O9 0.500000 0.942135 0.180241
O O10 0.500000 0.714880 0.684641
O O11 0.297370 0.771983 0.622025
O O12 0.254675 0.710108 0.837377
O O13 0.500000 0.191984 0.957781
O O14 0.725984 0.145695 0.047603
O O15 0.500000 0.888197 0.680358
#
# Coordination Sequence:
#
# PCOD9353305 Si02
#       6
#     8   8   8   8   8   8
#     4  10  19  33  53  76 105 141 176 212 259 309
#     4   9  15  24  40  69 105 134 169 217 264 307
#     4   9  16  25  42  70 104 139 172 213 262 307
#     4  11  23  37  55  80 107 136 172 213 256 306
#     4  10  21  37  55  76 104 137 172 213 261 309
#     4   9  17  30  50  75 103 135 173 218 264 310
#
# _framework density 9.8765429999999999
#
# number of rings (size 3 to 8) (size 9 to 14) (size 15 to 20)
#    0.000    2.333    0.000    3.500    0.000    9.333 
#    0.000    0.833    0.000    0.000    0.000   10.500 
#    0.000    0.000    0.000    0.000    0.000    0.000 
#
# Total GULP energy -133949.535868 kJ/mol
# GULP energy per Si atom -5581.230661 kJ/mol
# Density = 0.985406 g / cm^3
# Si number density = 9.876543 Si / 1000 Ang^3
#
#
#
# Elastic Constant Matrix: (Units=GPa)
#
#
# Indices 1 2 3 4 5 6 
#
# 1 1.4191 9.5467 2.8467 0.0000 0.0000 0.0000
# 2 9.5467 51.8295 -27.1690 0.0000 0.0000 0.0000
# 3 2.8467 -27.1690 55.6153 0.0000 0.0000 0.0000
# 4 0.0000 0.0000 0.0000 29.1502 0.0000 0.0000
# 5 0.0000 0.0000 0.0000 0.0000 19.3086 0.0000
# 6 0.0000 0.0000 0.0000 0.0000 0.0000 7.3823
#
#
#
# Elastic Compliance Matrix: (Units=1/GPa)
#
#
# Indices 1 2 3 4 5 6 
#
# 1 -0.546698 0.155080 0.103743 0.000000 0.000000 0.000000
# 2 0.155080 -0.018055 -0.016758 0.000000 0.000000 0.000000
# 3 0.103743 -0.016758 0.004484 0.000000 0.000000 0.000000
# 4 0.000000 0.000000 0.000000 0.034305 0.000000 0.000000
# 5 0.000000 0.000000 0.000000 0.000000 0.051790 0.000000
# 6 0.000000 0.000000 0.000000 0.000000 0.000000 0.135459
#
#
# Mechanical properties :
#
#
# Convention : Reuss Voigt Hill
#
# Bulk Modulus (GPa) = -13.13354 8.81252 -2.16051
# Shear Modulus (GPa) = -5.89467 19.41087 6.75810
#
# Velocity S-wave (km/s) = -1.72935 3.13817 1.85168
# Velocity P-wave (km/s) = 3.26356 4.19545 1.86427
#
# Compressibility (1/GPa) = -0.07614092
#
# Stress axis : x y z
#
# Youngs Moduli (GPa) = -1.82916 -55.38502 223.03067
#
# Poissons Ratio (x) = 8.58911 -23.13782
# Poissons Ratio (y) = 0.28367 3.73763
# Poissons Ratio (z) = 0.18976 -0.92816
#
# Static dielectric constant tensor:
#      x y z
#    x 1.657340 0.000000 0.000000 
#    y 0.000000 1.688490 0.000000 
#    z 0.000000 0.000000 1.686050 
# 
# From -- ./inp_files/2646.got.cif
#   From: 2010.05.17/outbox.ucp.g08.bks.cvg/sg36_2_cif.got.tgz:2646.got - 2010.06.11 10:37:26.
