data_PCOD9353157
_publ_section_title
;
Structure prediction by ZEFSAII (Michael W. Deem and Ramdas Pophale) SiO2 
 PCOD9353157
Probable space group: C M C 21
;
_chemical_formula_sum "Si O2"
_cell_formula_units_Z 40
_cell_length_a 7.861541
_cell_length_b 27.636442
_cell_length_c 8.247763
_cell_angle_alpha 90.000000
_cell_angle_beta 90.000000
_cell_angle_gamma 90.000000
_cell_volume 1791.950409
_symmetry_space_group_name_H-M "C M C 21"
_symmetry_group_IT_number 36
_symmetry_cell_setting 'orthorhombic'
loop_
_space_group_symop_operation_xyz
x,y,z
-x,-y,1/2+z
x,-y,1/2+z
-x,y,z
1/2+x,1/2+y,z
1/2-x,1/2-y,1/2+z
1/2+x,1/2-y,1/2+z
1/2-x,1/2+y,z
loop_
_atom_site_type_symbol
_atom_site_label
_atom_site_fract_x
_atom_site_fract_y
_atom_site_fract_z
Si Si1 0.300784 0.821216 0.274500
Si Si2 0.704679 0.225320 0.114937
Si Si3 0.190185 0.915262 0.101506
Si Si4 0.500000 0.926651 0.597411
Si Si5 0.305277 0.629116 0.244791
Si Si6 0.000000 0.473205 0.242759
O O1 0.500000 0.833928 0.287490
O O2 0.242795 0.797683 0.443256
O O3 0.277540 0.778139 0.145896
O O4 0.204702 0.869009 0.219710
O O5 0.500000 0.227820 0.120378
O O6 0.771599 0.186588 0.245905
O O7 0.333388 0.952913 0.152685
O O8 0.000000 0.935913 0.108735
O O9 0.219895 0.894144 0.921581
O O10 0.333752 0.894089 0.625697
O O11 0.500000 0.952378 0.424007
O O12 0.500000 0.969193 0.730562
O O13 0.500000 0.620174 0.195169
#
# Coordination Sequence:
#
# PCOD9353157 Si02
#       6
#     8   8   8   4   8   4
#     4  11  23  38  59  91 130 175 223 271 326 388
#     4  11  23  38  59  91 130 175 223 271 326 388
#     4  11  24  43  68  98 133 173 219 272 330 393
#     4  12  26  46  72 100 132 174 220 274 335 394
#     4  11  24  43  68  98 133 173 219 272 330 393
#     4  12  26  46  72 100 132 174 220 274 335 394
#
# _framework density 22.322046
#
# number of rings (size 3 to 8) (size 9 to 14) (size 15 to 20)
#    0.000    0.800    2.000    5.400    0.000   11.200 
#    0.000    0.000    0.000    0.000    0.000    0.000 
#    0.000    0.000    0.000    0.000    0.000    0.000 
#
# Total GULP energy -112058.544223 kJ/mol
# GULP energy per Si atom -5602.927211 kJ/mol
# Density = 2.227124 g / cm^3
# Si number density = 22.322046 Si / 1000 Ang^3
#
#
#
# Elastic Constant Matrix: (Units=GPa)
#
#
# Indices 1 2 3 4 5 6 
#
# 1 86.0762 10.5982 21.3246 0.0000 0.0000 0.0000
# 2 10.5982 74.5576 -14.3528 0.0000 0.0000 0.0000
# 3 21.3246 -14.3528 63.2075 0.0000 0.0000 0.0000
# 4 0.0000 0.0000 0.0000 38.0750 0.0000 0.0000
# 5 0.0000 0.0000 0.0000 0.0000 -0.7519 0.0000
# 6 0.0000 0.0000 0.0000 0.0000 0.0000 -6.3170
#
#
#
# Elastic Compliance Matrix: (Units=1/GPa)
#
#
# Indices 1 2 3 4 5 6 
#
# 1 0.013238 -0.002867 -0.005117 0.000000 0.000000 0.000000
# 2 -0.002867 0.014646 0.004293 0.000000 0.000000 0.000000
# 3 -0.005117 0.004293 0.018522 0.000000 0.000000 0.000000
# 4 0.000000 0.000000 0.000000 0.026264 0.000000 0.000000
# 5 0.000000 0.000000 0.000000 0.000000 -1.330027 0.000000
# 6 0.000000 0.000000 0.000000 0.000000 0.000000 -0.158302
#
#
# Mechanical properties :
#
#
# Convention : Reuss Voigt Hill
#
# Bulk Modulus (GPa) = 25.62484 28.77570 27.20027
# Shear Modulus (GPa) = -3.58354 19.95264 8.18455
#
# Velocity S-wave (km/s) = -1.26841 2.99298 1.91691
# Velocity P-wave (km/s) = 3.05931 4.98629 4.13657
#
# Compressibility (1/GPa) = 0.03902464
#
# Stress axis : x y z
#
# Youngs Moduli (GPa) = 75.53803 68.27616 53.98934
#
# Poissons Ratio (x) = 0.19574 0.27628
# Poissons Ratio (y) = 0.21656 -0.23178
# Poissons Ratio (z) = 0.38655 -0.29311
#
# Static dielectric constant tensor:
#      x y z
#    x 1.804400 0.000000 0.000000 
#    y 0.000000 1.764250 0.000000 
#    z 0.000000 0.000000 1.858170 
# 
# From -- ./inp_files/2541.got.cif
#   From: 2010.05.17/outbox.cif.g08.bks.cpg/sg36_2_cif.got.tgz:2541.got - 2010.06.03 17:41:39.
