data_PCOD9353473
_publ_section_title
;
Structure prediction by ZEFSAII (Michael W. Deem and Ramdas Pophale) SiO2 
 PCOD9353473
Probable space group: C C C 2
;
_chemical_formula_sum "Si O2"
_cell_formula_units_Z 48
_cell_length_a 14.855919
_cell_length_b 26.257974
_cell_length_c 5.411289
_cell_angle_alpha 90.000000
_cell_angle_beta 90.000000
_cell_angle_gamma 90.000000
_cell_volume 2110.869893
_symmetry_space_group_name_H-M "C C C 2"
_symmetry_group_IT_number 37
_symmetry_cell_setting 'orthorhombic'
loop_
_space_group_symop_operation_xyz
x,y,z
-x,-y,z
-x,y,1/2+z
x,-y,1/2+z
1/2+x,1/2+y,z
1/2-x,1/2-y,z
1/2-x,1/2+y,1/2+z
1/2+x,1/2-y,1/2+z
loop_
_atom_site_type_symbol
_atom_site_label
_atom_site_fract_x
_atom_site_fract_y
_atom_site_fract_z
Si Si1 0.058074 0.376555 0.597500
Si Si2 0.774754 0.570653 0.536488
Si Si3 0.644632 0.231909 0.160931
Si Si4 0.148921 0.772633 0.660285
Si Si5 0.877335 0.986957 0.021729
Si Si6 0.198131 0.113537 0.053295
O O1 0.119879 0.427318 0.594965
O O2 0.124513 0.327010 0.605089
O O3 0.000335 0.374355 0.347080
O O4 0.720233 0.517360 0.497953
O O5 0.766572 0.602064 0.278499
O O6 0.731662 0.598810 0.778114
O O7 0.750000 0.250000 0.184233
O O8 0.605156 0.243234 0.431476
O O9 0.607318 0.264003 0.929469
O O10 0.250000 0.750000 0.688972
O O11 0.161088 0.830500 0.579677
O O12 0.916573 0.016846 0.250561
O O13 0.874678 0.929415 0.112835
#
# Coordination Sequence:
#
# PCOD9353473 Si02
#       6
#     8   8   8   8   8   8
#     4  12  24  37  53  75 104 138 178 221 263 304
#     4  10  18  32  48  67  94 132 174 205 248 300
#     4  10  20  34  51  73  97 126 169 214 258 311
#     4  10  17  27  46  72  95 117 157 208 259 311
#     4   8  16  27  45  66  91 126 168 207 254 292
#     4  10  17  29  50  73  95 125 168 219 262 291
#
# _framework density 22.739439999999998
#
# number of rings (size 3 to 8) (size 9 to 14) (size 15 to 20)
#    0.000    2.000    0.000    7.000    0.000    0.000 
#    0.000    0.000    0.000   27.000    0.000    0.000 
#    0.000    0.000    0.000    0.000    0.000  745.000 
#
# Total GULP energy -133606.910958 kJ/mol
# GULP energy per Si atom -5566.954623 kJ/mol
# Density = 2.268768 g / cm^3
# Si number density = 22.739440 Si / 1000 Ang^3
#
#
#
# Elastic Constant Matrix: (Units=GPa)
#
#
# Indices 1 2 3 4 5 6 
#
# 1 80.9657 10.3621 -12.4528 0.0000 0.0000 0.0000
# 2 10.3621 69.6487 -28.9195 0.0000 0.0000 0.0000
# 3 -12.4528 -28.9195 143.0061 0.0000 0.0000 0.0000
# 4 0.0000 0.0000 0.0000 31.9835 0.0000 0.0000
# 5 0.0000 0.0000 0.0000 0.0000 75.2214 0.0000
# 6 0.0000 0.0000 0.0000 0.0000 0.0000 15.9787
#
#
#
# Elastic Compliance Matrix: (Units=1/GPa)
#
#
# Indices 1 2 3 4 5 6 
#
# 1 0.012672 -0.001558 0.000788 0.000000 0.000000 0.000000
# 2 -0.001558 0.015865 0.003073 0.000000 0.000000 0.000000
# 3 0.000788 0.003073 0.007683 0.000000 0.000000 0.000000
# 4 0.000000 0.000000 0.000000 0.031266 0.000000 0.000000
# 5 0.000000 0.000000 0.000000 0.000000 0.013294 0.000000
# 6 0.000000 0.000000 0.000000 0.000000 0.000000 0.062583
#
#
# Mechanical properties :
#
#
# Convention : Reuss Voigt Hill
#
# Bulk Modulus (GPa) = 24.49411 25.73336 25.11374
# Shear Modulus (GPa) = 32.81584 46.27878 39.54731
#
# Velocity S-wave (km/s) = 3.80297 4.51619 4.17484
# Velocity P-wave (km/s) = 5.48438 6.20772 5.85723
#
# Compressibility (1/GPa) = 0.04082613
#
# Stress axis : x y z
#
# Youngs Moduli (GPa) = 78.91702 63.03026 130.16185
#
# Poissons Ratio (x) = 0.09819 -0.10262
# Poissons Ratio (y) = 0.12294 -0.39995
# Poissons Ratio (z) = -0.06222 -0.19368
#
# Static dielectric constant tensor:
#      x y z
#    x 1.862360 0.000000 0.000000 
#    y 0.000000 1.818320 0.000000 
#    z 0.000000 0.000000 1.932830 
# 
# From -- ./inp_files/588.got.cif
#   From: 2010.05.17/outbox.cif.g08.bks.cpg/sg37_1_cif.got.tgz:588.got - 2010.06.03 17:53:42.
