data_PCOD9353332
_publ_section_title
;
Structure prediction by ZEFSAII (Michael W. Deem and Ramdas Pophale) SiO2 
 PCOD9353332
Probable space group: C M C 21
;
_chemical_formula_sum "Si O2"
_cell_formula_units_Z 32
_cell_length_a 9.000000
_cell_length_b 30.000000
_cell_length_c 12.000000
_cell_angle_alpha 90.000000
_cell_angle_beta 90.000000
_cell_angle_gamma 90.000000
_cell_volume 3240.000000
_symmetry_space_group_name_H-M "C M C 21"
_symmetry_group_IT_number 36
_symmetry_cell_setting 'orthorhombic'
loop_
_space_group_symop_operation_xyz
x,y,z
-x,-y,1/2+z
x,-y,1/2+z
-x,y,z
1/2+x,1/2+y,z
1/2-x,1/2-y,1/2+z
1/2+x,1/2-y,1/2+z
1/2-x,1/2+y,z
loop_
_atom_site_type_symbol
_atom_site_label
_atom_site_fract_x
_atom_site_fract_y
_atom_site_fract_z
Si Si1 0.821535 0.982113 0.485640
Si Si2 0.822467 0.348559 0.449153
Si Si3 0.322358 0.833633 0.778285
Si Si4 0.322233 0.575276 0.565353
Si Si5 0.325679 0.924801 0.294199
Si Si6 0.174998 0.094198 0.143899
Si Si7 0.678644 0.767114 0.578135
Si Si8 0.820299 0.173736 0.510909
O O1 0.727618 0.955810 0.394846
O O2 0.797126 0.956323 0.603610
O O3 0.000000 0.978353 0.463622
O O4 0.776693 0.033659 0.489624
O O5 0.799932 0.373382 0.332794
O O6 0.724454 0.376428 0.536816
O O7 0.784793 0.296849 0.468442
O O8 0.000000 0.354145 0.476804
O O9 0.500000 0.833208 0.792683
O O10 0.268277 0.882995 0.741826
O O11 0.281071 0.798711 0.680870
O O12 0.234481 0.818961 0.886283
O O13 0.500000 0.576822 0.558516
O O14 0.271633 0.563971 0.688793
O O15 0.263212 0.624668 0.541702
O O16 0.500000 0.930468 0.272672
O O17 0.000000 0.099204 0.166946
O O18 0.500000 0.763732 0.580384
O O19 0.735525 0.716796 0.578832
O O20 0.000000 0.172525 0.516636
#
# Coordination Sequence:
#
# PCOD9353332 Si02
#       8
#     8   8   8   8   8   8   8   8
#     4   9  19  36  56  77 103 138 179 219 260 308
#     4   8  15  30  51  76 106 135 165 209 263 307
#     4  10  20  35  54  77 108 140 169 212 270 315
#     4  10  22  38  54  75 107 143 175 213 260 309
#     4  10  20  34  55  81 107 137 173 216 265 313
#     4   9  16  29  52  78 100 128 172 217 253 302
#     4   8  16  33  55  76 101 136 174 212 257 309
#     4  10  21  37  55  76 104 139 179 216 252 305
#
# _framework density 9.8765429999999999
#
# number of rings (size 3 to 8) (size 9 to 14) (size 15 to 20)
#    0.000    2.750    0.000    1.875    0.000    4.000 
#    0.000    8.125    0.000    0.000    0.000    0.000 
#    0.000    0.000    0.000    0.000    0.000    0.000 
#
# Total GULP energy -178166.292152 kJ/mol
# GULP energy per Si atom -5567.696630 kJ/mol
# Density = 0.985406 g / cm^3
# Si number density = 9.876543 Si / 1000 Ang^3
#
#
#
# Elastic Constant Matrix: (Units=GPa)
#
#
# Indices 1 2 3 4 5 6 
#
# 1 -27.5371 12.8415 -27.1284 0.0000 0.0000 0.0000
# 2 12.8415 140.3427 22.7712 0.0000 0.0000 0.0000
# 3 -27.1284 22.7712 15.6964 0.0000 0.0000 0.0000
# 4 0.0000 0.0000 0.0000 12.9615 0.0000 0.0000
# 5 0.0000 0.0000 0.0000 0.0000 17.1088 0.0000
# 6 0.0000 0.0000 0.0000 0.0000 0.0000 14.7659
#
#
#
# Elastic Compliance Matrix: (Units=1/GPa)
#
#
# Indices 1 2 3 4 5 6 
#
# 1 -0.010019 0.004873 -0.024385 0.000000 0.000000 0.000000
# 2 0.004873 0.006948 -0.001658 0.000000 0.000000 0.000000
# 3 -0.024385 -0.001658 0.023968 0.000000 0.000000 0.000000
# 4 0.000000 0.000000 0.000000 0.077151 0.000000 0.000000
# 5 0.000000 0.000000 0.000000 0.000000 0.058449 0.000000
# 6 0.000000 0.000000 0.000000 0.000000 0.000000 0.067724
#
#
# Mechanical properties :
#
#
# Convention : Reuss Voigt Hill
#
# Bulk Modulus (GPa) = -46.63887 16.16340 -15.23774
# Shear Modulus (GPa) = 19.27419 16.96843 18.12131
#
# Velocity S-wave (km/s) = 3.12710 2.93410 3.03213
# Velocity P-wave (km/s) = 3.25943 4.43611 2.12781
#
# Compressibility (1/GPa) = -0.02144134
#
# Stress axis : x y z
#
# Youngs Moduli (GPa) = -99.81369 143.91690 41.72234
#
# Poissons Ratio (x) = -0.70135 1.01741
# Poissons Ratio (y) = 0.48642 0.06916
# Poissons Ratio (z) = -2.43398 0.23856
#
# Static dielectric constant tensor:
#      x y z
#    x 1.646040 0.000000 0.000000 
#    y 0.000000 1.761790 0.000000 
#    z 0.000000 0.000000 1.757430 
# 
# From -- ./inp_files/7072.got.cif
#   From: 2010.05.17/outbox.ucp.g08.bks.cvg/sg36_4_cif.got.tgz:7072.got - 2010.06.11 10:37:26.
