data_PCOD9353262
_publ_section_title
;
Structure prediction by ZEFSAII (Michael W. Deem and Ramdas Pophale) SiO2 
 PCOD9353262
Probable space group: C M C 21
;
_chemical_formula_sum "Si O2"
_cell_formula_units_Z 48
_cell_length_a 13.925724
_cell_length_b 19.029830
_cell_length_c 7.939309
_cell_angle_alpha 90.000000
_cell_angle_beta 90.000000
_cell_angle_gamma 90.000000
_cell_volume 2103.949915
_symmetry_space_group_name_H-M "C M C 21"
_symmetry_group_IT_number 36
_symmetry_cell_setting 'orthorhombic'
loop_
_space_group_symop_operation_xyz
x,y,z
-x,-y,1/2+z
x,-y,1/2+z
-x,y,z
1/2+x,1/2+y,z
1/2-x,1/2-y,1/2+z
1/2+x,1/2-y,1/2+z
1/2-x,1/2+y,z
loop_
_atom_site_type_symbol
_atom_site_label
_atom_site_fract_x
_atom_site_fract_y
_atom_site_fract_z
Si Si1 0.190248 0.291545 0.301520
Si Si2 0.301477 0.650910 0.114155
Si Si3 0.290154 0.597036 0.630606
Si Si4 0.000000 0.618005 0.839549
Si Si5 0.000000 0.919054 0.676403
Si Si6 0.500000 0.582442 0.582261
Si Si7 0.294582 0.035746 0.311725
Si Si8 0.500000 0.974137 0.989664
O O1 0.264887 0.311577 0.446847
O O2 0.186701 0.210043 0.258183
O O3 0.230387 0.332157 0.137908
O O4 0.090533 0.329973 0.342568
O O5 0.404164 0.614317 0.100038
O O6 0.224202 0.591112 0.163506
O O7 0.401564 0.611562 0.659474
O O8 0.236691 0.541708 0.753801
O O9 0.281084 0.559293 0.452173
O O10 0.000000 0.559786 0.989015
O O11 0.000000 0.569540 0.665935
O O12 0.000000 0.908883 0.879452
O O13 0.000000 0.000639 0.630708
O O14 0.400508 0.041703 0.391111
#
# Coordination Sequence:
#
# PCOD9353262 Si02
#       8
#     8   8   8   4   4   4   8   4
#     4  12  28  49  72 101 148 193 248 298 364 431
#     4  12  28  49  72 101 148 193 248 298 364 431
#     4  12  23  43  71 107 143 187 237 301 357 425
#     4  12  27  46  76 107 145 189 241 301 365 438
#     4  12  27  46  76 107 145 189 241 301 365 438
#     4  12  24  42  76 108 147 178 243 292 368 420
#     4  12  23  43  71 107 143 187 237 301 357 425
#     4  12  24  42  76 108 147 178 243 292 368 420
#
# _framework density 22.814230999999999
#
# number of rings (size 3 to 8) (size 9 to 14) (size 15 to 20)
#    0.000    0.000    6.667    2.500    4.667    0.000 
#    0.000    1.667    0.000    0.000    0.000    0.000 
#    0.000    0.000    0.000    0.000    0.000    0.000 
#
# Total GULP energy -134347.540243 kJ/mol
# GULP energy per Si atom -5597.814177 kJ/mol
# Density = 2.276230 g / cm^3
# Si number density = 22.814231 Si / 1000 Ang^3
#
#
#
# Elastic Constant Matrix: (Units=GPa)
#
#
# Indices 1 2 3 4 5 6 
#
# 1 146.0541 12.9848 -3.9776 0.0000 0.0000 0.0000
# 2 12.9848 69.5196 -15.3362 0.0000 0.0000 0.0000
# 3 -3.9776 -15.3362 57.7821 0.0000 0.0000 0.0000
# 4 0.0000 0.0000 0.0000 34.2601 0.0000 0.0000
# 5 0.0000 0.0000 0.0000 0.0000 33.7999 0.0000
# 6 0.0000 0.0000 0.0000 0.0000 0.0000 12.7918
#
#
#
# Elastic Compliance Matrix: (Units=1/GPa)
#
#
# Indices 1 2 3 4 5 6 
#
# 1 0.006963 -0.001269 0.000142 0.000000 0.000000 0.000000
# 2 -0.001269 0.015510 0.004029 0.000000 0.000000 0.000000
# 3 0.000142 0.004029 0.018386 0.000000 0.000000 0.000000
# 4 0.000000 0.000000 0.000000 0.029188 0.000000 0.000000
# 5 0.000000 0.000000 0.000000 0.000000 0.029586 0.000000
# 6 0.000000 0.000000 0.000000 0.000000 0.000000 0.078175
#
#
# Mechanical properties :
#
#
# Convention : Reuss Voigt Hill
#
# Bulk Modulus (GPa) = 21.42948 28.96642 25.19795
# Shear Modulus (GPa) = 26.65831 34.81602 30.73716
#
# Velocity S-wave (km/s) = 3.42203 3.91073 3.67451
# Velocity P-wave (km/s) = 5.00272 5.75464 5.39180
#
# Compressibility (1/GPa) = 0.04666469
#
# Stress axis : x y z
#
# Youngs Moduli (GPa) = 143.60607 64.47302 54.39027
#
# Poissons Ratio (x) = 0.08183 -0.00775
# Poissons Ratio (y) = 0.18226 -0.21916
# Poissons Ratio (z) = -0.02046 -0.25978
#
# Static dielectric constant tensor:
#      x y z
#    x 1.819790 0.000000 0.000000 
#    y 0.000000 1.805130 0.000000 
#    z 0.000000 0.000000 1.921230 
# 
# From -- ./inp_files/4045.got.cif
#   From: 2010.05.17/outbox.cif.g08.bks.cpg/sg36_3_cif.got.tgz:4045.got - 2010.06.03 17:41:39.
