data_PCOD9353582
_publ_section_title
;
Structure prediction by ZEFSAII (Michael W. Deem and Ramdas Pophale) SiO2 
 PCOD9353582
Probable space group: C C C 2
;
_chemical_formula_sum "Si O2"
_cell_formula_units_Z 60
_cell_length_a 11.015041
_cell_length_b 22.308411
_cell_length_c 9.761081
_cell_angle_alpha 90.000000
_cell_angle_beta 90.000000
_cell_angle_gamma 90.000000
_cell_volume 2398.571515
_symmetry_space_group_name_H-M "C C C 2"
_symmetry_group_IT_number 37
_symmetry_cell_setting 'orthorhombic'
loop_
_space_group_symop_operation_xyz
x,y,z
-x,-y,z
-x,y,1/2+z
x,-y,1/2+z
1/2+x,1/2+y,z
1/2-x,1/2-y,z
1/2-x,1/2+y,1/2+z
1/2+x,1/2-y,1/2+z
loop_
_atom_site_type_symbol
_atom_site_label
_atom_site_fract_x
_atom_site_fract_y
_atom_site_fract_z
Si Si1 0.498326 0.361485 0.524340
Si Si2 0.208674 0.021535 0.791860
Si Si3 0.863023 0.293953 0.724512
Si Si4 0.087376 0.316293 0.900668
Si Si5 0.917930 0.449925 0.450797
Si Si6 0.500000 0.500000 0.001037
Si Si7 0.726089 0.598645 0.166911
Si Si8 0.342165 0.342924 0.759832
O O1 0.461727 0.431943 0.543937
O O2 0.624936 0.358052 0.605778
O O3 0.397848 0.324895 0.611555
O O4 0.545358 0.346765 0.370470
O O5 0.347390 0.012059 0.835040
O O6 0.117554 0.020179 0.917188
O O7 0.204607 0.088768 0.740018
O O8 0.163952 0.962598 0.715099
O O9 0.750000 0.250000 0.746359
O O10 0.897336 0.297000 0.560524
O O11 0.805424 0.359282 0.763205
O O12 0.983502 0.282443 0.814205
O O13 0.040330 0.385698 0.896594
O O14 0.220692 0.313659 0.826927
O O15 0.817110 0.426115 0.554233
O O16 0.000000 0.500000 0.519573
#
# Coordination Sequence:
#
# PCOD9353582 Si02
#       8
#     8   8   8   8   8   4   8   8
#     4  11  19  37  56  91 139 189 233 280 344 401
#     4  10  19  32  51  88 134 182 234 270 332 400
#     4  11  25  51  78 101 139 180 234 307 365 419
#     4  10  23  50  71 108 144 180 237 299 357 430
#     4  10  20  35  58  94 141 186 228 277 346 418
#     4  10  18  34  50  88 138 192 234 278 316 410
#     4  11  20  38  60  93 138 182 236 288 345 414
#     4  10  21  38  64  98 146 188 229 285 343 431
#
# _framework density 25.014889
#
# number of rings (size 3 to 8) (size 9 to 14) (size 15 to 20)
#    0.000    1.600    5.333    3.200    0.000    5.333 
#    7.200    0.667    0.000    0.000    0.000    0.000 
#    0.000    0.000    0.000    0.000    0.000    0.000 
#
# Total GULP energy -167084.157315 kJ/mol
# GULP energy per Si atom -5569.471910 kJ/mol
# Density = 2.495795 g / cm^3
# Si number density = 25.014889 Si / 1000 Ang^3
#
#
#
# Elastic Constant Matrix: (Units=GPa)
#
#
# Indices 1 2 3 4 5 6 
#
# 1 102.7559 32.9131 33.7894 0.0000 0.0000 0.0000
# 2 32.9131 116.5582 12.2758 0.0000 0.0000 0.0000
# 3 33.7894 12.2758 51.7839 0.0000 0.0000 0.0000
# 4 0.0000 0.0000 0.0000 15.2478 0.0000 0.0000
# 5 0.0000 0.0000 0.0000 0.0000 46.1111 0.0000
# 6 0.0000 0.0000 0.0000 0.0000 0.0000 19.6552
#
#
#
# Elastic Compliance Matrix: (Units=1/GPa)
#
#
# Indices 1 2 3 4 5 6 
#
# 1 0.013289 -0.002912 -0.007981 0.000000 0.000000 0.000000
# 2 -0.002912 0.009437 -0.000337 0.000000 0.000000 0.000000
# 3 -0.007981 -0.000337 0.024598 0.000000 0.000000 0.000000
# 4 0.000000 0.000000 0.000000 0.065583 0.000000 0.000000
# 5 0.000000 0.000000 0.000000 0.000000 0.021687 0.000000
# 6 0.000000 0.000000 0.000000 0.000000 0.000000 0.050877
#
#
# Mechanical properties :
#
#
# Convention : Reuss Voigt Hill
#
# Bulk Modulus (GPa) = 40.21743 47.67274 43.94508
# Shear Modulus (GPa) = 23.12466 29.01080 26.06773
#
# Velocity S-wave (km/s) = 3.04375 3.40919 3.23164
# Velocity P-wave (km/s) = 5.33525 5.88183 5.61519
#
# Compressibility (1/GPa) = 0.02486484
#
# Stress axis : x y z
#
# Youngs Moduli (GPa) = 75.25116 105.96408 40.65297
#
# Poissons Ratio (x) = 0.30856 0.32444
# Poissons Ratio (y) = 0.21912 0.01370
# Poissons Ratio (z) = 0.60056 0.03572
#
# Static dielectric constant tensor:
#      x y z
#    x 2.003590 0.000000 0.000000 
#    y 0.000000 2.188730 0.000000 
#    z 0.000000 0.000000 2.138700 
# 
# From -- ./inp_files/6552.got.cif
#   From: 2010.05.17/outbox.cif.g08.bks.cpg/sg37_4_cif.got.tgz:6552.got - 2010.06.03 17:53:42.
