data_PCOD9353627
_publ_section_title
;
Structure prediction by ZEFSAII (Michael W. Deem and Ramdas Pophale) SiO2 
 PCOD9353627
Probable space group: C C C 2
;
_chemical_formula_sum "Si O2"
_cell_formula_units_Z 56
_cell_length_a 8.927138
_cell_length_b 21.293429
_cell_length_c 14.967954
_cell_angle_alpha 90.000000
_cell_angle_beta 90.000000
_cell_angle_gamma 90.000000
_cell_volume 2845.249083
_symmetry_space_group_name_H-M "C C C 2"
_symmetry_group_IT_number 37
_symmetry_cell_setting 'orthorhombic'
loop_
_space_group_symop_operation_xyz
x,y,z
-x,-y,z
-x,y,1/2+z
x,-y,1/2+z
1/2+x,1/2+y,z
1/2-x,1/2-y,z
1/2-x,1/2+y,1/2+z
1/2+x,1/2-y,1/2+z
loop_
_atom_site_type_symbol
_atom_site_label
_atom_site_fract_x
_atom_site_fract_y
_atom_site_fract_z
Si Si1 0.846463 0.033908 0.701270
Si Si2 0.611439 0.946730 0.758464
Si Si3 0.151634 0.064544 0.413554
Si Si4 0.161546 0.311960 0.395558
Si Si5 0.698026 0.427929 0.432606
Si Si6 0.638701 0.148262 0.693736
Si Si7 0.642885 0.191902 0.504210
O O1 0.856724 0.044314 0.808930
O O2 0.781459 0.101997 0.674033
O O3 0.714359 0.983540 0.688290
O O4 0.000000 0.000000 0.670706
O O5 0.722461 0.921747 0.835141
O O6 0.504710 0.895958 0.713764
O O7 0.500000 0.000000 0.799346
O O8 0.258005 0.123706 0.425533
O O9 0.980696 0.081809 0.435132
O O10 0.211271 0.001172 0.460443
O O11 0.250000 0.250000 0.422810
O O12 0.160489 0.316559 0.287720
O O13 0.000126 0.307706 0.440350
O O14 0.777417 0.374704 0.488494
O O15 0.607707 0.192476 0.609782
O O16 0.750000 0.250000 0.482041
#
# Coordination Sequence:
#
# PCOD9353627 Si02
#       7
#     8   8   8   8   8   8   8
#     4   9  15  32  60  91 129 162 202 263 307 364
#     4   9  16  32  58  92 126 159 206 252 306 375
#     4   9  18  35  65  95 127 162 213 260 310 377
#     4  11  23  43  68  88 124 175 213 256 327 377
#     4  10  18  36  64  93 123 166 204 262 318 362
#     4  10  22  40  61  92 123 168 211 259 319 380
#     4  12  26  43  62  90 132 165 218 270 313 383
#
# _framework density 19.681933000000001
#
# number of rings (size 3 to 8) (size 9 to 14) (size 15 to 20)
#    0.000    2.000    4.286    2.143    0.000    0.000 
#   10.286    2.143    0.000    0.000    0.000    0.000 
#    0.000    0.000    0.000    0.000    0.000    0.000 
#
# Total GULP energy -156079.850636 kJ/mol
# GULP energy per Si atom -5574.280380 kJ/mol
# Density = 1.963714 g / cm^3
# Si number density = 19.681933 Si / 1000 Ang^3
#
#
#
# Elastic Constant Matrix: (Units=GPa)
#
#
# Indices 1 2 3 4 5 6 
#
# 1 131.8836 72.4538 33.3267 0.0000 0.0000 0.0000
# 2 72.4538 107.6522 37.9922 0.0000 0.0000 0.0000
# 3 33.3267 37.9922 60.8797 0.0000 0.0000 0.0000
# 4 0.0000 0.0000 0.0000 18.5669 0.0000 0.0000
# 5 0.0000 0.0000 0.0000 0.0000 -0.6202 0.0000
# 6 0.0000 0.0000 0.0000 0.0000 0.0000 39.2342
#
#
#
# Elastic Compliance Matrix: (Units=1/GPa)
#
#
# Indices 1 2 3 4 5 6 
#
# 1 0.012217 -0.007518 -0.001996 0.000000 0.000000 0.000000
# 2 -0.007518 0.016539 -0.006206 0.000000 0.000000 0.000000
# 3 -0.001996 -0.006206 0.021391 0.000000 0.000000 0.000000
# 4 0.000000 0.000000 0.000000 0.053859 0.000000 0.000000
# 5 0.000000 0.000000 0.000000 0.000000 -1.612409 0.000000
# 6 0.000000 0.000000 0.000000 0.000000 0.000000 0.025488
#
#
# Mechanical properties :
#
#
# Convention : Reuss Voigt Hill
#
# Bulk Modulus (GPa) = 53.45447 65.32899 59.39173
# Shear Modulus (GPa) = -3.45964 21.87905 9.20971
#
# Velocity S-wave (km/s) = -1.32725 3.33773 2.16551
# Velocity P-wave (km/s) = 4.98692 6.93674 6.04101
#
# Compressibility (1/GPa) = 0.01870751
#
# Stress axis : x y z
#
# Youngs Moduli (GPa) = 81.85231 60.46228 46.74777
#
# Poissons Ratio (x) = 0.45456 0.09332
# Poissons Ratio (y) = 0.61537 0.29011
# Poissons Ratio (z) = 0.16339 0.37522
#
# Static dielectric constant tensor:
#      x y z
#    x 1.708550 0.000000 0.000000 
#    y 0.000000 1.547140 0.000000 
#    z 0.000000 0.000000 1.710610 
# 
# From -- ./inp_files/10815.got.cif
#   From: 2010.05.17/outbox.cif.g08.bks.cpg/sg37_6_cif.got.tgz:10815.got - 2010.06.03 17:53:42.
