data_PCOD9353107
_publ_section_title
;
Structure prediction by ZEFSAII (Michael W. Deem and Ramdas Pophale) SiO2 
 PCOD9353107
Probable space group: C M C 21
;
_chemical_formula_sum "Si O2"
_cell_formula_units_Z 48
_cell_length_a 8.735616
_cell_length_b 20.452180
_cell_length_c 14.426458
_cell_angle_alpha 90.000000
_cell_angle_beta 90.000000
_cell_angle_gamma 90.000000
_cell_volume 2577.465478
_symmetry_space_group_name_H-M "C M C 21"
_symmetry_group_IT_number 36
_symmetry_cell_setting 'orthorhombic'
loop_
_space_group_symop_operation_xyz
x,y,z
-x,-y,1/2+z
x,-y,1/2+z
-x,y,z
1/2+x,1/2+y,z
1/2-x,1/2-y,1/2+z
1/2+x,1/2-y,1/2+z
1/2-x,1/2+y,z
loop_
_atom_site_type_symbol
_atom_site_label
_atom_site_fract_x
_atom_site_fract_y
_atom_site_fract_z
Si Si1 0.813965 0.640465 0.720540
Si Si2 0.821504 0.931707 0.915375
Si Si3 0.817054 0.690331 0.520507
Si Si4 0.316641 0.012180 0.227873
Si Si5 0.816200 0.318625 0.424368
Si Si6 0.320906 0.438434 0.539661
O O1 0.763325 0.675958 0.626169
O O2 0.766462 0.564117 0.721457
O O3 0.766070 0.674310 0.816689
O O4 0.000000 0.640409 0.718814
O O5 0.757449 0.953753 0.816548
O O6 0.000000 0.913181 0.908202
O O7 0.728076 0.872662 0.960136
O O8 0.809118 0.994627 0.981707
O O9 0.743135 0.753616 0.473929
O O10 0.000000 0.698154 0.522057
O O11 0.500000 0.012797 0.236460
O O12 0.264661 0.049450 0.135856
O O13 0.752680 0.380699 0.480161
O O14 0.000000 0.319810 0.425802
O O15 0.500000 0.424498 0.556140
#
# Coordination Sequence:
#
# PCOD9353107 Si02
#       6
#     8   8   8   8   8   8
#     4   9  20  38  63  88 119 161 207 256 312 369
#     4  11  23  39  61  93 127 161 203 257 312 370
#     4  11  23  42  64  91 125 167 212 261 315 374
#     4  11  21  38  65  94 121 163 213 258 308 369
#     4  11  23  42  64  91 125 167 212 261 315 374
#     4  11  23  39  61  93 127 161 203 257 312 370
#
# _framework density 18.622945999999999
#
# number of rings (size 3 to 8) (size 9 to 14) (size 15 to 20)
#    0.000    1.333    3.333    2.500    0.000    2.667 
#    0.000    8.333    0.000    0.000    0.000    0.000 
#    0.000    0.000    0.000    0.000    0.000    0.000 
#
# Total GULP energy -134137.765911 kJ/mol
# GULP energy per Si atom -5589.073580 kJ/mol
# Density = 1.858056 g / cm^3
# Si number density = 18.622946 Si / 1000 Ang^3
#
#
#
# Elastic Constant Matrix: (Units=GPa)
#
#
# Indices 1 2 3 4 5 6 
#
# 1 21.1352 -1.3057 -16.5663 0.0000 0.0000 0.0000
# 2 -1.3057 80.9938 12.7458 0.0000 0.0000 0.0000
# 3 -16.5663 12.7458 98.5196 0.0000 0.0000 0.0000
# 4 0.0000 0.0000 0.0000 26.6096 0.0000 0.0000
# 5 0.0000 0.0000 0.0000 0.0000 29.0697 0.0000
# 6 0.0000 0.0000 0.0000 0.0000 0.0000 34.6339
#
#
#
# Elastic Compliance Matrix: (Units=1/GPa)
#
#
# Indices 1 2 3 4 5 6 
#
# 1 0.054523 -0.000576 0.009243 0.000000 0.000000 0.000000
# 2 -0.000576 0.012609 -0.001728 0.000000 0.000000 0.000000
# 3 0.009243 -0.001728 0.011928 0.000000 0.000000 0.000000
# 4 0.000000 0.000000 0.000000 0.037580 0.000000 0.000000
# 5 0.000000 0.000000 0.000000 0.000000 0.034400 0.000000
# 6 0.000000 0.000000 0.000000 0.000000 0.000000 0.028873
#
#
# Mechanical properties :
#
#
# Convention : Reuss Voigt Hill
#
# Bulk Modulus (GPa) = 10.75976 21.15514 15.95745
# Shear Modulus (GPa) = 25.37864 31.78097 28.57980
#
# Velocity S-wave (km/s) = 3.69557 4.13552 3.92172
# Velocity P-wave (km/s) = 4.89896 5.84703 5.39387
#
# Compressibility (1/GPa) = 0.09293888
#
# Stress axis : x y z
#
# Youngs Moduli (GPa) = 18.34074 79.30663 83.83634
#
# Poissons Ratio (x) = 0.04564 -0.77487
# Poissons Ratio (y) = 0.01056 0.14488
# Poissons Ratio (z) = -0.16952 0.13705
#
# Static dielectric constant tensor:
#      x y z
#    x 1.630080 0.000000 0.000000 
#    y 0.000000 1.607430 0.000000 
#    z 0.000000 0.000000 1.630600 
# 
# From -- ./inp_files/10346.got.cif
#   From: 2010.05.17/outbox.cif.g08.bks.cpg/sg36_6_cif.got.tgz:10346.got - 2010.06.03 17:41:39.
