data_PCOD9353518
_publ_section_title
;
Structure prediction by ZEFSAII (Michael W. Deem and Ramdas Pophale) SiO2 
 PCOD9353518
Probable space group: C C C 2
;
_chemical_formula_sum "Si O2"
_cell_formula_units_Z 64
_cell_length_a 14.057142
_cell_length_b 26.144469
_cell_length_c 10.044698
_cell_angle_alpha 90.000000
_cell_angle_beta 90.000000
_cell_angle_gamma 90.000000
_cell_volume 3691.592386
_symmetry_space_group_name_H-M "C C C 2"
_symmetry_group_IT_number 37
_symmetry_cell_setting 'orthorhombic'
loop_
_space_group_symop_operation_xyz
x,y,z
-x,-y,z
-x,y,1/2+z
x,-y,1/2+z
1/2+x,1/2+y,z
1/2-x,1/2-y,z
1/2-x,1/2+y,1/2+z
1/2+x,1/2-y,1/2+z
loop_
_atom_site_type_symbol
_atom_site_label
_atom_site_fract_x
_atom_site_fract_y
_atom_site_fract_z
Si Si1 0.827343 0.708387 0.523530
Si Si2 0.897572 0.527579 0.611552
Si Si3 0.613213 0.787203 0.819768
Si Si4 0.437409 0.728486 0.828792
Si Si5 0.216424 0.145246 0.321192
Si Si6 0.494780 0.879529 0.726459
Si Si7 0.826222 0.450711 0.828532
Si Si8 0.350591 0.804213 0.611671
O O1 0.750000 0.750000 0.482968
O O2 0.831248 0.705228 0.681469
O O3 0.919279 0.735209 0.458709
O O4 0.788604 0.659902 0.443113
O O5 0.841268 0.496183 0.723697
O O6 0.837664 0.529132 0.477281
O O7 0.000000 0.500000 0.586862
O O8 0.926898 0.583855 0.661732
O O9 0.549907 0.735493 0.807614
O O10 0.543362 0.836397 0.815380
O O11 0.665993 0.788989 0.960015
O O12 0.384861 0.673728 0.843703
O O13 0.387375 0.757877 0.704986
O O14 0.232984 0.084583 0.307928
O O15 0.262139 0.171268 0.190009
O O16 0.418945 0.914645 0.802558
O O17 0.433187 0.847298 0.620542
#
# Coordination Sequence:
#
# PCOD9353518 Si02
#       8
#     8   8   8   8   8   8   8   8
#     4   9  18  30  43  61  90 125 153 180 221 268
#     4  10  18  28  41  61  86 113 148 191 227 266
#     4  11  18  27  46  71  91 118 157 193 213 246
#     4   9  17  30  44  59  85 124 160 182 212 272
#     4   9  18  33  45  57  86 128 159 178 223 282
#     4   9  17  27  41  61  89 120 149 174 215 273
#     4  10  19  29  43  59  80 114 151 188 228 264
#     4   9  17  26  43  65  87 116 153 188 216 249
#
# _framework density 17.336693
#
# number of rings (size 3 to 8) (size 9 to 14) (size 15 to 20)
#    0.000    2.500    0.000    6.000    0.000    3.000 
#    0.000    0.000    0.000    0.000    0.000    0.000 
#    0.000    0.000    0.000   45.000    0.000    4.750 
#
# Total GULP energy -178173.909083 kJ/mol
# GULP energy per Si atom -5567.934659 kJ/mol
# Density = 1.729723 g / cm^3
# Si number density = 17.336693 Si / 1000 Ang^3
#
#
#
# Elastic Constant Matrix: (Units=GPa)
#
#
# Indices 1 2 3 4 5 6 
#
# 1 25.8036 27.7873 15.1653 0.0000 0.0000 0.0000
# 2 27.7873 76.4365 27.6878 0.0000 0.0000 0.0000
# 3 15.1653 27.6878 119.8207 0.0000 0.0000 0.0000
# 4 0.0000 0.0000 0.0000 9.7127 0.0000 0.0000
# 5 0.0000 0.0000 0.0000 0.0000 3.5856 0.0000
# 6 0.0000 0.0000 0.0000 0.0000 0.0000 23.4773
#
#
#
# Elastic Compliance Matrix: (Units=1/GPa)
#
#
# Indices 1 2 3 4 5 6 
#
# 1 0.064662 -0.022419 -0.003004 0.000000 0.000000 0.000000
# 2 -0.022419 0.022051 -0.002258 0.000000 0.000000 0.000000
# 3 -0.003004 -0.002258 0.009248 0.000000 0.000000 0.000000
# 4 0.000000 0.000000 0.000000 0.102958 0.000000 0.000000
# 5 0.000000 0.000000 0.000000 0.000000 0.278891 0.000000
# 6 0.000000 0.000000 0.000000 0.000000 0.000000 0.042594
#
#
# Mechanical properties :
#
#
# Convention : Reuss Voigt Hill
#
# Bulk Modulus (GPa) = 24.63080 40.37128 32.50104
# Shear Modulus (GPa) = 8.48467 17.44982 12.96724
#
# Velocity S-wave (km/s) = 2.21465 3.17602 2.73786
# Velocity P-wave (km/s) = 4.55826 6.06520 5.36490
#
# Compressibility (1/GPa) = 0.04059957
#
# Stress axis : x y z
#
# Youngs Moduli (GPa) = 15.46509 45.35006 108.13499
#
# Poissons Ratio (x) = 1.01670 0.32479
# Poissons Ratio (y) = 0.34671 0.24416
# Poissons Ratio (z) = 0.04645 0.10240
#
# Static dielectric constant tensor:
#      x y z
#    x 1.648470 0.000000 0.000000 
#    y 0.000000 1.625600 0.000000 
#    z 0.000000 0.000000 1.609300 
# 
# From -- ./inp_files/3810.got.cif
#   From: 2010.05.17/outbox.cif.g08.bks.cpg/sg37_2_cif.got.tgz:3810.got - 2010.06.03 17:53:42.
