data_PCOD9353539
_publ_section_title
;
Structure prediction by ZEFSAII (Michael W. Deem and Ramdas Pophale) SiO2 
 PCOD9353539
Probable space group: C C C 2
;
_chemical_formula_sum "Si O2"
_cell_formula_units_Z 44
_cell_length_a 15.084370
_cell_length_b 16.796825
_cell_length_c 9.051870
_cell_angle_alpha 90.000000
_cell_angle_beta 90.000000
_cell_angle_gamma 90.000000
_cell_volume 2293.467985
_symmetry_space_group_name_H-M "C C C 2"
_symmetry_group_IT_number 37
_symmetry_cell_setting 'orthorhombic'
loop_
_space_group_symop_operation_xyz
x,y,z
-x,-y,z
-x,y,1/2+z
x,-y,1/2+z
1/2+x,1/2+y,z
1/2-x,1/2-y,z
1/2-x,1/2+y,1/2+z
1/2+x,1/2-y,1/2+z
loop_
_atom_site_type_symbol
_atom_site_label
_atom_site_fract_x
_atom_site_fract_y
_atom_site_fract_z
Si Si1 0.265494 0.664493 0.622800
Si Si2 0.946958 0.079264 0.153242
Si Si3 0.601362 0.626739 0.368781
Si Si4 0.122582 0.443128 0.250904
Si Si5 0.500000 0.000000 0.989622
Si Si6 0.209114 0.965843 0.365525
O O1 0.250000 0.750000 0.550831
O O2 0.339874 0.673126 0.750193
O O3 0.179908 0.633664 0.711963
O O4 0.287908 0.596423 0.501234
O O5 0.853830 0.062867 0.232981
O O6 0.013638 0.104880 0.280605
O O7 0.932514 0.147823 0.031420
O O8 0.000000 0.000000 0.091555
O O9 0.660620 0.548467 0.407912
O O10 0.049117 0.438634 0.379333
O O11 0.194016 0.509835 0.304460
O O12 0.073726 0.466289 0.099883
#
# Coordination Sequence:
#
# PCOD9353539 Si02
#       6
#     8   8   8   8   4   8
#     4  11  23  39  57  86 127 159 190 247 311 352
#     4  10  18  30  57  90 114 143 189 237 281 344
#     4  10  19  33  57  85 117 153 195 234 281 354
#     4  10  20  37  62  88 111 154 201 257 291 352
#     4  10  20  36  64  92 108 144 224 260 286 330
#     4  10  19  34  58  85 114 153 194 236 290 357
#
# _framework density 19.184919000000001
#
# number of rings (size 3 to 8) (size 9 to 14) (size 15 to 20)
#    0.000    1.818    1.818    6.000    2.545    0.000 
#    0.000    4.545    0.000    0.000    0.000    0.000 
#    0.000    0.000    0.000    0.000    0.000    0.000 
#
# Total GULP energy -122476.386371 kJ/mol
# GULP energy per Si atom -5567.108471 kJ/mol
# Density = 1.914125 g / cm^3
# Si number density = 19.184919 Si / 1000 Ang^3
#
#
#
# Elastic Constant Matrix: (Units=GPa)
#
#
# Indices 1 2 3 4 5 6 
#
# 1 97.6386 11.5678 44.3812 0.0000 0.0000 0.0000
# 2 11.5678 52.7435 20.3506 0.0000 0.0000 0.0000
# 3 44.3812 20.3506 112.8449 0.0000 0.0000 0.0000
# 4 0.0000 0.0000 0.0000 8.9794 0.0000 0.0000
# 5 0.0000 0.0000 0.0000 0.0000 33.0860 0.0000
# 6 0.0000 0.0000 0.0000 0.0000 0.0000 3.8342
#
#
#
# Elastic Compliance Matrix: (Units=1/GPa)
#
#
# Indices 1 2 3 4 5 6 
#
# 1 0.012512 -0.000909 -0.004757 0.000000 0.000000 0.000000
# 2 -0.000909 0.020444 -0.003329 0.000000 0.000000 0.000000
# 3 -0.004757 -0.003329 0.011333 0.000000 0.000000 0.000000
# 4 0.000000 0.000000 0.000000 0.111366 0.000000 0.000000
# 5 0.000000 0.000000 0.000000 0.000000 0.030224 0.000000
# 6 0.000000 0.000000 0.000000 0.000000 0.000000 0.260808
#
#
# Mechanical properties :
#
#
# Convention : Reuss Voigt Hill
#
# Bulk Modulus (GPa) = 38.02529 46.20291 42.11410
# Shear Modulus (GPa) = 10.56093 21.64175 16.10134
#
# Velocity S-wave (km/s) = 2.34878 3.36230 2.90016
# Velocity P-wave (km/s) = 5.21719 6.26168 5.76315
#
# Compressibility (1/GPa) = 0.02629828
#
# Stress axis : x y z
#
# Youngs Moduli (GPa) = 79.92486 48.91504 88.23767
#
# Poissons Ratio (x) = 0.04445 0.41974
# Poissons Ratio (y) = 0.07263 0.29378
# Poissons Ratio (z) = 0.38020 0.16286
#
# Static dielectric constant tensor:
#      x y z
#    x 1.720720 0.000000 0.000000 
#    y 0.000000 1.681290 0.000000 
#    z 0.000000 0.000000 1.731360 
# 
# From -- ./inp_files/3439.got.cif
#   From: 2010.05.17/outbox.cif.g08.bks.cpg/sg37_2_cif.got.tgz:3439.got - 2010.06.03 17:53:42.
