data_PCOD9353361
_publ_section_title
;
Structure prediction by ZEFSAII (Michael W. Deem and Ramdas Pophale) SiO2 
 PCOD9353361
Probable space group: C M C 21
;
_chemical_formula_sum "Si O2"
_cell_formula_units_Z 32
_cell_length_a 15.000000
_cell_length_b 12.000000
_cell_length_c 18.000000
_cell_angle_alpha 90.000000
_cell_angle_beta 90.000000
_cell_angle_gamma 90.000000
_cell_volume 3240.000000
_symmetry_space_group_name_H-M "C M C 21"
_symmetry_group_IT_number 36
_symmetry_cell_setting 'orthorhombic'
loop_
_space_group_symop_operation_xyz
x,y,z
-x,-y,1/2+z
x,-y,1/2+z
-x,y,z
1/2+x,1/2+y,z
1/2-x,1/2-y,1/2+z
1/2+x,1/2-y,1/2+z
1/2-x,1/2+y,z
loop_
_atom_site_type_symbol
_atom_site_label
_atom_site_fract_x
_atom_site_fract_y
_atom_site_fract_z
Si Si1 0.102891 0.358975 0.605420
Si Si2 0.829894 0.122192 0.875267
Si Si3 0.396841 0.551720 0.254989
Si Si4 0.604157 0.023443 0.254989
Si Si5 0.829894 0.122192 0.634712
Si Si6 0.307662 0.792362 0.254989
Si Si7 0.272529 1.000000 0.004989
Si Si8 0.602891 0.141025 0.404559
O O1 0.139060 0.417801 0.680821
O O2 0.108315 0.226156 0.613381
O O3 0.164352 0.406654 0.541147
O O4 0.000000 0.392441 0.594474
O O5 0.752546 0.180101 0.826341
O O6 0.891685 0.226156 0.896598
O O7 0.874656 0.027829 0.824549
O O8 0.787964 0.061071 0.944987
O O9 0.500000 0.581182 0.254989
O O10 0.374656 0.472171 0.185430
O O11 0.343015 0.667220 0.254989
O O12 0.500000 0.048634 0.254989
O O13 0.619885 0.891843 0.254989
O O14 0.639060 0.082199 0.329158
O O15 0.752546 0.180101 0.683638
O O16 0.787964 0.061071 0.564992
O O17 0.335648 0.906654 0.968832
O O18 0.500000 0.107559 0.415505
#
# Coordination Sequence:
#
# PCOD9353361 Si02
#       8
#     8   8   8   8   8   8   8   8
#     4  11  23  41  63  91 123 163 208 258 312 367
#     4  11  24  40  66  89 128 161 209 253 312 368
#     4  11  24  43  66  94 123 162 206 257 315 370
#     4  10  20  38  63  91 120 155 205 264 316 361
#     4  11  24  40  66  89 128 161 209 253 312 368
#     4  11  21  39  64  93 121 157 209 261 308 363
#     4  12  23  42  61  94 126 170 206 250 307 376
#     4  11  23  41  63  91 123 163 208 258 312 367
#
# _framework density 9.8765429999999999
#
# number of rings (size 3 to 8) (size 9 to 14) (size 15 to 20)
#    0.000    1.000    2.500    5.250    3.500    1.000 
#    0.000    5.000    0.000    0.000    0.000    0.000 
#    0.000    0.000    0.000    0.000    0.000    0.000 
#
# Total GULP energy -178791.777385 kJ/mol
# GULP energy per Si atom -5587.243043 kJ/mol
# Density = 0.985406 g / cm^3
# Si number density = 9.876543 Si / 1000 Ang^3
#
#
#
# Elastic Constant Matrix: (Units=GPa)
#
#
# Indices 1 2 3 4 5 6 
#
# 1 53.6935 20.3421 37.1316 0.0000 0.0000 0.0000
# 2 20.3421 123.8847 22.4174 0.0000 0.0000 0.0000
# 3 37.1316 22.4174 94.2618 0.0000 0.0000 0.0000
# 4 0.0000 0.0000 0.0000 11.9701 0.0000 0.0000
# 5 0.0000 0.0000 0.0000 0.0000 13.9598 0.0000
# 6 0.0000 0.0000 0.0000 0.0000 0.0000 57.0904
#
#
#
# Elastic Compliance Matrix: (Units=1/GPa)
#
#
# Indices 1 2 3 4 5 6 
#
# 1 0.026351 -0.002559 -0.009772 0.000000 0.000000 0.000000
# 2 -0.002559 0.008683 -0.001057 0.000000 0.000000 0.000000
# 3 -0.009772 -0.001057 0.014709 0.000000 0.000000 0.000000
# 4 0.000000 0.000000 0.000000 0.083542 0.000000 0.000000
# 5 0.000000 0.000000 0.000000 0.000000 0.071634 0.000000
# 6 0.000000 0.000000 0.000000 0.000000 0.000000 0.017516
#
#
# Mechanical properties :
#
#
# Convention : Reuss Voigt Hill
#
# Bulk Modulus (GPa) = 43.53715 47.95802 45.74758
# Shear Modulus (GPa) = 19.46526 29.40065 24.43295
#
# Velocity S-wave (km/s) = 3.14256 3.86217 3.52080
# Velocity P-wave (km/s) = 5.93769 6.64981 6.30381
#
# Compressibility (1/GPa) = 0.02296889
#
# Stress axis : x y z
#
# Youngs Moduli (GPa) = 37.94884 115.16135 67.98345
#
# Poissons Ratio (x) = 0.29466 0.66432
# Poissons Ratio (y) = 0.09710 0.07187
# Poissons Ratio (z) = 0.37083 0.12175
#
# Static dielectric constant tensor:
#      x y z
#    x 1.692320 0.000000 0.000000 
#    y 0.000000 1.649650 0.000000 
#    z 0.000000 0.000000 1.746400 
# 
# From -- ./inp_files/14736.got.cif
#   From: 2010.05.17/outbox.ucp.g08.bks.cvg/sg36_8_cif.got.tgz:14736.got - 2010.06.11 10:37:26.
