data_PCOD9353065
_publ_section_title
;
Structure prediction by ZEFSAII (Michael W. Deem and Ramdas Pophale) SiO2 
 PCOD9353065
Probable space group: C M C 21
;
_chemical_formula_sum "Si O2"
_cell_formula_units_Z 48
_cell_length_a 20.331572
_cell_length_b 7.352891
_cell_length_c 14.573780
_cell_angle_alpha 90.000000
_cell_angle_beta 90.000000
_cell_angle_gamma 90.000000
_cell_volume 2178.719378
_symmetry_space_group_name_H-M "C M C 21"
_symmetry_group_IT_number 36
_symmetry_cell_setting 'orthorhombic'
loop_
_space_group_symop_operation_xyz
x,y,z
-x,-y,1/2+z
x,-y,1/2+z
-x,y,z
1/2+x,1/2+y,z
1/2-x,1/2-y,1/2+z
1/2+x,1/2-y,1/2+z
1/2-x,1/2+y,z
loop_
_atom_site_type_symbol
_atom_site_label
_atom_site_fract_x
_atom_site_fract_y
_atom_site_fract_z
Si Si1 0.170893 0.370211 0.077960
Si Si2 0.314119 0.488596 0.136864
Si Si3 0.685879 0.488594 0.348420
Si Si4 0.670894 0.870209 0.407322
Si Si5 0.925836 0.093244 0.742640
Si Si6 0.574598 0.148553 0.742641
O O1 0.246447 0.398306 0.108967
O O2 0.168013 0.151848 0.068689
O O3 0.117110 0.410282 0.155437
O O4 0.159842 0.500000 0.992640
O O5 0.301187 0.561242 0.242642
O O6 0.378363 0.364866 0.155891
O O7 0.753551 0.398300 0.376317
O O8 0.621636 0.364867 0.329391
O O9 0.668013 0.651846 0.416594
O O10 0.617113 0.910280 0.329843
O O11 0.930047 0.870652 0.742640
O O12 0.000000 0.161496 0.742640
O O13 0.500000 0.081922 0.742644
#
# Coordination Sequence:
#
# PCOD9353065 Si02
#       6
#     8   8   8   8   8   8
#     4  11  19  31  51  75  97 126 163 202 238 283
#     4   9  17  31  50  69  95 127 158 199 244 278
#     4   9  17  31  50  69  95 127 158 199 244 278
#     4  11  19  31  51  75  97 126 163 202 238 283
#     4   7  13  26  49  67  86 125 164 188 230 285
#     4   9  17  32  47  69 100 127 156 198 244 287
#
# _framework density 22.031289000000001
#
# number of rings (size 3 to 8) (size 9 to 14) (size 15 to 20)
#    1.000    1.667    3.333    1.000    0.000    0.667 
#    0.000    0.000    0.000    5.000    0.000    0.000 
#    0.000    0.000    0.000    0.000    0.000    0.000 
#
# Total GULP energy -133724.738653 kJ/mol
# GULP energy per Si atom -5571.864111 kJ/mol
# Density = 2.198115 g / cm^3
# Si number density = 22.031289 Si / 1000 Ang^3
#
#
#
# Elastic Constant Matrix: (Units=GPa)
#
#
# Indices 1 2 3 4 5 6 
#
# 1 230.8739 14.1312 60.2187 0.0000 0.0000 0.0000
# 2 14.1312 66.0310 17.2514 0.0000 0.0000 0.0000
# 3 60.2187 17.2514 65.5920 0.0000 0.0000 0.0000
# 4 0.0000 0.0000 0.0000 2.3207 0.0000 0.0000
# 5 0.0000 0.0000 0.0000 0.0000 10.4451 0.0000
# 6 0.0000 0.0000 0.0000 0.0000 0.0000 15.7743
#
#
#
# Elastic Compliance Matrix: (Units=1/GPa)
#
#
# Indices 1 2 3 4 5 6 
#
# 1 0.005697 0.000158 -0.005272 0.000000 0.000000 0.000000
# 2 0.000158 0.016266 -0.004423 0.000000 0.000000 0.000000
# 3 -0.005272 -0.004423 0.021249 0.000000 0.000000 0.000000
# 4 0.000000 0.000000 0.000000 0.430909 0.000000 0.000000
# 5 0.000000 0.000000 0.000000 0.000000 0.095739 0.000000
# 6 0.000000 0.000000 0.000000 0.000000 0.000000 0.063394
#
#
# Mechanical properties :
#
#
# Convention : Reuss Voigt Hill
#
# Bulk Modulus (GPa) = 41.42823 60.63328 51.03075
# Shear Modulus (GPa) = 7.57148 23.76774 15.66961
#
# Velocity S-wave (km/s) = 1.85584 3.28810 2.66981
# Velocity P-wave (km/s) = 4.84121 6.48048 5.71988
#
# Compressibility (1/GPa) = 0.02413813
#
# Stress axis : x y z
#
# Youngs Moduli (GPa) = 175.54108 61.47710 47.06131
#
# Poissons Ratio (x) = -0.00972 0.24809
# Poissons Ratio (y) = -0.02776 0.20817
# Poissons Ratio (z) = 0.92538 0.27194
#
# Static dielectric constant tensor:
#      x y z
#    x 1.812180 0.000000 0.000000 
#    y 0.000000 1.881820 0.000000 
#    z 0.000000 0.000000 1.866390 
# 
# From -- ./inp_files/12554.got.cif
#   From: 2010.05.17/outbox.cif.g08.bks.cpg/sg36_7_cif.got.tgz:12554.got - 2010.06.03 17:41:39.
