data_PCOD9353323
_publ_section_title
;
Structure prediction by ZEFSAII (Michael W. Deem and Ramdas Pophale) SiO2 
 PCOD9353323
Probable space group: C M C 21
;
_chemical_formula_sum "Si O2"
_cell_formula_units_Z 32
_cell_length_a 9.000000
_cell_length_b 30.000000
_cell_length_c 12.000000
_cell_angle_alpha 90.000000
_cell_angle_beta 90.000000
_cell_angle_gamma 90.000000
_cell_volume 3240.000000
_symmetry_space_group_name_H-M "C M C 21"
_symmetry_group_IT_number 36
_symmetry_cell_setting 'orthorhombic'
loop_
_space_group_symop_operation_xyz
x,y,z
-x,-y,1/2+z
x,-y,1/2+z
-x,y,z
1/2+x,1/2+y,z
1/2-x,1/2-y,1/2+z
1/2+x,1/2-y,1/2+z
1/2-x,1/2+y,z
loop_
_atom_site_type_symbol
_atom_site_label
_atom_site_fract_x
_atom_site_fract_y
_atom_site_fract_z
Si Si1 0.820877 0.833138 0.031770
Si Si2 0.322782 0.260140 0.211129
Si Si3 0.169401 0.604310 0.706244
Si Si4 0.679170 0.522774 0.024945
Si Si5 0.678725 0.514397 0.772815
Si Si6 0.667204 0.182575 0.888956
Si Si7 0.678997 0.835778 0.788406
Si Si8 0.179599 0.615718 0.074509
O O1 0.772572 0.789292 0.104196
O O2 0.753388 0.874503 0.100860
O O3 0.000000 0.835039 0.030735
O O4 0.758351 0.834627 0.907129
O O5 0.500000 0.262354 0.208321
O O6 0.266896 0.281712 0.326578
O O7 0.279682 0.208860 0.220244
O O8 0.262118 0.564331 0.757872
O O9 0.159763 0.642685 0.799173
O O10 0.000000 0.590878 0.678252
O O11 0.500000 0.521455 0.025301
O O12 0.727060 0.506064 0.150566
O O13 0.739994 0.573026 0.025008
O O14 0.724512 0.501172 0.902551
O O15 0.500000 0.511714 0.772734
O O16 0.500000 0.200596 0.907292
O O17 0.719864 0.159184 0.001472
O O18 0.500000 0.835721 0.804960
O O19 0.715856 0.876079 0.704358
O O20 0.000000 0.611037 0.064119
#
# Coordination Sequence:
#
# PCOD9353323 Si02
#       8
#     8   8   8   8   8   8   8   8
#     4  10  21  37  57  82 114 151 193 239 290 352
#     4   9  20  36  55  80 110 148 190 237 288 339
#     4  10  19  35  60  86 111 144 188 236 287 345
#     4  10  22  39  60  86 120 156 200 249 302 360
#     4  10  21  38  59  86 118 155 195 247 300 356
#     4   9  18  33  57  83 109 142 185 233 279 335
#     4  10  22  38  55  80 117 153 191 244 297 347
#     4  10  21  38  59  83 115 153 192 239 293 348
#
# _framework density 9.8765429999999999
#
# number of rings (size 3 to 8) (size 9 to 14) (size 15 to 20)
#    0.000    2.250    1.250    0.750    1.750    4.000 
#    0.000    1.250    0.000    0.000    0.000    0.000 
#    0.000    0.000    0.000    0.000    0.000    0.000 
#
# Total GULP energy -178241.346874 kJ/mol
# GULP energy per Si atom -5570.042090 kJ/mol
# Density = 0.985406 g / cm^3
# Si number density = 9.876543 Si / 1000 Ang^3
#
#
#
# Elastic Constant Matrix: (Units=GPa)
#
#
# Indices 1 2 3 4 5 6 
#
# 1 -14.5194 -4.8744 24.6336 0.0000 0.0000 0.0000
# 2 -4.8744 30.8657 29.3443 0.0000 0.0000 0.0000
# 3 24.6336 29.3443 176.4205 0.0000 0.0000 0.0000
# 4 0.0000 0.0000 0.0000 22.2228 0.0000 0.0000
# 5 0.0000 0.0000 0.0000 0.0000 23.2902 0.0000
# 6 0.0000 0.0000 0.0000 0.0000 0.0000 19.2400
#
#
#
# Elastic Compliance Matrix: (Units=1/GPa)
#
#
# Indices 1 2 3 4 5 6 
#
# 1 -0.047491 -0.016397 0.009359 0.000000 0.000000 0.000000
# 2 -0.016397 0.032823 -0.003170 0.000000 0.000000 0.000000
# 3 0.009359 -0.003170 0.004889 0.000000 0.000000 0.000000
# 4 0.000000 0.000000 0.000000 0.044999 0.000000 0.000000
# 5 0.000000 0.000000 0.000000 0.000000 0.042937 0.000000
# 6 0.000000 0.000000 0.000000 0.000000 0.000000 0.051975
#
#
# Mechanical properties :
#
#
# Convention : Reuss Voigt Hill
#
# Bulk Modulus (GPa) = -33.11644 32.33042 -0.39301
# Shear Modulus (GPa) = 35.59158 22.52814 29.05986
#
# Velocity S-wave (km/s) = 4.24939 3.38077 3.83973
# Velocity P-wave (km/s) = 2.69720 5.62515 4.41119
#
# Compressibility (1/GPa) = -0.03019648
#
# Stress axis : x y z
#
# Youngs Moduli (GPa) = -21.05669 30.46679 204.54919
#
# Poissons Ratio (x) = 0.49957 -1.91428
# Poissons Ratio (y) = -0.34527 0.64840
# Poissons Ratio (z) = 0.19706 0.09658
#
# Static dielectric constant tensor:
#      x y z
#    x 1.671080 0.000000 0.000000 
#    y 0.000000 1.709280 0.000000 
#    z 0.000000 0.000000 1.734630 
# 
# From -- ./inp_files/7256.got.cif
#   From: 2010.05.17/outbox.ucp.g08.bks.cvg/sg36_4_cif.got.tgz:7256.got - 2010.06.11 10:37:26.
