data_PCOD9353054
_publ_section_title
;
Structure prediction by ZEFSAII (Michael W. Deem and Ramdas Pophale) SiO2 
 PCOD9353054
Probable space group: C M C 21
;
_chemical_formula_sum "Si O2"
_cell_formula_units_Z 40
_cell_length_a 30.641382
_cell_length_b 4.894645
_cell_length_c 10.103597
_cell_angle_alpha 90.000000
_cell_angle_beta 90.000000
_cell_angle_gamma 90.000000
_cell_volume 1515.324214
_symmetry_space_group_name_H-M "C M C 21"
_symmetry_group_IT_number 36
_symmetry_cell_setting 'orthorhombic'
loop_
_space_group_symop_operation_xyz
x,y,z
-x,-y,1/2+z
x,-y,1/2+z
-x,y,z
1/2+x,1/2+y,z
1/2-x,1/2-y,1/2+z
1/2+x,1/2-y,1/2+z
1/2-x,1/2+y,z
loop_
_atom_site_type_symbol
_atom_site_label
_atom_site_fract_x
_atom_site_fract_y
_atom_site_fract_z
Si Si1 0.000000 0.522793 0.600651
Si Si2 0.643098 0.999743 0.440229
Si Si3 0.347738 0.503405 0.599448
Si Si4 0.425810 0.708773 0.275585
Si Si5 0.220589 0.820607 0.793764
Si Si6 0.000000 0.168704 0.839843
O O1 0.042970 0.657570 0.665678
O O2 0.000000 0.238549 0.681846
O O3 0.000000 0.580525 0.443877
O O4 0.648255 0.826445 0.576162
O O5 0.597920 0.923154 0.371015
O O6 0.681900 0.850411 0.361649
O O7 0.645338 0.319815 0.468405
O O8 0.386807 0.436242 0.698105
O O9 0.301345 0.392260 0.651765
O O10 0.456770 0.509901 0.359717
O O11 0.261292 0.622085 0.823095
#
# Coordination Sequence:
#
# PCOD9353054 Si02
#       6
#     4   8   8   8   8   4
#     4  11  26  44  77 104 150 194 252 312 376 451
#     4  11  25  43  70 101 139 190 239 301 372 440
#     4  11  25  43  71 100 140 189 241 300 372 440
#     4  10  26  45  69 101 148 187 251 305 372 442
#     4  11  24  43  66 101 141 180 241 300 365 439
#     4  11  26  48  71 114 144 200 248 314 376 449
#
# _framework density 26.396991
#
# number of rings (size 3 to 8) (size 9 to 14) (size 15 to 20)
#    0.000    1.200    0.000    3.600    8.400   11.200 
#    0.000    0.000    0.000    0.000    0.000    0.000 
#    0.000    0.000    0.000    0.000    0.000    0.000 
#
# Total GULP energy -111850.357302 kJ/mol
# GULP energy per Si atom -5592.517865 kJ/mol
# Density = 2.633691 g / cm^3
# Si number density = 26.396991 Si / 1000 Ang^3
#
#
#
# Elastic Constant Matrix: (Units=GPa)
#
#
# Indices 1 2 3 4 5 6 
#
# 1 108.6634 28.4900 36.2704 0.0000 0.0000 0.0000
# 2 28.4900 126.0270 10.5598 0.0000 0.0000 0.0000
# 3 36.2704 10.5598 56.6411 0.0000 0.0000 0.0000
# 4 0.0000 0.0000 0.0000 43.6359 0.0000 0.0000
# 5 0.0000 0.0000 0.0000 0.0000 27.7190 0.0000
# 6 0.0000 0.0000 0.0000 0.0000 0.0000 31.8004
#
#
#
# Elastic Compliance Matrix: (Units=1/GPa)
#
#
# Indices 1 2 3 4 5 6 
#
# 1 0.012250 -0.002146 -0.007444 0.000000 0.000000 0.000000
# 2 -0.002146 0.008436 -0.000199 0.000000 0.000000 0.000000
# 3 -0.007444 -0.000199 0.022459 0.000000 0.000000 0.000000
# 4 0.000000 0.000000 0.000000 0.022917 0.000000 0.000000
# 5 0.000000 0.000000 0.000000 0.000000 0.036076 0.000000
# 6 0.000000 0.000000 0.000000 0.000000 0.000000 0.031446
#
#
# Mechanical properties :
#
#
# Convention : Reuss Voigt Hill
#
# Bulk Modulus (GPa) = 42.43038 49.10797 45.76918
# Shear Modulus (GPa) = 31.05226 35.03183 33.04204
#
# Velocity S-wave (km/s) = 3.43353 3.64691 3.54183
# Velocity P-wave (km/s) = 5.64160 6.03136 5.83973
#
# Compressibility (1/GPa) = 0.02356802
#
# Stress axis : x y z
#
# Youngs Moduli (GPa) = 81.63197 118.53260 44.52522
#
# Poissons Ratio (x) = 0.25431 0.33146
# Poissons Ratio (y) = 0.17514 0.00886
# Poissons Ratio (z) = 0.60770 0.02358
#
# Static dielectric constant tensor:
#      x y z
#    x 2.040410 0.000000 0.000000 
#    y 0.000000 2.004560 0.000000 
#    z 0.000000 0.000000 2.157280 
# 
# From -- ./inp_files/9558.got.cif
#   From: 2010.05.17/outbox.cif.g08.bks.cpg/sg36_5_cif.got.tgz:9558.got - 2010.06.03 17:41:39.
