data_PCOD9353514
_publ_section_title
;
Structure prediction by ZEFSAII (Michael W. Deem and Ramdas Pophale) SiO2 
 PCOD9353514
Probable space group: C C C 2
;
_chemical_formula_sum "Si O2"
_cell_formula_units_Z 40
_cell_length_a 6.795701
_cell_length_b 14.323177
_cell_length_c 17.745297
_cell_angle_alpha 90.000000
_cell_angle_beta 90.000000
_cell_angle_gamma 90.000000
_cell_volume 1727.256730
_symmetry_space_group_name_H-M "C C C 2"
_symmetry_group_IT_number 37
_symmetry_cell_setting 'orthorhombic'
loop_
_space_group_symop_operation_xyz
x,y,z
-x,-y,z
-x,y,1/2+z
x,-y,1/2+z
1/2+x,1/2+y,z
1/2-x,1/2-y,z
1/2-x,1/2+y,1/2+z
1/2+x,1/2-y,1/2+z
loop_
_atom_site_type_symbol
_atom_site_label
_atom_site_fract_x
_atom_site_fract_y
_atom_site_fract_z
Si Si1 0.568213 0.604421 0.969930
Si Si2 0.750000 0.750000 0.527045
Si Si3 0.239085 0.106562 0.116686
Si Si4 0.870342 0.163303 0.312283
Si Si5 0.250000 0.750000 0.737617
Si Si6 0.732399 0.394032 0.148565
O O1 0.500000 0.500000 0.994039
O O2 0.620133 0.594852 0.882396
O O3 0.404103 0.686778 0.979692
O O4 0.745157 0.628355 0.027797
O O5 0.832236 0.673390 0.587101
O O6 0.332932 0.172618 0.179567
O O7 0.002492 0.116735 0.131906
O O8 0.288231 0.000043 0.133535
O O9 0.750000 0.250000 0.343558
O O10 0.759405 0.129633 0.236887
O O11 0.083993 0.199980 0.286777
#
# Coordination Sequence:
#
# PCOD9353514 Si02
#       6
#     8   4   8   8   4   8
#     4  11  22  37  65  97 129 175 219 275 343 401
#     4  10  17  38  65  88 124 166 224 264 323 406
#     4   9  18  37  62  93 118 168 228 250 321 405
#     4  11  24  40  63  95 132 168 212 277 336 382
#     4  10  23  40  69  92 126 176 222 266 325 408
#     4   9  17  36  64  87 121 170 214 260 321 389
#
# _framework density 23.158107999999999
#
# number of rings (size 3 to 8) (size 9 to 14) (size 15 to 20)
#    0.000    2.000    5.000    0.600    7.000    0.000 
#    0.000    1.000    0.000    7.200    0.000    0.000 
#    0.000    0.000    0.000    0.000    0.000    0.000 
#
# Total GULP energy -111614.511714 kJ/mol
# GULP energy per Si atom -5580.725586 kJ/mol
# Density = 2.310540 g / cm^3
# Si number density = 23.158108 Si / 1000 Ang^3
#
#
#
# Elastic Constant Matrix: (Units=GPa)
#
#
# Indices 1 2 3 4 5 6 
#
# 1 75.8217 -11.1857 17.2153 0.0000 0.0000 0.0000
# 2 -11.1857 122.2535 21.6892 0.0000 0.0000 0.0000
# 3 17.2153 21.6892 141.0849 0.0000 0.0000 0.0000
# 4 0.0000 0.0000 0.0000 48.8764 0.0000 0.0000
# 5 0.0000 0.0000 0.0000 0.0000 41.6077 0.0000
# 6 0.0000 0.0000 0.0000 0.0000 0.0000 12.4876
#
#
#
# Elastic Compliance Matrix: (Units=1/GPa)
#
#
# Indices 1 2 3 4 5 6 
#
# 1 0.013867 0.001613 -0.001940 0.000000 0.000000 0.000000
# 2 0.001613 0.008597 -0.001518 0.000000 0.000000 0.000000
# 3 -0.001940 -0.001518 0.007558 0.000000 0.000000 0.000000
# 4 0.000000 0.000000 0.000000 0.020460 0.000000 0.000000
# 5 0.000000 0.000000 0.000000 0.000000 0.024034 0.000000
# 6 0.000000 0.000000 0.000000 0.000000 0.000000 0.080079
#
#
# Mechanical properties :
#
#
# Convention : Reuss Voigt Hill
#
# Bulk Modulus (GPa) = 37.97790 43.84420 40.91105
# Shear Modulus (GPa) = 29.92881 41.35709 35.64295
#
# Velocity S-wave (km/s) = 3.59885 4.23053 3.92741
# Velocity P-wave (km/s) = 5.80551 6.54498 6.18631
#
# Compressibility (1/GPa) = 0.02633110
#
# Stress axis : x y z
#
# Youngs Moduli (GPa) = 72.11221 116.32381 132.30869
#
# Poissons Ratio (x) = -0.18763 0.25669
# Poissons Ratio (y) = -0.11632 0.20090
# Poissons Ratio (z) = 0.13990 0.17663
#
# Static dielectric constant tensor:
#      x y z
#    x 1.807470 0.000000 0.000000 
#    y 0.000000 1.742890 0.000000 
#    z 0.000000 0.000000 1.907500 
# 
# From -- ./inp_files/14377.got.cif
#   From: 2010.05.17/outbox.cif.g08.bks.cpg/sg37_8_cif.got.tgz:14377.got - 2010.06.03 17:53:42.
