data_PCOD9353973
_publ_section_title
;
Structure prediction by ZEFSAII (Michael W. Deem and Ramdas Pophale) SiO2 
 PCOD9353973
Probable space group: C C C 2
;
_chemical_formula_sum "Si O2"
_cell_formula_units_Z 52
_cell_length_a 14.043514
_cell_length_b 5.396947
_cell_length_c 31.338065
_cell_angle_alpha 90.000000
_cell_angle_beta 90.000000
_cell_angle_gamma 90.000000
_cell_volume 2375.177780
_symmetry_space_group_name_H-M "C C C 2"
_symmetry_group_IT_number 37
_symmetry_cell_setting 'orthorhombic'
loop_
_space_group_symop_operation_xyz
x,y,z
-x,-y,z
-x,y,1/2+z
x,-y,1/2+z
1/2+x,1/2+y,z
1/2-x,1/2-y,z
1/2-x,1/2+y,1/2+z
1/2+x,1/2-y,1/2+z
loop_
_atom_site_type_symbol
_atom_site_label
_atom_site_fract_x
_atom_site_fract_y
_atom_site_fract_z
Si Si1 0.250000 0.250000 0.960371
Si Si2 0.361851 0.254416 0.780583
Si Si3 0.355956 0.629100 0.919255
Si Si4 0.564121 0.251566 0.093840
Si Si5 0.366813 0.753367 0.826616
Si Si6 0.063007 0.250323 0.686925
Si Si7 0.105015 0.384334 0.504004
O O1 0.331076 0.344317 0.927420
O O2 0.191939 0.435277 0.991050
O O3 0.250000 0.250000 0.788813
O O4 0.396078 0.517556 0.798494
O O5 0.377599 0.239040 0.730123
O O6 0.397229 0.011042 0.805468
O O7 0.250000 0.750000 0.919772
O O8 0.401278 0.707894 0.875019
O O9 0.403923 0.707582 0.963125
O O10 0.500000 0.500000 0.090800
O O11 0.613240 0.259124 0.140433
O O12 0.500000 0.000000 0.095206
O O13 0.623306 0.236957 0.050127
O O14 0.250000 0.750000 0.828211
O O15 0.000000 0.500000 0.687447
O O16 0.000000 0.000000 0.689088
O O17 0.000000 0.500000 0.507534
#
# Coordination Sequence:
#
# PCOD9353973 Si02
#       7
#     4   8   8   8   8   8   8
#     4  10  22  38  62  88 118 164 212 246 314 364
#     4  10  20  35  58  86 113 151 196 242 294 351
#     4   9  20  35  57  86 115 160 202 248 298 369
#     4   9  20  37  62  87 114 162 201 237 307 375
#     4   9  19  33  58  82 115 156 195 235 296 356
#     4  10  20  38  62  83 115 156 195 241 301 361
#     4  10  22  38  63  88 124 159 206 259 306 372
#
# _framework density 21.893097000000001
#
# number of rings (size 3 to 8) (size 9 to 14) (size 15 to 20)
#    0.000    2.462    0.000    0.923   11.846    0.000 
#    0.000    4.615    8.462    0.000    0.000    0.000 
#    0.000    0.000    0.000    0.000    0.000    0.000 
#
# Total GULP energy -144914.898631 kJ/mol
# GULP energy per Si atom -5573.649947 kJ/mol
# Density = 2.184327 g / cm^3
# Si number density = 21.893097 Si / 1000 Ang^3
#
#
#
# Elastic Constant Matrix: (Units=GPa)
#
#
# Indices 1 2 3 4 5 6 
#
# 1 54.6985 13.0968 15.9905 0.0000 0.0000 0.0000
# 2 13.0968 135.3325 64.7596 0.0000 0.0000 0.0000
# 3 15.9905 64.7596 220.5738 0.0000 0.0000 0.0000
# 4 0.0000 0.0000 0.0000 -37.2965 0.0000 0.0000
# 5 0.0000 0.0000 0.0000 0.0000 33.1501 0.0000
# 6 0.0000 0.0000 0.0000 0.0000 0.0000 0.5391
#
#
#
# Elastic Compliance Matrix: (Units=1/GPa)
#
#
# Indices 1 2 3 4 5 6 
#
# 1 0.018892 -0.001365 -0.000969 0.000000 0.000000 0.000000
# 2 -0.001365 0.008696 -0.002454 0.000000 0.000000 0.000000
# 3 -0.000969 -0.002454 0.005324 0.000000 0.000000 0.000000
# 4 0.000000 0.000000 0.000000 -0.026812 0.000000 0.000000
# 5 0.000000 0.000000 0.000000 0.000000 0.030166 0.000000
# 6 0.000000 0.000000 0.000000 0.000000 0.000000 1.854825
#
#
# Mechanical properties :
#
#
# Convention : Reuss Voigt Hill
#
# Bulk Modulus (GPa) = 42.85079 66.47759 54.66419
# Shear Modulus (GPa) = 2.61993 20.39574 11.50783
#
# Velocity S-wave (km/s) = 1.09512 3.05553 2.29517
# Velocity P-wave (km/s) = 4.60590 6.54820 5.66097
#
# Compressibility (1/GPa) = 0.02333679
#
# Stress axis : x y z
#
# Youngs Moduli (GPa) = 52.93232 115.00076 187.81544
#
# Poissons Ratio (x) = 0.15693 0.18198
# Poissons Ratio (y) = 0.07223 0.46091
# Poissons Ratio (z) = 0.05129 0.28222
#
# Static dielectric constant tensor:
#      x y z
#    x 1.780460 0.000000 0.000000 
#    y 0.000000 1.947340 0.000000 
#    z 0.000000 0.000000 1.818490 
# 
# From -- ./inp_files/19472.got.cif
#   From: 2010.05.17/outbox.cif.g08.bks.cpg/sg37_10_cif.got.tgz:19472.got - 2010.06.03 17:53:42.
