data_PCOD9353232
_publ_section_title
;
Structure prediction by ZEFSAII (Michael W. Deem and Ramdas Pophale) SiO2 
 PCOD9353232
Probable space group: C M C 21
;
_chemical_formula_sum "Si O2"
_cell_formula_units_Z 44
_cell_length_a 10.302479
_cell_length_b 15.736180
_cell_length_c 12.014467
_cell_angle_alpha 90.000000
_cell_angle_beta 90.000000
_cell_angle_gamma 90.000000
_cell_volume 1947.805382
_symmetry_space_group_name_H-M "C M C 21"
_symmetry_group_IT_number 36
_symmetry_cell_setting 'orthorhombic'
loop_
_space_group_symop_operation_xyz
x,y,z
-x,-y,1/2+z
x,-y,1/2+z
-x,y,z
1/2+x,1/2+y,z
1/2-x,1/2-y,1/2+z
1/2+x,1/2-y,1/2+z
1/2-x,1/2+y,z
loop_
_atom_site_type_symbol
_atom_site_label
_atom_site_fract_x
_atom_site_fract_y
_atom_site_fract_z
Si Si1 0.500000 0.521197 0.935400
Si Si2 0.750520 0.363039 0.398697
Si Si3 0.155711 0.675733 0.441014
Si Si4 0.500000 0.435839 0.683104
Si Si5 0.500000 0.137088 0.043421
Si Si6 0.344882 0.088753 0.667569
Si Si7 0.780185 0.390977 0.703202
O O1 0.368675 0.575448 0.924377
O O2 0.500000 0.469402 0.814021
O O3 0.500000 0.500606 0.072622
O O4 0.716478 0.268579 0.436762
O O5 0.884549 0.390897 0.455626
O O6 0.774387 0.363578 0.266988
O O7 0.197637 0.624717 0.549605
O O8 0.200558 0.625950 0.332337
O O9 0.000000 0.682482 0.440491
O O10 0.630190 0.380263 0.672667
O O11 0.614848 0.161151 0.134115
O O12 0.500000 0.099191 0.676202
O O13 0.315371 0.989081 0.678146
#
# Coordination Sequence:
#
# PCOD9353232 Si02
#       7
#     4   8   8   4   4   8   8
#     4  12  26  47  75 103 152 198 238 312 372 438
#     4  12  26  47  72 105 149 193 242 299 373 439
#     4  11  27  46  73 109 146 193 245 301 369 434
#     4  12  28  43  76 111 148 189 250 306 374 428
#     4  12  26  44  77 104 144 197 242 298 368 434
#     4  11  25  44  74 108 145 186 249 304 360 438
#     4  12  26  46  75 107 144 191 246 304 361 432
#
# _framework density 22.589527
#
# number of rings (size 3 to 8) (size 9 to 14) (size 15 to 20)
#    0.000    0.364    7.273    0.000    7.636    0.727 
#    0.000    0.909    0.000    0.000    0.000    0.000 
#    0.000    0.000    0.000    0.000    0.000    0.000 
#
# Total GULP energy -122494.859598 kJ/mol
# GULP energy per Si atom -5567.948164 kJ/mol
# Density = 2.253811 g / cm^3
# Si number density = 22.589527 Si / 1000 Ang^3
#
#
#
# Elastic Constant Matrix: (Units=GPa)
#
#
# Indices 1 2 3 4 5 6 
#
# 1 171.2165 18.0356 51.2025 0.0000 0.0000 0.0000
# 2 18.0356 47.7384 9.9344 0.0000 0.0000 0.0000
# 3 51.2025 9.9344 178.8301 0.0000 0.0000 0.0000
# 4 0.0000 0.0000 0.0000 27.2251 0.0000 0.0000
# 5 0.0000 0.0000 0.0000 0.0000 46.0113 0.0000
# 6 0.0000 0.0000 0.0000 0.0000 0.0000 -250.5802
#
#
#
# Elastic Compliance Matrix: (Units=1/GPa)
#
#
# Indices 1 2 3 4 5 6 
#
# 1 0.006593 -0.002123 -0.001770 0.000000 0.000000 0.000000
# 2 -0.002123 0.021876 -0.000607 0.000000 0.000000 0.000000
# 3 -0.001770 -0.000607 0.006132 0.000000 0.000000 0.000000
# 4 0.000000 0.000000 0.000000 0.036731 0.000000 0.000000
# 5 0.000000 0.000000 0.000000 0.000000 0.021734 0.000000
# 6 0.000000 0.000000 0.000000 0.000000 0.000000 -0.003991
#
#
# Mechanical properties :
#
#
# Convention : Reuss Voigt Hill
#
# Bulk Modulus (GPa) = 39.06013 61.79222 50.42618
# Shear Modulus (GPa) = 46.90009 -14.22793 16.33608
#
# Velocity S-wave (km/s) = 4.56146 -2.51240 2.69210
# Velocity P-wave (km/s) = 6.71352 4.35862 5.65990
#
# Compressibility (1/GPa) = 0.02560155
#
# Stress axis : x y z
#
# Youngs Moduli (GPa) = 151.66557 45.71248 163.06813
#
# Poissons Ratio (x) = 0.09703 0.28862
# Poissons Ratio (y) = 0.32194 0.09906
# Poissons Ratio (z) = 0.26843 0.02777
#
# Static dielectric constant tensor:
#      x y z
#    x 1.798170 0.000000 0.000000 
#    y 0.000000 1.827540 0.000000 
#    z 0.000000 0.000000 1.938920 
# 
# From -- ./inp_files/7657.got.cif
#   From: 2010.05.17/outbox.cif.g08.bks.cpg/sg36_4_cif.got.tgz:7657.got - 2010.06.03 17:41:39.
