data_PCOD9353050
_publ_section_title
;
Structure prediction by ZEFSAII (Michael W. Deem and Ramdas Pophale) SiO2 
 PCOD9353050
Probable space group: C M C 21
;
_chemical_formula_sum "Si O2"
_cell_formula_units_Z 56
_cell_length_a 20.255172
_cell_length_b 9.246646
_cell_length_c 13.772715
_cell_angle_alpha 90.000000
_cell_angle_beta 90.000000
_cell_angle_gamma 90.000000
_cell_volume 2579.524918
_symmetry_space_group_name_H-M "C M C 21"
_symmetry_group_IT_number 36
_symmetry_cell_setting 'orthorhombic'
loop_
_space_group_symop_operation_xyz
x,y,z
-x,-y,1/2+z
x,-y,1/2+z
-x,y,z
1/2+x,1/2+y,z
1/2-x,1/2-y,1/2+z
1/2+x,1/2-y,1/2+z
1/2-x,1/2+y,z
loop_
_atom_site_type_symbol
_atom_site_label
_atom_site_fract_x
_atom_site_fract_y
_atom_site_fract_z
Si Si1 0.572546 0.282245 0.237060
Si Si2 0.778903 0.894372 0.680455
Si Si3 0.074053 0.439828 0.272714
Si Si4 0.140046 0.119118 0.547621
Si Si5 0.669804 0.531783 0.863102
Si Si6 0.683841 0.902593 0.437597
Si Si7 0.671137 0.908771 0.120040
O O1 0.500000 0.341867 0.262195
O O2 0.571171 0.112150 0.257064
O O3 0.587308 0.320536 0.124395
O O4 0.629916 0.351256 0.301871
O O5 0.787215 0.734764 0.640490
O O6 0.816111 0.007541 0.610321
O O7 0.810554 0.906581 0.786530
O O8 0.705397 0.958634 0.679098
O O9 0.128228 0.403807 0.354485
O O10 0.100883 0.380323 0.169779
O O11 0.000000 0.388437 0.296523
O O12 0.175353 0.258882 0.501801
O O13 0.125284 0.026183 0.451156
O O14 0.741024 0.587716 0.900030
O O15 0.670969 0.038643 0.509677
#
# Coordination Sequence:
#
# PCOD9353050 Si02
#       7
#     8   8   8   8   8   8   8
#     4  10  25  48  69 100 147 188 227 289 352 426
#     4  11  25  41  66 107 141 176 222 285 359 406
#     4  11  26  45  70  99 139 190 236 286 353 420
#     4  11  24  44  68 107 136 181 233 280 356 408
#     4  11  25  39  72 103 137 177 239 280 357 403
#     4  12  25  40  73 103 139 179 233 299 340 418
#     4  12  24  43  70 101 143 179 226 291 351 419
#
# _framework density 21.709423000000001
#
# number of rings (size 3 to 8) (size 9 to 14) (size 15 to 20)
#    0.000    0.857    4.286    1.714    6.000    1.714 
#    0.000    5.714    0.000    0.000    0.000    0.000 
#    0.000    0.000    0.000    0.000    0.000    0.000 
#
# Total GULP energy -156494.086860 kJ/mol
# GULP energy per Si atom -5589.074531 kJ/mol
# Density = 2.166001 g / cm^3
# Si number density = 21.709423 Si / 1000 Ang^3
#
#
#
# Elastic Constant Matrix: (Units=GPa)
#
#
# Indices 1 2 3 4 5 6 
#
# 1 121.9201 33.0501 54.3008 0.0000 0.0000 0.0000
# 2 33.0501 91.6607 21.9222 0.0000 0.0000 0.0000
# 3 54.3008 21.9222 111.3186 0.0000 0.0000 0.0000
# 4 0.0000 0.0000 0.0000 32.1112 0.0000 0.0000
# 5 0.0000 0.0000 0.0000 0.0000 22.6038 0.0000
# 6 0.0000 0.0000 0.0000 0.0000 0.0000 20.2144
#
#
#
# Elastic Compliance Matrix: (Units=1/GPa)
#
#
# Indices 1 2 3 4 5 6 
#
# 1 0.011147 -0.002853 -0.004876 0.000000 0.000000 0.000000
# 2 -0.002853 0.012179 -0.001007 0.000000 0.000000 0.000000
# 3 -0.004876 -0.001007 0.011560 0.000000 0.000000 0.000000
# 4 0.000000 0.000000 0.000000 0.031142 0.000000 0.000000
# 5 0.000000 0.000000 0.000000 0.000000 0.044240 0.000000
# 6 0.000000 0.000000 0.000000 0.000000 0.000000 0.049470
#
#
# Mechanical properties :
#
#
# Convention : Reuss Voigt Hill
#
# Bulk Modulus (GPa) = 57.42135 60.38283 58.90209
# Shear Modulus (GPa) = 27.32032 29.36098 28.34065
#
# Velocity S-wave (km/s) = 3.55132 3.68156 3.61703
# Velocity P-wave (km/s) = 6.58204 6.77837 6.68093
#
# Compressibility (1/GPa) = 0.01741512
#
# Stress axis : x y z
#
# Youngs Moduli (GPa) = 89.71002 82.10618 86.50686
#
# Poissons Ratio (x) = 0.23427 0.42177
# Poissons Ratio (y) = 0.25596 0.08709
# Poissons Ratio (z) = 0.43739 0.08266
#
# Static dielectric constant tensor:
#      x y z
#    x 1.814860 0.000000 0.000000 
#    y 0.000000 1.786950 0.000000 
#    z 0.000000 0.000000 1.831520 
# 
# From -- ./inp_files/12819.got.cif
#   From: 2010.05.17/outbox.cif.g08.bks.cpg/sg36_7_cif.got.tgz:12819.got - 2010.06.03 17:41:39.
