data_PCOD9353831
_publ_section_title
;
Structure prediction by ZEFSAII (Michael W. Deem and Ramdas Pophale) SiO2 
 PCOD9353831
Probable space group: C C C 2
;
_chemical_formula_sum "Si O2"
_cell_formula_units_Z 64
_cell_length_a 15.983611
_cell_length_b 9.285307
_cell_length_c 21.493016
_cell_angle_alpha 90.000000
_cell_angle_beta 90.000000
_cell_angle_gamma 90.000000
_cell_volume 3189.837290
_symmetry_space_group_name_H-M "C C C 2"
_symmetry_group_IT_number 37
_symmetry_cell_setting 'orthorhombic'
loop_
_space_group_symop_operation_xyz
x,y,z
-x,-y,z
-x,y,1/2+z
x,-y,1/2+z
1/2+x,1/2+y,z
1/2-x,1/2-y,z
1/2-x,1/2+y,1/2+z
1/2+x,1/2-y,1/2+z
loop_
_atom_site_type_symbol
_atom_site_label
_atom_site_fract_x
_atom_site_fract_y
_atom_site_fract_z
Si Si1 0.893591 0.842736 0.673450
Si Si2 0.838933 0.670945 0.061415
Si Si3 0.094933 0.833949 0.677830
Si Si4 0.103361 0.665547 0.290394
Si Si5 0.416432 0.895659 0.929948
Si Si6 0.095210 0.660951 0.794414
Si Si7 0.837425 0.673412 0.551234
Si Si8 0.658584 0.185428 0.426010
O O1 0.861377 0.766609 0.736451
O O2 0.868104 0.750595 0.613767
O O3 0.994363 0.847144 0.679346
O O4 0.866618 0.008416 0.666708
O O5 0.750000 0.750000 0.063003
O O6 0.886798 0.726277 0.121510
O O7 0.829268 0.498301 0.062846
O O8 0.879357 0.717192 0.994530
O O9 0.128136 0.770550 0.743130
O O10 0.133092 0.499448 0.286834
O O11 0.116716 0.724622 0.360365
O O12 0.003970 0.653289 0.280663
O O13 0.405115 0.802966 0.867798
O O14 0.500000 0.000000 0.926309
O O15 0.341677 0.012201 0.926732
O O16 0.404074 0.815032 0.994617
O O17 0.750000 0.750000 0.533528
O O18 0.750000 0.250000 0.425092
#
# Coordination Sequence:
#
# PCOD9353831 Si02
#       8
#     8   8   8   8   8   8   8   8
#     4  10  22  36  56  84 126 156 200 251 303 352
#     4  10  21  38  60  82 120 158 202 243 307 367
#     4  10  21  37  56  86 119 160 200 251 297 364
#     4   9  16  32  55  83 115 148 197 251 294 354
#     4  10  19  37  64  91 116 156 210 257 293 369
#     4   9  16  33  59  86 112 145 207 253 295 345
#     4  11  24  38  59  89 123 157 200 253 310 361
#     4   9  18  32  55  88 116 149 189 249 300 354
#
# _framework density 20.063718999999999
#
# number of rings (size 3 to 8) (size 9 to 14) (size 15 to 20)
#    0.000    2.250    2.500    1.500    3.500    1.500 
#    0.000    8.125    0.000    3.000    0.000    0.000 
#    0.000    0.000    0.000    0.000    0.000    0.000 
#
# Total GULP energy -178164.462236 kJ/mol
# GULP energy per Si atom -5567.639445 kJ/mol
# Density = 2.001805 g / cm^3
# Si number density = 20.063719 Si / 1000 Ang^3
#
#
#
# Elastic Constant Matrix: (Units=GPa)
#
#
# Indices 1 2 3 4 5 6 
#
# 1 30.2048 24.6066 17.9395 0.0000 0.0000 0.0000
# 2 24.6066 108.9702 74.2675 0.0000 0.0000 0.0000
# 3 17.9395 74.2675 188.5510 0.0000 0.0000 0.0000
# 4 0.0000 0.0000 0.0000 12.4210 0.0000 0.0000
# 5 0.0000 0.0000 0.0000 0.0000 -55.7317 0.0000
# 6 0.0000 0.0000 0.0000 0.0000 0.0000 24.2590
#
#
#
# Elastic Compliance Matrix: (Units=1/GPa)
#
#
# Indices 1 2 3 4 5 6 
#
# 1 0.040587 -0.008930 -0.000344 0.000000 0.000000 0.000000
# 2 -0.008930 0.014509 -0.004865 0.000000 0.000000 0.000000
# 3 -0.000344 -0.004865 0.007253 0.000000 0.000000 0.000000
# 4 0.000000 0.000000 0.000000 0.080509 0.000000 0.000000
# 5 0.000000 0.000000 0.000000 0.000000 -0.017943 0.000000
# 6 0.000000 0.000000 0.000000 0.000000 0.000000 0.041222
#
#
# Mechanical properties :
#
#
# Convention : Reuss Voigt Hill
#
# Bulk Modulus (GPa) = 29.35193 62.37258 45.86226
# Shear Modulus (GPa) = 24.29868 10.25049 17.27459
#
# Velocity S-wave (km/s) = 3.48383 2.26275 2.93744
# Velocity P-wave (km/s) = 5.55372 6.16291 5.86623
#
# Compressibility (1/GPa) = 0.03406931
#
# Stress axis : x y z
#
# Youngs Moduli (GPa) = 24.63849 68.92119 137.87929
#
# Poissons Ratio (x) = 0.61550 0.04743
# Poissons Ratio (y) = 0.22003 0.67083
# Poissons Ratio (z) = 0.00848 0.33532
#
# Static dielectric constant tensor:
#      x y z
#    x 1.773310 0.000000 0.000000 
#    y 0.000000 1.701140 0.000000 
#    z 0.000000 0.000000 1.764670 
# 
# From -- ./inp_files/17358.got.cif
#   From: 2010.05.17/outbox.cif.g08.bks.cpg/sg37_9_cif.got.tgz:17358.got - 2010.06.03 17:53:42.
