data_PCOD9353614
_publ_section_title
;
Structure prediction by ZEFSAII (Michael W. Deem and Ramdas Pophale) SiO2 
 PCOD9353614
Probable space group: C C C 2
;
_chemical_formula_sum "Si O2"
_cell_formula_units_Z 52
_cell_length_a 9.952159
_cell_length_b 15.779006
_cell_length_c 13.163224
_cell_angle_alpha 90.000000
_cell_angle_beta 90.000000
_cell_angle_gamma 90.000000
_cell_volume 2067.089205
_symmetry_space_group_name_H-M "C C C 2"
_symmetry_group_IT_number 37
_symmetry_cell_setting 'orthorhombic'
loop_
_space_group_symop_operation_xyz
x,y,z
-x,-y,z
-x,y,1/2+z
x,-y,1/2+z
1/2+x,1/2+y,z
1/2-x,1/2-y,z
1/2-x,1/2+y,1/2+z
1/2+x,1/2-y,1/2+z
loop_
_atom_site_type_symbol
_atom_site_label
_atom_site_fract_x
_atom_site_fract_y
_atom_site_fract_z
Si Si1 0.450223 0.885983 0.658550
Si Si2 0.949668 0.798706 0.621410
Si Si3 0.328706 0.665833 0.903778
Si Si4 0.673917 0.430224 0.579446
Si Si5 0.000000 0.000000 0.398595
Si Si6 0.138848 0.530407 0.870775
Si Si7 0.741796 0.080388 0.205622
O O1 0.496270 0.789433 0.660627
O O2 0.328552 0.899773 0.580178
O O3 0.392957 0.915673 0.767597
O O4 0.597181 0.927902 0.650843
O O5 0.901472 0.797935 0.503678
O O6 0.824725 0.834967 0.686142
O O7 0.078506 0.858600 0.622451
O O8 0.250000 0.750000 0.857290
O O9 0.429506 0.589901 0.855081
O O10 0.212764 0.600048 0.937550
O O11 0.611128 0.461361 0.474699
O O12 0.666423 0.509800 0.654244
O O13 0.211833 0.448843 0.820184
O O14 0.000000 0.500000 0.916518
#
# Coordination Sequence:
#
# PCOD9353614 Si02
#       7
#     8   8   8   8   4   8   8
#     4  10  21  36  65  96 127 166 228 284 335 408
#     4  11  21  37  64 101 128 167 226 292 339 404
#     4  11  23  44  64  93 138 176 224 283 360 421
#     4  10  18  36  58  90 127 159 214 274 333 400
#     4  10  22  42  62  92 134 174 222 282 344 426
#     4   9  22  43  61  91 132 179 228 273 350 432
#     4  10  18  38  63  91 124 169 223 269 333 408
#
# _framework density 25.156148000000002
#
# number of rings (size 3 to 8) (size 9 to 14) (size 15 to 20)
#    0.000    1.846    3.077    3.231    0.000    2.462 
#   13.846    0.000    0.000    0.000    0.000    0.000 
#    0.000    0.000    0.000    0.000    0.000    0.000 
#
# Total GULP energy -144970.847574 kJ/mol
# GULP energy per Si atom -5575.801830 kJ/mol
# Density = 2.509889 g / cm^3
# Si number density = 25.156148 Si / 1000 Ang^3
#
#
#
# Elastic Constant Matrix: (Units=GPa)
#
#
# Indices 1 2 3 4 5 6 
#
# 1 156.7086 61.9472 36.9873 0.0000 0.0000 0.0000
# 2 61.9472 145.4754 -0.5723 0.0000 0.0000 0.0000
# 3 36.9873 -0.5723 53.8892 0.0000 0.0000 0.0000
# 4 0.0000 0.0000 0.0000 -2.1332 0.0000 0.0000
# 5 0.0000 0.0000 0.0000 0.0000 8.2621 0.0000
# 6 0.0000 0.0000 0.0000 0.0000 0.0000 74.4644
#
#
#
# Elastic Compliance Matrix: (Units=1/GPa)
#
#
# Indices 1 2 3 4 5 6 
#
# 1 0.009560 -0.004097 -0.006605 0.000000 0.000000 0.000000
# 2 -0.004097 0.008630 0.002903 0.000000 0.000000 0.000000
# 3 -0.006605 0.002903 0.023121 0.000000 0.000000 0.000000
# 4 0.000000 0.000000 0.000000 -0.468787 0.000000 0.000000
# 5 0.000000 0.000000 0.000000 0.000000 0.121034 0.000000
# 6 0.000000 0.000000 0.000000 0.000000 0.000000 0.013429
#
#
# Mechanical properties :
#
#
# Convention : Reuss Voigt Hill
#
# Bulk Modulus (GPa) = 38.88920 61.42195 50.15557
# Shear Modulus (GPa) = -18.59800 33.29942 7.35071
#
# Velocity S-wave (km/s) = -2.72196 3.64223 1.71125
# Velocity P-wave (km/s) = 2.36937 6.49285 4.88728
#
# Compressibility (1/GPa) = 0.02571408
#
# Stress axis : x y z
#
# Youngs Moduli (GPa) = 104.60674 115.87590 43.25129
#
# Poissons Ratio (x) = 0.47471 0.28567
# Poissons Ratio (y) = 0.42854 -0.12558
# Poissons Ratio (z) = 0.69091 -0.33644
#
# Static dielectric constant tensor:
#      x y z
#    x 2.126610 0.000000 0.000000 
#    y 0.000000 2.141950 0.000000 
#    z 0.000000 0.000000 1.996300 
# 
# From -- ./inp_files/14666.got.cif
#   From: 2010.05.17/outbox.cif.g08.bks.cpg/sg37_8_cif.got.tgz:14666.got - 2010.06.03 17:53:42.
