data_PCOD9353628
_publ_section_title
;
Structure prediction by ZEFSAII (Michael W. Deem and Ramdas Pophale) SiO2 
 PCOD9353628
Probable space group: C C C 2
;
_chemical_formula_sum "Si O2"
_cell_formula_units_Z 60
_cell_length_a 15.266282
_cell_length_b 27.713295
_cell_length_c 5.728810
_cell_angle_alpha 90.000000
_cell_angle_beta 90.000000
_cell_angle_gamma 90.000000
_cell_volume 2423.739072
_symmetry_space_group_name_H-M "C C C 2"
_symmetry_group_IT_number 37
_symmetry_cell_setting 'orthorhombic'
loop_
_space_group_symop_operation_xyz
x,y,z
-x,-y,z
-x,y,1/2+z
x,-y,1/2+z
1/2+x,1/2+y,z
1/2-x,1/2-y,z
1/2-x,1/2+y,1/2+z
1/2+x,1/2-y,1/2+z
loop_
_atom_site_type_symbol
_atom_site_label
_atom_site_fract_x
_atom_site_fract_y
_atom_site_fract_z
Si Si1 0.900515 0.483143 0.862360
Si Si2 0.537302 0.316354 0.006290
Si Si3 0.792519 0.658674 0.796819
Si Si4 0.250000 0.750000 0.574229
Si Si5 0.598897 0.784057 0.412807
Si Si6 0.306080 0.614526 0.925899
Si Si7 0.534200 0.444523 0.812259
Si Si8 0.117040 0.622832 0.698090
O O1 0.860102 0.505460 0.620123
O O2 0.910018 0.426840 0.807524
O O3 0.000000 0.500000 0.886372
O O4 0.479862 0.329919 0.777093
O O5 0.539340 0.258111 0.008740
O O6 0.628810 0.340172 0.929386
O O7 0.839711 0.692913 0.609384
O O8 0.732239 0.617183 0.686607
O O9 0.738888 0.699998 0.933935
O O10 0.870608 0.630488 0.925832
O O11 0.335858 0.759779 0.726148
O O12 0.562485 0.831853 0.290402
O O13 0.363396 0.568333 0.851735
O O14 0.221117 0.624247 0.770127
O O15 0.500000 0.500000 0.804307
O O16 0.491872 0.424839 0.055090
#
# Coordination Sequence:
#
# PCOD9353628 Si02
#       8
#     8   8   8   4   8   8   8   8
#     4  10  24  50  76 107 142 185 224 286 368 442
#     4  12  28  43  64  99 146 199 244 284 351 421
#     4  10  21  37  70  94 139 174 234 294 357 409
#     4  10  18  36  66  96 130 184 222 288 350 402
#     4  10  22  41  61 100 135 178 235 289 341 419
#     4  11  24  42  68 102 140 189 243 300 355 425
#     4  10  23  45  67  94 136 187 241 295 368 415
#     4  10  24  43  75 106 135 180 238 297 363 424
#
# _framework density 24.755140000000001
#
# number of rings (size 3 to 8) (size 9 to 14) (size 15 to 20)
#    0.000    1.600    0.000    4.400   13.067    0.000 
#    9.600    0.000    0.000    0.000    0.000    0.000 
#    0.000    0.000    0.000    0.000    0.000    0.000 
#
# Total GULP energy -167367.282606 kJ/mol
# GULP energy per Si atom -5578.909420 kJ/mol
# Density = 2.469880 g / cm^3
# Si number density = 24.755140 Si / 1000 Ang^3
#
#
#
# Elastic Constant Matrix: (Units=GPa)
#
#
# Indices 1 2 3 4 5 6 
#
# 1 70.5673 -0.0392 12.1683 0.0000 0.0000 0.0000
# 2 -0.0392 71.9210 -4.6509 0.0000 0.0000 0.0000
# 3 12.1683 -4.6509 124.6132 0.0000 0.0000 0.0000
# 4 0.0000 0.0000 0.0000 -17.8396 0.0000 0.0000
# 5 0.0000 0.0000 0.0000 0.0000 28.4519 0.0000
# 6 0.0000 0.0000 0.0000 0.0000 0.0000 41.8715
#
#
#
# Elastic Compliance Matrix: (Units=1/GPa)
#
#
# Indices 1 2 3 4 5 6 
#
# 1 0.014414 -0.000083 -0.001411 0.000000 0.000000 0.000000
# 2 -0.000083 0.013938 0.000528 0.000000 0.000000 0.000000
# 3 -0.001411 0.000528 0.008182 0.000000 0.000000 0.000000
# 4 0.000000 0.000000 0.000000 -0.056055 0.000000 0.000000
# 5 0.000000 0.000000 0.000000 0.000000 0.035147 0.000000
# 6 0.000000 0.000000 0.000000 0.000000 0.000000 0.023883
#
#
# Mechanical properties :
#
#
# Convention : Reuss Voigt Hill
#
# Bulk Modulus (GPa) = 28.89894 31.33978 30.11936
# Shear Modulus (GPa) = 94.38431 27.80497 61.09464
#
# Velocity S-wave (km/s) = 6.18142 3.35505 4.97324
# Velocity P-wave (km/s) = 7.91491 5.26269 6.72093
#
# Compressibility (1/GPa) = 0.03460335
#
# Stress axis : x y z
#
# Youngs Moduli (GPa) = 69.37667 71.74496 122.21509
#
# Poissons Ratio (x) = 0.00598 0.17240
# Poissons Ratio (y) = 0.00578 -0.06457
# Poissons Ratio (z) = 0.09786 -0.03791
#
# Static dielectric constant tensor:
#      x y z
#    x 1.892520 0.000000 0.000000 
#    y 0.000000 2.076480 0.000000 
#    z 0.000000 0.000000 2.208090 
# 
# From -- ./inp_files/858.got.cif
#   From: 2010.05.17/outbox.cif.g08.bks.cpg/sg37_1_cif.got.tgz:858.got - 2010.06.03 17:53:42.
