data_PCOD9353976
_publ_section_title
;
Structure prediction by ZEFSAII (Michael W. Deem and Ramdas Pophale) SiO2 
 PCOD9353976
Probable space group: C C C 2
;
_chemical_formula_sum "Si O2"
_cell_formula_units_Z 44
_cell_length_a 16.443887
_cell_length_b 22.242691
_cell_length_c 5.612464
_cell_angle_alpha 90.000000
_cell_angle_beta 90.000000
_cell_angle_gamma 90.000000
_cell_volume 2052.794052
_symmetry_space_group_name_H-M "C C C 2"
_symmetry_group_IT_number 37
_symmetry_cell_setting 'orthorhombic'
loop_
_space_group_symop_operation_xyz
x,y,z
-x,-y,z
-x,y,1/2+z
x,-y,1/2+z
1/2+x,1/2+y,z
1/2-x,1/2-y,z
1/2-x,1/2+y,1/2+z
1/2+x,1/2-y,1/2+z
loop_
_atom_site_type_symbol
_atom_site_label
_atom_site_fract_x
_atom_site_fract_y
_atom_site_fract_z
Si Si1 0.250000 0.750000 0.395481
Si Si2 0.855363 0.981797 0.607709
Si Si3 0.324633 0.654596 0.039317
Si Si4 0.835064 0.340926 0.727410
Si Si5 0.952472 0.750672 0.411319
Si Si6 0.332333 0.972189 0.575089
O O1 0.296082 0.701027 0.239624
O O2 0.186505 0.713449 0.552430
O O3 0.847234 0.910303 0.637641
O O4 0.894333 0.992752 0.348552
O O5 0.765611 0.013676 0.581801
O O6 0.246791 0.645144 0.872197
O O7 0.395005 0.690403 0.904006
O O8 0.901684 0.311732 0.898896
O O9 0.853460 0.401928 0.589397
O O10 0.995427 0.752073 0.668800
O O11 0.362446 0.998974 0.324244
#
# Coordination Sequence:
#
# PCOD9353976 Si02
#       6
#     4   8   8   8   8   8
#     4  12  20  36  64 108 124 166 230 296 338 394
#     4  10  20  35  59 101 127 155 205 286 344 386
#     4  12  23  39  70  98 131 173 227 290 338 400
#     4  12  23  39  70  98 131 173 227 290 338 400
#     4  12  28  46  61  95 142 188 222 268 342 420
#     4  10  20  35  59 101 127 155 205 286 344 386
#
# _framework density 21.434201000000002
#
# number of rings (size 3 to 8) (size 9 to 14) (size 15 to 20)
#    0.000    0.727    7.273    3.273    0.000    0.000 
#    0.000    0.000    0.000    6.545    0.000    0.000 
#    0.000    0.000    0.000    0.000    0.000    0.000 
#
# Total GULP energy -122902.489734 kJ/mol
# GULP energy per Si atom -5586.476806 kJ/mol
# Density = 2.138542 g / cm^3
# Si number density = 21.434201 Si / 1000 Ang^3
#
#
#
# Elastic Constant Matrix: (Units=GPa)
#
#
# Indices 1 2 3 4 5 6 
#
# 1 38.5628 10.7542 12.3985 0.0000 0.0000 0.0000
# 2 10.7542 117.1568 18.5630 0.0000 0.0000 0.0000
# 3 12.3985 18.5630 145.4534 0.0000 0.0000 0.0000
# 4 0.0000 0.0000 0.0000 68.2770 0.0000 0.0000
# 5 0.0000 0.0000 0.0000 0.0000 30.4057 0.0000
# 6 0.0000 0.0000 0.0000 0.0000 0.0000 -5.9658
#
#
#
# Elastic Compliance Matrix: (Units=1/GPa)
#
#
# Indices 1 2 3 4 5 6 
#
# 1 0.027194 -0.002173 -0.002041 0.000000 0.000000 0.000000
# 2 -0.002173 0.008885 -0.000949 0.000000 0.000000 0.000000
# 3 -0.002041 -0.000949 0.007170 0.000000 0.000000 0.000000
# 4 0.000000 0.000000 0.000000 0.014646 0.000000 0.000000
# 5 0.000000 0.000000 0.000000 0.000000 0.032889 0.000000
# 6 0.000000 0.000000 0.000000 0.000000 0.000000 -0.167623
#
#
# Mechanical properties :
#
#
# Convention : Reuss Voigt Hill
#
# Bulk Modulus (GPa) = 30.37244 42.73383 36.55313
# Shear Modulus (GPa) = -90.02559 35.84053 -27.09253
#
# Velocity S-wave (km/s) = -6.48784 4.09359 -3.55912
# Velocity P-wave (km/s) = 6.47472 6.50568 0.44826
#
# Compressibility (1/GPa) = 0.03292459
#
# Stress axis : x y z
#
# Youngs Moduli (GPa) = 36.77309 112.54476 139.46833
#
# Poissons Ratio (x) = 0.24455 0.28461
# Poissons Ratio (y) = 0.07990 0.13232
# Poissons Ratio (z) = 0.07504 0.10678
#
# Static dielectric constant tensor:
#      x y z
#    x 1.830130 0.000000 0.000000 
#    y 0.000000 1.906680 0.000000 
#    z 0.000000 0.000000 1.837090 
# 
# From -- ./inp_files/976.got.cif
#   From: 2010.05.17/outbox.cif.g08.bks.cpg/sg37_1_cif.got.tgz:976.got - 2010.06.03 17:53:42.
