data_PCOD9353538
_publ_section_title
;
Structure prediction by ZEFSAII (Michael W. Deem and Ramdas Pophale) SiO2 
 PCOD9353538
Probable space group: C C C 2
;
_chemical_formula_sum "Si O2"
_cell_formula_units_Z 64
_cell_length_a 12.273997
_cell_length_b 16.336286
_cell_length_c 15.105297
_cell_angle_alpha 90.000000
_cell_angle_beta 90.000000
_cell_angle_gamma 90.000000
_cell_volume 3028.786142
_symmetry_space_group_name_H-M "C C C 2"
_symmetry_group_IT_number 37
_symmetry_cell_setting 'orthorhombic'
loop_
_space_group_symop_operation_xyz
x,y,z
-x,-y,z
-x,y,1/2+z
x,-y,1/2+z
1/2+x,1/2+y,z
1/2-x,1/2-y,z
1/2-x,1/2+y,1/2+z
1/2+x,1/2-y,1/2+z
loop_
_atom_site_type_symbol
_atom_site_label
_atom_site_fract_x
_atom_site_fract_y
_atom_site_fract_z
Si Si1 0.649711 0.196916 0.827990
Si Si2 0.728180 0.593263 0.831335
Si Si3 0.991139 0.415201 0.095650
Si Si4 0.886996 0.042904 0.711223
Si Si5 0.885726 0.472098 0.913686
Si Si6 0.287791 0.162766 0.125725
Si Si7 0.853264 0.713556 0.701151
Si Si8 0.016814 0.172913 0.819919
O O1 0.750000 0.250000 0.860097
O O2 0.655543 0.106854 0.863654
O O3 0.660807 0.188852 0.721720
O O4 0.543811 0.247795 0.857425
O O5 0.685469 0.528570 0.756496
O O6 0.798641 0.543282 0.901376
O O7 0.801565 0.662690 0.783802
O O8 0.617821 0.632829 0.870845
O O9 0.925215 0.347671 0.146870
O O10 0.000000 0.500000 0.149728
O O11 0.111586 0.380657 0.076568
O O12 0.920514 0.441946 0.010781
O O13 0.810937 0.099043 0.647447
O O14 0.930665 0.105120 0.787812
O O15 0.000000 0.000000 0.676443
O O16 0.000000 0.500000 0.871594
O O17 0.250000 0.250000 0.085773
O O18 0.750000 0.750000 0.650021
O O19 0.924864 0.789594 0.733173
#
# Coordination Sequence:
#
# PCOD9353538 Si02
#       8
#     8   8   8   8   8   8   8   8
#     4  11  19  34  61  90 115 153 201 253 309 364
#     4  10  20  33  55  81 115 151 193 250 295 354
#     4  11  24  38  55  85 122 161 202 245 315 390
#     4  10  18  30  53  90 119 144 191 250 305 356
#     4  11  24  38  53  83 118 161 201 244 307 375
#     4  11  19  35  61  89 117 153 202 260 305 372
#     4  10  20  34  56  86 116 153 196 255 309 355
#     4  10  18  32  54  88 116 140 197 251 303 354
#
# _framework density 21.130578
#
# number of rings (size 3 to 8) (size 9 to 14) (size 15 to 20)
#    0.000    1.500    5.000    1.500    0.000    0.500 
#    0.000    2.500    0.000    0.000    0.000   48.125 
#    0.000    0.000    0.000    0.000    0.000    0.000 
#
# Total GULP energy -178506.945201 kJ/mol
# GULP energy per Si atom -5578.342038 kJ/mol
# Density = 2.108248 g / cm^3
# Si number density = 21.130578 Si / 1000 Ang^3
#
#
#
# Elastic Constant Matrix: (Units=GPa)
#
#
# Indices 1 2 3 4 5 6 
#
# 1 134.7363 50.3673 24.2496 0.0000 0.0000 0.0000
# 2 50.3673 119.8752 13.0730 0.0000 0.0000 0.0000
# 3 24.2496 13.0730 23.4360 0.0000 0.0000 0.0000
# 4 0.0000 0.0000 0.0000 5.8926 0.0000 0.0000
# 5 0.0000 0.0000 0.0000 0.0000 87.7569 0.0000
# 6 0.0000 0.0000 0.0000 0.0000 0.0000 71.8916
#
#
#
# Elastic Compliance Matrix: (Units=1/GPa)
#
#
# Indices 1 2 3 4 5 6 
#
# 1 0.010247 -0.003353 -0.008732 0.000000 0.000000 0.000000
# 2 -0.003353 0.009980 -0.002097 0.000000 0.000000 0.000000
# 3 -0.008732 -0.002097 0.052875 0.000000 0.000000 0.000000
# 4 0.000000 0.000000 0.000000 0.169705 0.000000 0.000000
# 5 0.000000 0.000000 0.000000 0.000000 0.011395 0.000000
# 6 0.000000 0.000000 0.000000 0.000000 0.000000 0.013910
#
#
# Mechanical properties :
#
#
# Convention : Reuss Voigt Hill
#
# Bulk Modulus (GPa) = 22.35336 50.38080 36.36708
# Shear Modulus (GPa) = 16.05708 45.79871 30.92789
#
# Velocity S-wave (km/s) = 2.75961 4.66060 3.82993
# Velocity P-wave (km/s) = 4.55583 7.27021 6.06678
#
# Compressibility (1/GPa) = 0.04473601
#
# Stress axis : x y z
#
# Youngs Moduli (GPa) = 97.58954 100.20447 18.91259
#
# Poissons Ratio (x) = 0.33600 0.16515
# Poissons Ratio (y) = 0.32723 0.03967
# Poissons Ratio (z) = 0.85218 0.21016
#
# Static dielectric constant tensor:
#      x y z
#    x 1.819950 0.000000 0.000000 
#    y 0.000000 1.812170 0.000000 
#    z 0.000000 0.000000 1.761180 
# 
# From -- ./inp_files/11775.got.cif
#   From: 2010.05.17/outbox.cif.g08.bks.cpg/sg37_6_cif.got.tgz:11775.got - 2010.06.03 17:53:42.
