data_PCOD9353129
_publ_section_title
;
Structure prediction by ZEFSAII (Michael W. Deem and Ramdas Pophale) SiO2 
 PCOD9353129
Probable space group: C M C 21
;
_chemical_formula_sum "Si O2"
_cell_formula_units_Z 52
_cell_length_a 7.569000
_cell_length_b 14.491140
_cell_length_c 20.247441
_cell_angle_alpha 90.000000
_cell_angle_beta 90.000000
_cell_angle_gamma 90.000000
_cell_volume 2220.808953
_symmetry_space_group_name_H-M "C M C 21"
_symmetry_group_IT_number 36
_symmetry_cell_setting 'orthorhombic'
loop_
_space_group_symop_operation_xyz
x,y,z
-x,-y,1/2+z
x,-y,1/2+z
-x,y,z
1/2+x,1/2+y,z
1/2-x,1/2-y,1/2+z
1/2+x,1/2-y,1/2+z
1/2-x,1/2+y,z
loop_
_atom_site_type_symbol
_atom_site_label
_atom_site_fract_x
_atom_site_fract_y
_atom_site_fract_z
Si Si1 0.786229 0.756429 0.088970
Si Si2 0.695522 0.711577 0.940737
Si Si3 0.500000 0.858489 0.340909
Si Si4 0.786614 0.032414 0.565323
Si Si5 0.287180 0.578918 0.420994
Si Si6 0.800504 0.602767 0.178326
Si Si7 0.799749 0.034099 0.790637
O O1 0.736937 0.863754 0.087121
O O2 0.722751 0.699040 0.152245
O O3 0.000000 0.753125 0.089708
O O4 0.728259 0.711413 0.019526
O O5 0.500000 0.672632 0.928545
O O6 0.702555 0.820438 0.922375
O O7 0.845062 0.666637 0.896023
O O8 0.344131 0.886602 0.286862
O O9 0.739666 0.026019 0.488149
O O10 0.000000 0.023334 0.571091
O O11 0.699062 0.958742 0.612198
O O12 0.500000 0.593111 0.421832
O O13 0.241943 0.522263 0.356274
O O14 0.705709 0.541049 0.232466
O O15 0.000000 0.618019 0.202559
O O16 0.000000 0.067604 0.795971
#
# Coordination Sequence:
#
# PCOD9353129 Si02
#       7
#     8   8   4   8   8   8   8
#     4   9  20  41  64  91 131 170 216 270 327 389
#     4  11  22  38  68 100 130 169 214 271 333 387
#     4  12  24  44  62  96 134 164 218 276 310 398
#     4   9  19  38  65  93 125 166 215 271 319 386
#     4   9  20  42  66  96 131 168 217 273 328 388
#     4  11  23  41  63  90 131 175 217 271 330 386
#     4  11  25  44  66  92 132 177 218 268 332 396
#
# _framework density 23.41489
#
# number of rings (size 3 to 8) (size 9 to 14) (size 15 to 20)
#    0.000    1.846    2.308    1.846    3.231    3.692 
#    2.769    0.000    0.000    0.000    0.000    0.000 
#    0.000    0.000    0.000    0.000    0.000    0.000 
#
# Total GULP energy -144933.530224 kJ/mol
# GULP energy per Si atom -5574.366547 kJ/mol
# Density = 2.336160 g / cm^3
# Si number density = 23.414890 Si / 1000 Ang^3
#
#
#
# Elastic Constant Matrix: (Units=GPa)
#
#
# Indices 1 2 3 4 5 6 
#
# 1 92.7420 8.1027 -0.4279 0.0000 0.0000 0.0000
# 2 8.1027 35.5088 14.1341 0.0000 0.0000 0.0000
# 3 -0.4279 14.1341 47.5801 0.0000 0.0000 0.0000
# 4 0.0000 0.0000 0.0000 -8.3437 0.0000 0.0000
# 5 0.0000 0.0000 0.0000 0.0000 24.0381 0.0000
# 6 0.0000 0.0000 0.0000 0.0000 0.0000 6.3544
#
#
#
# Elastic Compliance Matrix: (Units=1/GPa)
#
#
# Indices 1 2 3 4 5 6 
#
# 1 0.011041 -0.002902 0.000961 0.000000 0.000000 0.000000
# 2 -0.002902 0.032701 -0.009740 0.000000 0.000000 0.000000
# 3 0.000961 -0.009740 0.023919 0.000000 0.000000 0.000000
# 4 0.000000 0.000000 0.000000 -0.119851 0.000000 0.000000
# 5 0.000000 0.000000 0.000000 0.000000 0.041601 0.000000
# 6 0.000000 0.000000 0.000000 0.000000 0.000000 0.157372
#
#
# Mechanical properties :
#
#
# Convention : Reuss Voigt Hill
#
# Bulk Modulus (GPa) = 22.57371 24.38317 23.47844
# Shear Modulus (GPa) = 27.03993 14.67788 20.85890
#
# Velocity S-wave (km/s) = 3.40195 2.50644 2.98793
# Velocity P-wave (km/s) = 5.00926 4.33733 4.68536
#
# Compressibility (1/GPa) = 0.04429931
#
# Stress axis : x y z
#
# Youngs Moduli (GPa) = 90.57499 30.57979 41.80728
#
# Poissons Ratio (x) = 0.08874 -0.04019
# Poissons Ratio (y) = 0.26285 0.40722
# Poissons Ratio (z) = -0.08707 0.29786
#
# Static dielectric constant tensor:
#      x y z
#    x 1.859910 0.000000 0.000000 
#    y 0.000000 1.931970 0.000000 
#    z 0.000000 0.000000 1.860250 
# 
# From -- ./inp_files/13609.got.cif
#   From: 2010.05.17/outbox.cif.g08.bks.cpg/sg36_7_cif.got.tgz:13609.got - 2010.06.03 17:41:39.
