data_PCOD9353140
_publ_section_title
;
Structure prediction by ZEFSAII (Michael W. Deem and Ramdas Pophale) SiO2 
 PCOD9353140
Probable space group: C M C 21
;
_chemical_formula_sum "Si O2"
_cell_formula_units_Z 48
_cell_length_a 15.305881
_cell_length_b 8.621313
_cell_length_c 16.441464
_cell_angle_alpha 90.000000
_cell_angle_beta 90.000000
_cell_angle_gamma 90.000000
_cell_volume 2169.562826
_symmetry_space_group_name_H-M "C M C 21"
_symmetry_group_IT_number 36
_symmetry_cell_setting 'orthorhombic'
loop_
_space_group_symop_operation_xyz
x,y,z
-x,-y,1/2+z
x,-y,1/2+z
-x,y,z
1/2+x,1/2+y,z
1/2-x,1/2-y,1/2+z
1/2+x,1/2-y,1/2+z
1/2-x,1/2+y,z
loop_
_atom_site_type_symbol
_atom_site_label
_atom_site_fract_x
_atom_site_fract_y
_atom_site_fract_z
Si Si1 0.305752 0.989791 0.677420
Si Si2 0.313735 0.570034 0.019317
Si Si3 0.500000 0.998997 0.662749
Si Si4 0.178427 0.815803 0.271417
Si Si5 0.000000 0.839235 0.218811
Si Si6 0.000000 0.569605 0.971091
Si Si7 0.325731 0.883429 0.933991
Si Si8 0.500000 0.591042 0.526512
O O1 0.402126 0.067906 0.671574
O O2 0.256724 0.070458 0.751889
O O3 0.240498 0.980514 0.600012
O O4 0.320577 0.809477 0.698023
O O5 0.410643 0.502095 0.014520
O O6 0.321471 0.754009 0.005719
O O7 0.255546 0.496354 0.947680
O O8 0.500000 0.849745 0.723239
O O9 0.500000 0.955422 0.568074
O O10 0.086168 0.901312 0.261952
O O11 0.179894 0.717415 0.352898
O O12 0.000000 0.870717 0.123004
O O13 0.000000 0.756501 0.968922
O O14 0.913726 0.485604 0.937244
#
# Coordination Sequence:
#
# PCOD9353140 Si02
#       8
#     8   8   4   8   4   4   8   4
#     4  11  22  41  66  92 127 170 221 267 323 396
#     4  12  24  42  66  99 131 174 222 276 326 392
#     4   9  20  37  64  93 118 159 223 265 311 381
#     4  11  23  42  64  95 131 172 212 267 334 393
#     4   9  19  38  64  88 124 167 207 263 321 380
#     4  11  22  41  68  95 133 171 221 277 330 389
#     4  12  25  41  66 100 137 173 218 273 335 394
#     4  11  23  42  68 100 127 173 227 281 322 386
#
# _framework density 22.124272000000001
#
# number of rings (size 3 to 8) (size 9 to 14) (size 15 to 20)
#    0.000    1.000    3.333    4.000    2.333    0.000 
#    0.000    1.667    0.000    0.000    0.000    0.000 
#    0.000    0.000    0.000    0.000    0.000    0.000 
#
# Total GULP energy -134002.730044 kJ/mol
# GULP energy per Si atom -5583.447085 kJ/mol
# Density = 2.207392 g / cm^3
# Si number density = 22.124272 Si / 1000 Ang^3
#
#
#
# Elastic Constant Matrix: (Units=GPa)
#
#
# Indices 1 2 3 4 5 6 
#
# 1 210.0556 46.7243 22.3679 0.0000 0.0000 0.0000
# 2 46.7243 80.2526 -0.2088 0.0000 0.0000 0.0000
# 3 22.3679 -0.2088 51.3627 0.0000 0.0000 0.0000
# 4 0.0000 0.0000 0.0000 23.2686 0.0000 0.0000
# 5 0.0000 0.0000 0.0000 0.0000 25.6723 0.0000
# 6 0.0000 0.0000 0.0000 0.0000 0.0000 402.6965
#
#
#
# Elastic Compliance Matrix: (Units=1/GPa)
#
#
# Indices 1 2 3 4 5 6 
#
# 1 0.005780 -0.003372 -0.002531 0.000000 0.000000 0.000000
# 2 -0.003372 0.014428 0.001527 0.000000 0.000000 0.000000
# 3 -0.002531 0.001527 0.020578 0.000000 0.000000 0.000000
# 4 0.000000 0.000000 0.000000 0.042976 0.000000 0.000000
# 5 0.000000 0.000000 0.000000 0.000000 0.038953 0.000000
# 6 0.000000 0.000000 0.000000 0.000000 0.000000 0.002483
#
#
# Mechanical properties :
#
#
# Convention : Reuss Voigt Hill
#
# Bulk Modulus (GPa) = 31.21655 53.27085 42.24370
# Shear Modulus (GPa) = 34.57156 108.51332 71.54244
#
# Velocity S-wave (km/s) = 3.95727 7.01097 5.69270
# Velocity P-wave (km/s) = 5.91779 9.46934 7.89585
#
# Compressibility (1/GPa) = 0.03203429
#
# Stress axis : x y z
#
# Youngs Moduli (GPa) = 173.00477 69.31061 48.59616
#
# Poissons Ratio (x) = 0.23371 0.12299
# Poissons Ratio (y) = 0.58336 -0.07421
# Poissons Ratio (z) = 0.43786 -0.10584
#
# Static dielectric constant tensor:
#      x y z
#    x 1.795800 0.000000 0.000000 
#    y 0.000000 1.803940 0.000000 
#    z 0.000000 0.000000 1.840330 
# 
# From -- ./inp_files/14607.got.cif
#   From: 2010.05.17/outbox.cif.g08.bks.cpg/sg36_8_cif.got.tgz:14607.got - 2010.06.03 17:41:39.
