data_PCOD9353923
_publ_section_title
;
Structure prediction by ZEFSAII (Michael W. Deem and Ramdas Pophale) SiO2 
 PCOD9353923
Probable space group: C C C 2
;
_chemical_formula_sum "Si O2"
_cell_formula_units_Z 60
_cell_length_a 13.971450
_cell_length_b 21.995142
_cell_length_c 10.468497
_cell_angle_alpha 90.000000
_cell_angle_beta 90.000000
_cell_angle_gamma 90.000000
_cell_volume 3217.011282
_symmetry_space_group_name_H-M "C C C 2"
_symmetry_group_IT_number 37
_symmetry_cell_setting 'orthorhombic'
loop_
_space_group_symop_operation_xyz
x,y,z
-x,-y,z
-x,y,1/2+z
x,-y,1/2+z
1/2+x,1/2+y,z
1/2-x,1/2-y,z
1/2-x,1/2+y,1/2+z
1/2+x,1/2-y,1/2+z
loop_
_atom_site_type_symbol
_atom_site_label
_atom_site_fract_x
_atom_site_fract_y
_atom_site_fract_z
Si Si1 0.770439 0.180060 0.625000
Si Si2 0.321816 1.000000 0.728383
Si Si3 0.160177 0.088392 0.624394
Si Si4 0.928152 0.392316 0.340222
Si Si5 0.071848 0.607684 0.616543
Si Si6 0.839823 0.088392 0.832371
Si Si7 0.000000 0.000000 0.728382
Si Si8 0.729561 0.680060 0.831765
O O1 0.750000 0.250000 0.658153
O O2 0.666609 0.148477 0.622217
O O3 0.832755 0.142240 0.727296
O O4 0.809080 0.176766 0.478383
O O5 0.252571 0.045533 0.651235
O O6 0.388421 0.039909 0.818935
O O7 0.388421 0.960091 0.637830
O O8 0.252570 0.954467 0.805530
O O9 0.160818 0.110177 0.478383
O O10 0.167245 0.142240 0.729469
O O11 0.069365 0.044494 0.648481
O O12 0.974577 0.385940 0.478383
O O13 0.833391 0.351523 0.334548
O O14 1.000000 0.376701 0.228382
O O15 0.930635 0.044495 0.808284
O O16 0.750000 0.750000 0.798613
#
# Coordination Sequence:
#
# PCOD9353923 Si02
#       8
#     8   8   8   8   8   8   4   8
#     4   9  20  40  59  75 106 150 187 225 282 335
#     4   9  19  33  53  78 110 142 175 213 273 325
#     4  10  20  35  58  84 110 145 188 233 274 330
#     4  10  20  33  52  78 106 138 173 215 265 319
#     4  10  20  33  52  78 106 138 173 215 265 319
#     4  10  20  35  58  84 110 145 188 233 274 330
#     4  10  22  36  54  86 128 148 178 232 306 346
#     4   9  20  40  59  75 106 150 187 225 282 335
#
# _framework density 18.650850999999999
#
# number of rings (size 3 to 8) (size 9 to 14) (size 15 to 20)
#    0.000    2.400    0.000    1.600    0.000   14.400 
#    2.400    0.000    0.000    0.000    0.000    0.000 
#    0.000    0.000    0.000    0.000    0.000    0.000 
#
# Total GULP energy -167299.697032 kJ/mol
# GULP energy per Si atom -5576.656568 kJ/mol
# Density = 1.860840 g / cm^3
# Si number density = 18.650851 Si / 1000 Ang^3
#
#
#
# Elastic Constant Matrix: (Units=GPa)
#
#
# Indices 1 2 3 4 5 6 
#
# 1 41.1615 10.0055 40.6030 0.0000 0.0000 0.0000
# 2 10.0055 117.2774 57.0083 0.0000 0.0000 0.0000
# 3 40.6030 57.0083 163.2908 0.0000 0.0000 0.0000
# 4 0.0000 0.0000 0.0000 14.1241 0.0000 0.0000
# 5 0.0000 0.0000 0.0000 0.0000 42.2875 0.0000
# 6 0.0000 0.0000 0.0000 0.0000 0.0000 12.3498
#
#
#
# Elastic Compliance Matrix: (Units=1/GPa)
#
#
# Indices 1 2 3 4 5 6 
#
# 1 0.032376 0.001386 -0.008535 0.000000 0.000000 0.000000
# 2 0.001386 0.010329 -0.003951 0.000000 0.000000 0.000000
# 3 -0.008535 -0.003951 0.009626 0.000000 0.000000 0.000000
# 4 0.000000 0.000000 0.000000 0.070801 0.000000 0.000000
# 5 0.000000 0.000000 0.000000 0.000000 0.023648 0.000000
# 6 0.000000 0.000000 0.000000 0.000000 0.000000 0.080973
#
#
# Mechanical properties :
#
#
# Convention : Reuss Voigt Hill
#
# Bulk Modulus (GPa) = 33.18622 59.66256 46.42439
# Shear Modulus (GPa) = 19.23115 28.02647 23.62881
#
# Velocity S-wave (km/s) = 3.21458 3.88066 3.56322
# Velocity P-wave (km/s) = 5.62228 7.22067 6.47102
#
# Compressibility (1/GPa) = 0.03013299
#
# Stress axis : x y z
#
# Youngs Moduli (GPa) = 30.88678 96.81484 103.89057
#
# Poissons Ratio (x) = -0.13423 0.88666
# Poissons Ratio (y) = -0.04282 0.41045
# Poissons Ratio (z) = 0.26360 0.38250
#
# Static dielectric constant tensor:
#      x y z
#    x 1.630200 0.000000 0.000000 
#    y 0.000000 1.653080 0.000000 
#    z 0.000000 0.000000 1.665720 
# 
# From -- ./inp_files/3744.got.cif
#   From: 2010.05.17/outbox.cif.g08.bks.cpg/sg37_2_cif.got.tgz:3744.got - 2010.06.03 17:53:42.
