data_PCOD9353548
_publ_section_title
;
Structure prediction by ZEFSAII (Michael W. Deem and Ramdas Pophale) SiO2 
 PCOD9353548
Probable space group: C C C 2
;
_chemical_formula_sum "Si O2"
_cell_formula_units_Z 64
_cell_length_a 17.862042
_cell_length_b 19.424757
_cell_length_c 8.727608
_cell_angle_alpha 90.000000
_cell_angle_beta 90.000000
_cell_angle_gamma 90.000000
_cell_volume 3028.181713
_symmetry_space_group_name_H-M "C C C 2"
_symmetry_group_IT_number 37
_symmetry_cell_setting 'orthorhombic'
loop_
_space_group_symop_operation_xyz
x,y,z
-x,-y,z
-x,y,1/2+z
x,-y,1/2+z
1/2+x,1/2+y,z
1/2-x,1/2-y,z
1/2-x,1/2+y,1/2+z
1/2+x,1/2-y,1/2+z
loop_
_atom_site_type_symbol
_atom_site_label
_atom_site_fract_x
_atom_site_fract_y
_atom_site_fract_z
Si Si1 0.451089 0.624220 0.936730
Si Si2 0.687462 0.538775 0.572184
Si Si3 0.039751 0.655214 0.837641
Si Si4 0.441331 0.557760 0.644843
Si Si5 0.333847 0.278368 0.898787
Si Si6 0.432252 0.759913 0.115809
Si Si7 0.104558 0.358190 0.026536
Si Si8 0.243579 0.916962 0.383256
O O1 0.444718 0.622478 0.756081
O O2 0.459195 0.696773 0.014282
O O3 0.376184 0.588030 0.001345
O O4 0.523792 0.580587 0.984845
O O5 0.637329 0.479268 0.651735
O O6 0.730831 0.493509 0.448447
O O7 0.736481 0.577130 0.699377
O O8 0.086563 0.685000 0.981671
O O9 0.090835 0.621745 0.704566
O O10 0.994954 0.709370 0.728614
O O11 0.968898 0.621262 0.926835
O O12 0.500000 0.500000 0.700782
O O13 0.250000 0.250000 0.900079
O O14 0.368386 0.266452 0.730309
O O15 0.380172 0.225035 0.006545
O O16 0.320187 0.359754 0.930900
O O17 0.177595 0.391398 0.949589
#
# Coordination Sequence:
#
# PCOD9353548 Si02
#       8
#     8   8   8   8   8   8   8   8
#     4  11  20  31  49  79 114 163 195 232 274 329
#     4  11  22  36  54  79 116 163 203 240 287 348
#     4   9  19  36  58  91 112 142 196 250 310 353
#     4  10  21  32  45  70 109 155 204 227 260 326
#     4   9  19  36  57  82 114 159 189 234 295 356
#     4  10  18  31  54  82 119 141 188 238 287 351
#     4   9  20  40  65  87 115 150 194 256 316 360
#     4  11  22  40  59  83 124 163 204 240 303 362
#
# _framework density 21.134796000000001
#
# number of rings (size 3 to 8) (size 9 to 14) (size 15 to 20)
#    0.000    2.000    2.500    1.875    1.750    4.000 
#    0.000    8.125    0.000    2.250    0.000    0.000 
#    0.000    0.000    0.000    0.000    0.000    0.000 
#
# Total GULP energy -178211.524831 kJ/mol
# GULP energy per Si atom -5569.110151 kJ/mol
# Density = 2.108669 g / cm^3
# Si number density = 21.134796 Si / 1000 Ang^3
#
#
#
# Elastic Constant Matrix: (Units=GPa)
#
#
# Indices 1 2 3 4 5 6 
#
# 1 79.9422 5.8937 29.4044 0.0000 0.0000 0.0000
# 2 5.8937 22.3747 -3.6741 0.0000 0.0000 0.0000
# 3 29.4044 -3.6741 83.1417 0.0000 0.0000 0.0000
# 4 0.0000 0.0000 0.0000 18.0276 0.0000 0.0000
# 5 0.0000 0.0000 0.0000 0.0000 23.2394 0.0000
# 6 0.0000 0.0000 0.0000 0.0000 0.0000 19.1655
#
#
#
# Elastic Compliance Matrix: (Units=1/GPa)
#
#
# Indices 1 2 3 4 5 6 
#
# 1 0.014878 -0.004818 -0.005475 0.000000 0.000000 0.000000
# 2 -0.004818 0.046580 0.003762 0.000000 0.000000 0.000000
# 3 -0.005475 0.003762 0.014130 0.000000 0.000000 0.000000
# 4 0.000000 0.000000 0.000000 0.055471 0.000000 0.000000
# 5 0.000000 0.000000 0.000000 0.000000 0.043030 0.000000
# 6 0.000000 0.000000 0.000000 0.000000 0.000000 0.052177
#
#
# Mechanical properties :
#
#
# Convention : Reuss Voigt Hill
#
# Bulk Modulus (GPa) = 15.99293 27.63405 21.81349
# Shear Modulus (GPa) = 19.21824 22.34214 20.78019
#
# Velocity S-wave (km/s) = 3.01876 3.25487 3.13904
# Velocity P-wave (km/s) = 4.44231 5.21816 4.84578
#
# Compressibility (1/GPa) = 0.06252765
#
# Stress axis : x y z
#
# Youngs Moduli (GPa) = 67.21356 21.46835 70.77068
#
# Poissons Ratio (x) = 0.10343 0.38745
# Poissons Ratio (y) = 0.32383 -0.26626
# Poissons Ratio (z) = 0.36798 -0.08077
#
# Static dielectric constant tensor:
#      x y z
#    x 1.773210 0.000000 0.000000 
#    y 0.000000 1.834420 0.000000 
#    z 0.000000 0.000000 1.789520 
# 
# From -- ./inp_files/4158.got.cif
#   From: 2010.05.17/outbox.cif.g08.bks.cpg/sg37_3_cif.got.tgz:4158.got - 2010.06.03 17:53:42.
