data_PCOD9353980
_publ_section_title
;
Structure prediction by ZEFSAII (Michael W. Deem and Ramdas Pophale) SiO2 
 PCOD9353980
Probable space group: C C C 2
;
_chemical_formula_sum "Si O2"
_cell_formula_units_Z 64
_cell_length_a 13.018768
_cell_length_b 11.133774
_cell_length_c 22.517202
_cell_angle_alpha 90.000000
_cell_angle_beta 90.000000
_cell_angle_gamma 90.000000
_cell_volume 3263.823861
_symmetry_space_group_name_H-M "C C C 2"
_symmetry_group_IT_number 37
_symmetry_cell_setting 'orthorhombic'
loop_
_space_group_symop_operation_xyz
x,y,z
-x,-y,z
-x,y,1/2+z
x,-y,1/2+z
1/2+x,1/2+y,z
1/2-x,1/2-y,z
1/2-x,1/2+y,1/2+z
1/2+x,1/2-y,1/2+z
loop_
_atom_site_type_symbol
_atom_site_label
_atom_site_fract_x
_atom_site_fract_y
_atom_site_fract_z
Si Si1 0.918146 0.775883 0.076870
Si Si2 0.991522 0.862531 0.368176
Si Si3 0.335416 0.531310 0.671929
Si Si4 0.643185 0.315919 0.100552
Si Si5 0.104820 0.576858 0.658814
Si Si6 0.184384 0.873840 0.967027
Si Si7 0.829950 0.855356 0.953885
Si Si8 0.130463 0.772928 0.762345
O O1 0.870601 0.873779 0.121646
O O2 0.871280 0.648739 0.097304
O O3 0.038061 0.746797 0.088738
O O4 0.899863 0.831541 0.012399
O O5 0.913081 0.860774 0.423910
O O6 0.945508 0.777802 0.317655
O O7 0.101498 0.834633 0.395745
O O8 0.000000 0.000000 0.346716
O O9 0.383625 0.406144 0.653551
O O10 0.212342 0.510144 0.671023
O O11 0.367299 0.595959 0.731985
O O12 0.750000 0.250000 0.113274
O O13 0.661217 0.379968 0.037208
O O14 0.099449 0.675933 0.711993
O O15 0.000000 0.500000 0.657161
O O16 0.250000 0.750000 0.959063
O O17 0.219509 0.010938 0.952848
O O18 0.750000 0.750000 0.958025
O O19 0.250000 0.750000 0.779612
#
# Coordination Sequence:
#
# PCOD9353980 Si02
#       8
#     8   8   8   8   8   8   8   8
#     4  11  20  35  57  84 123 160 198 250 307 382
#     4  10  21  39  63  86 118 158 213 255 305 369
#     4  10  20  35  59  85 114 157 203 241 309 373
#     4  11  21  33  55  89 123 155 197 255 306 364
#     4  10  21  38  58  88 124 161 201 255 321 381
#     4  10  21  38  61  87 123 163 204 251 310 368
#     4  11  22  39  60  90 125 165 208 260 311 374
#     4   9  20  39  62  85 113 160 209 253 308 379
#
# _framework density 19.608900999999999
#
# number of rings (size 3 to 8) (size 9 to 14) (size 15 to 20)
#    0.000    1.750    2.500    3.375    0.000    2.000 
#    0.000    6.875    0.000    3.750    0.000    0.000 
#    0.000    0.000    0.000    0.000    0.000    0.000 
#
# Total GULP energy -178215.904786 kJ/mol
# GULP energy per Si atom -5569.247025 kJ/mol
# Density = 1.956427 g / cm^3
# Si number density = 19.608901 Si / 1000 Ang^3
#
#
#
# Elastic Constant Matrix: (Units=GPa)
#
#
# Indices 1 2 3 4 5 6 
#
# 1 75.7110 29.4849 10.9418 0.0000 0.0000 0.0000
# 2 29.4849 81.3575 21.1560 0.0000 0.0000 0.0000
# 3 10.9418 21.1560 64.7565 0.0000 0.0000 0.0000
# 4 0.0000 0.0000 0.0000 14.0105 0.0000 0.0000
# 5 0.0000 0.0000 0.0000 0.0000 20.1129 0.0000
# 6 0.0000 0.0000 0.0000 0.0000 0.0000 21.4949
#
#
#
# Elastic Compliance Matrix: (Units=1/GPa)
#
#
# Indices 1 2 3 4 5 6 
#
# 1 0.015422 -0.005367 -0.000852 0.000000 0.000000 0.000000
# 2 -0.005367 0.015301 -0.004092 0.000000 0.000000 0.000000
# 3 -0.000852 -0.004092 0.016923 0.000000 0.000000 0.000000
# 4 0.000000 0.000000 0.000000 0.071375 0.000000 0.000000
# 5 0.000000 0.000000 0.000000 0.000000 0.049719 0.000000
# 6 0.000000 0.000000 0.000000 0.000000 0.000000 0.046523
#
#
# Mechanical properties :
#
#
# Convention : Reuss Voigt Hill
#
# Bulk Modulus (GPa) = 37.00598 38.33227 37.66913
# Shear Modulus (GPa) = 20.41713 21.80650 21.11181
#
# Velocity S-wave (km/s) = 3.23029 3.33839 3.28479
# Velocity P-wave (km/s) = 5.72940 5.86947 5.79986
#
# Compressibility (1/GPa) = 0.02702266
#
# Stress axis : x y z
#
# Youngs Moduli (GPa) = 64.84434 65.35673 59.09024
#
# Poissons Ratio (x) = 0.35079 0.05036
# Poissons Ratio (y) = 0.34804 0.24179
# Poissons Ratio (z) = 0.05526 0.26743
#
# Static dielectric constant tensor:
#      x y z
#    x 1.725610 0.000000 0.000000 
#    y 0.000000 1.723300 0.000000 
#    z 0.000000 0.000000 1.678440 
# 
# From -- ./inp_files/18713.got.cif
#   From: 2010.05.17/outbox.cif.g08.bks.cpg/sg37_10_cif.got.tgz:18713.got - 2010.06.03 17:53:42.
