data_PCOD9353411
_publ_section_title
;
Structure prediction by ZEFSAII (Michael W. Deem and Ramdas Pophale) SiO2 
 PCOD9353411
Probable space group: C C C 2
;
_chemical_formula_sum "Si O2"
_cell_formula_units_Z 56
_cell_length_a 33.001196
_cell_length_b 13.480201
_cell_length_c 5.281190
_cell_angle_alpha 90.000000
_cell_angle_beta 90.000000
_cell_angle_gamma 90.000000
_cell_volume 2349.404735
_symmetry_space_group_name_H-M "C C C 2"
_symmetry_group_IT_number 37
_symmetry_cell_setting 'orthorhombic'
loop_
_space_group_symop_operation_xyz
x,y,z
-x,-y,z
-x,y,1/2+z
x,-y,1/2+z
1/2+x,1/2+y,z
1/2-x,1/2-y,z
1/2-x,1/2+y,1/2+z
1/2+x,1/2-y,1/2+z
loop_
_atom_site_type_symbol
_atom_site_label
_atom_site_fract_x
_atom_site_fract_y
_atom_site_fract_z
Si Si1 0.776161 0.382497 0.967290
Si Si2 0.983534 0.361548 0.571193
Si Si3 0.600194 0.434457 0.886754
Si Si4 0.690246 0.111979 0.469054
Si Si5 0.983388 0.136948 0.701445
Si Si6 0.598471 0.063099 0.377822
Si Si7 0.688327 0.434489 0.819307
O O1 0.802239 0.339729 0.738963
O O2 0.791631 0.498640 0.993530
O O3 0.729725 0.378866 0.884048
O O4 0.785819 0.338812 0.239530
O O5 0.995141 0.249290 0.636906
O O6 0.939102 0.367649 0.450830
O O7 0.013267 0.404921 0.355496
O O8 0.598746 0.519443 0.667768
O O9 0.561131 0.369276 0.821302
O O10 0.644425 0.384933 0.856426
O O11 0.643003 0.108324 0.408838
O O12 0.986476 0.094162 0.416118
O O13 0.596056 0.022159 0.093486
O O14 0.689383 0.477653 0.533693
#
# Coordination Sequence:
#
# PCOD9353411 Si02
#       7
#     8   8   8   8   8   8   8
#     4  10  14  25  41  61  98 137 160 184 247 298
#     4  10  23  40  54  72  97 140 181 207 262 326
#     4  10  21  32  50  84 109 126 168 215 266 298
#     4  10  16  25  41  67  96 131 163 196 246 291
#     4  10  21  39  58  71 100 140 176 211 254 325
#     4  12  21  32  51  77 107 128 169 229 264 293
#     4  10  16  25  41  66 103 132 153 196 239 290
#
# _framework density 23.835827999999999
#
# number of rings (size 3 to 8) (size 9 to 14) (size 15 to 20)
#    0.000    1.714    5.714    1.714    0.000    3.429 
#    0.000    0.000    0.000    0.000    0.000    1.000 
#    0.000    6.857    0.000    0.000    0.000    0.000 
#
# Total GULP energy -156263.909046 kJ/mol
# GULP energy per Si atom -5580.853895 kJ/mol
# Density = 2.378158 g / cm^3
# Si number density = 23.835828 Si / 1000 Ang^3
#
#
#
# Elastic Constant Matrix: (Units=GPa)
#
#
# Indices 1 2 3 4 5 6 
#
# 1 139.8315 1.9938 2.7942 0.0000 0.0000 0.0000
# 2 1.9938 34.9912 3.9219 0.0000 0.0000 0.0000
# 3 2.7942 3.9219 124.2366 0.0000 0.0000 0.0000
# 4 0.0000 0.0000 0.0000 3.9338 0.0000 0.0000
# 5 0.0000 0.0000 0.0000 0.0000 42.4635 0.0000
# 6 0.0000 0.0000 0.0000 0.0000 0.0000 3.2675
#
#
#
# Elastic Compliance Matrix: (Units=1/GPa)
#
#
# Indices 1 2 3 4 5 6 
#
# 1 0.007160 -0.000391 -0.000149 0.000000 0.000000 0.000000
# 2 -0.000391 0.028701 -0.000897 0.000000 0.000000 0.000000
# 3 -0.000149 -0.000897 0.008081 0.000000 0.000000 0.000000
# 4 0.000000 0.000000 0.000000 0.254204 0.000000 0.000000
# 5 0.000000 0.000000 0.000000 0.000000 0.023550 0.000000
# 6 0.000000 0.000000 0.000000 0.000000 0.000000 0.306047
#
#
# Mechanical properties :
#
#
# Convention : Reuss Voigt Hill
#
# Bulk Modulus (GPa) = 24.34996 35.16434 29.75715
# Shear Modulus (GPa) = 7.76028 29.28959 18.52494
#
# Velocity S-wave (km/s) = 1.80632 3.50923 2.79083
# Velocity P-wave (km/s) = 3.81946 5.58609 4.78501
#
# Compressibility (1/GPa) = 0.04106783
#
# Stress axis : x y z
#
# Youngs Moduli (GPa) = 139.66453 34.84142 123.74975
#
# Poissons Ratio (x) = 0.01363 0.01840
# Poissons Ratio (y) = 0.05465 0.11103
# Poissons Ratio (z) = 0.02077 0.03126
#
# Static dielectric constant tensor:
#      x y z
#    x 1.893800 0.000000 0.000000 
#    y 0.000000 2.002480 0.000000 
#    z 0.000000 0.000000 1.982670 
# 
# From -- ./inp_files/647.got.cif
#   From: 2010.05.17/outbox.cif.g08.bks.cpg/sg37_1_cif.got.tgz:647.got - 2010.06.03 17:53:42.
