data_PCOD9353327
_publ_section_title
;
Structure prediction by ZEFSAII (Michael W. Deem and Ramdas Pophale) SiO2 
 PCOD9353327
Probable space group: C M C 21
;
_chemical_formula_sum "Si O2"
_cell_formula_units_Z 32
_cell_length_a 9.000000
_cell_length_b 24.000000
_cell_length_c 15.000000
_cell_angle_alpha 90.000000
_cell_angle_beta 90.000000
_cell_angle_gamma 90.000000
_cell_volume 3240.000000
_symmetry_space_group_name_H-M "C M C 21"
_symmetry_group_IT_number 36
_symmetry_cell_setting 'orthorhombic'
loop_
_space_group_symop_operation_xyz
x,y,z
-x,-y,1/2+z
x,-y,1/2+z
-x,y,z
1/2+x,1/2+y,z
1/2-x,1/2-y,1/2+z
1/2+x,1/2-y,1/2+z
1/2-x,1/2+y,z
loop_
_atom_site_type_symbol
_atom_site_label
_atom_site_fract_x
_atom_site_fract_y
_atom_site_fract_z
Si Si1 0.824637 0.145087 0.200950
Si Si2 0.677473 0.120050 0.025159
Si Si3 0.829599 0.585627 0.358439
Si Si4 0.675061 0.752697 0.476824
Si Si5 0.322690 0.045014 0.861589
Si Si6 0.676851 0.760763 0.268423
Si Si7 0.825000 0.877656 0.219738
Si Si8 0.170184 0.646484 0.546971
O O1 0.750878 0.112692 0.120202
O O2 0.781652 0.114938 0.291592
O O3 0.769499 0.209084 0.208712
O O4 0.000000 0.147428 0.189277
O O5 0.500000 0.115818 0.033167
O O6 0.712682 0.183069 0.994814
O O7 0.727636 0.076653 0.950819
O O8 0.797476 0.520437 0.366401
O O9 0.822280 0.614697 0.453826
O O10 0.000000 0.592229 0.324968
O O11 0.500000 0.744216 0.497089
O O12 0.697136 0.743484 0.371404
O O13 0.772556 0.709036 0.530867
O O14 0.500000 0.054604 0.853102
O O15 0.243310 0.073937 0.779343
O O16 0.500000 0.768835 0.255488
O O17 0.758545 0.818288 0.250705
O O18 0.772703 0.883318 0.118533
O O19 0.000000 0.876634 0.228020
O O20 0.000000 0.646911 0.578370
#
# Coordination Sequence:
#
# PCOD9353327 Si02
#       8
#     8   8   8   8   8   8   8   8
#     4  11  23  38  61  91 126 159 194 243 303 357
#     4  10  21  38  62  88 118 155 202 248 296 357
#     4  10  23  42  65  88 114 156 209 252 295 355
#     4  10  19  36  62  91 121 157 197 247 304 354
#     4  10  22  44  66  85 115 159 206 253 300 352
#     4  10  20  38  62  89 123 163 198 241 302 361
#     4  12  25  39  61  93 125 159 200 248 302 360
#     4  11  23  39  61  91 124 160 202 246 298 362
#
# _framework density 9.8765429999999999
#
# number of rings (size 3 to 8) (size 9 to 14) (size 15 to 20)
#    0.000    1.500    2.500    2.625    0.000    6.500 
#    0.000    2.500    0.000    0.000    0.000    0.000 
#    0.000    0.000    0.000    0.000    0.000    0.000 
#
# Total GULP energy -178824.894262 kJ/mol
# GULP energy per Si atom -5588.277946 kJ/mol
# Density = 0.985406 g / cm^3
# Si number density = 9.876543 Si / 1000 Ang^3
#
#
#
# Elastic Constant Matrix: (Units=GPa)
#
#
# Indices 1 2 3 4 5 6 
#
# 1 10.8807 37.5482 14.8220 0.0000 0.0000 0.0000
# 2 37.5482 37.6408 10.1103 0.0000 0.0000 0.0000
# 3 14.8220 10.1103 62.1271 0.0000 0.0000 0.0000
# 4 0.0000 0.0000 0.0000 -21.6831 0.0000 0.0000
# 5 0.0000 0.0000 0.0000 0.0000 48.2911 0.0000
# 6 0.0000 0.0000 0.0000 0.0000 0.0000 23.6601
#
#
#
# Elastic Compliance Matrix: (Units=1/GPa)
#
#
# Indices 1 2 3 4 5 6 
#
# 1 -0.037102 0.036216 0.002958 0.000000 0.000000 0.000000
# 2 0.036216 -0.007570 -0.007408 0.000000 0.000000 0.000000
# 3 0.002958 -0.007408 0.016596 0.000000 0.000000 0.000000
# 4 0.000000 0.000000 0.000000 -0.046119 0.000000 0.000000
# 5 0.000000 0.000000 0.000000 0.000000 0.020708 0.000000
# 6 0.000000 0.000000 0.000000 0.000000 0.000000 0.042265
#
#
# Mechanical properties :
#
#
# Convention : Reuss Voigt Hill
#
# Bulk Modulus (GPa) = 28.20454 26.17883 27.19169
# Shear Modulus (GPa) = -79.44659 13.26482 -33.09089
#
# Velocity S-wave (km/s) = -6.34879 2.59420 -4.09739
# Velocity P-wave (km/s) = 6.27960 4.71752 2.93073
#
# Compressibility (1/GPa) = 0.03545529
#
# Stress axis : x y z
#
# Youngs Moduli (GPa) = -26.95272 -132.09493 60.25565
#
# Poissons Ratio (x) = 4.78398 -0.17823
# Poissons Ratio (y) = 0.97613 0.44639
# Poissons Ratio (z) = 0.07972 -0.97860
#
# Static dielectric constant tensor:
#      x y z
#    x 1.660260 0.000000 0.000000 
#    y 0.000000 1.672990 0.000000 
#    z 0.000000 0.000000 1.713180 
# 
# From -- ./inp_files/10915.got.cif
#   From: 2010.05.17/outbox.ucp.g08.bks.cvg/sg36_6_cif.got.tgz:10915.got - 2010.06.11 10:37:26.
