data_PCOD9353266
_publ_section_title
;
Structure prediction by ZEFSAII (Michael W. Deem and Ramdas Pophale) SiO2 
 PCOD9353266
Probable space group: C M C 21
;
_chemical_formula_sum "Si O2"
_cell_formula_units_Z 40
_cell_length_a 22.002942
_cell_length_b 9.563059
_cell_length_c 8.323115
_cell_angle_alpha 90.000000
_cell_angle_beta 90.000000
_cell_angle_gamma 90.000000
_cell_volume 1751.311843
_symmetry_space_group_name_H-M "C M C 21"
_symmetry_group_IT_number 36
_symmetry_cell_setting 'orthorhombic'
loop_
_space_group_symop_operation_xyz
x,y,z
-x,-y,1/2+z
x,-y,1/2+z
-x,y,z
1/2+x,1/2+y,z
1/2-x,1/2-y,1/2+z
1/2+x,1/2-y,1/2+z
1/2-x,1/2+y,z
loop_
_atom_site_type_symbol
_atom_site_label
_atom_site_fract_x
_atom_site_fract_y
_atom_site_fract_z
Si Si1 0.500000 0.330489 0.243721
Si Si2 0.000000 0.151460 0.358434
Si Si3 0.183292 0.046718 0.002851
Si Si4 0.675446 0.044873 0.008009
Si Si5 0.870278 0.296389 0.824230
Si Si6 0.366437 0.300225 0.815991
O O1 0.500000 0.488618 0.309560
O O2 0.561055 0.254335 0.301692
O O3 0.500000 0.334089 0.050605
O O4 0.061838 0.218231 0.292872
O O5 0.253657 0.007447 0.013072
O O6 0.170576 0.161477 0.864774
O O7 0.143599 0.910886 0.961701
O O8 0.162770 0.123184 0.164592
O O9 0.665097 0.157098 0.865669
O O10 0.637301 0.907059 0.968362
O O11 0.654053 0.123553 0.167744
#
# Coordination Sequence:
#
# PCOD9353266 Si02
#       6
#     4   4   8   8   8   8
#     4  12  26  49  77 100 144 180 246 296 360 427
#     4  12  24  49  73 104 138 178 242 298 342 429
#     4  12  24  44  71 107 141 189 239 289 355 431
#     4  12  25  46  68 104 150 184 235 296 359 430
#     4  12  27  46  71 104 143 192 236 294 362 423
#     4  12  25  43  77 103 139 191 235 297 358 416
#
# _framework density 22.840021
#
# number of rings (size 3 to 8) (size 9 to 14) (size 15 to 20)
#    0.000    0.000    4.000    7.200    0.000    1.600 
#    0.000    0.000    0.000    0.000    0.000    0.000 
#    0.000    0.000    0.000    0.000    0.000    0.000 
#
# Total GULP energy -112192.336868 kJ/mol
# GULP energy per Si atom -5609.616843 kJ/mol
# Density = 2.278804 g / cm^3
# Si number density = 22.840021 Si / 1000 Ang^3
#
#
#
# Elastic Constant Matrix: (Units=GPa)
#
#
# Indices 1 2 3 4 5 6 
#
# 1 125.8230 -11.3977 5.7377 0.0000 0.0000 0.0000
# 2 -11.3977 60.5516 0.5495 0.0000 0.0000 0.0000
# 3 5.7377 0.5495 64.3956 0.0000 0.0000 0.0000
# 4 0.0000 0.0000 0.0000 40.4078 0.0000 0.0000
# 5 0.0000 0.0000 0.0000 0.0000 34.6748 0.0000
# 6 0.0000 0.0000 0.0000 0.0000 0.0000 16.9308
#
#
#
# Elastic Compliance Matrix: (Units=1/GPa)
#
#
# Indices 1 2 3 4 5 6 
#
# 1 0.008120 0.001535 -0.000737 0.000000 0.000000 0.000000
# 2 0.001535 0.016806 -0.000280 0.000000 0.000000 0.000000
# 3 -0.000737 -0.000280 0.015597 0.000000 0.000000 0.000000
# 4 0.000000 0.000000 0.000000 0.024748 0.000000 0.000000
# 5 0.000000 0.000000 0.000000 0.000000 0.028839 0.000000
# 6 0.000000 0.000000 0.000000 0.000000 0.000000 0.059064
#
#
# Mechanical properties :
#
#
# Convention : Reuss Voigt Hill
#
# Bulk Modulus (GPa) = 24.06136 26.72770 25.39453
# Shear Modulus (GPa) = 30.12201 35.46141 32.79171
#
# Velocity S-wave (km/s) = 3.63550 3.94458 3.79319
# Velocity P-wave (km/s) = 5.30850 5.69858 5.50699
#
# Compressibility (1/GPa) = 0.04156040
#
# Stress axis : x y z
#
# Youngs Moduli (GPa) = 123.14771 59.50136 64.11476
#
# Poissons Ratio (x) = -0.09135 0.04723
# Poissons Ratio (y) = -0.18905 0.01797
# Poissons Ratio (z) = 0.09071 0.01667
#
# Static dielectric constant tensor:
#      x y z
#    x 1.779140 0.000000 0.000000 
#    y 0.000000 1.815870 0.000000 
#    z 0.000000 0.000000 1.939850 
# 
# From -- ./inp_files/5490.got.cif
#   From: 2010.05.17/outbox.cif.g08.bks.cpg/sg36_3_cif.got.tgz:5490.got - 2010.06.03 17:41:39.
