data_PCOD9353902
_publ_section_title
;
Structure prediction by ZEFSAII (Michael W. Deem and Ramdas Pophale) SiO2 
 PCOD9353902
Probable space group: C C C 2
;
_chemical_formula_sum "Si O2"
_cell_formula_units_Z 48
_cell_length_a 13.997798
_cell_length_b 5.729595
_cell_length_c 26.630885
_cell_angle_alpha 90.000000
_cell_angle_beta 90.000000
_cell_angle_gamma 90.000000
_cell_volume 2135.842607
_symmetry_space_group_name_H-M "C C C 2"
_symmetry_group_IT_number 37
_symmetry_cell_setting 'orthorhombic'
loop_
_space_group_symop_operation_xyz
x,y,z
-x,-y,z
-x,y,1/2+z
x,-y,1/2+z
1/2+x,1/2+y,z
1/2-x,1/2-y,z
1/2-x,1/2+y,1/2+z
1/2+x,1/2-y,1/2+z
loop_
_atom_site_type_symbol
_atom_site_label
_atom_site_fract_x
_atom_site_fract_y
_atom_site_fract_z
Si Si1 0.500000 0.000000 0.018080
Si Si2 0.750000 0.250000 0.337842
Si Si3 0.750000 0.750000 0.670688
Si Si4 0.599374 0.113161 0.800763
Si Si5 0.902951 0.870889 0.588161
Si Si6 0.147082 0.127289 0.396619
Si Si7 0.851672 0.136175 0.491108
Si Si8 0.750000 0.750000 0.228354
O O1 0.433585 0.848061 0.054550
O O2 0.568215 0.832881 0.986837
O O3 0.815526 0.425508 0.307074
O O4 0.672450 0.381030 0.371698
O O5 0.839849 0.793387 0.634284
O O6 0.762219 0.498102 0.698875
O O7 0.585834 0.233019 0.855656
O O8 0.652651 0.282735 0.761606
O O9 0.500000 0.000000 0.784414
O O10 0.850799 0.041444 0.548106
O O11 0.000000 0.000000 0.604276
O O12 0.250000 0.250000 0.398654
O O13 0.119697 0.072159 0.453342
O O14 0.750000 0.250000 0.478656
#
# Coordination Sequence:
#
# PCOD9353902 Si02
#       8
#     4   4   4   8   8   8   8   4
#     4  10  24  44  66 100 152 184 252 298 350 460
#     4  10  19  46  67 100 146 185 246 299 350 456
#     4  12  29  48  83 106 143 196 246 319 400 440
#     4  11  25  49  75 102 149 197 239 315 393 441
#     4  10  25  46  70 103 148 187 242 304 370 454
#     4  10  22  41  68 101 144 191 246 298 360 451
#     4  11  23  41  69 101 144 200 240 296 366 439
#     4  12  28  50  80 114 145 181 266 328 374 476
#
# _framework density 22.473566999999999
#
# number of rings (size 3 to 8) (size 9 to 14) (size 15 to 20)
#    0.000    1.333    3.333    1.500    9.333    2.000 
#   12.000    0.000    0.000    0.000    0.000    0.000 
#    0.000    0.000    0.000    0.000    0.000    0.000 
#
# Total GULP energy -134088.679017 kJ/mol
# GULP energy per Si atom -5587.028292 kJ/mol
# Density = 2.242242 g / cm^3
# Si number density = 22.473567 Si / 1000 Ang^3
#
#
#
# Elastic Constant Matrix: (Units=GPa)
#
#
# Indices 1 2 3 4 5 6 
#
# 1 105.8946 30.0468 66.4408 0.0000 0.0000 0.0000
# 2 30.0468 93.6284 51.0805 0.0000 0.0000 0.0000
# 3 66.4408 51.0805 112.4159 0.0000 0.0000 0.0000
# 4 0.0000 0.0000 0.0000 -19.9752 0.0000 0.0000
# 5 0.0000 0.0000 0.0000 0.0000 9.5577 0.0000
# 6 0.0000 0.0000 0.0000 0.0000 0.0000 21.6678
#
#
#
# Elastic Compliance Matrix: (Units=1/GPa)
#
#
# Indices 1 2 3 4 5 6 
#
# 1 0.015009 0.000031 -0.008885 0.000000 0.000000 0.000000
# 2 0.000031 0.014201 -0.006471 0.000000 0.000000 0.000000
# 3 -0.008885 -0.006471 0.017087 0.000000 0.000000 0.000000
# 4 0.000000 0.000000 0.000000 -0.050062 0.000000 0.000000
# 5 0.000000 0.000000 0.000000 0.000000 0.104628 0.000000
# 6 0.000000 0.000000 0.000000 0.000000 0.000000 0.046152
#
#
# Mechanical properties :
#
#
# Convention : Reuss Voigt Hill
#
# Bulk Modulus (GPa) = 63.90967 67.45279 65.68123
# Shear Modulus (GPa) = 27.34037 13.20809 20.27423
#
# Velocity S-wave (km/s) = 3.49170 2.42692 3.00682
# Velocity P-wave (km/s) = 6.68995 6.15895 6.42993
#
# Compressibility (1/GPa) = 0.01564709
#
# Stress axis : x y z
#
# Youngs Moduli (GPa) = 66.62604 70.41767 58.52449
#
# Poissons Ratio (x) = -0.00215 0.51997
# Poissons Ratio (y) = -0.00203 0.37870
# Poissons Ratio (z) = 0.59195 0.45566
#
# Static dielectric constant tensor:
#      x y z
#    x 1.793110 0.000000 0.000000 
#    y 0.000000 1.966060 0.000000 
#    z 0.000000 0.000000 1.874260 
# 
# From -- ./inp_files/19420.got.cif
#   From: 2010.05.17/outbox.cif.g08.bks.cpg/sg37_10_cif.got.tgz:19420.got - 2010.06.03 17:53:42.
