data_PCOD9353209
_publ_section_title
;
Structure prediction by ZEFSAII (Michael W. Deem and Ramdas Pophale) SiO2 
 PCOD9353209
Probable space group: C M C 21
;
_chemical_formula_sum "Si O2"
_cell_formula_units_Z 56
_cell_length_a 15.077114
_cell_length_b 12.128632
_cell_length_c 11.507215
_cell_angle_alpha 90.000000
_cell_angle_beta 90.000000
_cell_angle_gamma 90.000000
_cell_volume 2104.264194
_symmetry_space_group_name_H-M "C M C 21"
_symmetry_group_IT_number 36
_symmetry_cell_setting 'orthorhombic'
loop_
_space_group_symop_operation_xyz
x,y,z
-x,-y,1/2+z
x,-y,1/2+z
-x,y,z
1/2+x,1/2+y,z
1/2-x,1/2-y,1/2+z
1/2+x,1/2-y,1/2+z
1/2-x,1/2+y,z
loop_
_atom_site_type_symbol
_atom_site_label
_atom_site_fract_x
_atom_site_fract_y
_atom_site_fract_z
Si Si1 0.600890 0.132578 0.385540
Si Si2 0.823406 0.554179 0.031057
Si Si3 0.133466 0.158470 0.050326
Si Si4 0.403136 0.478411 0.876598
Si Si5 0.246950 0.095826 0.724049
Si Si6 0.400479 0.751836 0.635219
Si Si7 0.599812 0.752465 0.304315
O O1 0.500000 0.092477 0.395712
O O2 0.612426 0.236235 0.471350
O O3 0.613161 0.182357 0.258155
O O4 0.661872 0.032321 0.427537
O O5 0.811986 0.475521 0.143562
O O6 0.896931 0.648318 0.042752
O O7 0.735734 0.627333 0.040038
O O8 0.093264 0.049063 0.993686
O O9 0.105959 0.188731 0.179675
O O10 0.500000 0.492999 0.819750
O O11 0.323657 0.527353 0.799805
O O12 0.391283 0.348243 0.894649
O O13 0.181546 0.167437 0.641445
O O14 0.313449 0.171336 0.799715
O O15 0.500000 0.703727 0.636523
O O16 0.500000 0.800858 0.309109
#
# Coordination Sequence:
#
# PCOD9353209 Si02
#       7
#     8   8   8   8   8   8   8
#     4  11  24  42  67  94 126 174 222 265 326 395
#     4  12  25  40  65  98 132 170 214 274 326 385
#     4  12  23  40  67  98 126 169 220 268 321 393
#     4  11  24  42  66  95 130 171 219 273 325 388
#     4  12  22  42  63  96 128 173 209 267 327 385
#     4  11  24  43  66  95 130 171 218 266 325 391
#     4  11  24  43  65  96 132 170 219 269 327 389
#
# _framework density 26.612628999999998
#
# number of rings (size 3 to 8) (size 9 to 14) (size 15 to 20)
#    0.000    0.571    5.714    2.143    4.000    0.571 
#    0.000    0.000    0.000    1.714    0.000    0.000 
#    0.000    0.000    0.000    0.000    0.000    0.000 
#
# Total GULP energy -156973.977103 kJ/mol
# GULP energy per Si atom -5606.213468 kJ/mol
# Density = 2.655206 g / cm^3
# Si number density = 26.612629 Si / 1000 Ang^3
#
#
#
# Elastic Constant Matrix: (Units=GPa)
#
#
# Indices 1 2 3 4 5 6 
#
# 1 148.5180 52.7886 -5.2859 0.0000 0.0000 0.0000
# 2 52.7886 129.1484 14.7171 0.0000 0.0000 0.0000
# 3 -5.2859 14.7171 49.1123 0.0000 0.0000 0.0000
# 4 0.0000 0.0000 0.0000 52.7471 0.0000 0.0000
# 5 0.0000 0.0000 0.0000 0.0000 30.9361 0.0000
# 6 0.0000 0.0000 0.0000 0.0000 0.0000 56.2067
#
#
#
# Elastic Compliance Matrix: (Units=1/GPa)
#
#
# Indices 1 2 3 4 5 6 
#
# 1 0.008048 -0.003508 0.001918 0.000000 0.000000 0.000000
# 2 -0.003508 0.009546 -0.003238 0.000000 0.000000 0.000000
# 3 0.001918 -0.003238 0.021538 0.000000 0.000000 0.000000
# 4 0.000000 0.000000 0.000000 0.018958 0.000000 0.000000
# 5 0.000000 0.000000 0.000000 0.000000 0.032325 0.000000
# 6 0.000000 0.000000 0.000000 0.000000 0.000000 0.017791
#
#
# Mechanical properties :
#
#
# Convention : Reuss Voigt Hill
#
# Bulk Modulus (GPa) = 33.92723 50.13538 42.03131
# Shear Modulus (GPa) = 39.15735 45.61523 42.38629
#
# Velocity S-wave (km/s) = 3.84002 4.14459 3.99521
# Velocity P-wave (km/s) = 5.69537 6.46401 6.09182
#
# Compressibility (1/GPa) = 0.02947485
#
# Stress axis : x y z
#
# Youngs Moduli (GPa) = 124.24838 104.75581 46.42910
#
# Poissons Ratio (x) = 0.36751 -0.08903
# Poissons Ratio (y) = 0.43589 0.15034
# Poissons Ratio (z) = -0.23825 0.33922
#
# Static dielectric constant tensor:
#      x y z
#    x 2.086930 0.000000 0.000000 
#    y 0.000000 2.046120 0.000000 
#    z 0.000000 0.000000 2.185760 
# 
# From -- ./inp_files/12171.got.cif
#   From: 2010.05.17/outbox.cif.g08.bks.cpg/sg36_7_cif.got.tgz:12171.got - 2010.06.03 17:41:39.
