data_PCOD9353176
_publ_section_title
;
Structure prediction by ZEFSAII (Michael W. Deem and Ramdas Pophale) SiO2 
 PCOD9353176
Probable space group: C M C 21
;
_chemical_formula_sum "Si O2"
_cell_formula_units_Z 48
_cell_length_a 26.100951
_cell_length_b 8.756729
_cell_length_c 9.430264
_cell_angle_alpha 90.000000
_cell_angle_beta 90.000000
_cell_angle_gamma 90.000000
_cell_volume 2155.371281
_symmetry_space_group_name_H-M "C M C 21"
_symmetry_group_IT_number 36
_symmetry_cell_setting 'orthorhombic'
loop_
_space_group_symop_operation_xyz
x,y,z
-x,-y,1/2+z
x,-y,1/2+z
-x,y,z
1/2+x,1/2+y,z
1/2-x,1/2-y,1/2+z
1/2+x,1/2-y,1/2+z
1/2-x,1/2+y,z
loop_
_atom_site_type_symbol
_atom_site_label
_atom_site_fract_x
_atom_site_fract_y
_atom_site_fract_z
Si Si1 0.944397 0.382840 0.884010
Si Si2 0.557017 0.319116 0.661344
Si Si3 0.203241 0.113782 0.758182
Si Si4 0.876020 0.666667 0.888669
Si Si5 0.269841 0.315031 0.938483
Si Si6 0.587915 0.345700 0.155960
O O1 0.897660 0.498422 0.859429
O O2 0.942962 0.244391 0.773939
O O3 0.000000 0.462538 0.871968
O O4 0.940834 0.303486 0.036113
O O5 0.500000 0.310733 0.727143
O O6 0.602794 0.275052 0.765347
O O7 0.564822 0.492623 0.609932
O O8 0.219210 0.242556 0.871574
O O9 0.231315 0.139343 0.605033
O O10 0.143843 0.121018 0.720374
O O11 0.216030 0.957628 0.838921
O O12 0.815760 0.691182 0.915150
O O13 0.904003 0.730069 0.027731
#
# Coordination Sequence:
#
# PCOD9353176 Si02
#       6
#     8   8   8   8   8   8
#     4  11  25  42  66  99 137 182 228 281 342 410
#     4  11  23  41  68  97 134 181 226 279 337 406
#     4  11  25  45  70 102 135 180 231 289 355 420
#     4  11  24  43  66  98 135 176 224 282 344 404
#     4  11  25  46  71 101 137 181 228 292 353 421
#     4  11  24  43  67  97 134 178 225 285 343 413
#
# _framework density 22.269946000000001
#
# number of rings (size 3 to 8) (size 9 to 14) (size 15 to 20)
#    0.000    1.000    1.667    4.000    4.667    6.667 
#    0.000    0.000    0.000    0.000    0.000    0.000 
#    0.000    0.000    0.000    0.000    0.000    0.000 
#
# Total GULP energy -134221.458592 kJ/mol
# GULP energy per Si atom -5592.560775 kJ/mol
# Density = 2.221926 g / cm^3
# Si number density = 22.269946 Si / 1000 Ang^3
#
#
#
# Elastic Constant Matrix: (Units=GPa)
#
#
# Indices 1 2 3 4 5 6 
#
# 1 27.2263 10.6816 13.1397 0.0000 0.0000 0.0000
# 2 10.6816 91.4382 2.9336 0.0000 0.0000 0.0000
# 3 13.1397 2.9336 73.6577 0.0000 0.0000 0.0000
# 4 0.0000 0.0000 0.0000 33.8102 0.0000 0.0000
# 5 0.0000 0.0000 0.0000 0.0000 29.5633 0.0000
# 6 0.0000 0.0000 0.0000 0.0000 0.0000 27.4898
#
#
#
# Elastic Compliance Matrix: (Units=1/GPa)
#
#
# Indices 1 2 3 4 5 6 
#
# 1 0.042101 -0.004683 -0.007324 0.000000 0.000000 0.000000
# 2 -0.004683 0.011471 0.000379 0.000000 0.000000 0.000000
# 3 -0.007324 0.000379 0.014868 0.000000 0.000000 0.000000
# 4 0.000000 0.000000 0.000000 0.029577 0.000000 0.000000
# 5 0.000000 0.000000 0.000000 0.000000 0.033826 0.000000
# 6 0.000000 0.000000 0.000000 0.000000 0.000000 0.036377
#
#
# Mechanical properties :
#
#
# Convention : Reuss Voigt Hill
#
# Bulk Modulus (GPa) = 22.13213 27.31466 24.72339
# Shear Modulus (GPa) = 24.20864 29.21047 26.70956
#
# Velocity S-wave (km/s) = 3.30063 3.62561 3.46693
# Velocity P-wave (km/s) = 4.94825 5.46064 5.21075
#
# Compressibility (1/GPa) = 0.04518318
#
# Stress axis : x y z
#
# Youngs Moduli (GPa) = 23.75236 87.17420 67.25979
#
# Poissons Ratio (x) = 0.40825 0.49260
# Poissons Ratio (y) = 0.11124 -0.02546
# Poissons Ratio (z) = 0.17396 -0.03300
#
# Static dielectric constant tensor:
#      x y z
#    x 1.817550 0.000000 0.000000 
#    y 0.000000 1.822200 0.000000 
#    z 0.000000 0.000000 1.802940 
# 
# From -- ./inp_files/5967.got.cif
#   From: 2010.05.17/outbox.cif.g08.bks.cpg/sg36_3_cif.got.tgz:5967.got - 2010.06.03 17:41:39.
