data_PCOD9353284
_publ_section_title
;
Structure prediction by ZEFSAII (Michael W. Deem and Ramdas Pophale) SiO2 
 PCOD9353284
Probable space group: C M C 21
;
_chemical_formula_sum "Si O2"
_cell_formula_units_Z 56
_cell_length_a 10.266480
_cell_length_b 28.476582
_cell_length_c 7.909577
_cell_angle_alpha 90.000000
_cell_angle_beta 90.000000
_cell_angle_gamma 90.000000
_cell_volume 2312.398527
_symmetry_space_group_name_H-M "C M C 21"
_symmetry_group_IT_number 36
_symmetry_cell_setting 'orthorhombic'
loop_
_space_group_symop_operation_xyz
x,y,z
-x,-y,1/2+z
x,-y,1/2+z
-x,y,z
1/2+x,1/2+y,z
1/2-x,1/2-y,1/2+z
1/2+x,1/2-y,1/2+z
1/2-x,1/2+y,z
loop_
_atom_site_type_symbol
_atom_site_label
_atom_site_fract_x
_atom_site_fract_y
_atom_site_fract_z
Si Si1 0.842448 0.596273 0.207430
Si Si2 0.150168 0.657353 0.518776
Si Si3 0.000000 0.929510 0.312882
Si Si4 0.714766 0.014161 0.425089
Si Si5 0.000000 0.994759 0.553286
Si Si6 0.347528 0.753455 0.842831
Si Si7 0.152917 0.315421 0.496728
Si Si8 0.203753 0.423135 0.236505
O O1 0.789355 0.624881 0.371876
O O2 0.795045 0.543890 0.250764
O O3 0.810859 0.630986 0.051915
O O4 0.000000 0.593485 0.208961
O O5 0.197248 0.709884 0.490437
O O6 0.151026 0.628102 0.691177
O O7 0.000000 0.661953 0.469003
O O8 0.860000 0.912453 0.251402
O O9 0.000000 0.982649 0.237335
O O10 0.000000 0.939015 0.514143
O O11 0.863054 0.012794 0.484027
O O12 0.654430 0.045885 0.573422
O O13 0.671046 0.960662 0.384843
O O14 0.500000 0.739250 0.862683
O O15 0.339167 0.784670 0.672172
O O16 0.252706 0.709445 0.869326
O O17 0.000000 0.312988 0.447298
#
# Coordination Sequence:
#
# PCOD9353284 Si02
#       8
#     8   8   4   8   4   8   8   8
#     4   8  15  29  47  66  91 123 153 187 234 283
#     4   8  15  29  47  66  91 123 153 187 234 283
#     4   8  14  24  38  56  80 110 144 182 220 256
#     4   9  16  27  43  63  88 118 152 188 225 270
#     4   8  14  24  38  56  80 110 144 182 220 256
#     4   9  18  34  54  75 101 131 165 206 252 301
#     4   9  18  34  54  75 101 131 165 206 252 301
#     4   9  16  27  43  63  88 118 152 188 225 270
#
# _framework density 24.217279999999999
#
# number of rings (size 3 to 8) (size 9 to 14) (size 15 to 20)
#    0.000    3.429    0.000    1.714    0.000    1.143 
#    2.571    1.429    0.000    1.714    0.000    0.000 
#    0.000    0.000    0.000    0.000    0.000    0.000 
#
# Total GULP energy -155872.892003 kJ/mol
# GULP energy per Si atom -5566.889000 kJ/mol
# Density = 2.416216 g / cm^3
# Si number density = 24.217280 Si / 1000 Ang^3
#
#
#
# Elastic Constant Matrix: (Units=GPa)
#
#
# Indices 1 2 3 4 5 6 
#
# 1 81.5423 36.5738 13.7841 0.0000 0.0000 0.0000
# 2 36.5738 146.9348 7.2469 0.0000 0.0000 0.0000
# 3 13.7841 7.2469 73.3942 0.0000 0.0000 0.0000
# 4 0.0000 0.0000 0.0000 42.5251 0.0000 0.0000
# 5 0.0000 0.0000 0.0000 0.0000 19.1495 0.0000
# 6 0.0000 0.0000 0.0000 0.0000 0.0000 -27.5441
#
#
#
# Elastic Compliance Matrix: (Units=1/GPa)
#
#
# Indices 1 2 3 4 5 6 
#
# 1 0.014190 -0.003417 -0.002328 0.000000 0.000000 0.000000
# 2 -0.003417 0.007662 -0.000115 0.000000 0.000000 0.000000
# 3 -0.002328 -0.000115 0.014074 0.000000 0.000000 0.000000
# 4 0.000000 0.000000 0.000000 0.023516 0.000000 0.000000
# 5 0.000000 0.000000 0.000000 0.000000 0.052221 0.000000
# 6 0.000000 0.000000 0.000000 0.000000 0.000000 -0.036305
#
#
# Mechanical properties :
#
#
# Convention : Reuss Voigt Hill
#
# Bulk Modulus (GPa) = 41.31168 46.34231 43.82700
# Shear Modulus (GPa) = 52.55199 23.11053 37.83126
#
# Velocity S-wave (km/s) = 4.66340 3.09252 3.95670
# Velocity P-wave (km/s) = 6.78912 5.65059 6.24586
#
# Compressibility (1/GPa) = 0.02420623
#
# Stress axis : x y z
#
# Youngs Moduli (GPa) = 70.47349 130.51460 71.05544
#
# Poissons Ratio (x) = 0.44599 0.16539
# Poissons Ratio (y) = 0.24082 0.00815
# Poissons Ratio (z) = 0.16403 0.01498
#
# Static dielectric constant tensor:
#      x y z
#    x 1.871150 0.000000 0.000000 
#    y 0.000000 1.982860 0.000000 
#    z 0.000000 0.000000 2.126740 
# 
# From -- ./inp_files/8057.got.cif
#   From: 2010.05.17/outbox.cif.g08.bks.cpg/sg36_5_cif.got.tgz:8057.got - 2010.06.03 17:41:39.
