data_PCOD9353944
_publ_section_title
;
Structure prediction by ZEFSAII (Michael W. Deem and Ramdas Pophale) SiO2 
 PCOD9353944
Probable space group: C C C 2
;
_chemical_formula_sum "Si O2"
_cell_formula_units_Z 64
_cell_length_a 7.852750
_cell_length_b 18.094919
_cell_length_c 24.648995
_cell_angle_alpha 90.000000
_cell_angle_beta 90.000000
_cell_angle_gamma 90.000000
_cell_volume 3502.495868
_symmetry_space_group_name_H-M "C C C 2"
_symmetry_group_IT_number 37
_symmetry_cell_setting 'orthorhombic'
loop_
_space_group_symop_operation_xyz
x,y,z
-x,-y,z
-x,y,1/2+z
x,-y,1/2+z
1/2+x,1/2+y,z
1/2-x,1/2-y,z
1/2-x,1/2+y,1/2+z
1/2+x,1/2-y,1/2+z
loop_
_atom_site_type_symbol
_atom_site_label
_atom_site_fract_x
_atom_site_fract_y
_atom_site_fract_z
Si Si1 0.952036 0.914034 0.788490
Si Si2 0.750000 0.659834 0.970385
Si Si3 0.250000 0.338711 0.095809
Si Si4 0.563364 0.661155 0.396999
Si Si5 0.047964 0.414034 0.788490
Si Si6 0.936636 0.661155 0.397000
Si Si7 0.453816 0.413057 0.664257
Si Si8 0.546184 0.086943 0.164257
O O1 0.750000 0.906121 0.795243
O O2 0.992865 0.891004 0.726826
O O3 0.038693 0.869369 0.836561
O O4 0.000000 0.000000 0.793484
O O5 0.750000 0.750000 0.970173
O O6 0.584838 0.634825 0.936910
O O7 0.915162 0.634825 0.936911
O O8 0.750000 0.637189 0.032868
O O9 0.250000 0.250000 0.098057
O O10 0.419357 0.369271 0.125160
O O11 0.080643 0.369271 0.125160
O O12 0.750000 0.639806 0.417349
O O13 0.553764 0.750000 0.394686
O O14 0.007135 0.391004 0.726826
O O15 0.000000 0.500000 0.793484
O O16 0.961307 0.369370 0.836561
O O17 0.500000 0.500000 0.659719
O O18 0.250000 0.403302 0.654853
O O19 0.500000 0.000000 0.159719
#
# Coordination Sequence:
#
# PCOD9353944 Si02
#       8
#     8   8   8   8   8   8   8   8
#     4  10  20  34  57  86 119 151 187 235 289 350
#     4   9  20  40  57  78 114 155 195 234 290 344
#     4  11  24  40  63  90 121 157 201 254 293 346
#     4  10  20  35  58  84 113 152 192 234 285 345
#     4  10  20  34  57  86 119 151 187 235 289 350
#     4  10  20  35  58  84 113 152 192 234 285 345
#     4  10  21  39  63  88 119 162 200 239 301 364
#     4  10  21  39  63  88 119 162 200 239 301 364
#
# _framework density 18.272684999999999
#
# number of rings (size 3 to 8) (size 9 to 14) (size 15 to 20)
#    0.000    2.000    2.500    0.750    3.500    2.500 
#    0.000    6.250    0.000    0.000    0.000    0.000 
#    0.000    0.000    0.000    0.000    0.000    0.000 
#
# Total GULP energy -178564.107614 kJ/mol
# GULP energy per Si atom -5580.128363 kJ/mol
# Density = 1.823110 g / cm^3
# Si number density = 18.272685 Si / 1000 Ang^3
#
#
#
# Elastic Constant Matrix: (Units=GPa)
#
#
# Indices 1 2 3 4 5 6 
#
# 1 165.2908 35.9945 104.7642 0.0000 0.0000 0.0000
# 2 35.9945 24.9433 39.3973 0.0000 0.0000 0.0000
# 3 104.7642 39.3973 148.3878 0.0000 0.0000 0.0000
# 4 0.0000 0.0000 0.0000 70.1738 0.0000 0.0000
# 5 0.0000 0.0000 0.0000 0.0000 20.7528 0.0000
# 6 0.0000 0.0000 0.0000 0.0000 0.0000 27.0084
#
#
#
# Elastic Compliance Matrix: (Units=1/GPa)
#
#
# Indices 1 2 3 4 5 6 
#
# 1 0.011533 -0.006513 -0.006413 0.000000 0.000000 0.000000
# 2 -0.006513 0.072724 -0.014710 0.000000 0.000000 0.000000
# 3 -0.006413 -0.014710 0.015172 0.000000 0.000000 0.000000
# 4 0.000000 0.000000 0.000000 0.014250 0.000000 0.000000
# 5 0.000000 0.000000 0.000000 0.000000 0.048186 0.000000
# 6 0.000000 0.000000 0.000000 0.000000 0.000000 0.037025
#
#
# Mechanical properties :
#
#
# Convention : Reuss Voigt Hill
#
# Bulk Modulus (GPa) = 22.64674 77.65934 50.15304
# Shear Modulus (GPa) = 18.59545 34.15141 26.37343
#
# Velocity S-wave (km/s) = 3.19354 4.32787 3.80323
# Velocity P-wave (km/s) = 5.10088 8.21988 6.84052
#
# Compressibility (1/GPa) = 0.04415647
#
# Stress axis : x y z
#
# Youngs Moduli (GPa) = 86.70644 13.75068 65.90878
#
# Poissons Ratio (x) = 0.08956 0.42269
# Poissons Ratio (y) = 0.56474 0.96951
# Poissons Ratio (z) = 0.55607 0.20227
#
# Static dielectric constant tensor:
#      x y z
#    x 1.640550 0.000000 0.000000 
#    y 0.000000 1.603480 0.000000 
#    z 0.000000 0.000000 1.609820 
# 
# From -- ./inp_files/16520.got.cif
#   From: 2010.05.17/outbox.cif.g08.bks.cpg/sg37_9_cif.got.tgz:16520.got - 2010.06.03 17:53:42.
