data_PCOD9353036
_publ_section_title
;
Structure prediction by ZEFSAII (Michael W. Deem and Ramdas Pophale) SiO2 
 PCOD9353036
Probable space group: C M C 21
;
_chemical_formula_sum "Si O2"
_cell_formula_units_Z 40
_cell_length_a 23.462275
_cell_length_b 7.745370
_cell_length_c 9.083300
_cell_angle_alpha 90.000000
_cell_angle_beta 90.000000
_cell_angle_gamma 90.000000
_cell_volume 1650.653618
_symmetry_space_group_name_H-M "C M C 21"
_symmetry_group_IT_number 36
_symmetry_cell_setting 'orthorhombic'
loop_
_space_group_symop_operation_xyz
x,y,z
-x,-y,1/2+z
x,-y,1/2+z
-x,y,z
1/2+x,1/2+y,z
1/2-x,1/2-y,1/2+z
1/2+x,1/2-y,1/2+z
1/2-x,1/2+y,z
loop_
_atom_site_type_symbol
_atom_site_label
_atom_site_fract_x
_atom_site_fract_y
_atom_site_fract_z
Si Si1 0.640037 0.059422 0.190030
Si Si2 0.934184 0.854918 0.342595
Si Si3 0.699760 0.734294 0.479502
Si Si4 0.934162 0.783895 0.683421
Si Si5 0.732156 0.454354 0.281129
O O1 0.607689 0.212691 0.274057
O O2 0.605322 0.883101 0.198254
O O3 0.704268 0.022601 0.245389
O O4 0.650747 0.131202 0.023623
O O5 0.927136 0.851372 0.517130
O O6 0.000000 0.807378 0.306664
O O7 0.925677 0.048328 0.284126
O O8 0.692392 0.604633 0.343636
O O9 0.711018 0.632671 0.631640
O O10 0.756347 0.833169 0.423051
O O11 0.000000 0.727748 0.704000
#
# Coordination Sequence:
#
# PCOD9353036 Si02
#       5
#     8   8   8   8   8
#     4  12  25  44  77 103 144 193 251 293 380 426
#     4  10  24  46  75 110 147 187 239 304 369 441
#     4  12  25  46  69 100 144 191 250 306 366 434
#     4  10  24  48  75 110 148 188 241 302 370 448
#     4  12  25  46  68  99 143 191 246 311 363 435
#
# _framework density 24.232824999999998
#
# number of rings (size 3 to 8) (size 9 to 14) (size 15 to 20)
#    0.000    0.800    4.000    1.800    0.000    8.000 
#    0.000    4.000    0.000    0.000    0.000    0.000 
#    0.000    0.000    0.000    0.000    0.000    0.000 
#
# Total GULP energy -111963.579458 kJ/mol
# GULP energy per Si atom -5598.178973 kJ/mol
# Density = 2.417767 g / cm^3
# Si number density = 24.232825 Si / 1000 Ang^3
#
#
#
# Elastic Constant Matrix: (Units=GPa)
#
#
# Indices 1 2 3 4 5 6 
#
# 1 135.2059 53.6473 51.5344 0.0000 0.0000 0.0000
# 2 53.6473 141.8380 56.7276 0.0000 0.0000 0.0000
# 3 51.5344 56.7276 82.8114 0.0000 0.0000 0.0000
# 4 0.0000 0.0000 0.0000 32.8272 0.0000 0.0000
# 5 0.0000 0.0000 0.0000 0.0000 29.7845 0.0000
# 6 0.0000 0.0000 0.0000 0.0000 0.0000 47.9479
#
#
#
# Elastic Compliance Matrix: (Units=1/GPa)
#
#
# Indices 1 2 3 4 5 6 
#
# 1 0.010013 -0.001784 -0.005009 0.000000 0.000000 0.000000
# 2 -0.001784 0.010029 -0.005760 0.000000 0.000000 0.000000
# 3 -0.005009 -0.005760 0.019139 0.000000 0.000000 0.000000
# 4 0.000000 0.000000 0.000000 0.030463 0.000000 0.000000
# 5 0.000000 0.000000 0.000000 0.000000 0.033575 0.000000
# 6 0.000000 0.000000 0.000000 0.000000 0.000000 0.020856
#
#
# Mechanical properties :
#
#
# Convention : Reuss Voigt Hill
#
# Bulk Modulus (GPa) = 71.05025 75.96378 73.50702
# Shear Modulus (GPa) = 32.49481 35.30833 33.90157
#
# Velocity S-wave (km/s) = 3.66586 3.82127 3.74437
# Velocity P-wave (km/s) = 6.87761 7.13337 7.00666
#
# Compressibility (1/GPa) = 0.01407455
#
# Stress axis : x y z
#
# Youngs Moduli (GPa) = 99.86742 99.71525 52.25053
#
# Poissons Ratio (x) = 0.17787 0.26174
# Poissons Ratio (y) = 0.17815 0.30095
# Poissons Ratio (z) = 0.50028 0.57433
#
# Static dielectric constant tensor:
#      x y z
#    x 1.950330 0.000000 0.000000 
#    y 0.000000 2.032230 0.000000 
#    z 0.000000 0.000000 1.929540 
# 
# From -- ./inp_files/5747.got.cif
#   From: 2010.05.17/outbox.cif.g08.bks.cpg/sg36_3_cif.got.tgz:5747.got - 2010.06.03 17:41:39.
