data_PCOD9353196
_publ_section_title
;
Structure prediction by ZEFSAII (Michael W. Deem and Ramdas Pophale) SiO2 
 PCOD9353196
Probable space group: C M C 21
;
_chemical_formula_sum "Si O2"
_cell_formula_units_Z 60
_cell_length_a 17.514493
_cell_length_b 8.939807
_cell_length_c 16.316475
_cell_angle_alpha 90.000000
_cell_angle_beta 90.000000
_cell_angle_gamma 90.000000
_cell_volume 2554.771443
_symmetry_space_group_name_H-M "C M C 21"
_symmetry_group_IT_number 36
_symmetry_cell_setting 'orthorhombic'
loop_
_space_group_symop_operation_xyz
x,y,z
-x,-y,1/2+z
x,-y,1/2+z
-x,y,z
1/2+x,1/2+y,z
1/2-x,1/2-y,1/2+z
1/2+x,1/2-y,1/2+z
1/2-x,1/2+y,z
loop_
_atom_site_type_symbol
_atom_site_label
_atom_site_fract_x
_atom_site_fract_y
_atom_site_fract_z
Si Si1 0.418413 0.484851 0.567680
Si Si2 0.692497 0.037934 0.430402
Si Si3 0.125244 0.705282 0.134065
Si Si4 0.000000 0.473669 0.172490
Si Si5 0.377200 0.156190 0.802204
Si Si6 0.718932 0.693001 0.036165
Si Si7 0.913707 0.985127 0.869827
Si Si8 0.706182 0.278569 0.297151
O O1 0.500000 0.405907 0.581795
O O2 0.416594 0.638508 0.616445
O O3 0.344295 0.389613 0.590213
O O4 0.411578 0.515731 0.469638
O O5 0.679856 0.155492 0.503705
O O6 0.725219 0.150141 0.362601
O O7 0.625277 0.950994 0.383517
O O8 0.752623 0.918187 0.463951
O O9 0.067492 0.569450 0.123030
O O10 0.200750 0.717676 0.079026
O O11 0.159310 0.702959 0.224683
O O12 0.066342 0.398946 0.232492
O O13 0.399632 0.320817 0.833682
O O14 0.288539 0.156975 0.772305
O O15 0.000000 0.033970 0.847736
O O16 0.853063 0.100322 0.832677
#
# Coordination Sequence:
#
# PCOD9353196 Si02
#       8
#     8   8   8   4   8   8   8   8
#     4  11  23  44  73 107 147 193 248 304 383 449
#     4  12  23  43  82 109 146 193 262 313 367 464
#     4  12  28  48  74 104 156 202 247 316 386 459
#     4  12  28  46  68 112 154 198 246 316 390 450
#     4  12  24  46  71 112 150 192 254 314 377 455
#     4  12  25  48  75 112 146 202 256 309 388 468
#     4  11  25  46  78 113 153 200 253 317 383 458
#     4  12  26  45  80 112 143 201 259 317 377 453
#
# _framework density 23.485465999999999
#
# number of rings (size 3 to 8) (size 9 to 14) (size 15 to 20)
#    0.000    0.267    6.667    2.400    2.800    0.000 
#    1.200    0.000    7.333    0.000    0.000    0.000 
#    0.000    0.000    0.000    0.000    0.000    0.000 
#
# Total GULP energy -167220.677668 kJ/mol
# GULP energy per Si atom -5574.022589 kJ/mol
# Density = 2.343201 g / cm^3
# Si number density = 23.485466 Si / 1000 Ang^3
#
#
#
# Elastic Constant Matrix: (Units=GPa)
#
#
# Indices 1 2 3 4 5 6 
#
# 1 112.3006 -1.5250 -1.0941 0.0000 0.0000 0.0000
# 2 -1.5250 70.2818 -2.2564 0.0000 0.0000 0.0000
# 3 -1.0941 -2.2564 17.6858 0.0000 0.0000 0.0000
# 4 0.0000 0.0000 0.0000 13.2855 0.0000 0.0000
# 5 0.0000 0.0000 0.0000 0.0000 16.7948 0.0000
# 6 0.0000 0.0000 0.0000 0.0000 0.0000 23.5783
#
#
#
# Elastic Compliance Matrix: (Units=1/GPa)
#
#
# Indices 1 2 3 4 5 6 
#
# 1 0.008913 0.000212 0.000578 0.000000 0.000000 0.000000
# 2 0.000212 0.014292 0.001836 0.000000 0.000000 0.000000
# 3 0.000578 0.001836 0.056812 0.000000 0.000000 0.000000
# 4 0.000000 0.000000 0.000000 0.075270 0.000000 0.000000
# 5 0.000000 0.000000 0.000000 0.000000 0.059542 0.000000
# 6 0.000000 0.000000 0.000000 0.000000 0.000000 0.042412
#
#
# Mechanical properties :
#
#
# Convention : Reuss Voigt Hill
#
# Bulk Modulus (GPa) = 11.72726 21.16860 16.44793
# Shear Modulus (GPa) = 17.83092 24.40796 21.11944
#
# Velocity S-wave (km/s) = 2.75841 3.22728 3.00201
# Velocity P-wave (km/s) = 3.89221 4.78750 4.36288
#
# Compressibility (1/GPa) = 0.08527143
#
# Stress axis : x y z
#
# Youngs Moduli (GPa) = 112.19335 69.96927 17.60177
#
# Poissons Ratio (x) = -0.01483 -0.01018
# Poissons Ratio (y) = -0.02378 -0.03233
# Poissons Ratio (z) = -0.06490 -0.12850
#
# Static dielectric constant tensor:
#      x y z
#    x 1.856820 0.000000 0.000000 
#    y 0.000000 1.923200 0.000000 
#    z 0.000000 0.000000 1.978830 
# 
# From -- ./inp_files/14887.got.cif
#   From: 2010.05.17/outbox.cif.g08.bks.cpg/sg36_8_cif.got.tgz:14887.got - 2010.06.03 17:41:39.
