data_PCOD9353448
_publ_section_title
;
Structure prediction by ZEFSAII (Michael W. Deem and Ramdas Pophale) SiO2 
 PCOD9353448
Probable space group: C C C 2
;
_chemical_formula_sum "Si O2"
_cell_formula_units_Z 40
_cell_length_a 23.250989
_cell_length_b 12.173793
_cell_length_c 5.187461
_cell_angle_alpha 90.000000
_cell_angle_beta 90.000000
_cell_angle_gamma 90.000000
_cell_volume 1468.324983
_symmetry_space_group_name_H-M "C C C 2"
_symmetry_group_IT_number 37
_symmetry_cell_setting 'orthorhombic'
loop_
_space_group_symop_operation_xyz
x,y,z
-x,-y,z
-x,y,1/2+z
x,-y,1/2+z
1/2+x,1/2+y,z
1/2-x,1/2-y,z
1/2-x,1/2+y,1/2+z
1/2+x,1/2-y,1/2+z
loop_
_atom_site_type_symbol
_atom_site_label
_atom_site_fract_x
_atom_site_fract_y
_atom_site_fract_z
Si Si1 0.212931 0.458997 0.040790
Si Si2 0.563838 0.548896 0.583548
Si Si3 0.655122 0.773497 0.770662
Si Si4 0.806364 0.832339 0.258897
Si Si5 0.035897 0.693895 0.141360
O O1 0.186643 0.454276 0.331679
O O2 0.278185 0.444555 0.149237
O O3 0.206278 0.357646 0.839469
O O4 0.500000 0.500000 0.539834
O O5 0.592786 0.518213 0.313914
O O6 0.550386 0.675093 0.643087
O O7 0.668648 0.688914 0.542444
O O8 0.599267 0.847001 0.710044
O O9 0.649492 0.712323 0.044525
O O10 0.750000 0.750000 0.263619
O O11 0.990868 0.666821 0.365898
#
# Coordination Sequence:
#
# PCOD9353448 Si02
#       5
#     8   8   8   8   8
#     4  11  22  40  69  92 127 167 209 269 342 414
#     4  10  16  31  51  70 101 147 203 236 295 347
#     4  11  23  39  62  95 123 164 218 264 318 397
#     4  10  20  40  63  89 124 159 200 267 334 391
#     4  12  22  36  58  83 121 171 215 256 311 383
#
# _framework density 27.241923
#
# number of rings (size 3 to 8) (size 9 to 14) (size 15 to 20)
#    0.000    1.200    4.000    6.600    0.000    0.000 
#    0.000    6.000    0.000    3.600    0.000    0.000 
#    0.000    0.000    0.000    0.000    0.000    0.000 
#
# Total GULP energy -111473.282333 kJ/mol
# GULP energy per Si atom -5573.664117 kJ/mol
# Density = 2.717992 g / cm^3
# Si number density = 27.241923 Si / 1000 Ang^3
#
#
#
# Elastic Constant Matrix: (Units=GPa)
#
#
# Indices 1 2 3 4 5 6 
#
# 1 100.1571 -4.6515 25.1101 0.0000 0.0000 0.0000
# 2 -4.6515 24.9088 13.6922 0.0000 0.0000 0.0000
# 3 25.1101 13.6922 272.4943 0.0000 0.0000 0.0000
# 4 0.0000 0.0000 0.0000 33.4057 0.0000 0.0000
# 5 0.0000 0.0000 0.0000 0.0000 41.6155 0.0000
# 6 0.0000 0.0000 0.0000 0.0000 0.0000 22.7999
#
#
#
# Elastic Compliance Matrix: (Units=1/GPa)
#
#
# Indices 1 2 3 4 5 6 
#
# 1 0.010373 0.002533 -0.001083 0.000000 0.000000 0.000000
# 2 0.002533 0.041905 -0.002339 0.000000 0.000000 0.000000
# 3 -0.001083 -0.002339 0.003887 0.000000 0.000000 0.000000
# 4 0.000000 0.000000 0.000000 0.029935 0.000000 0.000000
# 5 0.000000 0.000000 0.000000 0.000000 0.024030 0.000000
# 6 0.000000 0.000000 0.000000 0.000000 0.000000 0.043860
#
#
# Mechanical properties :
#
#
# Convention : Reuss Voigt Hill
#
# Bulk Modulus (GPa) = 18.38688 51.76243 35.07465
# Shear Modulus (GPa) = 28.75242 43.79150 36.27196
#
# Velocity S-wave (km/s) = 3.25229 4.01372 3.65290
# Velocity P-wave (km/s) = 4.56808 6.36570 5.54028
#
# Compressibility (1/GPa) = 0.05438661
#
# Stress axis : x y z
#
# Youngs Moduli (GPa) = 96.39957 23.86338 257.25830
#
# Poissons Ratio (x) = -0.06044 0.27865
# Poissons Ratio (y) = -0.24414 0.60173
# Poissons Ratio (z) = 0.10442 0.05582
#
# Static dielectric constant tensor:
#      x y z
#    x 2.265010 0.000000 0.000000 
#    y 0.000000 2.438820 0.000000 
#    z 0.000000 0.000000 2.206760 
# 
# From -- ./inp_files/1352.got.cif
#   From: 2010.05.17/outbox.cif.g08.bks.cpg/sg37_1_cif.got.tgz:1352.got - 2010.06.03 17:53:42.
