data_PCOD9353277
_publ_section_title
;
Structure prediction by ZEFSAII (Michael W. Deem and Ramdas Pophale) SiO2 
 PCOD9353277
Probable space group: C M C 21
;
_chemical_formula_sum "Si O2"
_cell_formula_units_Z 28
_cell_length_a 14.110086
_cell_length_b 8.982011
_cell_length_c 7.909010
_cell_angle_alpha 90.000000
_cell_angle_beta 90.000000
_cell_angle_gamma 90.000000
_cell_volume 1002.363786
_symmetry_space_group_name_H-M "C M C 21"
_symmetry_group_IT_number 36
_symmetry_cell_setting 'orthorhombic'
loop_
_space_group_symop_operation_xyz
x,y,z
-x,-y,1/2+z
x,-y,1/2+z
-x,y,z
1/2+x,1/2+y,z
1/2-x,1/2-y,1/2+z
1/2+x,1/2-y,1/2+z
1/2-x,1/2+y,z
loop_
_atom_site_type_symbol
_atom_site_label
_atom_site_fract_x
_atom_site_fract_y
_atom_site_fract_z
Si Si1 0.304841 0.184818 0.075530
Si Si2 0.000000 0.555044 0.071059
Si Si3 0.000000 0.961815 0.427157
Si Si4 0.000000 0.257686 0.239999
Si Si5 0.298155 0.473251 0.863392
O O1 0.404218 0.127752 0.143914
O O2 0.222778 0.131603 0.203473
O O3 0.300359 0.354912 0.018727
O O4 0.284269 0.088193 0.906236
O O5 0.000000 0.376982 0.084458
O O6 0.000000 0.602726 0.873505
O O7 0.000000 0.886591 0.611147
O O8 0.894786 0.932424 0.354888
O O9 0.000000 0.142075 0.404661
#
# Coordination Sequence:
#
# PCOD9353277 Si02
#       5
#     8   4   4   4   8
#     4  12  27  50  80 119 164 221 290 353 433 511
#     4  12  28  56  84 124 176 228 288 362 436 516
#     4  12  28  54  86 126 174 228 286 364 440 512
#     4  12  28  54  88 128 168 228 288 350 446 518
#     4  12  27  48  79 120 165 220 287 355 432 514
#
# _framework density 27.933969999999999
#
# number of rings (size 3 to 8) (size 9 to 14) (size 15 to 20)
#    0.000    0.000    2.857    5.143    8.000    1.143 
#    5.143    0.000    0.000    0.000    0.000    0.000 
#    0.000    0.000    0.000    0.000    0.000    0.000 
#
# Total GULP energy -77940.702004 kJ/mol
# GULP energy per Si atom -5567.193000 kJ/mol
# Density = 2.787039 g / cm^3
# Si number density = 27.933970 Si / 1000 Ang^3
#
#
#
# Elastic Constant Matrix: (Units=GPa)
#
#
# Indices 1 2 3 4 5 6 
#
# 1 144.6226 25.2845 17.3403 0.0000 0.0000 0.0000
# 2 25.2845 208.7785 56.6909 0.0000 0.0000 0.0000
# 3 17.3403 56.6909 135.3856 0.0000 0.0000 0.0000
# 4 0.0000 0.0000 0.0000 96.9508 0.0000 0.0000
# 5 0.0000 0.0000 0.0000 0.0000 24.7075 0.0000
# 6 0.0000 0.0000 0.0000 0.0000 0.0000 -10.4365
#
#
#
# Elastic Compliance Matrix: (Units=1/GPa)
#
#
# Indices 1 2 3 4 5 6 
#
# 1 0.007110 -0.000693 -0.000621 0.000000 0.000000 0.000000
# 2 -0.000693 0.005472 -0.002202 0.000000 0.000000 0.000000
# 3 -0.000621 -0.002202 0.008388 0.000000 0.000000 0.000000
# 4 0.000000 0.000000 0.000000 0.010315 0.000000 0.000000
# 5 0.000000 0.000000 0.000000 0.000000 0.040474 0.000000
# 6 0.000000 0.000000 0.000000 0.000000 0.000000 -0.095817
#
#
# Mechanical properties :
#
#
# Convention : Reuss Voigt Hill
#
# Bulk Modulus (GPa) = 71.74425 76.37977 74.06201
# Shear Modulus (GPa) = -403.81993 48.20908 -177.80542
#
# Velocity S-wave (km/s) = -12.03645 4.15881 -7.98688
# Velocity P-wave (km/s) = 12.93943 7.10375 7.64741
#
# Compressibility (1/GPa) = 0.01393840
#
# Stress axis : x y z
#
# Youngs Moduli (GPa) = 140.64609 182.75875 119.21689
#
# Poissons Ratio (x) = 0.12657 0.07399
# Poissons Ratio (y) = 0.09740 0.26257
# Poissons Ratio (z) = 0.08730 0.40253
#
# Static dielectric constant tensor:
#      x y z
#    x 2.410120 0.000000 0.000000 
#    y 0.000000 2.021520 0.000000 
#    z 0.000000 0.000000 2.248050 
# 
# From -- ./inp_files/4465.got.cif
#   From: 2010.05.17/outbox.cif.g08.bks.cpg/sg36_3_cif.got.tgz:4465.got - 2010.06.03 17:41:39.
