data_PCOD9353146
_publ_section_title
;
Structure prediction by ZEFSAII (Michael W. Deem and Ramdas Pophale) SiO2 
 PCOD9353146
Probable space group: C M C 21
;
_chemical_formula_sum "Si O2"
_cell_formula_units_Z 40
_cell_length_a 18.349460
_cell_length_b 7.620951
_cell_length_c 12.057207
_cell_angle_alpha 90.000000
_cell_angle_beta 90.000000
_cell_angle_gamma 90.000000
_cell_volume 1686.083873
_symmetry_space_group_name_H-M "C M C 21"
_symmetry_group_IT_number 36
_symmetry_cell_setting 'orthorhombic'
loop_
_space_group_symop_operation_xyz
x,y,z
-x,-y,1/2+z
x,-y,1/2+z
-x,y,z
1/2+x,1/2+y,z
1/2-x,1/2-y,1/2+z
1/2+x,1/2-y,1/2+z
1/2-x,1/2+y,z
loop_
_atom_site_type_symbol
_atom_site_label
_atom_site_fract_x
_atom_site_fract_y
_atom_site_fract_z
Si Si1 0.000000 0.647831 0.312621
Si Si2 0.692043 0.847110 0.329846
Si Si3 0.187550 0.868557 0.040887
Si Si4 0.500000 0.953481 0.062462
Si Si5 0.847754 0.745384 0.281504
Si Si6 0.653099 0.758558 0.091078
O O1 0.000000 0.566327 0.183594
O O2 0.070651 0.772014 0.320269
O O3 0.000000 0.517318 0.423013
O O4 0.665462 0.748055 0.437426
O O5 0.779921 0.851428 0.330148
O O6 0.667853 0.740218 0.221972
O O7 0.665286 0.042642 0.311832
O O8 0.159178 0.773159 0.150766
O O9 0.276348 0.868765 0.048727
O O10 0.157891 0.064405 0.042477
O O11 0.576138 0.849804 0.073548
#
# Coordination Sequence:
#
# PCOD9353146 Si02
#       6
#     4   8   8   4   8   8
#     4  12  28  45  73 101 151 188 246 286 378 426
#     4  11  22  42  70 101 140 181 245 299 348 427
#     4  11  24  43  75 103 141 188 241 304 357 422
#     4  12  28  49  71 107 149 194 236 308 360 444
#     4  11  24  42  69 108 134 195 234 294 355 434
#     4  11  24  45  69 106 142 187 244 294 362 428
#
# _framework density 23.723611999999999
#
# number of rings (size 3 to 8) (size 9 to 14) (size 15 to 20)
#    0.000    0.800    2.000    7.200    2.800    2.400 
#    0.000    2.000    0.000    0.000    0.000    0.000 
#    0.000    0.000    0.000    0.000    0.000    0.000 
#
# Total GULP energy -111849.023816 kJ/mol
# GULP energy per Si atom -5592.451191 kJ/mol
# Density = 2.366962 g / cm^3
# Si number density = 23.723612 Si / 1000 Ang^3
#
#
#
# Elastic Constant Matrix: (Units=GPa)
#
#
# Indices 1 2 3 4 5 6 
#
# 1 148.9417 37.5440 12.1579 0.0000 0.0000 0.0000
# 2 37.5440 53.5980 -6.3368 0.0000 0.0000 0.0000
# 3 12.1579 -6.3368 169.8382 0.0000 0.0000 0.0000
# 4 0.0000 0.0000 0.0000 36.5622 0.0000 0.0000
# 5 0.0000 0.0000 0.0000 0.0000 8.0336 0.0000
# 6 0.0000 0.0000 0.0000 0.0000 0.0000 27.6799
#
#
#
# Elastic Compliance Matrix: (Units=1/GPa)
#
#
# Indices 1 2 3 4 5 6 
#
# 1 0.008264 -0.005884 -0.000811 0.000000 0.000000 0.000000
# 2 -0.005884 0.022930 0.001277 0.000000 0.000000 0.000000
# 3 -0.000811 0.001277 0.005994 0.000000 0.000000 0.000000
# 4 0.000000 0.000000 0.000000 0.027351 0.000000 0.000000
# 5 0.000000 0.000000 0.000000 0.000000 0.124478 0.000000
# 6 0.000000 0.000000 0.000000 0.000000 0.000000 0.036127
#
#
# Mechanical properties :
#
#
# Convention : Reuss Voigt Hill
#
# Bulk Modulus (GPa) = 37.95049 51.01201 44.48125
# Shear Modulus (GPa) = 20.42789 36.38931 28.40860
#
# Velocity S-wave (km/s) = 2.93760 3.92073 3.46422
# Velocity P-wave (km/s) = 5.24763 6.48425 5.89844
#
# Compressibility (1/GPa) = 0.02635012
#
# Stress axis : x y z
#
# Youngs Moduli (GPa) = 121.01398 43.61073 166.84305
#
# Poissons Ratio (x) = 0.25662 0.13532
# Poissons Ratio (y) = 0.71208 -0.21302
# Poissons Ratio (z) = 0.09815 -0.05568
#
# Static dielectric constant tensor:
#      x y z
#    x 1.878760 0.000000 0.000000 
#    y 0.000000 1.894890 0.000000 
#    z 0.000000 0.000000 2.016940 
# 
# From -- ./inp_files/8797.got.cif
#   From: 2010.05.17/outbox.cif.g08.bks.cpg/sg36_5_cif.got.tgz:8797.got - 2010.06.03 17:41:39.
