data_PCOD9353177
_publ_section_title
;
Structure prediction by ZEFSAII (Michael W. Deem and Ramdas Pophale) SiO2 
 PCOD9353177
Probable space group: C M C 21
;
_chemical_formula_sum "Si O2"
_cell_formula_units_Z 48
_cell_length_a 14.392234
_cell_length_b 9.715316
_cell_length_c 17.060422
_cell_angle_alpha 90.000000
_cell_angle_beta 90.000000
_cell_angle_gamma 90.000000
_cell_volume 2385.475234
_symmetry_space_group_name_H-M "C M C 21"
_symmetry_group_IT_number 36
_symmetry_cell_setting 'orthorhombic'
loop_
_space_group_symop_operation_xyz
x,y,z
-x,-y,1/2+z
x,-y,1/2+z
-x,y,z
1/2+x,1/2+y,z
1/2-x,1/2-y,1/2+z
1/2+x,1/2-y,1/2+z
1/2-x,1/2+y,z
loop_
_atom_site_type_symbol
_atom_site_label
_atom_site_fract_x
_atom_site_fract_y
_atom_site_fract_z
Si Si1 0.300775 0.782837 0.057890
Si Si2 0.500000 0.110501 0.229231
Si Si3 0.500000 0.241897 0.484498
Si Si4 0.000000 0.450914 0.393141
Si Si5 0.302410 0.056223 0.154406
Si Si6 0.196754 0.968110 0.812447
Si Si7 0.195954 0.307075 0.403773
Si Si8 0.000000 0.898256 0.321183
O O1 0.256488 0.684996 0.123552
O O2 0.300924 0.938117 0.089002
O O3 0.405983 0.743193 0.034313
O O4 0.236477 0.760140 0.982084
O O5 0.500000 0.002788 0.302379
O O6 0.407761 0.092194 0.177775
O O7 0.500000 0.260417 0.269143
O O8 0.500000 0.347497 0.411564
O O9 0.500000 0.089281 0.445537
O O10 0.908567 0.362037 0.410198
O O11 0.253569 0.005250 0.233691
O O12 0.241907 0.063167 0.879309
O O13 0.091073 0.013904 0.804163
O O14 0.203935 0.809648 0.837354
#
# Coordination Sequence:
#
# PCOD9353177 Si02
#       8
#     8   4   4   4   8   8   8   4
#     4  12  26  44  67  99 140 181 224 285 356 417
#     4  11  23  44  72  99 137 182 236 280 349 411
#     4  11  23  43  69  97 135 180 230 278 351 412
#     4  11  23  42  75 105 129 180 242 290 329 413
#     4  12  26  44  68 102 140 181 227 289 354 418
#     4  12  24  44  70 102 138 181 240 287 346 414
#     4  12  24  44  71 102 137 183 238 286 341 418
#     4  11  23  41  70 103 129 178 234 302 333 400
#
# _framework density 20.121777999999999
#
# number of rings (size 3 to 8) (size 9 to 14) (size 15 to 20)
#    0.000    0.333    3.333    7.000    0.000    1.333 
#    0.000    1.667    0.000    0.000    0.000    0.000 
#    0.000    0.000    0.000    0.000    0.000    0.000 
#
# Total GULP energy -134373.316905 kJ/mol
# GULP energy per Si atom -5598.888204 kJ/mol
# Density = 2.007598 g / cm^3
# Si number density = 20.121778 Si / 1000 Ang^3
#
#
#
# Elastic Constant Matrix: (Units=GPa)
#
#
# Indices 1 2 3 4 5 6 
#
# 1 85.3051 47.3906 30.6769 0.0000 0.0000 0.0000
# 2 47.3906 69.5301 12.5435 0.0000 0.0000 0.0000
# 3 30.6769 12.5435 70.7769 0.0000 0.0000 0.0000
# 4 0.0000 0.0000 0.0000 37.4323 0.0000 0.0000
# 5 0.0000 0.0000 0.0000 0.0000 35.3769 0.0000
# 6 0.0000 0.0000 0.0000 0.0000 0.0000 23.6851
#
#
#
# Elastic Compliance Matrix: (Units=1/GPa)
#
#
# Indices 1 2 3 4 5 6 
#
# 1 0.021806 -0.013592 -0.007043 0.000000 0.000000 0.000000
# 2 -0.013592 0.023330 0.001757 0.000000 0.000000 0.000000
# 3 -0.007043 0.001757 0.016870 0.000000 0.000000 0.000000
# 4 0.000000 0.000000 0.000000 0.026715 0.000000 0.000000
# 5 0.000000 0.000000 0.000000 0.000000 0.028267 0.000000
# 6 0.000000 0.000000 0.000000 0.000000 0.000000 0.042221
#
#
# Mechanical properties :
#
#
# Convention : Reuss Voigt Hill
#
# Bulk Modulus (GPa) = 41.23787 45.20382 43.22084
# Shear Modulus (GPa) = 24.38446 28.29891 26.34169
#
# Velocity S-wave (km/s) = 3.48493 3.75424 3.62209
# Velocity P-wave (km/s) = 6.06066 6.42700 6.24652
#
# Compressibility (1/GPa) = 0.02424956
#
# Stress axis : x y z
#
# Youngs Moduli (GPa) = 45.85808 42.86385 59.27656
#
# Poissons Ratio (x) = 0.58262 0.41746
# Poissons Ratio (y) = 0.62332 -0.10413
# Poissons Ratio (z) = 0.32296 -0.07530
#
# Static dielectric constant tensor:
#      x y z
#    x 1.696320 0.000000 0.000000 
#    y 0.000000 1.683030 0.000000 
#    z 0.000000 0.000000 1.756770 
# 
# From -- ./inp_files/14266.got.cif
#   From: 2010.05.17/outbox.cif.g08.bks.cpg/sg36_8_cif.got.tgz:14266.got - 2010.06.03 17:41:39.
