data_PCOD9353605
_publ_section_title
;
Structure prediction by ZEFSAII (Michael W. Deem and Ramdas Pophale) SiO2 
 PCOD9353605
Probable space group: C C C 2
;
_chemical_formula_sum "Si O2"
_cell_formula_units_Z 40
_cell_length_a 15.388537
_cell_length_b 19.663249
_cell_length_c 5.477225
_cell_angle_alpha 90.000000
_cell_angle_beta 90.000000
_cell_angle_gamma 90.000000
_cell_volume 1657.346035
_symmetry_space_group_name_H-M "C C C 2"
_symmetry_group_IT_number 37
_symmetry_cell_setting 'orthorhombic'
loop_
_space_group_symop_operation_xyz
x,y,z
-x,-y,z
-x,y,1/2+z
x,-y,1/2+z
1/2+x,1/2+y,z
1/2-x,1/2-y,z
1/2-x,1/2+y,1/2+z
1/2+x,1/2-y,1/2+z
loop_
_atom_site_type_symbol
_atom_site_label
_atom_site_fract_x
_atom_site_fract_y
_atom_site_fract_z
Si Si1 0.901505 0.758073 0.892410
Si Si2 0.401039 0.204301 0.393121
Si Si3 0.762392 0.935101 0.031502
Si Si4 0.699293 0.915925 0.530020
Si Si5 0.552346 0.584244 0.938495
O O1 0.862683 0.744799 0.625315
O O2 0.916614 0.837341 0.939862
O O3 0.997937 0.724360 0.872228
O O4 0.860563 0.725037 0.133451
O O5 0.386249 0.125155 0.455297
O O6 0.761565 0.901300 0.297736
O O7 0.701837 0.002221 0.052617
O O8 0.729556 0.893093 0.798309
O O9 0.859234 0.957959 0.962725
O O10 0.504951 0.573993 0.680645
#
# Coordination Sequence:
#
# PCOD9353605 Si02
#       5
#     8   8   8   8   8
#     4  10  19  35  60  93 117 154 205 251 303 359
#     4  10  18  35  63  87 122 156 198 255 303 350
#     4  10  23  40  62  86 122 166 205 244 305 361
#     4  10  21  42  59  84 126 163 205 249 293 371
#     4  12  21  40  64  90 126 155 204 259 298 362
#
# _framework density 24.134972999999999
#
# number of rings (size 3 to 8) (size 9 to 14) (size 15 to 20)
#    0.000    1.600    4.000    2.400    0.000    0.000 
#    0.000   18.000    0.000   57.600    0.000    0.000 
#    0.000    0.000    0.000    0.000    0.000    0.000 
#
# Total GULP energy -111628.245821 kJ/mol
# GULP energy per Si atom -5581.412291 kJ/mol
# Density = 2.408004 g / cm^3
# Si number density = 24.134973 Si / 1000 Ang^3
#
#
#
# Elastic Constant Matrix: (Units=GPa)
#
#
# Indices 1 2 3 4 5 6 
#
# 1 29.9875 27.0453 -0.9060 0.0000 0.0000 0.0000
# 2 27.0453 96.1268 12.4308 0.0000 0.0000 0.0000
# 3 -0.9060 12.4308 243.4161 0.0000 0.0000 0.0000
# 4 0.0000 0.0000 0.0000 122.4836 0.0000 0.0000
# 5 0.0000 0.0000 0.0000 0.0000 29.4596 0.0000
# 6 0.0000 0.0000 0.0000 0.0000 0.0000 38.0944
#
#
#
# Elastic Compliance Matrix: (Units=1/GPa)
#
#
# Indices 1 2 3 4 5 6 
#
# 1 0.044847 -0.012723 0.000817 0.000000 0.000000 0.000000
# 2 -0.012723 0.014082 -0.000766 0.000000 0.000000 0.000000
# 3 0.000817 -0.000766 0.004150 0.000000 0.000000 0.000000
# 4 0.000000 0.000000 0.000000 0.008164 0.000000 0.000000
# 5 0.000000 0.000000 0.000000 0.000000 0.033945 0.000000
# 6 0.000000 0.000000 0.000000 0.000000 0.000000 0.026251
#
#
# Mechanical properties :
#
#
# Convention : Reuss Voigt Hill
#
# Bulk Modulus (GPa) = 26.50215 49.63008 38.06611
# Shear Modulus (GPa) = 29.52246 60.07153 44.79700
#
# Velocity S-wave (km/s) = 3.50126 4.99438 4.31293
# Velocity P-wave (km/s) = 5.22969 7.33939 6.37246
#
# Compressibility (1/GPa) = 0.03773279
#
# Stress axis : x y z
#
# Youngs Moduli (GPa) = 22.29808 71.01384 240.94210
#
# Poissons Ratio (x) = 0.90353 -0.19677
# Poissons Ratio (y) = 0.28371 0.18468
# Poissons Ratio (z) = -0.01821 0.05443
#
# Static dielectric constant tensor:
#      x y z
#    x 1.900000 0.000000 0.000000 
#    y 0.000000 1.958210 0.000000 
#    z 0.000000 0.000000 2.021450 
# 
# From -- ./inp_files/517.got.cif
#   From: 2010.05.17/outbox.cif.g08.bks.cpg/sg37_1_cif.got.tgz:517.got - 2010.06.03 17:53:42.
