data_PCOD9353533
_publ_section_title
;
Structure prediction by ZEFSAII (Michael W. Deem and Ramdas Pophale) SiO2 
 PCOD9353533
Probable space group: C C C 2
;
_chemical_formula_sum "Si O2"
_cell_formula_units_Z 56
_cell_length_a 15.981469
_cell_length_b 22.926079
_cell_length_c 7.985511
_cell_angle_alpha 90.000000
_cell_angle_beta 90.000000
_cell_angle_gamma 90.000000
_cell_volume 2925.830707
_symmetry_space_group_name_H-M "C C C 2"
_symmetry_group_IT_number 37
_symmetry_cell_setting 'orthorhombic'
loop_
_space_group_symop_operation_xyz
x,y,z
-x,-y,z
-x,y,1/2+z
x,-y,1/2+z
1/2+x,1/2+y,z
1/2-x,1/2-y,z
1/2-x,1/2+y,1/2+z
1/2+x,1/2-y,1/2+z
loop_
_atom_site_type_symbol
_atom_site_label
_atom_site_fract_x
_atom_site_fract_y
_atom_site_fract_z
Si Si1 0.832925 0.428494 0.613720
Si Si2 0.116585 0.735374 0.165396
Si Si3 0.487285 0.064909 0.703079
Si Si4 0.797203 0.695043 0.180734
Si Si5 0.525198 0.191333 0.843559
Si Si6 0.228159 0.832912 0.055400
Si Si7 0.311272 0.052340 0.510561
O O1 0.796470 0.364950 0.576795
O O2 0.790604 0.484429 0.532107
O O3 0.827393 0.435182 0.815374
O O4 0.931908 0.432447 0.579009
O O5 0.061229 0.701993 0.026513
O O6 0.143922 0.799461 0.105235
O O7 0.200247 0.696996 0.169430
O O8 0.055940 0.731557 0.321732
O O9 0.500049 0.124782 0.804781
O O10 0.396482 0.064310 0.615478
O O11 0.500000 0.000000 0.782185
O O12 0.750000 0.750000 0.103024
O O13 0.894338 0.706026 0.227028
O O14 0.751865 0.683836 0.362244
O O15 0.240793 0.901933 0.068594
#
# Coordination Sequence:
#
# PCOD9353533 Si02
#       7
#     8   8   8   8   8   8   8
#     4   9  20  29  47  72  97 133 170 200 239 296
#     4  10  18  31  51  73  92 131 168 208 245 296
#     4   9  18  27  40  67 101 133 162 190 227 288
#     4   9  15  31  50  71  95 132 169 197 240 304
#     4  10  18  30  49  72  99 128 170 207 241 294
#     4   9  16  31  54  65  97 135 174 192 244 309
#     4  10  18  33  46  70  98 134 168 199 242 292
#
# _framework density 19.139862999999998
#
# number of rings (size 3 to 8) (size 9 to 14) (size 15 to 20)
#    0.000    2.571    4.286    0.857    0.000    5.143 
#    5.143    0.000    6.286    0.000    0.000    1.000 
#    0.000    0.000    0.000    0.000    0.000    0.000 
#
# Total GULP energy -156196.130374 kJ/mol
# GULP energy per Si atom -5578.433228 kJ/mol
# Density = 1.909630 g / cm^3
# Si number density = 19.139863 Si / 1000 Ang^3
#
#
#
# Elastic Constant Matrix: (Units=GPa)
#
#
# Indices 1 2 3 4 5 6 
#
# 1 48.2935 48.2361 18.6417 0.0000 0.0000 0.0000
# 2 48.2361 159.4635 19.7636 0.0000 0.0000 0.0000
# 3 18.6417 19.7636 33.5270 0.0000 0.0000 0.0000
# 4 0.0000 0.0000 0.0000 19.9639 0.0000 0.0000
# 5 0.0000 0.0000 0.0000 0.0000 15.5840 0.0000
# 6 0.0000 0.0000 0.0000 0.0000 0.0000 39.5233
#
#
#
# Elastic Compliance Matrix: (Units=1/GPa)
#
#
# Indices 1 2 3 4 5 6 
#
# 1 0.035035 -0.008829 -0.014276 0.000000 0.000000 0.000000
# 2 -0.008829 0.008990 -0.000391 0.000000 0.000000 0.000000
# 3 -0.014276 -0.000391 0.037995 0.000000 0.000000 0.000000
# 4 0.000000 0.000000 0.000000 0.050090 0.000000 0.000000
# 5 0.000000 0.000000 0.000000 0.000000 0.064168 0.000000
# 6 0.000000 0.000000 0.000000 0.000000 0.000000 0.025302
#
#
# Mechanical properties :
#
#
# Convention : Reuss Voigt Hill
#
# Bulk Modulus (GPa) = 28.54721 46.06297 37.30509
# Shear Modulus (GPa) = 17.84135 25.32374 21.58254
#
# Velocity S-wave (km/s) = 3.05644 3.64137 3.36165
# Velocity P-wave (km/s) = 5.23480 6.46516 5.88224
#
# Compressibility (1/GPa) = 0.03502970
#
# Stress axis : x y z
#
# Youngs Moduli (GPa) = 28.54249 111.23506 26.31934
#
# Poissons Ratio (x) = 0.98204 0.37574
# Poissons Ratio (y) = 0.25199 0.01028
# Poissons Ratio (z) = 0.40748 0.04345
#
# Static dielectric constant tensor:
#      x y z
#    x 1.680180 0.000000 0.000000 
#    y 0.000000 1.718590 0.000000 
#    z 0.000000 0.000000 1.788940 
# 
# From -- ./inp_files/4180.got.cif
#   From: 2010.05.17/outbox.cif.g08.bks.cpg/sg37_3_cif.got.tgz:4180.got - 2010.06.03 17:53:42.
