data_PCOD9353546
_publ_section_title
;
Structure prediction by ZEFSAII (Michael W. Deem and Ramdas Pophale) SiO2 
 PCOD9353546
Probable space group: C C C 2
;
_chemical_formula_sum "Si O2"
_cell_formula_units_Z 60
_cell_length_a 11.011010
_cell_length_b 29.911000
_cell_length_c 9.280101
_cell_angle_alpha 90.000000
_cell_angle_beta 90.000000
_cell_angle_gamma 90.000000
_cell_volume 3056.404235
_symmetry_space_group_name_H-M "C C C 2"
_symmetry_group_IT_number 37
_symmetry_cell_setting 'orthorhombic'
loop_
_space_group_symop_operation_xyz
x,y,z
-x,-y,z
-x,y,1/2+z
x,-y,1/2+z
1/2+x,1/2+y,z
1/2-x,1/2-y,z
1/2-x,1/2+y,1/2+z
1/2+x,1/2-y,1/2+z
loop_
_atom_site_type_symbol
_atom_site_label
_atom_site_fract_x
_atom_site_fract_y
_atom_site_fract_z
Si Si1 0.845051 0.289503 0.835170
Si Si2 0.603468 0.592020 0.501759
Si Si3 0.066176 0.184844 0.635804
Si Si4 0.750000 0.250000 0.312770
Si Si5 0.821903 0.866403 0.223769
Si Si6 0.455297 0.768806 0.527929
Si Si7 0.357677 0.484968 0.724701
Si Si8 0.821676 0.936967 0.014864
O O1 0.750000 0.250000 0.867762
O O2 0.775095 0.332851 0.786031
O O3 0.921327 0.274743 0.694033
O O4 0.933143 0.297298 0.969164
O O5 0.626104 0.641327 0.565900
O O6 0.650883 0.595204 0.340359
O O7 0.651627 0.554864 0.608814
O O8 0.461755 0.578899 0.496036
O O9 0.164577 0.215520 0.721631
O O10 0.948040 0.161844 0.711015
O O11 0.004830 0.217888 0.519098
O O12 0.658311 0.225062 0.422502
O O13 0.772798 0.889785 0.077439
O O14 0.500000 0.500000 0.752910
O O15 0.298368 0.464287 0.868224
O O16 0.302989 0.526914 0.640555
#
# Coordination Sequence:
#
# PCOD9353546 Si02
#       8
#     8   8   8   4   8   8   8   8
#     4  12  24  41  60  83 119 159 210 262 305 358
#     4  10  20  30  51  79 111 155 196 233 293 362
#     4  11  22  36  56  82 111 155 204 246 297 356
#     4  12  22  38  58  78 112 148 200 258 304 356
#     4  11  22  38  56  82 120 157 203 248 294 362
#     4  12  24  39  58  83 108 158 204 256 312 356
#     4  10  18  31  51  81 119 157 193 234 289 366
#     4  10  19  32  52  80 118 157 192 234 294 365
#
# _framework density 19.630911000000001
#
# number of rings (size 3 to 8) (size 9 to 14) (size 15 to 20)
#    0.000    1.067    3.333    6.000    2.800    3.200 
#    0.000    0.000    0.000    0.000    0.000    0.000 
#    0.000   22.400    0.000    0.267    0.000    0.000 
#
# Total GULP energy -167205.379044 kJ/mol
# GULP energy per Si atom -5573.512635 kJ/mol
# Density = 1.958623 g / cm^3
# Si number density = 19.630911 Si / 1000 Ang^3
#
#
#
# Elastic Constant Matrix: (Units=GPa)
#
#
# Indices 1 2 3 4 5 6 
#
# 1 54.1637 13.1553 24.8417 0.0000 0.0000 0.0000
# 2 13.1553 88.9656 27.1297 0.0000 0.0000 0.0000
# 3 24.8417 27.1297 61.8388 0.0000 0.0000 0.0000
# 4 0.0000 0.0000 0.0000 36.0057 0.0000 0.0000
# 5 0.0000 0.0000 0.0000 0.0000 16.7127 0.0000
# 6 0.0000 0.0000 0.0000 0.0000 0.0000 9.3455
#
#
#
# Elastic Compliance Matrix: (Units=1/GPa)
#
#
# Indices 1 2 3 4 5 6 
#
# 1 0.022666 -0.000664 -0.008814 0.000000 0.000000 0.000000
# 2 -0.000664 0.012996 -0.005435 0.000000 0.000000 0.000000
# 3 -0.008814 -0.005435 0.022096 0.000000 0.000000 0.000000
# 4 0.000000 0.000000 0.000000 0.027773 0.000000 0.000000
# 5 0.000000 0.000000 0.000000 0.000000 0.059835 0.000000
# 6 0.000000 0.000000 0.000000 0.000000 0.000000 0.107004
#
#
# Mechanical properties :
#
#
# Convention : Reuss Voigt Hill
#
# Bulk Modulus (GPa) = 35.80034 37.24683 36.52359
# Shear Modulus (GPa) = 17.15226 21.73553 19.44389
#
# Velocity S-wave (km/s) = 2.95911 3.33109 3.15059
# Velocity P-wave (km/s) = 5.47279 5.81460 5.64628
#
# Compressibility (1/GPa) = 0.02793269
#
# Stress axis : x y z
#
# Youngs Moduli (GPa) = 44.11828 76.94813 45.25658
#
# Poissons Ratio (x) = 0.05108 0.39890
# Poissons Ratio (y) = 0.02929 0.24596
# Poissons Ratio (z) = 0.38887 0.41820
#
# Static dielectric constant tensor:
#      x y z
#    x 1.700480 0.000000 0.000000 
#    y 0.000000 1.723200 0.000000 
#    z 0.000000 0.000000 1.787880 
# 
# From -- ./inp_files/3055.got.cif
#   From: 2010.05.17/outbox.cif.g08.bks.cpg/sg37_2_cif.got.tgz:3055.got - 2010.06.03 17:53:42.
