data_PCOD9353466
_publ_section_title
;
Structure prediction by ZEFSAII (Michael W. Deem and Ramdas Pophale) SiO2 
 PCOD9353466
Probable space group: C C C 2
;
_chemical_formula_sum "Si O2"
_cell_formula_units_Z 56
_cell_length_a 24.454162
_cell_length_b 12.660999
_cell_length_c 8.299176
_cell_angle_alpha 90.000000
_cell_angle_beta 90.000000
_cell_angle_gamma 90.000000
_cell_volume 2569.542079
_symmetry_space_group_name_H-M "C C C 2"
_symmetry_group_IT_number 37
_symmetry_cell_setting 'orthorhombic'
loop_
_space_group_symop_operation_xyz
x,y,z
-x,-y,z
-x,y,1/2+z
x,-y,1/2+z
1/2+x,1/2+y,z
1/2-x,1/2-y,z
1/2-x,1/2+y,1/2+z
1/2+x,1/2-y,1/2+z
loop_
_atom_site_type_symbol
_atom_site_label
_atom_site_fract_x
_atom_site_fract_y
_atom_site_fract_z
Si Si1 0.233195 0.376816 0.732970
Si Si2 0.382952 0.348784 0.009758
Si Si3 0.985641 0.874676 0.802499
Si Si4 0.301428 0.168286 0.065233
Si Si5 0.654884 0.474172 0.194903
Si Si6 0.914361 0.819832 0.498576
Si Si7 0.691833 0.818101 0.421197
O O1 0.250000 0.250000 0.743457
O O2 0.282409 0.449640 0.672902
O O3 0.192119 0.383377 0.585966
O O4 0.213451 0.402304 0.911663
O O5 0.446112 0.363579 0.960656
O O6 0.356138 0.409191 0.856760
O O7 0.356058 0.233741 0.016354
O O8 0.361173 0.405120 0.172482
O O9 0.952971 0.813461 0.660824
O O10 0.000000 0.000000 0.769881
O O11 0.043011 0.826184 0.853931
O O12 0.250000 0.250000 0.077735
O O13 0.308963 0.127724 0.246638
O O14 0.617739 0.424577 0.054432
O O15 0.864256 0.745935 0.449704
O O16 0.750000 0.750000 0.422529
#
# Coordination Sequence:
#
# PCOD9353466 Si02
#       7
#     8   8   8   8   8   8   8
#     4  10  16  36  53  75  97 134 183 242 287 335
#     4  11  23  33  50  75 106 150 191 239 272 323
#     4  11  23  34  48  68 110 158 199 232 277 324
#     4  10  20  35  56  75  99 140 195 234 292 346
#     4  11  21  33  51  73 108 135 197 241 275 325
#     4  11  22  35  47  72 100 147 194 244 273 326
#     4  10  20  33  57  73  92 130 193 244 285 336
#
# _framework density 21.793766999999999
#
# number of rings (size 3 to 8) (size 9 to 14) (size 15 to 20)
#    0.000    1.429    7.143    1.286    6.000    0.000 
#    0.000    0.000    0.000    0.000    0.000    0.000 
#    0.000    0.000    0.000    1.286   20.286    7.000 
#
# Total GULP energy -156015.515121 kJ/mol
# GULP energy per Si atom -5571.982683 kJ/mol
# Density = 2.174416 g / cm^3
# Si number density = 21.793767 Si / 1000 Ang^3
#
#
#
# Elastic Constant Matrix: (Units=GPa)
#
#
# Indices 1 2 3 4 5 6 
#
# 1 164.0805 35.9775 38.9577 0.0000 0.0000 0.0000
# 2 35.9775 30.7021 22.0830 0.0000 0.0000 0.0000
# 3 38.9577 22.0830 155.5636 0.0000 0.0000 0.0000
# 4 0.0000 0.0000 0.0000 19.6960 0.0000 0.0000
# 5 0.0000 0.0000 0.0000 0.0000 8.7413 0.0000
# 6 0.0000 0.0000 0.0000 0.0000 0.0000 26.3374
#
#
#
# Elastic Compliance Matrix: (Units=1/GPa)
#
#
# Indices 1 2 3 4 5 6 
#
# 1 0.008285 -0.009151 -0.000776 0.000000 0.000000 0.000000
# 2 -0.009151 0.046382 -0.004292 0.000000 0.000000 0.000000
# 3 -0.000776 -0.004292 0.007232 0.000000 0.000000 0.000000
# 4 0.000000 0.000000 0.000000 0.050772 0.000000 0.000000
# 5 0.000000 0.000000 0.000000 0.000000 0.114400 0.000000
# 6 0.000000 0.000000 0.000000 0.000000 0.000000 0.037969
#
#
# Mechanical properties :
#
#
# Convention : Reuss Voigt Hill
#
# Bulk Modulus (GPa) = 29.88603 60.48697 45.18650
# Shear Modulus (GPa) = 16.41331 27.84346 22.12839
#
# Velocity S-wave (km/s) = 2.74728 3.57821 3.18992
# Velocity P-wave (km/s) = 4.87917 6.69970 5.86056
#
# Compressibility (1/GPa) = 0.03346045
#
# Stress axis : x y z
#
# Youngs Moduli (GPa) = 120.69631 21.56028 138.27677
#
# Poissons Ratio (x) = 0.19729 0.10729
# Poissons Ratio (y) = 1.10447 0.59355
# Poissons Ratio (z) = 0.09365 0.09255
#
# Static dielectric constant tensor:
#      x y z
#    x 1.862920 0.000000 0.000000 
#    y 0.000000 1.891810 0.000000 
#    z 0.000000 0.000000 1.916900 
# 
# From -- ./inp_files/4420.got.cif
#   From: 2010.05.17/outbox.cif.g08.bks.cpg/sg37_3_cif.got.tgz:4420.got - 2010.06.03 17:53:42.
