data_PCOD9353244
_publ_section_title
;
Structure prediction by ZEFSAII (Michael W. Deem and Ramdas Pophale) SiO2 
 PCOD9353244
Probable space group: C M C 21
;
_chemical_formula_sum "Si O2"
_cell_formula_units_Z 40
_cell_length_a 26.446645
_cell_length_b 6.804555
_cell_length_c 9.013654
_cell_angle_alpha 90.000000
_cell_angle_beta 90.000000
_cell_angle_gamma 90.000000
_cell_volume 1622.075996
_symmetry_space_group_name_H-M "C M C 21"
_symmetry_group_IT_number 36
_symmetry_cell_setting 'orthorhombic'
loop_
_space_group_symop_operation_xyz
x,y,z
-x,-y,1/2+z
x,-y,1/2+z
-x,y,z
1/2+x,1/2+y,z
1/2-x,1/2-y,1/2+z
1/2+x,1/2-y,1/2+z
1/2-x,1/2+y,z
loop_
_atom_site_type_symbol
_atom_site_label
_atom_site_fract_x
_atom_site_fract_y
_atom_site_fract_z
Si Si1 0.255732 0.944223 0.823660
Si Si2 0.691772 0.146673 0.624395
Si Si3 0.582993 0.364119 0.130532
Si Si4 0.500000 0.301419 0.565405
Si Si5 0.855076 0.060576 0.923532
Si Si6 0.000000 0.584186 0.238927
O O1 0.230368 0.765842 0.731235
O O2 0.310856 0.969298 0.738334
O O3 0.201202 0.048869 0.859646
O O4 0.274601 0.925904 0.990250
O O5 0.648200 0.276421 0.555393
O O6 0.547033 0.547210 0.081561
O O7 0.607729 0.402088 0.289391
O O8 0.548378 0.174709 0.153214
O O9 0.626652 0.362207 0.006109
O O10 0.500000 0.177543 0.407979
O O11 0.500000 0.147780 0.703608
#
# Coordination Sequence:
#
# PCOD9353244 Si02
#       6
#     8   8   8   4   8   4
#     4  12  23  42  65  95 140 187 239 294 352 419
#     4  12  23  42  65  96 136 189 236 294 360 407
#     4  11  25  48  72 104 146 185 232 301 359 433
#     4  11  26  48  77 109 141 185 229 287 388 440
#     4  12  23  43  72  98 135 190 241 286 355 418
#     4  11  26  48  77 107 147 179 233 291 376 452
#
# _framework density 24.659756999999999
#
# number of rings (size 3 to 8) (size 9 to 14) (size 15 to 20)
#    0.000    0.400    8.000    0.000    2.800    0.000 
#    3.600    0.000    0.000    0.000    0.000    0.000 
#    0.000    0.000    0.000    0.000    0.000    0.000 
#
# Total GULP energy -111358.504039 kJ/mol
# GULP energy per Si atom -5567.925202 kJ/mol
# Density = 2.460363 g / cm^3
# Si number density = 24.659757 Si / 1000 Ang^3
#
#
#
# Elastic Constant Matrix: (Units=GPa)
#
#
# Indices 1 2 3 4 5 6 
#
# 1 -277.1059 647.1570 26.4368 0.0000 0.0000 0.0000
# 2 647.1570-1074.9194 26.3887 0.0000 0.0000 0.0000
# 3 26.4368 26.3887 92.9320 0.0000 0.0000 0.0000
# 4 0.0000 0.0000 0.0000 47.6283 0.0000 0.0000
# 5 0.0000 0.0000 0.0000 0.0000 49.5413 0.0000
# 6 0.0000 0.0000 0.0000 0.0000 0.0000 13.6690
#
#
#
# Elastic Compliance Matrix: (Units=1/GPa)
#
#
# Indices 1 2 3 4 5 6 
#
# 1 0.010710 0.006329 -0.004844 0.000000 0.000000 0.000000
# 2 0.006329 0.002816 -0.002600 0.000000 0.000000 0.000000
# 3 -0.004844 -0.002600 0.012877 0.000000 0.000000 0.000000
# 4 0.000000 0.000000 0.000000 0.020996 0.000000 0.000000
# 5 0.000000 0.000000 0.000000 0.000000 0.020185 0.000000
# 6 0.000000 0.000000 0.000000 0.000000 0.000000 0.073158
#
#
# Mechanical properties :
#
#
# Convention : Reuss Voigt Hill
#
# Bulk Modulus (GPa) = 41.36903 15.65242 28.51072
# Shear Modulus (GPa) = 33.10612 -108.43733 -37.66560
#
# Velocity S-wave (km/s) = 3.66801 -6.63844 -3.91245
# Velocity P-wave (km/s) = 5.89503 7.23860 2.97035
#
# Compressibility (1/GPa) = 0.02417267
#
# Stress axis : x y z
#
# Youngs Moduli (GPa) = 93.37370 355.09298 77.65911
#
# Poissons Ratio (x) = -2.24733 0.37616
# Poissons Ratio (y) = -0.59095 0.20192
# Poissons Ratio (z) = 0.45228 0.92327
#
# Static dielectric constant tensor:
#      x y z
#    x 1.942050 0.000000 0.000000 
#    y 0.000000 3.039010 0.000000 
#    z 0.000000 0.000000 2.066010 
# 
# From -- ./inp_files/5755.got.cif
#   From: 2010.05.17/outbox.cif.g08.bks.cpg/sg36_3_cif.got.tgz:5755.got - 2010.06.03 17:41:39.
