data_PCOD9353201
_publ_section_title
;
Structure prediction by ZEFSAII (Michael W. Deem and Ramdas Pophale) SiO2 
 PCOD9353201
Probable space group: C M C 21
;
_chemical_formula_sum "Si O2"
_cell_formula_units_Z 40
_cell_length_a 11.932374
_cell_length_b 34.474141
_cell_length_c 5.057452
_cell_angle_alpha 90.000000
_cell_angle_beta 90.000000
_cell_angle_gamma 90.000000
_cell_volume 2080.425078
_symmetry_space_group_name_H-M "C M C 21"
_symmetry_group_IT_number 36
_symmetry_cell_setting 'orthorhombic'
loop_
_space_group_symop_operation_xyz
x,y,z
-x,-y,1/2+z
x,-y,1/2+z
-x,y,z
1/2+x,1/2+y,z
1/2-x,1/2-y,1/2+z
1/2+x,1/2-y,1/2+z
1/2-x,1/2+y,z
loop_
_atom_site_type_symbol
_atom_site_label
_atom_site_fract_x
_atom_site_fract_y
_atom_site_fract_z
Si Si1 0.753030 0.855182 0.455910
Si Si2 0.707932 0.265752 0.324467
Si Si3 0.000000 0.663381 0.019644
Si Si4 0.864414 0.891600 0.954694
Si Si5 0.364088 0.522577 0.251765
Si Si6 0.500000 0.218321 0.520664
O O1 0.778990 0.811402 0.361008
O O2 0.618212 0.858865 0.482958
O O3 0.812594 0.862866 0.735932
O O4 0.808315 0.882865 0.236349
O O5 0.800255 0.246119 0.518381
O O6 0.603498 0.245994 0.467289
O O7 0.000000 0.697217 0.800100
O O8 0.000000 0.683721 0.305261
O O9 0.835219 0.934722 0.851679
O O10 0.000000 0.888109 0.971986
O O11 0.326085 0.490358 0.462932
O O12 0.500000 0.521869 0.245245
#
# Coordination Sequence:
#
# PCOD9353201 Si02
#       6
#     8   8   4   8   8   4
#     4  12  24  41  58  87 119 158 200 247 298 347
#     4  12  23  40  57  82 108 151 204 246 302 337
#     4  12  24  42  62  80 112 163 214 249 282 344
#     4  11  24  39  59  93 127 151 186 241 302 358
#     4   9  17  33  58  86 118 153 184 220 281 361
#     4  12  22  40  60  82 110 147 206 263 294 356
#
# _framework density 19.226838999999998
#
# number of rings (size 3 to 8) (size 9 to 14) (size 15 to 20)
#    0.000    0.800    4.000    4.200    2.800    3.200 
#    0.000    0.000    0.000    0.000    0.000   14.000 
#    0.000    0.000    0.000    0.000    0.000    0.000 
#
# Total GULP energy -111646.252853 kJ/mol
# GULP energy per Si atom -5582.312643 kJ/mol
# Density = 1.918308 g / cm^3
# Si number density = 19.226839 Si / 1000 Ang^3
#
#
#
# Elastic Constant Matrix: (Units=GPa)
#
#
# Indices 1 2 3 4 5 6 
#
# 1 91.7400 8.1599 12.3252 0.0000 0.0000 0.0000
# 2 8.1599 50.0770 -8.4549 0.0000 0.0000 0.0000
# 3 12.3252 -8.4549 77.7388 0.0000 0.0000 0.0000
# 4 0.0000 0.0000 0.0000 18.4403 0.0000 0.0000
# 5 0.0000 0.0000 0.0000 0.0000 27.4032 0.0000
# 6 0.0000 0.0000 0.0000 0.0000 0.0000 9.4124
#
#
#
# Elastic Compliance Matrix: (Units=1/GPa)
#
#
# Indices 1 2 3 4 5 6 
#
# 1 0.011370 -0.002197 -0.002042 0.000000 0.000000 0.000000
# 2 -0.002197 0.020767 0.002607 0.000000 0.000000 0.000000
# 3 -0.002042 0.002607 0.013471 0.000000 0.000000 0.000000
# 4 0.000000 0.000000 0.000000 0.054229 0.000000 0.000000
# 5 0.000000 0.000000 0.000000 0.000000 0.036492 0.000000
# 6 0.000000 0.000000 0.000000 0.000000 0.000000 0.106243
#
#
# Mechanical properties :
#
#
# Convention : Reuss Voigt Hill
#
# Bulk Modulus (GPa) = 23.61590 27.06845 25.34218
# Shear Modulus (GPa) = 19.23437 24.88622 22.06029
#
# Velocity S-wave (km/s) = 3.16633 3.60161 3.39096
# Velocity P-wave (km/s) = 5.06724 5.60397 5.34235
#
# Compressibility (1/GPa) = 0.04234435
#
# Stress axis : x y z
#
# Youngs Moduli (GPa) = 87.94978 48.15224 74.23442
#
# Poissons Ratio (x) = 0.10581 0.15156
# Poissons Ratio (y) = 0.19326 -0.19353
# Poissons Ratio (z) = 0.17957 -0.12554
#
# Static dielectric constant tensor:
#      x y z
#    x 1.697890 0.000000 0.000000 
#    y 0.000000 1.666080 0.000000 
#    z 0.000000 0.000000 1.675230 
# 
# From -- ./inp_files/530.got.cif
#   From: 2010.05.17/outbox.cif.g08.bks.cpg/sg36_1_cif.got.tgz:530.got - 2010.06.03 17:41:39.
