data_PCOD9353119
_publ_section_title
;
Structure prediction by ZEFSAII (Michael W. Deem and Ramdas Pophale) SiO2 
 PCOD9353119
Probable space group: C M C 21
;
_chemical_formula_sum "Si O2"
_cell_formula_units_Z 40
_cell_length_a 15.967858
_cell_length_b 14.287310
_cell_length_c 7.207954
_cell_angle_alpha 90.000000
_cell_angle_beta 90.000000
_cell_angle_gamma 90.000000
_cell_volume 1644.406316
_symmetry_space_group_name_H-M "C M C 21"
_symmetry_group_IT_number 36
_symmetry_cell_setting 'orthorhombic'
loop_
_space_group_symop_operation_xyz
x,y,z
-x,-y,1/2+z
x,-y,1/2+z
-x,y,z
1/2+x,1/2+y,z
1/2-x,1/2-y,1/2+z
1/2+x,1/2-y,1/2+z
1/2-x,1/2+y,z
loop_
_atom_site_type_symbol
_atom_site_label
_atom_site_fract_x
_atom_site_fract_y
_atom_site_fract_z
Si Si1 0.717503 0.908442 0.018740
Si Si2 0.593790 0.581819 0.633648
Si Si3 0.409809 0.811136 0.285499
Si Si4 0.622232 0.366262 0.554518
Si Si5 0.688893 0.873338 0.601248
O O1 0.817609 0.891517 0.036578
O O2 0.665942 0.862469 0.183147
O O3 0.695622 0.018498 0.035423
O O4 0.684600 0.872300 0.822339
O O5 0.500000 0.599689 0.554687
O O6 0.605771 0.468630 0.642480
O O7 0.594449 0.623751 0.841405
O O8 0.500000 0.858715 0.260200
O O9 0.414922 0.711206 0.188506
O O10 0.383863 0.816703 0.500120
O O11 0.719606 0.337738 0.547139
#
# Coordination Sequence:
#
# PCOD9353119 Si02
#       5
#     8   8   8   8   8
#     4  11  23  46  76 108 147 198 248 302 374 436
#     4  11  21  43  77 111 152 194 242 309 381 451
#     4  12  27  47  73 111 150 195 257 308 360 445
#     4  11  24  45  73 109 148 197 246 309 377 443
#     4  11  23  47  75 101 147 198 247 302 374 437
#
# _framework density 24.32489
#
# number of rings (size 3 to 8) (size 9 to 14) (size 15 to 20)
#    0.000    0.800    4.000    5.400    2.800    1.600 
#    3.600    2.000    0.000    0.000    0.000    0.000 
#    0.000    0.000    0.000    0.000    0.000    0.000 
#
# Total GULP energy -111942.396600 kJ/mol
# GULP energy per Si atom -5597.119830 kJ/mol
# Density = 2.426953 g / cm^3
# Si number density = 24.324890 Si / 1000 Ang^3
#
#
#
# Elastic Constant Matrix: (Units=GPa)
#
#
# Indices 1 2 3 4 5 6 
#
# 1 136.2122 24.5078 30.4633 0.0000 0.0000 0.0000
# 2 24.5078 74.2814 28.5695 0.0000 0.0000 0.0000
# 3 30.4633 28.5695 150.0826 0.0000 0.0000 0.0000
# 4 0.0000 0.0000 0.0000 36.1486 0.0000 0.0000
# 5 0.0000 0.0000 0.0000 0.0000 -71.3131 0.0000
# 6 0.0000 0.0000 0.0000 0.0000 0.0000 -4.7892
#
#
#
# Elastic Compliance Matrix: (Units=1/GPa)
#
#
# Indices 1 2 3 4 5 6 
#
# 1 0.008004 -0.002175 -0.001210 0.000000 0.000000 0.000000
# 2 -0.002175 0.015117 -0.002436 0.000000 0.000000 0.000000
# 3 -0.001210 -0.002436 0.007372 0.000000 0.000000 0.000000
# 4 0.000000 0.000000 0.000000 0.027664 0.000000 0.000000
# 5 0.000000 0.000000 0.000000 0.000000 -0.014023 0.000000
# 6 0.000000 0.000000 0.000000 0.000000 0.000000 -0.208805
#
#
# Mechanical properties :
#
#
# Convention : Reuss Voigt Hill
#
# Bulk Modulus (GPa) = 53.05180 58.62861 55.84021
# Shear Modulus (GPa) = -34.07286 10.47831 -11.79727
#
# Velocity S-wave (km/s) = -3.74671 2.07774 -2.20463
# Velocity P-wave (km/s) = 1.77199 5.46906 4.06513
#
# Compressibility (1/GPa) = 0.01884950
#
# Stress axis : x y z
#
# Youngs Moduli (GPa) = 124.94451 66.15110 135.64028
#
# Poissons Ratio (x) = 0.14388 0.16419
# Poissons Ratio (y) = 0.27176 0.33044
# Poissons Ratio (z) = 0.15124 0.16115
#
# Static dielectric constant tensor:
#      x y z
#    x 1.904610 0.000000 0.000000 
#    y 0.000000 1.964580 0.000000 
#    z 0.000000 0.000000 1.936110 
# 
# From -- ./inp_files/3813.got.cif
#   From: 2010.05.17/outbox.cif.g08.bks.cpg/sg36_2_cif.got.tgz:3813.got - 2010.06.03 17:41:39.
