data_PCOD9353095
_publ_section_title
;
Structure prediction by ZEFSAII (Michael W. Deem and Ramdas Pophale) SiO2 
 PCOD9353095
Probable space group: C M C 21
;
_chemical_formula_sum "Si O2"
_cell_formula_units_Z 64
_cell_length_a 8.149225
_cell_length_b 29.485146
_cell_length_c 12.727909
_cell_angle_alpha 90.000000
_cell_angle_beta 90.000000
_cell_angle_gamma 90.000000
_cell_volume 3058.275834
_symmetry_space_group_name_H-M "C M C 21"
_symmetry_group_IT_number 36
_symmetry_cell_setting 'orthorhombic'
loop_
_space_group_symop_operation_xyz
x,y,z
-x,-y,1/2+z
x,-y,1/2+z
-x,y,z
1/2+x,1/2+y,z
1/2-x,1/2-y,1/2+z
1/2+x,1/2-y,1/2+z
1/2-x,1/2+y,z
loop_
_atom_site_type_symbol
_atom_site_label
_atom_site_fract_x
_atom_site_fract_y
_atom_site_fract_z
Si Si1 0.692993 0.069696 0.396290
Si Si2 0.684047 0.583638 0.624197
Si Si3 0.186907 0.669561 0.724267
Si Si4 0.700486 0.117595 0.924782
Si Si5 0.191833 0.834243 0.833836
Si Si6 0.698173 0.026764 0.805892
Si Si7 0.805570 0.320552 0.605314
Si Si8 0.197764 0.726998 0.530674
O O1 0.500000 0.065429 0.421162
O O2 0.791818 0.073406 0.503634
O O3 0.720648 0.116846 0.336597
O O4 0.743733 0.023794 0.338296
O O5 0.500000 0.600416 0.644745
O O6 0.809524 0.622540 0.659346
O O7 0.721963 0.540823 0.696376
O O8 0.260090 0.653386 0.835375
O O9 0.260543 0.704451 0.640416
O O10 0.000000 0.684404 0.745158
O O11 0.500000 0.118943 0.921897
O O12 0.746715 0.066920 0.887906
O O13 0.750717 0.135362 0.038991
O O14 0.221444 0.814402 0.717949
O O15 0.000000 0.841391 0.851086
O O16 0.253786 0.802482 0.929024
O O17 0.500000 0.028629 0.796176
O O18 0.768333 0.277377 0.532084
O O19 0.000000 0.323963 0.623139
O O20 0.000000 0.728000 0.534640
#
# Coordination Sequence:
#
# PCOD9353095 Si02
#       8
#     8   8   8   8   8   8   8   8
#     4  11  22  39  64  91 121 162 214 267 320 377
#     4  11  21  34  56  88 123 157 199 257 318 373
#     4   9  18  36  62  85 114 156 205 258 308 369
#     4   8  17  37  62  89 119 158 205 255 310 371
#     4  12  26  44  64  91 130 169 214 264 321 382
#     4   9  20  39  63  88 118 164 217 260 310 381
#     4  11  24  41  64  94 131 170 211 260 321 386
#     4  11  23  40  65  94 124 162 211 263 318 381
#
# _framework density 20.926825000000001
#
# number of rings (size 3 to 8) (size 9 to 14) (size 15 to 20)
#    0.000    1.750    1.250    4.125    1.750    2.500 
#    0.000    7.500    0.000    0.000    0.000    0.000 
#    0.000    0.000    0.000    0.000    0.000    0.000 
#
# Total GULP energy -178627.833650 kJ/mol
# GULP energy per Si atom -5582.119802 kJ/mol
# Density = 2.087919 g / cm^3
# Si number density = 20.926825 Si / 1000 Ang^3
#
#
#
# Elastic Constant Matrix: (Units=GPa)
#
#
# Indices 1 2 3 4 5 6 
#
# 1 43.0480 -3.9370 0.9871 0.0000 0.0000 0.0000
# 2 -3.9370 85.7773 29.6407 0.0000 0.0000 0.0000
# 3 0.9871 29.6407 62.1077 0.0000 0.0000 0.0000
# 4 0.0000 0.0000 0.0000 21.9816 0.0000 0.0000
# 5 0.0000 0.0000 0.0000 0.0000 10.4462 0.0000
# 6 0.0000 0.0000 0.0000 0.0000 0.0000 11.6020
#
#
#
# Elastic Compliance Matrix: (Units=1/GPa)
#
#
# Indices 1 2 3 4 5 6 
#
# 1 0.023386 0.001439 -0.001059 0.000000 0.000000 0.000000
# 2 0.001439 0.014049 -0.006728 0.000000 0.000000 0.000000
# 3 -0.001059 -0.006728 0.019329 0.000000 0.000000 0.000000
# 4 0.000000 0.000000 0.000000 0.045493 0.000000 0.000000
# 5 0.000000 0.000000 0.000000 0.000000 0.095729 0.000000
# 6 0.000000 0.000000 0.000000 0.000000 0.000000 0.086192
#
#
# Mechanical properties :
#
#
# Convention : Reuss Voigt Hill
#
# Bulk Modulus (GPa) = 22.69158 27.14608 24.91883
# Shear Modulus (GPa) = 16.04824 19.75544 17.90184
#
# Velocity S-wave (km/s) = 2.77225 3.07583 2.92798
# Velocity P-wave (km/s) = 4.59500 5.06107 4.83365
#
# Compressibility (1/GPa) = 0.04406920
#
# Stress axis : x y z
#
# Youngs Moduli (GPa) = 42.76107 71.17986 51.73670
#
# Poissons Ratio (x) = -0.10244 0.05476
# Poissons Ratio (y) = -0.06154 0.34807
# Poissons Ratio (z) = 0.04526 0.47887
#
# Static dielectric constant tensor:
#      x y z
#    x 1.742980 0.000000 0.000000 
#    y 0.000000 1.762050 0.000000 
#    z 0.000000 0.000000 1.758480 
# 
# From -- ./inp_files/7271.got.cif
#   From: 2010.05.17/outbox.cif.g08.bks.cpg/sg36_4_cif.got.tgz:7271.got - 2010.06.03 17:41:39.
