data_PCOD9353385
_publ_section_title
;
Structure prediction by ZEFSAII (Michael W. Deem and Ramdas Pophale) SiO2 
 PCOD9353385
Probable space group: C M C 21
;
_chemical_formula_sum "Si O2"
_cell_formula_units_Z 32
_cell_length_a 21.000000
_cell_length_b 9.000000
_cell_length_c 18.000000
_cell_angle_alpha 90.000000
_cell_angle_beta 90.000000
_cell_angle_gamma 90.000000
_cell_volume 3402.000000
_symmetry_space_group_name_H-M "C M C 21"
_symmetry_group_IT_number 36
_symmetry_cell_setting 'orthorhombic'
loop_
_space_group_symop_operation_xyz
x,y,z
-x,-y,1/2+z
x,-y,1/2+z
-x,y,z
1/2+x,1/2+y,z
1/2-x,1/2-y,1/2+z
1/2+x,1/2-y,1/2+z
1/2-x,1/2+y,z
loop_
_atom_site_type_symbol
_atom_site_label
_atom_site_fract_x
_atom_site_fract_y
_atom_site_fract_z
Si Si1 0.332576 0.643334 0.900240
Si Si2 0.698750 0.017205 0.687860
Si Si3 0.426003 0.843270 0.429579
Si Si4 0.924151 0.192175 0.041764
Si Si5 0.923407 0.068592 0.317695
Si Si6 0.335531 0.640917 0.175540
Si Si7 0.197982 0.516951 0.366151
Si Si8 0.073873 0.460001 0.590764
O O1 0.384256 0.577854 0.842022
O O2 0.266597 0.545629 0.896533
O O3 0.308580 0.809005 0.883283
O O4 0.376383 0.653813 0.974200
O O5 0.770697 0.958137 0.669409
O O6 0.635721 0.946006 0.645901
O O7 0.691333 0.191429 0.669988
O O8 0.695040 0.000963 0.777028
O O9 0.500000 0.897160 0.413868
O O10 0.421054 0.685459 0.386845
O O11 0.365375 0.937334 0.399590
O O12 0.420391 0.850980 0.519299
O O13 0.888432 0.116809 0.111606
O O14 0.923487 0.370617 0.058223
O O15 0.000000 0.152356 0.031808
O O16 0.878577 0.128792 0.250578
O O17 0.000000 0.049553 0.300402
O O18 0.000000 0.443233 0.621094
#
# Coordination Sequence:
#
# PCOD9353385 Si02
#       8
#     8   8   8   8   8   8   8   8
#     4  12  25  40  65  93 128 167 211 268 315 380
#     4  11  23  41  64  93 128 165 208 259 316 380
#     4  10  21  40  66  94 125 163 211 261 316 379
#     4  10  22  41  64  92 125 164 213 261 318 379
#     4  11  23  42  65  92 127 170 215 263 321 379
#     4  11  23  41  64  92 124 170 207 263 313 387
#     4  12  23  40  64  95 129 164 207 261 318 377
#     4   9  20  41  66  95 126 163 210 262 315 381
#
# _framework density 9.4062319999999993
#
# number of rings (size 3 to 8) (size 9 to 14) (size 15 to 20)
#    0.000    1.250    3.750    2.250    1.750    1.500 
#    2.250    0.000    0.000    0.000    0.000    0.000 
#    0.000    0.000    0.000    0.000    0.000    0.000 
#
# Total GULP energy -178324.300679 kJ/mol
# GULP energy per Si atom -5572.634396 kJ/mol
# Density = 0.938482 g / cm^3
# Si number density = 9.406232 Si / 1000 Ang^3
#
#
#
# Elastic Constant Matrix: (Units=GPa)
#
#
# Indices 1 2 3 4 5 6 
#
# 1 221.8456 55.2752 59.5412 0.0000 0.0000 0.0000
# 2 55.2752 72.0005 12.3297 0.0000 0.0000 0.0000
# 3 59.5412 12.3297 90.2002 0.0000 0.0000 0.0000
# 4 0.0000 0.0000 0.0000 18.5581 0.0000 0.0000
# 5 0.0000 0.0000 0.0000 0.0000 46.2184 0.0000
# 6 0.0000 0.0000 0.0000 0.0000 0.0000 43.0441
#
#
#
# Elastic Compliance Matrix: (Units=1/GPa)
#
#
# Indices 1 2 3 4 5 6 
#
# 1 0.006625 -0.004441 -0.003766 0.000000 0.000000 0.000000
# 2 -0.004441 0.017199 0.000581 0.000000 0.000000 0.000000
# 3 -0.003766 0.000581 0.013493 0.000000 0.000000 0.000000
# 4 0.000000 0.000000 0.000000 0.053885 0.000000 0.000000
# 5 0.000000 0.000000 0.000000 0.000000 0.021636 0.000000
# 6 0.000000 0.000000 0.000000 0.000000 0.000000 0.023232
#
#
# Mechanical properties :
#
#
# Convention : Reuss Voigt Hill
#
# Bulk Modulus (GPa) = 45.32324 70.92652 58.12488
# Shear Modulus (GPa) = 31.51042 38.69081 35.10061
#
# Velocity S-wave (km/s) = 4.09709 4.53996 4.32420
# Velocity P-wave (km/s) = 6.82099 8.07870 7.47634
#
# Compressibility (1/GPa) = 0.02206374
#
# Stress axis : x y z
#
# Youngs Moduli (GPa) = 150.94411 58.14351 74.11208
#
# Poissons Ratio (x) = 0.25822 0.27911
# Poissons Ratio (y) = 0.67036 -0.04303
# Poissons Ratio (z) = 0.56847 -0.03376
#
# Static dielectric constant tensor:
#      x y z
#    x 1.643840 0.000000 0.000000 
#    y 0.000000 1.675950 0.000000 
#    z 0.000000 0.000000 1.699090 
# 
# From -- ./inp_files/15054.got.cif
#   From: 2010.05.17/outbox.ucp.g08.bks.cvg/sg36_8_cif.got.tgz:15054.got - 2010.06.11 10:37:26.
