data_PCOD9353547
_publ_section_title
;
Structure prediction by ZEFSAII (Michael W. Deem and Ramdas Pophale) SiO2 
 PCOD9353547
Probable space group: C C C 2
;
_chemical_formula_sum "Si O2"
_cell_formula_units_Z 48
_cell_length_a 15.106582
_cell_length_b 14.805021
_cell_length_c 9.034499
_cell_angle_alpha 90.000000
_cell_angle_beta 90.000000
_cell_angle_gamma 90.000000
_cell_volume 2020.595188
_symmetry_space_group_name_H-M "C C C 2"
_symmetry_group_IT_number 37
_symmetry_cell_setting 'orthorhombic'
loop_
_space_group_symop_operation_xyz
x,y,z
-x,-y,z
-x,y,1/2+z
x,-y,1/2+z
1/2+x,1/2+y,z
1/2-x,1/2-y,z
1/2-x,1/2+y,1/2+z
1/2+x,1/2-y,1/2+z
loop_
_atom_site_type_symbol
_atom_site_label
_atom_site_fract_x
_atom_site_fract_y
_atom_site_fract_z
Si Si1 0.307711 0.121566 0.952730
Si Si2 0.936639 0.153492 0.133094
Si Si3 0.091430 0.666979 0.943595
Si Si4 0.948473 0.580000 0.152880
Si Si5 0.890278 0.822298 0.973478
Si Si6 0.255006 0.860126 0.132875
O O1 0.203889 0.128141 0.986252
O O2 0.358631 0.217202 0.984043
O O3 0.308225 0.104241 0.776449
O O4 0.360057 0.056672 0.062634
O O5 0.917795 0.236317 0.020631
O O6 0.931651 0.172292 0.308318
O O7 0.843403 0.099711 0.116429
O O8 0.037377 0.134490 0.084385
O O9 0.189583 0.634501 0.983570
O O10 0.019431 0.610072 0.032114
O O11 0.071866 0.656994 0.772293
O O12 0.000000 0.500000 0.235102
O O13 0.250000 0.750000 0.168375
#
# Coordination Sequence:
#
# PCOD9353547 Si02
#       6
#     8   8   8   8   8   8
#     4  10  18  35  51  74 109 150 188 237 283 346
#     4  10  18  31  53  83 109 144 180 230 295 363
#     4  11  20  35  50  73 108 148 190 242 279 344
#     4  12  25  36  51  75 108 156 203 237 278 333
#     4  10  18  31  53  80 111 142 181 232 293 356
#     4   9  17  34  53  76 111 145 185 235 297 355
#
# _framework density 23.755376999999999
#
# number of rings (size 3 to 8) (size 9 to 14) (size 15 to 20)
#    0.000    1.667    6.667    2.500    0.000    1.333 
#    6.000    0.833    0.000    0.000    0.000    1.167 
#    0.000    8.000    0.000    0.167    0.000    0.000 
#
# Total GULP energy -133832.449120 kJ/mol
# GULP energy per Si atom -5576.352047 kJ/mol
# Density = 2.370131 g / cm^3
# Si number density = 23.755377 Si / 1000 Ang^3
#
#
#
# Elastic Constant Matrix: (Units=GPa)
#
#
# Indices 1 2 3 4 5 6 
#
# 1 183.1436 0.4357 75.7719 0.0000 0.0000 0.0000
# 2 0.4357 19.8526 13.2103 0.0000 0.0000 0.0000
# 3 75.7719 13.2103 138.2396 0.0000 0.0000 0.0000
# 4 0.0000 0.0000 0.0000 16.6337 0.0000 0.0000
# 5 0.0000 0.0000 0.0000 0.0000 51.0015 0.0000
# 6 0.0000 0.0000 0.0000 0.0000 0.0000 14.6260
#
#
#
# Elastic Compliance Matrix: (Units=1/GPa)
#
#
# Indices 1 2 3 4 5 6 
#
# 1 0.007188 0.002631 -0.004191 0.000000 0.000000 0.000000
# 2 0.002631 0.054755 -0.006675 0.000000 0.000000 0.000000
# 3 -0.004191 -0.006675 0.010169 0.000000 0.000000 0.000000
# 4 0.000000 0.000000 0.000000 0.060119 0.000000 0.000000
# 5 0.000000 0.000000 0.000000 0.000000 0.019607 0.000000
# 6 0.000000 0.000000 0.000000 0.000000 0.000000 0.068371
#
#
# Mechanical properties :
#
#
# Convention : Reuss Voigt Hill
#
# Bulk Modulus (GPa) = 17.97193 57.78575 37.87884
# Shear Modulus (GPa) = 19.59046 33.24011 26.41529
#
# Velocity S-wave (km/s) = 2.87483 3.74474 3.33824
# Velocity P-wave (km/s) = 4.31293 6.56320 5.55324
#
# Compressibility (1/GPa) = 0.05564234
#
# Stress axis : x y z
#
# Youngs Moduli (GPa) = 139.12033 18.26323 98.33794
#
# Poissons Ratio (x) = -0.04806 0.41217
# Poissons Ratio (y) = -0.36606 0.65637
# Poissons Ratio (z) = 0.58310 0.12190
#
# Static dielectric constant tensor:
#      x y z
#    x 1.997240 0.000000 0.000000 
#    y 0.000000 2.036850 0.000000 
#    z 0.000000 0.000000 1.846370 
# 
# From -- ./inp_files/3506.got.cif
#   From: 2010.05.17/outbox.cif.g08.bks.cpg/sg37_2_cif.got.tgz:3506.got - 2010.06.03 17:53:42.
