data_PCOD9353333
_publ_section_title
;
Structure prediction by ZEFSAII (Michael W. Deem and Ramdas Pophale) SiO2 
 PCOD9353333
Probable space group: C M C 21
;
_chemical_formula_sum "Si O2"
_cell_formula_units_Z 32
_cell_length_a 9.000000
_cell_length_b 30.000000
_cell_length_c 12.000000
_cell_angle_alpha 90.000000
_cell_angle_beta 90.000000
_cell_angle_gamma 90.000000
_cell_volume 3240.000000
_symmetry_space_group_name_H-M "C M C 21"
_symmetry_group_IT_number 36
_symmetry_cell_setting 'orthorhombic'
loop_
_space_group_symop_operation_xyz
x,y,z
-x,-y,1/2+z
x,-y,1/2+z
-x,y,z
1/2+x,1/2+y,z
1/2-x,1/2-y,1/2+z
1/2+x,1/2-y,1/2+z
1/2-x,1/2+y,z
loop_
_atom_site_type_symbol
_atom_site_label
_atom_site_fract_x
_atom_site_fract_y
_atom_site_fract_z
Si Si1 0.675220 0.337014 0.018320
Si Si2 0.166022 0.586437 0.623749
Si Si3 0.320176 0.728373 0.697584
Si Si4 0.177799 0.816767 0.645834
Si Si5 0.674744 0.974204 0.910645
Si Si6 0.178754 0.107975 0.304566
Si Si7 0.829047 0.429256 0.378635
Si Si8 0.678354 0.665441 0.899647
O O1 0.500000 0.331143 0.002853
O O2 0.710603 0.376034 0.106824
O O3 0.732014 0.292760 0.079225
O O4 0.732619 0.358328 0.903480
O O5 0.187103 0.549772 0.529434
O O6 0.169934 0.566083 0.745055
O O7 0.000000 0.606559 0.607489
O O8 0.500000 0.729537 0.697850
O O9 0.256083 0.777328 0.712033
O O10 0.270175 0.695483 0.796378
O O11 0.216104 0.865692 0.692426
O O12 0.219875 0.812895 0.517195
O O13 0.000000 0.812034 0.657588
O O14 0.500000 0.977886 0.881785
O O15 0.751267 0.940208 0.824893
O O16 0.735534 0.024091 0.920545
O O17 0.000000 0.103790 0.313485
O O18 0.742306 0.384141 0.400845
O O19 0.000000 0.424197 0.417430
O O20 0.500000 0.662897 0.894025
#
# Coordination Sequence:
#
# PCOD9353333 Si02
#       8
#     8   8   8   8   8   8   8   8
#     4   9  17  32  54  76 100 132 174 225 266 309
#     4   9  17  31  50  75 105 138 177 221 268 318
#     4  10  21  36  56  81 107 139 181 225 270 324
#     4  10  23  39  56  80 113 148 180 223 275 328
#     4   9  19  34  53  80 112 145 184 228 273 322
#     4   9  19  36  55  78 108 142 182 223 270 324
#     4  10  20  34  55  82 110 144 184 226 274 325
#     4  10  22  40  57  80 113 144 180 225 274 326
#
# _framework density 9.8765429999999999
#
# number of rings (size 3 to 8) (size 9 to 14) (size 15 to 20)
#    0.000    2.500    1.250    0.000    1.750    3.500 
#    0.000    1.250    0.000    0.000    0.000    0.000 
#    0.000    0.000    0.000    0.000    0.000    0.000 
#
# Total GULP energy -178269.446417 kJ/mol
# GULP energy per Si atom -5570.920201 kJ/mol
# Density = 0.985406 g / cm^3
# Si number density = 9.876543 Si / 1000 Ang^3
#
#
#
# Elastic Constant Matrix: (Units=GPa)
#
#
# Indices 1 2 3 4 5 6 
#
# 1 -9.6078 17.1725 12.9268 0.0000 0.0000 0.0000
# 2 17.1725 120.6560 24.3942 0.0000 0.0000 0.0000
# 3 12.9268 24.3942 45.2246 0.0000 0.0000 0.0000
# 4 0.0000 0.0000 0.0000 9.7447 0.0000 0.0000
# 5 0.0000 0.0000 0.0000 0.0000 12.4859 0.0000
# 6 0.0000 0.0000 0.0000 0.0000 0.0000 29.9073
#
#
#
# Elastic Compliance Matrix: (Units=1/GPa)
#
#
# Indices 1 2 3 4 5 6 
#
# 1 -0.070074 0.006649 0.016443 0.000000 0.000000 0.000000
# 2 0.006649 0.008672 -0.006578 0.000000 0.000000 0.000000
# 3 0.016443 -0.006578 0.020960 0.000000 0.000000 0.000000
# 4 0.000000 0.000000 0.000000 0.102620 0.000000 0.000000
# 5 0.000000 0.000000 0.000000 0.000000 0.080091 0.000000
# 6 0.000000 0.000000 0.000000 0.000000 0.000000 0.033437
#
#
# Mechanical properties :
#
#
# Convention : Reuss Voigt Hill
#
# Bulk Modulus (GPa) = -134.87327 29.47329 -52.69999
# Shear Modulus (GPa) = 35.66224 17.21286 26.43755
#
# Velocity S-wave (km/s) = 4.25361 2.95515 3.66239
# Velocity P-wave (km/s) = 6.65609 5.15724 2.97543
#
# Compressibility (1/GPa) = -0.00741437
#
# Stress axis : x y z
#
# Youngs Moduli (GPa) = -14.27054 115.31827 47.70998
#
# Poissons Ratio (x) = -0.76674 -0.78451
# Poissons Ratio (y) = 0.09488 0.31384
# Poissons Ratio (z) = 0.23466 0.75856
#
# Static dielectric constant tensor:
#      x y z
#    x 1.682960 0.000000 0.000000 
#    y 0.000000 1.681480 0.000000 
#    z 0.000000 0.000000 1.739210 
# 
# From -- ./inp_files/7088.got.cif
#   From: 2010.05.17/outbox.ucp.g08.bks.cvg/sg36_4_cif.got.tgz:7088.got - 2010.06.11 10:37:26.
