data_PCOD9353401
_publ_section_title
;
Structure prediction by ZEFSAII (Michael W. Deem and Ramdas Pophale) SiO2 
 PCOD9353401
Probable space group: C M C 21
;
_chemical_formula_sum "Si O2"
_cell_formula_units_Z 28
_cell_length_a 21.000000
_cell_length_b 15.000000
_cell_length_c 9.000000
_cell_angle_alpha 90.000000
_cell_angle_beta 90.000000
_cell_angle_gamma 90.000000
_cell_volume 2835.000000
_symmetry_space_group_name_H-M "C M C 21"
_symmetry_group_IT_number 36
_symmetry_cell_setting 'orthorhombic'
loop_
_space_group_symop_operation_xyz
x,y,z
-x,-y,1/2+z
x,-y,1/2+z
-x,y,z
1/2+x,1/2+y,z
1/2-x,1/2-y,1/2+z
1/2+x,1/2-y,1/2+z
1/2-x,1/2+y,z
loop_
_atom_site_type_symbol
_atom_site_label
_atom_site_fract_x
_atom_site_fract_y
_atom_site_fract_z
Si Si1 0.837114 0.044135 0.625000
Si Si2 0.629351 0.707403 0.414559
Si Si3 0.121305 0.106300 0.931130
Si Si4 0.198246 0.444410 0.165202
Si Si5 0.000000 0.085348 0.754775
Si Si6 0.295379 0.733324 0.114175
Si Si7 0.325194 0.113053 0.005667
Si Si8 0.500000 0.611772 0.396079
O O1 0.849829 0.136728 0.540955
O O2 0.840360 0.056557 0.800959
O O3 0.764898 0.015772 0.604168
O O4 0.883208 0.968045 0.560619
O O5 0.680728 0.709509 0.280753
O O6 0.623109 0.808516 0.473414
O O7 0.562913 0.667356 0.357346
O O8 0.059285 0.128640 0.838206
O O9 0.155188 0.191190 0.998063
O O10 0.200707 0.341474 0.104510
O O11 0.192006 0.427711 0.342172
O O12 0.155283 0.527479 0.106831
O O13 0.000000 0.096923 0.577027
O O14 0.000000 0.982092 0.809330
O O15 0.230690 0.678301 0.075349
#
# Coordination Sequence:
#
# PCOD9353401 Si02
#       8
#     8   8   8   8   4   8   8   4
#     4  12  20  35  58  87 126 162 198 246 305 377
#     4  11  25  41  62  90 128 169 208 255 315 380
#     4  12  23  36  56  90 127 161 202 249 307 375
#     4  11  23  38  61  92 127 163 200 252 317 379
#     4  12  24  38  62  89 123 168 208 251 309 373
#     4  11  24  38  61  94 126 164 203 257 319 375
#     4  11  24  40  62  91 126 166 206 256 316 371
#     4  12  26  44  62  91 129 172 214 257 315 373
#
# _framework density 9.8765429999999999
#
# number of rings (size 3 to 8) (size 9 to 14) (size 15 to 20)
#    0.000    0.571    7.143    0.857    4.000    1.143 
#    0.000    0.000    0.000    4.286    0.000    0.000 
#    0.000    0.000    0.000    0.000    0.000    0.000 
#
# Total GULP energy -156091.687586 kJ/mol
# GULP energy per Si atom -5574.703128 kJ/mol
# Density = 0.985406 g / cm^3
# Si number density = 9.876543 Si / 1000 Ang^3
#
#
#
# Elastic Constant Matrix: (Units=GPa)
#
#
# Indices 1 2 3 4 5 6 
#
# 1 32.7923 0.2334 2.5542 0.0000 0.0000 0.0000
# 2 0.2334 80.8666 31.2545 0.0000 0.0000 0.0000
# 3 2.5542 31.2545 88.1755 0.0000 0.0000 0.0000
# 4 0.0000 0.0000 0.0000 40.3251 0.0000 0.0000
# 5 0.0000 0.0000 0.0000 0.0000 23.8167 0.0000
# 6 0.0000 0.0000 0.0000 0.0000 0.0000 22.6088
#
#
#
# Elastic Compliance Matrix: (Units=1/GPa)
#
#
# Indices 1 2 3 4 5 6 
#
# 1 0.030570 0.000294 -0.000990 0.000000 0.000000 0.000000
# 2 0.000294 0.014332 -0.005089 0.000000 0.000000 0.000000
# 3 -0.000990 -0.005089 0.013173 0.000000 0.000000 0.000000
# 4 0.000000 0.000000 0.000000 0.024798 0.000000 0.000000
# 5 0.000000 0.000000 0.000000 0.000000 0.041987 0.000000
# 6 0.000000 0.000000 0.000000 0.000000 0.000000 0.044231
#
#
# Mechanical properties :
#
#
# Convention : Reuss Voigt Hill
#
# Bulk Modulus (GPa) = 21.50210 29.99093 25.74652
# Shear Modulus (GPa) = 25.48910 28.53625 27.01268
#
# Velocity S-wave (km/s) = 3.59609 3.80498 3.70201
# Velocity P-wave (km/s) = 5.30580 5.87534 5.59782
#
# Compressibility (1/GPa) = 0.04650708
#
# Stress axis : x y z
#
# Youngs Moduli (GPa) = 32.71185 69.77439 75.91064
#
# Poissons Ratio (x) = -0.02054 0.07514
# Poissons Ratio (y) = -0.00963 0.38628
# Poissons Ratio (z) = 0.03238 0.35505
#
# Static dielectric constant tensor:
#      x y z
#    x 1.853550 0.000000 0.000000 
#    y 0.000000 1.689900 0.000000 
#    z 0.000000 0.000000 1.706300 
# 
# From -- ./inp_files/5241.got.cif
#   From: 2010.05.17/outbox.ucp.g08.bks.cvg/sg36_3_cif.got.tgz:5241.got - 2010.06.11 10:37:26.
