data_PCOD9353081
_publ_section_title
;
Structure prediction by ZEFSAII (Michael W. Deem and Ramdas Pophale) SiO2 
 PCOD9353081
Probable space group: C M C 21
;
_chemical_formula_sum "Si O2"
_cell_formula_units_Z 64
_cell_length_a 16.756489
_cell_length_b 21.561276
_cell_length_c 8.979522
_cell_angle_alpha 90.000000
_cell_angle_beta 90.000000
_cell_angle_gamma 90.000000
_cell_volume 3244.223034
_symmetry_space_group_name_H-M "C M C 21"
_symmetry_group_IT_number 36
_symmetry_cell_setting 'orthorhombic'
loop_
_space_group_symop_operation_xyz
x,y,z
-x,-y,1/2+z
x,-y,1/2+z
-x,y,z
1/2+x,1/2+y,z
1/2-x,1/2-y,1/2+z
1/2+x,1/2-y,1/2+z
1/2-x,1/2+y,z
loop_
_atom_site_type_symbol
_atom_site_label
_atom_site_fract_x
_atom_site_fract_y
_atom_site_fract_z
Si Si1 0.094972 0.932679 0.125000
Si Si2 0.768867 0.775716 0.463965
Si Si3 0.689306 0.475949 0.841300
Si Si4 0.803392 0.376014 0.682685
Si Si5 0.371364 0.914657 0.120899
Si Si6 0.411045 0.805192 0.926175
Si Si7 0.647838 0.966211 0.439759
Si Si8 0.782538 0.164281 0.648665
O O1 0.131439 0.865953 0.170183
O O2 0.000000 0.934755 0.130114
O O3 0.135568 0.983916 0.230549
O O4 0.130704 0.946800 0.962401
O O5 0.744218 0.827647 0.581019
O O6 0.861049 0.755215 0.470569
O O7 0.753749 0.800697 0.297909
O O8 0.722626 0.713095 0.513782
O O9 0.741945 0.422942 0.761397
O O10 0.757599 0.520508 0.912165
O O11 0.857986 0.339850 0.800922
O O12 0.857545 0.416608 0.571297
O O13 0.387417 0.941267 0.285050
O O14 0.278551 0.892607 0.120348
O O15 0.413208 0.852483 0.065555
O O16 0.385585 0.968963 0.001474
O O17 0.500000 0.792321 0.874352
#
# Coordination Sequence:
#
# PCOD9353081 Si02
#       8
#     8   8   8   8   8   8   8   8
#     4  12  25  39  59  96 140 170 201 265 335 382
#     4  11  23  40  68  93 118 169 230 259 309 382
#     4  12  20  40  65  94 127 168 215 257 311 398
#     4  12  21  39  72  93 121 170 226 257 308 396
#     4  11  20  37  65  93 125 164 205 259 316 386
#     4  11  25  45  64  94 135 165 210 283 331 357
#     4  12  18  35  69  98 118 157 219 262 301 377
#     4  11  21  39  63  91 118 167 226 262 296 380
#
# _framework density 19.727374999999999
#
# number of rings (size 3 to 8) (size 9 to 14) (size 15 to 20)
#    0.000    0.500    8.750    1.125    0.000    0.500 
#    0.000    4.375    0.000    0.000    0.000    0.000 
#    0.000    0.000    0.000    0.000    0.000    0.000 
#
# Total GULP energy -178790.696990 kJ/mol
# GULP energy per Si atom -5587.209281 kJ/mol
# Density = 1.968247 g / cm^3
# Si number density = 19.727375 Si / 1000 Ang^3
#
#
#
# Elastic Constant Matrix: (Units=GPa)
#
#
# Indices 1 2 3 4 5 6 
#
# 1 77.6548 2.7292 1.7581 0.0000 0.0000 0.0000
# 2 2.7292 68.6104 21.4170 0.0000 0.0000 0.0000
# 3 1.7581 21.4170 80.0424 0.0000 0.0000 0.0000
# 4 0.0000 0.0000 0.0000 44.6276 0.0000 0.0000
# 5 0.0000 0.0000 0.0000 0.0000 10.6762 0.0000
# 6 0.0000 0.0000 0.0000 0.0000 0.0000 5.5171
#
#
#
# Elastic Compliance Matrix: (Units=1/GPa)
#
#
# Indices 1 2 3 4 5 6 
#
# 1 0.012897 -0.000463 -0.000159 0.000000 0.000000 0.000000
# 2 -0.000463 0.015920 -0.004250 0.000000 0.000000 0.000000
# 3 -0.000159 -0.004250 0.013634 0.000000 0.000000 0.000000
# 4 0.000000 0.000000 0.000000 0.022408 0.000000 0.000000
# 5 0.000000 0.000000 0.000000 0.000000 0.093667 0.000000
# 6 0.000000 0.000000 0.000000 0.000000 0.000000 0.181256
#
#
# Mechanical properties :
#
#
# Convention : Reuss Voigt Hill
#
# Bulk Modulus (GPa) = 30.57452 30.90180 30.73816
# Shear Modulus (GPa) = 13.87240 25.52438 19.69839
#
# Velocity S-wave (km/s) = 2.65468 3.60092 3.16338
# Velocity P-wave (km/s) = 4.99285 5.74346 5.38126
#
# Compressibility (1/GPa) = 0.03270698
#
# Stress axis : x y z
#
# Youngs Moduli (GPa) = 77.53507 62.81408 73.34641
#
# Poissons Ratio (x) = 0.02910 0.01169
# Poissons Ratio (y) = 0.03592 0.31169
# Poissons Ratio (z) = 0.01235 0.26693
#
# Static dielectric constant tensor:
#      x y z
#    x 1.691310 0.000000 0.000000 
#    y 0.000000 1.710640 0.000000 
#    z 0.000000 0.000000 1.723160 
# 
# From -- ./inp_files/4919.got.cif
#   From: 2010.05.17/outbox.cif.g08.bks.cpg/sg36_3_cif.got.tgz:4919.got - 2010.06.03 17:41:39.
