data_PCOD9353351
_publ_section_title
;
Structure prediction by ZEFSAII (Michael W. Deem and Ramdas Pophale) SiO2 
 PCOD9353351
Probable space group: C M C 21
;
_chemical_formula_sum "Si O2"
_cell_formula_units_Z 32
_cell_length_a 9.000000
_cell_length_b 15.000000
_cell_length_c 24.000000
_cell_angle_alpha 90.000000
_cell_angle_beta 90.000000
_cell_angle_gamma 90.000000
_cell_volume 3240.000000
_symmetry_space_group_name_H-M "C M C 21"
_symmetry_group_IT_number 36
_symmetry_cell_setting 'orthorhombic'
loop_
_space_group_symop_operation_xyz
x,y,z
-x,-y,1/2+z
x,-y,1/2+z
-x,y,z
1/2+x,1/2+y,z
1/2-x,1/2-y,1/2+z
1/2+x,1/2-y,1/2+z
1/2-x,1/2+y,z
loop_
_atom_site_type_symbol
_atom_site_label
_atom_site_fract_x
_atom_site_fract_y
_atom_site_fract_z
Si Si1 0.323247 0.092304 0.977630
Si Si2 0.671458 0.358347 0.589711
Si Si3 0.323193 0.095291 0.205957
Si Si4 0.823496 0.915063 0.954572
Si Si5 0.172438 0.646989 0.566693
Si Si6 0.176524 0.760592 0.274684
Si Si7 0.178192 0.258989 0.391111
Si Si8 0.823149 0.604607 0.690873
O O1 0.500000 0.091945 0.981344
O O2 0.274641 0.177827 0.942042
O O3 0.263271 0.006080 0.946337
O O4 0.257283 0.094438 0.039516
O O5 0.500000 0.385977 0.589036
O O6 0.741109 0.376929 0.649570
O O7 0.679028 0.252668 0.577660
O O8 0.500000 0.105363 0.196145
O O9 0.281577 0.160391 0.256101
O O10 0.294740 0.991925 0.216755
O O11 0.783101 0.841056 0.909127
O O12 0.000000 0.928888 0.953775
O O13 0.774356 0.878822 0.015152
O O14 0.215971 0.602494 0.625388
O O15 0.000000 0.622883 0.554214
O O16 0.250259 0.784857 0.332959
O O17 0.234225 0.822417 0.224881
O O18 0.000000 0.766953 0.279395
O O19 0.000000 0.265480 0.386572
O O20 0.000000 0.624724 0.693330
#
# Coordination Sequence:
#
# PCOD9353351 Si02
#       8
#     8   8   8   8   8   8   8   8
#     4  11  23  41  63  89 121 160 199 243 304 362
#     4  11  21  35  61  95 124 156 199 247 297 352
#     4  10  22  39  61  89 122 160 198 241 299 363
#     4  11  23  40  63  93 123 157 200 247 298 356
#     4  10  20  35  60  92 124 161 198 241 298 356
#     4  11  24  40  61  89 118 153 202 254 300 348
#     4  10  24  44  63  83 116 161 203 245 300 358
#     4  10  21  40  62  86 120 160 199 238 294 361
#
# _framework density 9.8765429999999999
#
# number of rings (size 3 to 8) (size 9 to 14) (size 15 to 20)
#    0.000    1.500    2.500    2.250    0.000    6.000 
#    0.000    3.750    0.000    0.000    0.000    0.000 
#    0.000    0.000    0.000    0.000    0.000    0.000 
#
# Total GULP energy -178817.904366 kJ/mol
# GULP energy per Si atom -5588.059511 kJ/mol
# Density = 0.985406 g / cm^3
# Si number density = 9.876543 Si / 1000 Ang^3
#
#
#
# Elastic Constant Matrix: (Units=GPa)
#
#
# Indices 1 2 3 4 5 6 
#
# 1 7.4833 14.7614 5.0671 0.0000 0.0000 0.0000
# 2 14.7614 48.4378 -4.7652 0.0000 0.0000 0.0000
# 3 5.0671 -4.7652 51.4947 0.0000 0.0000 0.0000
# 4 0.0000 0.0000 0.0000 9.9397 0.0000 0.0000
# 5 0.0000 0.0000 0.0000 0.0000 31.0528 0.0000
# 6 0.0000 0.0000 0.0000 0.0000 0.0000 24.4489
#
#
#
# Elastic Compliance Matrix: (Units=1/GPa)
#
#
# Indices 1 2 3 4 5 6 
#
# 1 0.464729 -0.147467 -0.059376 0.000000 0.000000 0.000000
# 2 -0.147467 0.067629 0.020769 0.000000 0.000000 0.000000
# 3 -0.059376 0.020769 0.027184 0.000000 0.000000 0.000000
# 4 0.000000 0.000000 0.000000 0.100606 0.000000 0.000000
# 5 0.000000 0.000000 0.000000 0.000000 0.032203 0.000000
# 6 0.000000 0.000000 0.000000 0.000000 0.000000 0.040902
#
#
# Mechanical properties :
#
#
# Convention : Reuss Voigt Hill
#
# Bulk Modulus (GPa) = 5.33636 15.28251 10.30944
# Shear Modulus (GPa) = 4.28131 19.24512 11.76322
#
# Velocity S-wave (km/s) = 1.47381 3.12474 2.44296
# Velocity P-wave (km/s) = 2.36718 4.55766 3.63151
#
# Compressibility (1/GPa) = 0.18739365
#
# Stress axis : x y z
#
# Youngs Moduli (GPa) = 2.15179 14.78659 36.78632
#
# Poissons Ratio (x) = 2.18054 2.18422
# Poissons Ratio (y) = 0.31732 -0.76402
# Poissons Ratio (z) = 0.12776 -0.30710
#
# Static dielectric constant tensor:
#      x y z
#    x 1.662750 0.000000 0.000000 
#    y 0.000000 1.742470 0.000000 
#    z 0.000000 0.000000 1.653330 
# 
# From -- ./inp_files/16597.got.cif
#   From: 2010.05.17/outbox.ucp.g08.bks.cvg/sg36_9_cif.got.tgz:16597.got - 2010.06.11 10:37:26.
