data_PCOD9353015
_publ_section_title
;
Structure prediction by ZEFSAII (Michael W. Deem and Ramdas Pophale) SiO2 
 PCOD9353015
Probable space group: C M C 21
;
_chemical_formula_sum "Si O2"
_cell_formula_units_Z 64
_cell_length_a 8.814352
_cell_length_b 19.620382
_cell_length_c 17.134707
_cell_angle_alpha 90.000000
_cell_angle_beta 90.000000
_cell_angle_gamma 90.000000
_cell_volume 2963.292563
_symmetry_space_group_name_H-M "C M C 21"
_symmetry_group_IT_number 36
_symmetry_cell_setting 'orthorhombic'
loop_
_space_group_symop_operation_xyz
x,y,z
-x,-y,1/2+z
x,-y,1/2+z
-x,y,z
1/2+x,1/2+y,z
1/2-x,1/2-y,1/2+z
1/2+x,1/2-y,1/2+z
1/2-x,1/2+y,z
loop_
_atom_site_type_symbol
_atom_site_label
_atom_site_fract_x
_atom_site_fract_y
_atom_site_fract_z
Si Si1 0.820556 0.286711 0.313970
Si Si2 0.319248 0.079319 0.412116
Si Si3 0.180196 0.658166 0.251370
Si Si4 0.318379 0.294359 0.478529
Si Si5 0.319608 0.032321 0.147268
Si Si6 0.319368 0.595891 0.717508
Si Si7 0.180762 0.952450 0.482107
Si Si8 0.680213 0.330646 0.051942
O O1 0.774870 0.227088 0.254127
O O2 0.740927 0.267741 0.395297
O O3 0.750941 0.357437 0.284437
O O4 0.000000 0.291134 0.323370
O O5 0.500000 0.077254 0.420751
O O6 0.284969 0.115178 0.329898
O O7 0.251060 0.123460 0.483144
O O8 0.254542 0.003045 0.419760
O O9 0.211080 0.607725 0.179916
O O10 0.000000 0.674631 0.251823
O O11 0.500000 0.290633 0.482046
O O12 0.271054 0.373482 0.480536
O O13 0.247696 0.245037 0.543129
O O14 0.500000 0.024724 0.135953
O O15 0.231818 0.021068 0.066904
O O16 0.260629 0.976666 0.208428
O O17 0.500000 0.588696 0.728078
O O18 0.290467 0.635496 0.635721
O O19 0.000000 0.955405 0.474194
O O20 0.500000 0.327810 0.040701
#
# Coordination Sequence:
#
# PCOD9353015 Si02
#       8
#     8   8   8   8   8   8   8   8
#     4  12  26  43  67  96 128 168 218 266 318 385
#     4  11  22  40  68  94 125 167 210 262 318 379
#     4  10  24  44  65  94 130 167 211 262 322 384
#     4  11  25  44  66  94 132 171 213 267 323 380
#     4  11  24  43  67  96 129 168 214 263 316 381
#     4  11  25  44  66  93 132 172 212 264 322 382
#     4  11  25  43  64  95 131 168 214 265 320 380
#     4  11  23  41  67  96 125 165 214 263 317 381
#
# _framework density 21.597597
#
# number of rings (size 3 to 8) (size 9 to 14) (size 15 to 20)
#    0.000    1.000    2.500    3.375    3.500    5.000 
#    0.000    0.000    0.000    0.000    0.000    0.000 
#    0.000    0.000    0.000    0.000    0.000    0.000 
#
# Total GULP energy -179171.482253 kJ/mol
# GULP energy per Si atom -5599.108820 kJ/mol
# Density = 2.154844 g / cm^3
# Si number density = 21.597597 Si / 1000 Ang^3
#
#
#
# Elastic Constant Matrix: (Units=GPa)
#
#
# Indices 1 2 3 4 5 6 
#
# 1 13.5357 12.1747 -1.8920 0.0000 0.0000 0.0000
# 2 12.1747 98.0124 -10.6424 0.0000 0.0000 0.0000
# 3 -1.8920 -10.6424 27.9100 0.0000 0.0000 0.0000
# 4 0.0000 0.0000 0.0000 36.6040 0.0000 0.0000
# 5 0.0000 0.0000 0.0000 0.0000 16.7460 0.0000
# 6 0.0000 0.0000 0.0000 0.0000 0.0000 40.3566
#
#
#
# Elastic Compliance Matrix: (Units=1/GPa)
#
#
# Indices 1 2 3 4 5 6 
#
# 1 0.083255 -0.010149 0.001774 0.000000 0.000000 0.000000
# 2 -0.010149 0.011881 0.003842 0.000000 0.000000 0.000000
# 3 0.001774 0.003842 0.037415 0.000000 0.000000 0.000000
# 4 0.000000 0.000000 0.000000 0.027319 0.000000 0.000000
# 5 0.000000 0.000000 0.000000 0.000000 0.059716 0.000000
# 6 0.000000 0.000000 0.000000 0.000000 0.000000 0.024779
#
#
# Mechanical properties :
#
#
# Convention : Reuss Voigt Hill
#
# Bulk Modulus (GPa) = 8.09815 15.41541 11.75678
# Shear Modulus (GPa) = 16.97263 28.06251 22.51757
#
# Velocity S-wave (km/s) = 2.80636 3.60854 3.23243
# Velocity P-wave (km/s) = 3.77605 4.95128 4.40305
#
# Compressibility (1/GPa) = 0.12348496
#
# Stress axis : x y z
#
# Youngs Moduli (GPa) = 12.01129 84.17055 26.72741
#
# Poissons Ratio (x) = 0.85424 -0.04741
# Poissons Ratio (y) = 0.12190 -0.10269
# Poissons Ratio (z) = -0.02131 -0.32340
#
# Static dielectric constant tensor:
#      x y z
#    x 1.711400 0.000000 0.000000 
#    y 0.000000 1.816110 0.000000 
#    z 0.000000 0.000000 1.857930 
# 
# From -- ./inp_files/13948.got.cif
#   From: 2010.05.17/outbox.cif.g08.bks.cpg/sg36_7_cif.got.tgz:13948.got - 2010.06.03 17:41:39.
