data_PCOD9353680
_publ_section_title
;
Structure prediction by ZEFSAII (Michael W. Deem and Ramdas Pophale) SiO2 
 PCOD9353680
Probable space group: C C C 2
;
_chemical_formula_sum "Si O2"
_cell_formula_units_Z 48
_cell_length_a 13.277167
_cell_length_b 15.189873
_cell_length_c 8.978340
_cell_angle_alpha 90.000000
_cell_angle_beta 90.000000
_cell_angle_gamma 90.000000
_cell_volume 1810.737969
_symmetry_space_group_name_H-M "C C C 2"
_symmetry_group_IT_number 37
_symmetry_cell_setting 'orthorhombic'
loop_
_space_group_symop_operation_xyz
x,y,z
-x,-y,z
-x,y,1/2+z
x,-y,1/2+z
1/2+x,1/2+y,z
1/2-x,1/2-y,z
1/2-x,1/2+y,1/2+z
1/2+x,1/2-y,1/2+z
loop_
_atom_site_type_symbol
_atom_site_label
_atom_site_fract_x
_atom_site_fract_y
_atom_site_fract_z
Si Si1 0.886410 0.414402 0.670780
Si Si2 0.834576 0.681222 0.427131
Si Si3 0.550887 0.848724 0.875872
Si Si4 0.443865 0.584978 0.013908
Si Si5 0.748892 0.500860 0.385647
Si Si6 0.123804 0.162942 0.823018
O O1 0.837577 0.325529 0.744032
O O2 0.898429 0.412943 0.495427
O O3 0.808133 0.486061 0.730004
O O4 0.996315 0.405612 0.747644
O O5 0.750000 0.750000 0.472847
O O6 0.810240 0.580703 0.469752
O O7 0.952406 0.692999 0.460467
O O8 0.622859 0.769258 0.828132
O O9 0.500000 0.500000 0.080210
O O10 0.395070 0.634753 0.152770
O O11 0.359932 0.549487 0.899601
O O12 0.526653 0.636384 0.920406
O O13 0.711540 0.399234 0.390448
#
# Coordination Sequence:
#
# PCOD9353680 Si02
#       6
#     8   8   8   8   8   8
#     4   8  19  35  58  86 124 167 221 263 339 395
#     4   8  17  32  55  78 122 166 213 254 334 394
#     4   9  18  32  58  91 115 165 215 268 324 402
#     4  10  19  30  50  83 128 178 210 261 340 409
#     4   8  19  33  51  83 128 175 213 263 335 412
#     4  11  19  32  55  92 135 169 216 274 346 403
#
# _framework density 26.50853
#
# number of rings (size 3 to 8) (size 9 to 14) (size 15 to 20)
#    2.000    0.667    0.000    3.500    0.000    0.000 
#    3.000    0.000    0.000   25.000    0.000   14.000 
#    0.000   16.000    0.000    0.000    0.000    0.000 
#
# Total GULP energy -133622.192658 kJ/mol
# GULP energy per Si atom -5567.591361 kJ/mol
# Density = 2.644820 g / cm^3
# Si number density = 26.508530 Si / 1000 Ang^3
#
#
#
# Elastic Constant Matrix: (Units=GPa)
#
#
# Indices 1 2 3 4 5 6 
#
# 1 130.7450 74.2038 25.7832 0.0000 0.0000 0.0000
# 2 74.2038 186.0966 30.0644 0.0000 0.0000 0.0000
# 3 25.7832 30.0644 103.3144 0.0000 0.0000 0.0000
# 4 0.0000 0.0000 0.0000 34.4045 0.0000 0.0000
# 5 0.0000 0.0000 0.0000 0.0000 30.9436 0.0000
# 6 0.0000 0.0000 0.0000 0.0000 0.0000 39.5235
#
#
#
# Elastic Compliance Matrix: (Units=1/GPa)
#
#
# Indices 1 2 3 4 5 6 
#
# 1 0.010078 -0.003790 -0.001412 0.000000 0.000000 0.000000
# 2 -0.003790 0.007064 -0.001110 0.000000 0.000000 0.000000
# 3 -0.001412 -0.001110 0.010355 0.000000 0.000000 0.000000
# 4 0.000000 0.000000 0.000000 0.029066 0.000000 0.000000
# 5 0.000000 0.000000 0.000000 0.000000 0.032317 0.000000
# 6 0.000000 0.000000 0.000000 0.000000 0.000000 0.025301
#
#
# Mechanical properties :
#
#
# Convention : Reuss Voigt Hill
#
# Bulk Modulus (GPa) = 67.23868 75.58432 71.41150
# Shear Modulus (GPa) = 37.94684 40.31461 39.13072
#
# Velocity S-wave (km/s) = 3.78762 3.90400 3.84625
# Velocity P-wave (km/s) = 6.67443 6.99262 6.83538
#
# Compressibility (1/GPa) = 0.01487239
#
# Stress axis : x y z
#
# Youngs Moduli (GPa) = 99.22413 141.55830 96.57604
#
# Poissons Ratio (x) = 0.53657 0.13638
# Poissons Ratio (y) = 0.37610 0.10717
# Poissons Ratio (z) = 0.14012 0.15709
#
# Static dielectric constant tensor:
#      x y z
#    x 2.209530 0.000000 0.000000 
#    y 0.000000 2.002140 0.000000 
#    z 0.000000 0.000000 2.151310 
# 
# From -- ./inp_files/7262.got.cif
#   From: 2010.05.17/outbox.cif.g08.bks.cpg/sg37_4_cif.got.tgz:7262.got - 2010.06.03 17:53:42.
