data_PCOD9353647
_publ_section_title
;
Structure prediction by ZEFSAII (Michael W. Deem and Ramdas Pophale) SiO2 
 PCOD9353647
Probable space group: C C C 2
;
_chemical_formula_sum "Si O2"
_cell_formula_units_Z 60
_cell_length_a 9.586616
_cell_length_b 21.224846
_cell_length_c 14.890478
_cell_angle_alpha 90.000000
_cell_angle_beta 90.000000
_cell_angle_gamma 90.000000
_cell_volume 3029.831795
_symmetry_space_group_name_H-M "C C C 2"
_symmetry_group_IT_number 37
_symmetry_cell_setting 'orthorhombic'
loop_
_space_group_symop_operation_xyz
x,y,z
-x,-y,z
-x,y,1/2+z
x,-y,1/2+z
1/2+x,1/2+y,z
1/2-x,1/2-y,z
1/2-x,1/2+y,1/2+z
1/2+x,1/2-y,1/2+z
loop_
_atom_site_type_symbol
_atom_site_label
_atom_site_fract_x
_atom_site_fract_y
_atom_site_fract_z
Si Si1 0.624184 0.951404 0.075170
Si Si2 0.540154 0.192108 0.618723
Si Si3 0.356100 0.034732 0.280244
Si Si4 0.250000 0.750000 0.097305
Si Si5 0.365765 0.656273 0.949006
Si Si6 0.368362 0.818857 0.813047
Si Si7 0.835621 0.989378 0.440180
Si Si8 0.593300 0.256566 0.430557
O O1 0.562260 0.880593 0.086165
O O2 0.677798 0.968522 0.174957
O O3 0.500000 0.000000 0.051659
O O4 0.747979 0.964618 0.005001
O O5 0.380656 0.213592 0.641896
O O6 0.624442 0.203228 0.710305
O O7 0.588453 0.232368 0.533219
O O8 0.390331 0.106370 0.305728
O O9 0.234371 0.007930 0.342191
O O10 0.500000 0.000000 0.296608
O O11 0.318683 0.697655 0.033145
O O12 0.279153 0.682873 0.864023
O O13 0.324544 0.584588 0.966750
O O14 0.526958 0.673307 0.930275
O O15 0.486749 0.786556 0.873658
O O16 0.000000 0.000000 0.438961
O O17 0.750000 0.250000 0.396488
#
# Coordination Sequence:
#
# PCOD9353647 Si02
#       8
#     8   8   8   4   8   8   8   8
#     4  10  21  39  63  90 121 163 213 254 312 377
#     4  10  22  37  63  89 124 158 208 255 306 377
#     4   9  21  38  61  90 118 162 213 251 299 382
#     4  10  18  38  64  90 118 156 208 258 302 364
#     4  10  20  41  61  83 120 166 199 243 315 370
#     4  10  20  39  62  85 119 165 199 246 317 366
#     4  11  24  36  64  90 127 164 200 260 324 363
#     4  11  24  37  60  89 123 152 210 260 297 365
#
# _framework density 19.803080999999999
#
# number of rings (size 3 to 8) (size 9 to 14) (size 15 to 20)
#    0.000    1.867    2.667    1.200    6.533    1.600 
#    0.000    0.000    5.867    0.000    0.000    0.000 
#    0.000    0.000    0.000    0.000    0.000    0.000 
#
# Total GULP energy -167296.284349 kJ/mol
# GULP energy per Si atom -5576.542812 kJ/mol
# Density = 1.975801 g / cm^3
# Si number density = 19.803081 Si / 1000 Ang^3
#
#
#
# Elastic Constant Matrix: (Units=GPa)
#
#
# Indices 1 2 3 4 5 6 
#
# 1 121.3096 42.3789 46.4581 0.0000 0.0000 0.0000
# 2 42.3789 53.6827 28.4832 0.0000 0.0000 0.0000
# 3 46.4581 28.4832 85.7131 0.0000 0.0000 0.0000
# 4 0.0000 0.0000 0.0000 30.7182 0.0000 0.0000
# 5 0.0000 0.0000 0.0000 0.0000 -3.2879 0.0000
# 6 0.0000 0.0000 0.0000 0.0000 0.0000 33.7317
#
#
#
# Elastic Compliance Matrix: (Units=1/GPa)
#
#
# Indices 1 2 3 4 5 6 
#
# 1 0.012545 -0.007643 -0.004260 0.000000 0.000000 0.000000
# 2 -0.007643 0.027272 -0.004920 0.000000 0.000000 0.000000
# 3 -0.004260 -0.004920 0.015611 0.000000 0.000000 0.000000
# 4 0.000000 0.000000 0.000000 0.032554 0.000000 0.000000
# 5 0.000000 0.000000 0.000000 0.000000 -0.304146 0.000000
# 6 0.000000 0.000000 0.000000 0.000000 0.000000 0.029646
#
#
# Mechanical properties :
#
#
# Convention : Reuss Voigt Hill
#
# Bulk Modulus (GPa) = 45.90964 55.03844 50.47404
# Shear Modulus (GPa) = -34.33789 21.79140 -6.27324
#
# Velocity S-wave (km/s) = -4.16861 3.32083 -1.78177
# Velocity P-wave (km/s) = 0.25230 6.52358 4.61632
#
# Compressibility (1/GPa) = 0.02178192
#
# Stress axis : x y z
#
# Youngs Moduli (GPa) = 79.71431 36.66730 64.05901
#
# Poissons Ratio (x) = 0.28025 0.27287
# Poissons Ratio (y) = 0.60927 0.31517
# Poissons Ratio (z) = 0.33955 0.18041
#
# Static dielectric constant tensor:
#      x y z
#    x 1.732230 0.000000 0.000000 
#    y 0.000000 1.702790 0.000000 
#    z 0.000000 0.000000 1.693580 
# 
# From -- ./inp_files/10929.got.cif
#   From: 2010.05.17/outbox.cif.g08.bks.cpg/sg37_6_cif.got.tgz:10929.got - 2010.06.03 17:53:42.
