data_PCOD9353664
_publ_section_title
;
Structure prediction by ZEFSAII (Michael W. Deem and Ramdas Pophale) SiO2 
 PCOD9353664
Probable space group: C C C 2
;
_chemical_formula_sum "Si O2"
_cell_formula_units_Z 48
_cell_length_a 11.664532
_cell_length_b 12.740711
_cell_length_c 13.751784
_cell_angle_alpha 90.000000
_cell_angle_beta 90.000000
_cell_angle_gamma 90.000000
_cell_volume 2043.713557
_symmetry_space_group_name_H-M "C C C 2"
_symmetry_group_IT_number 37
_symmetry_cell_setting 'orthorhombic'
loop_
_space_group_symop_operation_xyz
x,y,z
-x,-y,z
-x,y,1/2+z
x,-y,1/2+z
1/2+x,1/2+y,z
1/2-x,1/2-y,z
1/2-x,1/2+y,1/2+z
1/2+x,1/2-y,1/2+z
loop_
_atom_site_type_symbol
_atom_site_label
_atom_site_fract_x
_atom_site_fract_y
_atom_site_fract_z
Si Si1 0.209609 0.632091 0.349400
Si Si2 0.081751 0.597273 0.636504
Si Si3 0.977863 0.741873 0.305518
Si Si4 0.967868 0.238864 0.016607
Si Si5 0.869911 0.880997 0.674998
Si Si6 0.174895 0.929968 0.537955
O O1 0.250000 0.750000 0.377984
O O2 0.076242 0.656818 0.335955
O O3 0.260237 0.606608 0.243413
O O4 0.269283 0.557816 0.429542
O O5 0.015217 0.648046 0.545053
O O6 0.210884 0.587017 0.600536
O O7 0.000000 0.500000 0.664971
O O8 0.089965 0.681146 0.723534
O O9 0.922562 0.771691 0.407744
O O10 0.033361 0.845103 0.253966
O O11 0.077729 0.160184 0.029250
O O12 0.875913 0.215012 0.099866
O O13 0.880633 0.975542 0.599163
#
# Coordination Sequence:
#
# PCOD9353664 Si02
#       6
#     8   8   8   8   8   8
#     4  10  18  41  70  91 130 191 215 260 353 408
#     4  11  24  41  69 103 132 173 238 283 327 406
#     4  10  21  44  70  94 136 188 217 271 353 409
#     4  11  22  45  69  98 135 183 224 273 344 412
#     4  10  23  38  67 101 135 170 227 279 331 410
#     4  12  21  43  70 104 130 178 227 279 337 416
#
# _framework density 23.486657999999998
#
# number of rings (size 3 to 8) (size 9 to 14) (size 15 to 20)
#    0.000    1.333    5.000    2.000    0.000    2.000 
#   12.000    0.000    0.000    0.000    0.000    0.000 
#    0.000    0.000    0.000    0.000    0.000    0.000 
#
# Total GULP energy -133749.357366 kJ/mol
# GULP energy per Si atom -5572.889890 kJ/mol
# Density = 2.343320 g / cm^3
# Si number density = 23.486658 Si / 1000 Ang^3
#
#
#
# Elastic Constant Matrix: (Units=GPa)
#
#
# Indices 1 2 3 4 5 6 
#
# 1 64.7469 3.7236 31.8999 0.0000 0.0000 0.0000
# 2 3.7236 56.5939 12.3891 0.0000 0.0000 0.0000
# 3 31.8999 12.3891 157.3194 0.0000 0.0000 0.0000
# 4 0.0000 0.0000 0.0000 15.7001 0.0000 0.0000
# 5 0.0000 0.0000 0.0000 0.0000 10.3805 0.0000
# 6 0.0000 0.0000 0.0000 0.0000 0.0000 8.0034
#
#
#
# Elastic Compliance Matrix: (Units=1/GPa)
#
#
# Indices 1 2 3 4 5 6 
#
# 1 0.017167 -0.000374 -0.003451 0.000000 0.000000 0.000000
# 2 -0.000374 0.017988 -0.001341 0.000000 0.000000 0.000000
# 3 -0.003451 -0.001341 0.007162 0.000000 0.000000 0.000000
# 4 0.000000 0.000000 0.000000 0.063694 0.000000 0.000000
# 5 0.000000 0.000000 0.000000 0.000000 0.096334 0.000000
# 6 0.000000 0.000000 0.000000 0.000000 0.000000 0.124947
#
#
# Mechanical properties :
#
#
# Convention : Reuss Voigt Hill
#
# Bulk Modulus (GPa) = 31.26539 41.63172 36.44855
# Shear Modulus (GPa) = 14.35605 22.19332 18.27468
#
# Velocity S-wave (km/s) = 2.47501 3.07731 2.79245
# Velocity P-wave (km/s) = 4.63772 5.51277 5.09407
#
# Compressibility (1/GPa) = 0.03198425
#
# Stress axis : x y z
#
# Youngs Moduli (GPa) = 58.25214 55.59310 139.62687
#
# Poissons Ratio (x) = 0.02079 0.48192
# Poissons Ratio (y) = 0.02178 0.18720
# Poissons Ratio (z) = 0.20106 0.07454
#
# Static dielectric constant tensor:
#      x y z
#    x 1.961160 0.000000 0.000000 
#    y 0.000000 2.093080 0.000000 
#    z 0.000000 0.000000 1.909210 
# 
# From -- ./inp_files/12089.got.cif
#   From: 2010.05.17/outbox.cif.g08.bks.cpg/sg37_7_cif.got.tgz:12089.got - 2010.06.03 17:53:42.
