data_PCOD9353898
_publ_section_title
;
Structure prediction by ZEFSAII (Michael W. Deem and Ramdas Pophale) SiO2 
 PCOD9353898
Probable space group: C C C 2
;
_chemical_formula_sum "Si O2"
_cell_formula_units_Z 52
_cell_length_a 7.646749
_cell_length_b 25.445347
_cell_length_c 13.214939
_cell_angle_alpha 90.000000
_cell_angle_beta 90.000000
_cell_angle_gamma 90.000000
_cell_volume 2571.285942
_symmetry_space_group_name_H-M "C C C 2"
_symmetry_group_IT_number 37
_symmetry_cell_setting 'orthorhombic'
loop_
_space_group_symop_operation_xyz
x,y,z
-x,-y,z
-x,y,1/2+z
x,-y,1/2+z
1/2+x,1/2+y,z
1/2-x,1/2-y,z
1/2-x,1/2+y,1/2+z
1/2+x,1/2-y,1/2+z
loop_
_atom_site_type_symbol
_atom_site_label
_atom_site_fract_x
_atom_site_fract_y
_atom_site_fract_z
Si Si1 0.500000 0.500000 0.169891
Si Si2 0.800675 0.626310 0.394886
Si Si3 0.864857 0.424207 0.502140
Si Si4 0.501009 0.111193 0.700210
Si Si5 0.499182 0.605169 0.034232
Si Si6 0.229936 0.689621 0.077650
Si Si7 0.812633 0.526179 0.809722
O O1 0.491422 0.552022 0.100195
O O2 0.335070 0.498885 0.245056
O O3 0.845884 0.626753 0.277622
O O4 0.619034 0.600706 0.432254
O O5 0.806409 0.680921 0.457240
O O6 0.960692 0.594064 0.444983
O O7 0.929643 0.430084 0.616395
O O8 0.701418 0.384553 0.509390
O O9 0.786760 0.469889 0.430910
O O10 0.422492 0.160462 0.639769
O O11 0.343580 0.084214 0.762740
O O12 0.402871 0.653278 0.091170
O O13 0.250000 0.750000 0.103591
O O14 0.000000 0.500000 0.796596
#
# Coordination Sequence:
#
# PCOD9353898 Si02
#       7
#     4   8   8   8   8   8   8
#     4  12  22  40  62  92 128 168 226 264 344 394
#     4   8  20  40  61  89 131 167 215 271 329 398
#     4  10  21  37  59  88 124 166 219 262 330 385
#     4  10  19  43  64  90 130 178 218 274 328 408
#     4  10  22  38  64  91 127 167 213 283 322 394
#     4   9  19  42  67  94 132 166 214 287 330 384
#     4  11  24  38  59  92 131 174 220 272 323 401
#
# _framework density 20.223343
#
# number of rings (size 3 to 8) (size 9 to 14) (size 15 to 20)
#    0.923    1.231    1.538    0.923    0.000    8.615 
#    0.000    7.692    0.000    0.923    0.000    0.000 
#    0.000    0.000    0.000    0.000    0.000    0.000 
#
# Total GULP energy -144771.225500 kJ/mol
# GULP energy per Si atom -5568.124058 kJ/mol
# Density = 2.017731 g / cm^3
# Si number density = 20.223343 Si / 1000 Ang^3
#
#
#
# Elastic Constant Matrix: (Units=GPa)
#
#
# Indices 1 2 3 4 5 6 
#
# 1 78.6836 4.6401 16.5099 0.0000 0.0000 0.0000
# 2 4.6401 103.8586 33.2168 0.0000 0.0000 0.0000
# 3 16.5099 33.2168 121.6404 0.0000 0.0000 0.0000
# 4 0.0000 0.0000 0.0000 20.1300 0.0000 0.0000
# 5 0.0000 0.0000 0.0000 0.0000 32.7528 0.0000
# 6 0.0000 0.0000 0.0000 0.0000 0.0000 20.6155
#
#
#
# Elastic Compliance Matrix: (Units=1/GPa)
#
#
# Indices 1 2 3 4 5 6 
#
# 1 0.013082 -0.000018 -0.001771 0.000000 0.000000 0.000000
# 2 -0.000018 0.010550 -0.002878 0.000000 0.000000 0.000000
# 3 -0.001771 -0.002878 0.009247 0.000000 0.000000 0.000000
# 4 0.000000 0.000000 0.000000 0.049677 0.000000 0.000000
# 5 0.000000 0.000000 0.000000 0.000000 0.030532 0.000000
# 6 0.000000 0.000000 0.000000 0.000000 0.000000 0.048507
#
#
# Mechanical properties :
#
#
# Convention : Reuss Voigt Hill
#
# Bulk Modulus (GPa) = 42.47274 45.87960 44.17617
# Shear Modulus (GPa) = 27.96773 31.35404 29.66089
#
# Velocity S-wave (km/s) = 3.72283 3.94177 3.83386
# Velocity P-wave (km/s) = 6.28703 6.59185 6.44124
#
# Compressibility (1/GPa) = 0.02354451
#
# Stress axis : x y z
#
# Youngs Moduli (GPa) = 76.44259 94.78775 108.13979
#
# Poissons Ratio (x) = 0.00172 0.19147
# Poissons Ratio (y) = 0.00139 0.31127
# Poissons Ratio (z) = 0.13535 0.27284
#
# Static dielectric constant tensor:
#      x y z
#    x 1.734930 0.000000 0.000000 
#    y 0.000000 1.736770 0.000000 
#    z 0.000000 0.000000 1.798750 
# 
# From -- ./inp_files/10889.got.cif
#   From: 2010.05.17/outbox.cif.g08.bks.cpg/sg37_6_cif.got.tgz:10889.got - 2010.06.03 17:53:42.
