data_PCOD9353775
_publ_section_title
;
Structure prediction by ZEFSAII (Michael W. Deem and Ramdas Pophale) SiO2 
 PCOD9353775
Probable space group: C C C 2
;
_chemical_formula_sum "Si O2"
_cell_formula_units_Z 56
_cell_length_a 20.506501
_cell_length_b 11.119986
_cell_length_c 12.586122
_cell_angle_alpha 90.000000
_cell_angle_beta 90.000000
_cell_angle_gamma 90.000000
_cell_volume 2870.038623
_symmetry_space_group_name_H-M "C C C 2"
_symmetry_group_IT_number 37
_symmetry_cell_setting 'orthorhombic'
loop_
_space_group_symop_operation_xyz
x,y,z
-x,-y,z
-x,y,1/2+z
x,-y,1/2+z
1/2+x,1/2+y,z
1/2-x,1/2-y,z
1/2-x,1/2+y,1/2+z
1/2+x,1/2-y,1/2+z
loop_
_atom_site_type_symbol
_atom_site_label
_atom_site_fract_x
_atom_site_fract_y
_atom_site_fract_z
Si Si1 0.934439 0.425877 0.905650
Si Si2 0.750000 0.750000 0.093247
Si Si3 0.227110 0.912262 0.768855
Si Si4 0.750000 0.250000 0.961765
Si Si5 0.378976 0.916472 0.691979
Si Si6 0.856821 0.346346 0.468946
Si Si7 0.127324 0.321468 0.593184
Si Si8 0.679213 0.317229 0.280592
O O1 0.926461 0.379693 0.786550
O O2 0.878373 0.528778 0.917711
O O3 0.000000 0.500000 0.920872
O O4 0.923190 0.326460 0.995653
O O5 0.796476 0.827897 0.171076
O O6 0.783515 0.654991 0.014812
O O7 0.217908 0.844288 0.880051
O O8 0.304609 0.913043 0.737935
O O9 0.196585 0.042861 0.776979
O O10 0.802597 0.317395 0.033954
O O11 0.392821 0.843536 0.583143
O O12 0.386018 0.055273 0.656427
O O13 0.856473 0.238619 0.384598
O O14 0.134564 0.218124 0.680023
O O15 0.750000 0.250000 0.272647
#
# Coordination Sequence:
#
# PCOD9353775 Si02
#       8
#     8   4   8   4   8   8   8   8
#     4  11  23  40  62  86 118 161 205 257 303 355
#     4   9  20  35  56  88 124 163 193 242 306 364
#     4  10  20  33  56  86 124 159 193 237 301 373
#     4  11  20  33  56  88 124 163 191 244 306 366
#     4  10  19  36  54  79 121 156 193 241 294 355
#     4  10  21  34  56  84 121 152 195 244 302 364
#     4  11  21  34  55  85 122 156 195 241 306 363
#     4  12  20  33  53  87 124 162 192 239 306 375
#
# _framework density 19.511932999999999
#
# number of rings (size 3 to 8) (size 9 to 14) (size 15 to 20)
#    0.000    1.429    5.714    0.000    2.000    3.429 
#    0.000    0.000    0.000    0.000    0.000    6.000 
#    0.000    0.000    0.000    0.000    0.000    0.000 
#
# Total GULP energy -155885.286694 kJ/mol
# GULP energy per Si atom -5567.331668 kJ/mol
# Density = 1.946752 g / cm^3
# Si number density = 19.511933 Si / 1000 Ang^3
#
#
#
# Elastic Constant Matrix: (Units=GPa)
#
#
# Indices 1 2 3 4 5 6 
#
# 1 23.8153 6.8913 24.6465 0.0000 0.0000 0.0000
# 2 6.8913 113.2676 47.9004 0.0000 0.0000 0.0000
# 3 24.6465 47.9004 150.0591 0.0000 0.0000 0.0000
# 4 0.0000 0.0000 0.0000 15.9109 0.0000 0.0000
# 5 0.0000 0.0000 0.0000 0.0000 4.9363 0.0000
# 6 0.0000 0.0000 0.0000 0.0000 0.0000 18.7205
#
#
#
# Elastic Compliance Matrix: (Units=1/GPa)
#
#
# Indices 1 2 3 4 5 6 
#
# 1 0.050614 0.000504 -0.008474 0.000000 0.000000 0.000000
# 2 0.000504 0.010211 -0.003342 0.000000 0.000000 0.000000
# 3 -0.008474 -0.003342 0.009123 0.000000 0.000000 0.000000
# 4 0.000000 0.000000 0.000000 0.062850 0.000000 0.000000
# 5 0.000000 0.000000 0.000000 0.000000 0.202581 0.000000
# 6 0.000000 0.000000 0.000000 0.000000 0.000000 0.053417
#
#
# Mechanical properties :
#
#
# Convention : Reuss Voigt Hill
#
# Bulk Modulus (GPa) = 21.13116 49.55761 35.34438
# Shear Modulus (GPa) = 11.70425 21.76046 16.73235
#
# Velocity S-wave (km/s) = 2.45184 3.34314 2.93156
# Velocity P-wave (km/s) = 4.34382 6.35263 5.44172
#
# Compressibility (1/GPa) = 0.04732348
#
# Stress axis : x y z
#
# Youngs Moduli (GPa) = 19.75752 97.92910 109.61551
#
# Poissons Ratio (x) = -0.04938 0.92888
# Poissons Ratio (y) = -0.00996 0.36638
# Poissons Ratio (z) = 0.16743 0.32732
#
# Static dielectric constant tensor:
#      x y z
#    x 1.745260 0.000000 0.000000 
#    y 0.000000 1.712980 0.000000 
#    z 0.000000 0.000000 1.777800 
# 
# From -- ./inp_files/7391.got.cif
#   From: 2010.05.17/outbox.cif.g08.bks.cpg/sg37_4_cif.got.tgz:7391.got - 2010.06.03 17:53:42.
