data_PCOD9353673
_publ_section_title
;
Structure prediction by ZEFSAII (Michael W. Deem and Ramdas Pophale) SiO2 
 PCOD9353673
Probable space group: C C C 2
;
_chemical_formula_sum "Si O2"
_cell_formula_units_Z 48
_cell_length_a 15.229356
_cell_length_b 21.959086
_cell_length_c 5.304304
_cell_angle_alpha 90.000000
_cell_angle_beta 90.000000
_cell_angle_gamma 90.000000
_cell_volume 1773.879868
_symmetry_space_group_name_H-M "C C C 2"
_symmetry_group_IT_number 37
_symmetry_cell_setting 'orthorhombic'
loop_
_space_group_symop_operation_xyz
x,y,z
-x,-y,z
-x,y,1/2+z
x,-y,1/2+z
1/2+x,1/2+y,z
1/2-x,1/2-y,z
1/2-x,1/2+y,1/2+z
1/2+x,1/2-y,1/2+z
loop_
_atom_site_type_symbol
_atom_site_label
_atom_site_fract_x
_atom_site_fract_y
_atom_site_fract_z
Si Si1 0.854902 0.233999 0.823380
Si Si2 0.779017 0.932724 0.197368
Si Si3 0.962323 0.932186 0.464761
Si Si4 0.621891 0.023474 0.161113
Si Si5 0.339380 0.849108 0.065447
Si Si6 0.831737 0.167744 0.323353
O O1 0.750000 0.250000 0.811048
O O2 0.874149 0.206664 0.549743
O O3 0.894494 0.297497 0.924118
O O4 0.870587 0.185151 0.048140
O O5 0.863193 0.942338 0.374370
O O6 0.717388 0.885174 0.351014
O O7 0.718364 0.990334 0.129315
O O8 0.816751 0.899240 0.947945
O O9 0.985122 0.902266 0.732996
O O10 0.000000 0.000000 0.506528
O O11 0.618868 0.094804 0.215678
O O12 0.583572 0.985177 0.386490
O O13 0.271744 0.817824 0.260471
#
# Coordination Sequence:
#
# PCOD9353673 Si02
#       6
#     8   8   8   8   8   8
#     4  10  19  29  45  66  89 106 140 170 259 264
#     4  11  22  34  51  66  87 117 165 182 263 281
#     4  10  25  36  49  61  85 116 150 212 241 289
#     4  10  21  29  44  63  85 111 147 185 220 293
#     4  10  21  30  48  65  91 113 139 193 231 308
#     4  11  19  31  47  65  86 112 137 195 221 312
#
# _framework density 27.059329999999999
#
# number of rings (size 3 to 8) (size 9 to 14) (size 15 to 20)
#    0.000    1.667    5.000    1.500   11.667    0.000 
#    0.000    0.000    0.000    0.000    0.000    0.000 
#    0.000    0.000    0.000    0.000    0.000    0.000 
#
# Total GULP energy -134041.392076 kJ/mol
# GULP energy per Si atom -5585.058003 kJ/mol
# Density = 2.699774 g / cm^3
# Si number density = 27.059330 Si / 1000 Ang^3
#
#
#
# Elastic Constant Matrix: (Units=GPa)
#
#
# Indices 1 2 3 4 5 6 
#
# 1 69.8640 1.2552 1.9248 0.0000 0.0000 0.0000
# 2 1.2552 130.0869 8.4244 0.0000 0.0000 0.0000
# 3 1.9248 8.4244 185.3233 0.0000 0.0000 0.0000
# 4 0.0000 0.0000 0.0000 45.7627 0.0000 0.0000
# 5 0.0000 0.0000 0.0000 0.0000 -363.8941 0.0000
# 6 0.0000 0.0000 0.0000 0.0000 0.0000 8.2023
#
#
#
# Elastic Compliance Matrix: (Units=1/GPa)
#
#
# Indices 1 2 3 4 5 6 
#
# 1 0.014320 -0.000129 -0.000143 0.000000 0.000000 0.000000
# 2 -0.000129 0.007711 -0.000349 0.000000 0.000000 0.000000
# 3 -0.000143 -0.000349 0.005413 0.000000 0.000000 0.000000
# 4 0.000000 0.000000 0.000000 0.021852 0.000000 0.000000
# 5 0.000000 0.000000 0.000000 0.000000 -0.002748 0.000000
# 6 0.000000 0.000000 0.000000 0.000000 0.000000 0.121916
#
#
# Mechanical properties :
#
#
# Convention : Reuss Voigt Hill
#
# Bulk Modulus (GPa) = 38.16474 45.38699 41.77587
# Shear Modulus (GPa) = 28.02057 -37.07450 -4.52696
#
# Velocity S-wave (km/s) = 3.22145 -3.70553 -1.29484
# Velocity P-wave (km/s) = 5.28882 1.22407 3.63822
#
# Compressibility (1/GPa) = 0.02620220
#
# Stress axis : x y z
#
# Youngs Moduli (GPa) = 69.83347 129.68445 184.72905
#
# Poissons Ratio (x) = 0.01672 0.02639
# Poissons Ratio (y) = 0.00900 0.06451
# Poissons Ratio (z) = 0.00998 0.04528
#
# Static dielectric constant tensor:
#      x y z
#    x 2.416840 0.000000 0.000000 
#    y 0.000000 2.288210 0.000000 
#    z 0.000000 0.000000 2.205250 
# 
# From -- ./inp_files/1241.got.cif
#   From: 2010.05.17/outbox.cif.g08.bks.cpg/sg37_1_cif.got.tgz:1241.got - 2010.06.03 17:53:42.
