data_PCOD9353844
_publ_section_title
;
Structure prediction by ZEFSAII (Michael W. Deem and Ramdas Pophale) SiO2 
 PCOD9353844
Probable space group: C C C 2
;
_chemical_formula_sum "Si O2"
_cell_formula_units_Z 56
_cell_length_a 14.532493
_cell_length_b 12.233714
_cell_length_c 14.915882
_cell_angle_alpha 90.000000
_cell_angle_beta 90.000000
_cell_angle_gamma 90.000000
_cell_volume 2651.840413
_symmetry_space_group_name_H-M "C C C 2"
_symmetry_group_IT_number 37
_symmetry_cell_setting 'orthorhombic'
loop_
_space_group_symop_operation_xyz
x,y,z
-x,-y,z
-x,y,1/2+z
x,-y,1/2+z
1/2+x,1/2+y,z
1/2-x,1/2-y,z
1/2-x,1/2+y,1/2+z
1/2+x,1/2-y,1/2+z
loop_
_atom_site_type_symbol
_atom_site_label
_atom_site_fract_x
_atom_site_fract_y
_atom_site_fract_z
Si Si1 0.906648 0.938736 0.513030
Si Si2 0.551878 0.113455 0.430573
Si Si3 0.525846 0.170076 0.744508
Si Si4 0.209828 0.515319 0.991236
Si Si5 0.224404 0.379128 0.294343
Si Si6 0.578421 0.584861 0.296238
Si Si7 0.918265 0.699437 0.565412
O O1 0.813037 0.007700 0.521941
O O2 0.914775 0.916900 0.405221
O O3 0.888016 0.825421 0.565369
O O4 0.000000 0.000000 0.541013
O O5 0.540634 0.131622 0.325119
O O6 0.489958 0.199765 0.482243
O O7 0.500000 0.000000 0.450061
O O8 0.650721 0.093869 0.474223
O O9 0.625702 0.111003 0.746477
O O10 0.548063 0.296194 0.764626
O O11 0.475293 0.162671 0.651176
O O12 0.209905 0.573607 0.893576
O O13 0.159872 0.608494 0.050095
O O14 0.250000 0.250000 0.300393
O O15 0.317997 0.435765 0.259745
O O16 0.500000 0.500000 0.269549
#
# Coordination Sequence:
#
# PCOD9353844 Si02
#       7
#     8   8   8   8   8   8   8
#     4  10  20  39  69  88 114 163 210 250 307 372
#     4  10  20  37  58  88 122 157 204 252 300 364
#     4  11  20  35  61  89 125 159 201 260 308 355
#     4  10  19  38  65  87 116 160 207 248 302 374
#     4   9  16  33  61  88 112 158 206 242 293 369
#     4   9  18  35  64  90 117 160 209 253 304 370
#     4  11  21  36  63  91 122 159 202 254 305 363
#
# _framework density 21.11741
#
# number of rings (size 3 to 8) (size 9 to 14) (size 15 to 20)
#    0.000    2.000    4.286    2.143    0.000    2.286 
#    0.000    6.429   18.857    0.000    0.000    0.000 
#    0.000    0.000    0.000    0.000    0.000    0.000 
#
# Total GULP energy -156206.355811 kJ/mol
# GULP energy per Si atom -5578.798422 kJ/mol
# Density = 2.106935 g / cm^3
# Si number density = 21.117410 Si / 1000 Ang^3
#
#
#
# Elastic Constant Matrix: (Units=GPa)
#
#
# Indices 1 2 3 4 5 6 
#
# 1 162.6734 39.1573 19.3041 0.0000 0.0000 0.0000
# 2 39.1573 35.9841 -7.9247 0.0000 0.0000 0.0000
# 3 19.3041 -7.9247 44.3991 0.0000 0.0000 0.0000
# 4 0.0000 0.0000 0.0000 0.9876 0.0000 0.0000
# 5 0.0000 0.0000 0.0000 0.0000 12.6456 0.0000
# 6 0.0000 0.0000 0.0000 0.0000 0.0000 30.0967
#
#
#
# Elastic Compliance Matrix: (Units=1/GPa)
#
#
# Indices 1 2 3 4 5 6 
#
# 1 0.009825 -0.012109 -0.006433 0.000000 0.000000 0.000000
# 2 -0.012109 0.043849 0.013091 0.000000 0.000000 0.000000
# 3 -0.006433 0.013091 0.027657 0.000000 0.000000 0.000000
# 4 0.000000 0.000000 0.000000 1.012556 0.000000 0.000000
# 5 0.000000 0.000000 0.000000 0.000000 0.079079 0.000000
# 6 0.000000 0.000000 0.000000 0.000000 0.000000 0.033226
#
#
# Mechanical properties :
#
#
# Convention : Reuss Voigt Hill
#
# Bulk Modulus (GPa) = 14.19838 38.23665 26.21752
# Shear Modulus (GPa) = 4.03040 21.58064 12.80552
#
# Velocity S-wave (km/s) = 1.38301 3.20024 2.46518
# Velocity P-wave (km/s) = 3.04769 5.63927 4.53265
#
# Compressibility (1/GPa) = 0.07043057
#
# Stress axis : x y z
#
# Youngs Moduli (GPa) = 101.77741 22.80529 36.15763
#
# Poissons Ratio (x) = 0.27614 0.23261
# Poissons Ratio (y) = 1.23238 -0.47335
# Poissons Ratio (z) = 0.65475 -0.29855
#
# Static dielectric constant tensor:
#      x y z
#    x 1.844860 0.000000 0.000000 
#    y 0.000000 1.785740 0.000000 
#    z 0.000000 0.000000 1.757440 
# 
# From -- ./inp_files/11623.got.cif
#   From: 2010.05.17/outbox.cif.g08.bks.cpg/sg37_6_cif.got.tgz:11623.got - 2010.06.03 17:53:42.
