data_PCOD9353700
_publ_section_title
;
Structure prediction by ZEFSAII (Michael W. Deem and Ramdas Pophale) SiO2 
 PCOD9353700
Probable space group: C C C 2
;
_chemical_formula_sum "Si O2"
_cell_formula_units_Z 40
_cell_length_a 5.221943
_cell_length_b 13.727581
_cell_length_c 24.620904
_cell_angle_alpha 90.000000
_cell_angle_beta 90.000000
_cell_angle_gamma 90.000000
_cell_volume 1764.940775
_symmetry_space_group_name_H-M "C C C 2"
_symmetry_group_IT_number 37
_symmetry_cell_setting 'orthorhombic'
loop_
_space_group_symop_operation_xyz
x,y,z
-x,-y,z
-x,y,1/2+z
x,-y,1/2+z
1/2+x,1/2+y,z
1/2-x,1/2-y,z
1/2-x,1/2+y,1/2+z
1/2+x,1/2-y,1/2+z
loop_
_atom_site_type_symbol
_atom_site_label
_atom_site_fract_x
_atom_site_fract_y
_atom_site_fract_z
Si Si1 0.750279 0.068339 0.740380
Si Si2 0.750000 0.931149 0.358159
Si Si3 0.919780 0.857772 0.128957
Si Si4 0.919780 0.642228 0.587361
Si Si5 0.249721 0.431661 0.475938
O O1 0.739399 0.120328 0.799480
O O2 0.796949 0.135652 0.688315
O O3 0.500000 0.000000 0.734728
O O4 0.000000 0.000000 0.741765
O O5 0.760601 0.879672 0.416838
O O6 0.500000 0.000000 0.358391
O O7 0.000000 0.000000 0.357927
O O8 1.000000 0.750000 0.108159
O O9 0.204323 0.903089 0.126914
O O10 0.704323 0.903089 0.089404
O O11 0.796949 0.635652 0.528003
O O12 0.500000 0.500000 0.481590
O O13 0.000000 0.500000 0.474553
#
# Coordination Sequence:
#
# PCOD9353700 Si02
#       5
#     8   8   8   8   8
#     4  10  19  32  53  79 105 135 178 226 270 320
#     4   8  16  30  48  75 104 129 166 220 272 312
#     4  10  21  35  50  72 107 144 175 214 266 320
#     4  10  21  35  50  72 107 144 175 214 266 320
#     4  10  19  32  53  79 105 135 178 226 270 320
#
# _framework density 22.663650000000001
#
# number of rings (size 3 to 8) (size 9 to 14) (size 15 to 20)
#    0.000    2.400    0.000    2.400    0.000    4.800 
#    0.000    0.000    0.000    4.800    0.000   11.200 
#    0.000    0.000    0.000    0.000    0.000    0.000 
#
# Total GULP energy -111386.823784 kJ/mol
# GULP energy per Si atom -5569.341189 kJ/mol
# Density = 2.261207 g / cm^3
# Si number density = 22.663650 Si / 1000 Ang^3
#
#
#
# Elastic Constant Matrix: (Units=GPa)
#
#
# Indices 1 2 3 4 5 6 
#
# 1 215.9158 20.5152 41.6724 0.0000 0.0000 0.0000
# 2 20.5152 69.4241 47.3205 0.0000 0.0000 0.0000
# 3 41.6724 47.3205 266.6480 0.0000 0.0000 0.0000
# 4 0.0000 0.0000 0.0000 12.5628 0.0000 0.0000
# 5 0.0000 0.0000 0.0000 0.0000 27.1288 0.0000
# 6 0.0000 0.0000 0.0000 0.0000 0.0000 14.5842
#
#
#
# Elastic Compliance Matrix: (Units=1/GPa)
#
#
# Indices 1 2 3 4 5 6 
#
# 1 0.004841 -0.001041 -0.000572 0.000000 0.000000 0.000000
# 2 -0.001041 0.016610 -0.002785 0.000000 0.000000 0.000000
# 3 -0.000572 -0.002785 0.004334 0.000000 0.000000 0.000000
# 4 0.000000 0.000000 0.000000 0.079600 0.000000 0.000000
# 5 0.000000 0.000000 0.000000 0.000000 0.036861 0.000000
# 6 0.000000 0.000000 0.000000 0.000000 0.000000 0.068567
#
#
# Mechanical properties :
#
#
# Convention : Reuss Voigt Hill
#
# Bulk Modulus (GPa) = 58.85987 85.66712 72.26349
# Shear Modulus (GPa) = 22.19541 40.35381 31.27461
#
# Velocity S-wave (km/s) = 3.13284 4.22424 3.71879
# Velocity P-wave (km/s) = 6.25409 7.85326 7.09885
#
# Compressibility (1/GPa) = 0.01698951
#
# Stress axis : x y z
#
# Youngs Moduli (GPa) = 206.58258 60.20442 230.74021
#
# Poissons Ratio (x) = 0.06265 0.13194
# Poissons Ratio (y) = 0.21499 0.64262
# Poissons Ratio (z) = 0.11813 0.16767
#
# Static dielectric constant tensor:
#      x y z
#    x 2.072110 0.000000 0.000000 
#    y 0.000000 2.101650 0.000000 
#    z 0.000000 0.000000 1.948410 
# 
# From -- ./inp_files/15713.got.cif
#   From: 2010.05.17/outbox.cif.g08.bks.cpg/sg37_8_cif.got.tgz:15713.got - 2010.06.03 17:53:42.
