data_PCOD9353711
_publ_section_title
;
Structure prediction by ZEFSAII (Michael W. Deem and Ramdas Pophale) SiO2 
 PCOD9353711
Probable space group: C C C 2
;
_chemical_formula_sum "Si O2"
_cell_formula_units_Z 64
_cell_length_a 18.320240
_cell_length_b 8.932417
_cell_length_c 22.145633
_cell_angle_alpha 90.000000
_cell_angle_beta 90.000000
_cell_angle_gamma 90.000000
_cell_volume 3624.000481
_symmetry_space_group_name_H-M "C C C 2"
_symmetry_group_IT_number 37
_symmetry_cell_setting 'orthorhombic'
loop_
_space_group_symop_operation_xyz
x,y,z
-x,-y,z
-x,y,1/2+z
x,-y,1/2+z
1/2+x,1/2+y,z
1/2-x,1/2-y,z
1/2-x,1/2+y,1/2+z
1/2+x,1/2-y,1/2+z
loop_
_atom_site_type_symbol
_atom_site_label
_atom_site_fract_x
_atom_site_fract_y
_atom_site_fract_z
Si Si1 0.766405 0.418979 0.945680
Si Si2 0.187524 0.365216 0.181160
Si Si3 0.805889 0.610908 0.580624
Si Si4 0.327732 0.165360 0.865102
Si Si5 0.906866 0.867777 0.109148
Si Si6 0.071267 0.202036 0.637993
Si Si7 0.828873 0.831423 0.982700
Si Si8 0.078367 0.584969 0.251576
O O1 0.750000 0.250000 0.931588
O O2 0.805100 0.503882 0.891268
O O3 0.691246 0.503858 0.960007
O O4 0.807269 0.432592 0.010314
O O5 0.250000 0.250000 0.204642
O O6 0.214195 0.475828 0.126419
O O7 0.131013 0.252113 0.151411
O O8 0.141186 0.471341 0.225966
O O9 0.750000 0.750000 0.586933
O O10 0.883242 0.678411 0.599701
O O11 0.250000 0.250000 0.849716
O O12 0.359825 0.247110 0.924476
O O13 0.385510 0.151501 0.812022
O O14 0.991762 0.827905 0.111536
O O15 0.893555 0.036465 0.133425
O O16 0.875251 0.843962 0.042449
O O17 0.068044 0.279220 0.703707
O O18 0.750000 0.750000 0.994535
O O19 0.000000 0.500000 0.258421
#
# Coordination Sequence:
#
# PCOD9353711 Si02
#       8
#     8   8   8   8   8   8   8   8
#     4   9  16  31  56  84 115 140 188 252 296 340
#     4  11  21  33  59  87 113 151 204 241 296 357
#     4  10  19  33  54  88 122 151 188 245 308 364
#     4   9  21  39  59  82 110 159 203 240 288 350
#     4  11  19  36  58  87 121 148 189 248 305 363
#     4  10  23  35  57  83 121 158 190 238 307 355
#     4   9  18  35  60  87 116 150 186 243 300 353
#     4  11  23  44  58  81 123 165 200 250 293 351
#
# _framework density 17.660041
#
# number of rings (size 3 to 8) (size 9 to 14) (size 15 to 20)
#    0.000    2.250    1.250    4.875    0.000    4.000 
#    2.250    1.250    0.000    0.000    0.000    0.000 
#    0.000    0.000    0.000    0.000    0.000    0.000 
#
# Total GULP energy -178262.808348 kJ/mol
# GULP energy per Si atom -5570.712761 kJ/mol
# Density = 1.761985 g / cm^3
# Si number density = 17.660041 Si / 1000 Ang^3
#
#
#
# Elastic Constant Matrix: (Units=GPa)
#
#
# Indices 1 2 3 4 5 6 
#
# 1 71.1927 35.9246 48.5337 0.0000 0.0000 0.0000
# 2 35.9246 118.2890 52.9686 0.0000 0.0000 0.0000
# 3 48.5337 52.9686 117.7273 0.0000 0.0000 0.0000
# 4 0.0000 0.0000 0.0000 29.4871 0.0000 0.0000
# 5 0.0000 0.0000 0.0000 0.0000 52.6243 0.0000
# 6 0.0000 0.0000 0.0000 0.0000 0.0000 23.6901
#
#
#
# Elastic Compliance Matrix: (Units=1/GPa)
#
#
# Indices 1 2 3 4 5 6 
#
# 1 0.020374 -0.003039 -0.007032 0.000000 0.000000 0.000000
# 2 -0.003039 0.011040 -0.003714 0.000000 0.000000 0.000000
# 3 -0.007032 -0.003714 0.013064 0.000000 0.000000 0.000000
# 4 0.000000 0.000000 0.000000 0.033913 0.000000 0.000000
# 5 0.000000 0.000000 0.000000 0.000000 0.019003 0.000000
# 6 0.000000 0.000000 0.000000 0.000000 0.000000 0.042212
#
#
# Mechanical properties :
#
#
# Convention : Reuss Voigt Hill
#
# Bulk Modulus (GPa) = 59.14423 64.67364 61.90893
# Shear Modulus (GPa) = 28.93325 32.47911 30.70618
#
# Velocity S-wave (km/s) = 4.05204 4.29316 4.17434
# Velocity P-wave (km/s) = 7.44682 7.82789 7.63973
#
# Compressibility (1/GPa) = 0.01690782
#
# Stress axis : x y z
#
# Youngs Moduli (GPa) = 49.08320 90.57948 76.54382
#
# Poissons Ratio (x) = 0.27524 0.53825
# Poissons Ratio (y) = 0.14915 0.28432
# Poissons Ratio (z) = 0.34515 0.33646
#
# Static dielectric constant tensor:
#      x y z
#    x 1.579510 0.000000 0.000000 
#    y 0.000000 1.642840 0.000000 
#    z 0.000000 0.000000 1.606840 
# 
# From -- ./inp_files/17360.got.cif
#   From: 2010.05.17/outbox.cif.g08.bks.cpg/sg37_9_cif.got.tgz:17360.got - 2010.06.03 17:53:42.
