data_PCOD9353114
_publ_section_title
;
Structure prediction by ZEFSAII (Michael W. Deem and Ramdas Pophale) SiO2 
 PCOD9353114
Probable space group: C M C 21
;
_chemical_formula_sum "Si O2"
_cell_formula_units_Z 56
_cell_length_a 19.305426
_cell_length_b 7.525607
_cell_length_c 17.015724
_cell_angle_alpha 90.000000
_cell_angle_beta 90.000000
_cell_angle_gamma 90.000000
_cell_volume 2472.130296
_symmetry_space_group_name_H-M "C M C 21"
_symmetry_group_IT_number 36
_symmetry_cell_setting 'orthorhombic'
loop_
_space_group_symop_operation_xyz
x,y,z
-x,-y,1/2+z
x,-y,1/2+z
-x,y,z
1/2+x,1/2+y,z
1/2-x,1/2-y,1/2+z
1/2+x,1/2-y,1/2+z
1/2-x,1/2+y,z
loop_
_atom_site_type_symbol
_atom_site_label
_atom_site_fract_x
_atom_site_fract_y
_atom_site_fract_z
Si Si1 0.419952 0.728808 0.042030
Si Si2 0.421883 0.668730 0.613131
Si Si3 0.660250 0.863304 0.186755
Si Si4 0.078127 0.441208 0.820185
Si Si5 0.635503 0.603269 0.884283
Si Si6 0.083166 0.271274 0.445429
Si Si7 0.809128 0.958394 0.226677
O O1 0.500000 0.782111 0.019394
O O2 0.427060 0.533744 0.081030
O O3 0.385442 0.850455 0.108257
O O4 0.366643 0.694873 0.970045
O O5 0.500000 0.726276 0.635839
O O6 0.395475 0.773581 0.536443
O O7 0.367118 0.657501 0.682463
O O8 0.624225 0.987053 0.250341
O O9 0.738257 0.933002 0.179690
O O10 0.667167 0.662578 0.220312
O O11 0.082359 0.233486 0.839439
O O12 0.100194 0.552694 0.897515
O O13 0.000000 0.493983 0.802595
O O14 0.612182 0.402712 0.901685
O O15 0.696580 0.594509 0.819154
O O16 0.000000 0.250002 0.447625
#
# Coordination Sequence:
#
# PCOD9353114 Si02
#       7
#     8   8   8   8   8   8   8
#     4   9  19  39  66  93 126 167 212 268 326 381
#     4   8  17  35  62  91 117 161 213 256 320 381
#     4  11  23  44  61  91 133 173 221 260 322 386
#     4  11  22  38  64  95 124 163 213 264 318 380
#     4  11  21  40  64  95 128 166 211 265 321 381
#     4   9  18  37  62  90 126 159 200 262 315 371
#     4  11  23  41  63  89 128 173 214 267 318 382
#
# _framework density 22.652528
#
# number of rings (size 3 to 8) (size 9 to 14) (size 15 to 20)
#    0.000    2.000    1.429    3.429    0.000    2.286 
#    7.714    1.429    0.000    0.000    0.000    0.000 
#    0.000    0.000    0.000    0.000    0.000    0.000 
#
# Total GULP energy -156289.470613 kJ/mol
# GULP energy per Si atom -5581.766808 kJ/mol
# Density = 2.260097 g / cm^3
# Si number density = 22.652528 Si / 1000 Ang^3
#
#
#
# Elastic Constant Matrix: (Units=GPa)
#
#
# Indices 1 2 3 4 5 6 
#
# 1 48.3032 24.4994 20.6126 0.0000 0.0000 0.0000
# 2 24.4994 91.7988 28.1910 0.0000 0.0000 0.0000
# 3 20.6126 28.1910 90.8338 0.0000 0.0000 0.0000
# 4 0.0000 0.0000 0.0000 23.8591 0.0000 0.0000
# 5 0.0000 0.0000 0.0000 0.0000 20.6952 0.0000
# 6 0.0000 0.0000 0.0000 0.0000 0.0000 20.1404
#
#
#
# Elastic Compliance Matrix: (Units=1/GPa)
#
#
# Indices 1 2 3 4 5 6 
#
# 1 0.025202 -0.005493 -0.004014 0.000000 0.000000 0.000000
# 2 -0.005493 0.013238 -0.002862 0.000000 0.000000 0.000000
# 3 -0.004014 -0.002862 0.012808 0.000000 0.000000 0.000000
# 4 0.000000 0.000000 0.000000 0.041913 0.000000 0.000000
# 5 0.000000 0.000000 0.000000 0.000000 0.048320 0.000000
# 6 0.000000 0.000000 0.000000 0.000000 0.000000 0.049652
#
#
# Mechanical properties :
#
#
# Convention : Reuss Voigt Hill
#
# Bulk Modulus (GPa) = 37.72210 41.94908 39.83559
# Shear Modulus (GPa) = 22.25108 23.44777 22.84942
#
# Velocity S-wave (km/s) = 3.13753 3.22080 3.17944
# Velocity P-wave (km/s) = 5.46023 5.69123 5.57693
#
# Compressibility (1/GPa) = 0.02650966
#
# Stress axis : x y z
#
# Youngs Moduli (GPa) = 39.67995 75.53820 78.07437
#
# Poissons Ratio (x) = 0.41494 0.31340
# Poissons Ratio (y) = 0.21797 0.22346
# Poissons Ratio (z) = 0.15928 0.21620
#
# Static dielectric constant tensor:
#      x y z
#    x 1.777650 0.000000 0.000000 
#    y 0.000000 1.867120 0.000000 
#    z 0.000000 0.000000 1.882170 
# 
# From -- ./inp_files/14989.got.cif
#   From: 2010.05.17/outbox.cif.g08.bks.cpg/sg36_8_cif.got.tgz:14989.got - 2010.06.03 17:41:39.
