data_PCOD9353867
_publ_section_title
;
Structure prediction by ZEFSAII (Michael W. Deem and Ramdas Pophale) SiO2 
 PCOD9353867
Probable space group: C C C 2
;
_chemical_formula_sum "Si O2"
_cell_formula_units_Z 64
_cell_length_a 14.707491
_cell_length_b 8.444697
_cell_length_c 23.091722
_cell_angle_alpha 90.000000
_cell_angle_beta 90.000000
_cell_angle_gamma 90.000000
_cell_volume 2867.998918
_symmetry_space_group_name_H-M "C C C 2"
_symmetry_group_IT_number 37
_symmetry_cell_setting 'orthorhombic'
loop_
_space_group_symop_operation_xyz
x,y,z
-x,-y,z
-x,y,1/2+z
x,-y,1/2+z
1/2+x,1/2+y,z
1/2-x,1/2-y,z
1/2-x,1/2+y,1/2+z
1/2+x,1/2-y,1/2+z
loop_
_atom_site_type_symbol
_atom_site_label
_atom_site_fract_x
_atom_site_fract_y
_atom_site_fract_z
Si Si1 0.349374 0.679668 0.375000
Si Si2 0.471337 0.752159 0.087207
Si Si3 0.496012 0.187633 0.456472
Si Si4 0.352123 0.699116 0.864187
Si Si5 0.865721 0.433327 0.631914
Si Si6 0.562461 0.135649 0.753406
Si Si7 0.188587 0.087791 0.648094
Si Si8 0.075655 0.126246 0.755431
O O1 0.250000 0.750000 0.383153
O O2 0.414928 0.747661 0.423987
O O3 0.354671 0.489567 0.371751
O O4 0.383466 0.717903 0.310003
O O5 0.574839 0.785759 0.108750
O O6 0.404173 0.617959 0.112507
O O7 0.415749 0.913808 0.103916
O O8 0.478471 0.734387 0.018362
O O9 0.415680 0.225227 0.412261
O O10 0.500000 0.000000 0.465935
O O11 0.250000 0.750000 0.872911
O O12 0.384345 0.767499 0.801989
O O13 0.877800 0.433330 0.701691
O O14 0.757926 0.456782 0.623463
O O15 0.487787 0.248362 0.722410
O O16 0.500000 0.000000 0.781310
O O17 0.250000 0.250000 0.649844
O O18 0.151984 0.057659 0.713333
O O19 0.000000 0.000000 0.775270
#
# Coordination Sequence:
#
# PCOD9353867 Si02
#       8
#     8   8   8   8   8   8   8   8
#     4  12  27  49  70 102 152 194 251 316 373 446
#     4  10  20  42  70 103 147 192 241 307 372 441
#     4  12  24  47  78 104 145 202 246 309 380 438
#     4  12  28  45  69 112 147 190 254 305 374 462
#     4  10  19  39  68 108 147 178 246 302 364 462
#     4  12  22  40  74 102 147 191 228 307 386 452
#     4  10  21  38  69 107 136 194 235 293 378 451
#     4  12  23  42  67 101 151 192 232 299 382 447
#
# _framework density 22.315211999999999
#
# number of rings (size 3 to 8) (size 9 to 14) (size 15 to 20)
#    0.000    0.750    6.250    2.625    3.500    1.500 
#    2.250    1.250    0.000    0.000    0.000    0.000 
#    0.000    0.000    0.000    0.000    0.000    0.000 
#
# Total GULP energy -178816.809093 kJ/mol
# GULP energy per Si atom -5588.025284 kJ/mol
# Density = 2.226442 g / cm^3
# Si number density = 22.315212 Si / 1000 Ang^3
#
#
#
# Elastic Constant Matrix: (Units=GPa)
#
#
# Indices 1 2 3 4 5 6 
#
# 1 181.7988 33.3943 62.7150 0.0000 0.0000 0.0000
# 2 33.3943 51.8372 7.7963 0.0000 0.0000 0.0000
# 3 62.7150 7.7963 142.9570 0.0000 0.0000 0.0000
# 4 0.0000 0.0000 0.0000 -40.6582 0.0000 0.0000
# 5 0.0000 0.0000 0.0000 0.0000 6.3390 0.0000
# 6 0.0000 0.0000 0.0000 0.0000 0.0000 41.0813
#
#
#
# Elastic Compliance Matrix: (Units=1/GPa)
#
#
# Indices 1 2 3 4 5 6 
#
# 1 0.007309 -0.004261 -0.002974 0.000000 0.000000 0.000000
# 2 -0.004261 0.021935 0.000673 0.000000 0.000000 0.000000
# 3 -0.002974 0.000673 0.008263 0.000000 0.000000 0.000000
# 4 0.000000 0.000000 0.000000 -0.024595 0.000000 0.000000
# 5 0.000000 0.000000 0.000000 0.000000 0.157754 0.000000
# 6 0.000000 0.000000 0.000000 0.000000 0.000000 0.024342
#
#
# Mechanical properties :
#
#
# Convention : Reuss Voigt Hill
#
# Bulk Modulus (GPa) = 41.01238 64.93379 52.97308
# Shear Modulus (GPa) = 23.12020 19.53159 21.32589
#
# Velocity S-wave (km/s) = 3.22230 2.96169 3.09474
# Velocity P-wave (km/s) = 5.68004 6.39195 6.04648
#
# Compressibility (1/GPa) = 0.02438288
#
# Stress axis : x y z
#
# Youngs Moduli (GPa) = 136.81048 45.58880 121.01880
#
# Poissons Ratio (x) = 0.19428 0.35994
# Poissons Ratio (y) = 0.58302 -0.08148
# Poissons Ratio (z) = 0.40690 -0.03069
#
# Static dielectric constant tensor:
#      x y z
#    x 1.801220 0.000000 0.000000 
#    y 0.000000 1.908590 0.000000 
#    z 0.000000 0.000000 1.790860 
# 
# From -- ./inp_files/18914.got.cif
#   From: 2010.05.17/outbox.cif.g08.bks.cpg/sg37_10_cif.got.tgz:18914.got - 2010.06.03 17:53:42.
