data_PCOD9353494
_publ_section_title
;
Structure prediction by ZEFSAII (Michael W. Deem and Ramdas Pophale) SiO2 
 PCOD9353494
Probable space group: C C C 2
;
_chemical_formula_sum "Si O2"
_cell_formula_units_Z 52
_cell_length_a 14.887835
_cell_length_b 9.772452
_cell_length_c 19.177772
_cell_angle_alpha 90.000000
_cell_angle_beta 90.000000
_cell_angle_gamma 90.000000
_cell_volume 2790.186570
_symmetry_space_group_name_H-M "C C C 2"
_symmetry_group_IT_number 37
_symmetry_cell_setting 'orthorhombic'
loop_
_space_group_symop_operation_xyz
x,y,z
-x,-y,z
-x,y,1/2+z
x,-y,1/2+z
1/2+x,1/2+y,z
1/2-x,1/2-y,z
1/2-x,1/2+y,1/2+z
1/2+x,1/2-y,1/2+z
loop_
_atom_site_type_symbol
_atom_site_label
_atom_site_fract_x
_atom_site_fract_y
_atom_site_fract_z
Si Si1 0.318539 0.471277 0.274120
Si Si2 0.971736 0.340554 0.452097
Si Si3 0.500000 0.000000 0.717028
Si Si4 0.647484 0.931120 0.830193
Si Si5 0.939471 0.735005 0.111178
Si Si6 0.750000 0.250000 0.671626
Si Si7 0.500000 0.500000 0.687748
Si Si8 0.651751 0.758875 0.390109
O O1 0.250948 0.584935 0.305415
O O2 0.257098 0.383052 0.220726
O O3 0.410061 0.513727 0.235171
O O4 0.346442 0.360479 0.332717
O O5 0.893355 0.338632 0.392907
O O6 0.950063 0.301275 0.530812
O O7 0.000000 0.500000 0.452606
O O8 0.059205 0.252098 0.431659
O O9 0.424424 0.066877 0.767241
O O10 0.536231 0.115499 0.665390
O O11 0.647764 0.089966 0.856302
O O12 0.835597 0.759159 0.124128
O O13 0.991134 0.868189 0.138521
O O14 0.750000 0.750000 0.426902
#
# Coordination Sequence:
#
# PCOD9353494 Si02
#       8
#     8   8   4   8   8   4   4   8
#     4  10  17  36  58  91 110 161 198 252 296 367
#     4  10  20  35  57  93 123 149 198 259 302 348
#     4  12  18  34  68  94 108 146 208 260 292 336
#     4  10  17  31  61  92 117 141 202 263 295 339
#     4  11  23  40  60  89 120 168 195 249 298 373
#     4  10  18  34  64  80 116 156 212 222 306 380
#     4  10  24  38  60  84 136 160 202 236 316 372
#     4   9  16  31  58  86 116 153 197 239 302 364
#
# _framework density 18.636745999999999
#
# number of rings (size 3 to 8) (size 9 to 14) (size 15 to 20)
#    0.000    1.846    6.923    0.923    0.000    0.000 
#    0.000   13.846    0.000    0.000    0.000    0.000 
#    0.000    0.000    0.000    0.000    0.000    0.000 
#
# Total GULP energy -144842.073226 kJ/mol
# GULP energy per Si atom -5570.848970 kJ/mol
# Density = 1.859433 g / cm^3
# Si number density = 18.636746 Si / 1000 Ang^3
#
#
#
# Elastic Constant Matrix: (Units=GPa)
#
#
# Indices 1 2 3 4 5 6 
#
# 1 99.0720 14.8590 61.0627 0.0000 0.0000 0.0000
# 2 14.8590 36.5464 17.3560 0.0000 0.0000 0.0000
# 3 61.0627 17.3560 123.0316 0.0000 0.0000 0.0000
# 4 0.0000 0.0000 0.0000 26.5648 0.0000 0.0000
# 5 0.0000 0.0000 0.0000 0.0000 15.9937 0.0000
# 6 0.0000 0.0000 0.0000 0.0000 0.0000 24.5326
#
#
#
# Elastic Compliance Matrix: (Units=1/GPa)
#
#
# Indices 1 2 3 4 5 6 
#
# 1 0.014788 -0.002708 -0.006958 0.000000 0.000000 0.000000
# 2 -0.002708 0.029823 -0.002863 0.000000 0.000000 0.000000
# 3 -0.006958 -0.002863 0.011985 0.000000 0.000000 0.000000
# 4 0.000000 0.000000 0.000000 0.037644 0.000000 0.000000
# 5 0.000000 0.000000 0.000000 0.000000 0.062525 0.000000
# 6 0.000000 0.000000 0.000000 0.000000 0.000000 0.040762
#
#
# Mechanical properties :
#
#
# Convention : Reuss Voigt Hill
#
# Bulk Modulus (GPa) = 31.70709 49.46727 40.58718
# Shear Modulus (GPa) = 21.45023 24.44302 22.94663
#
# Velocity S-wave (km/s) = 3.39627 3.62546 3.51273
# Velocity P-wave (km/s) = 5.69470 6.64272 6.18690
#
# Compressibility (1/GPa) = 0.03153868
#
# Stress axis : x y z
#
# Youngs Moduli (GPa) = 67.62175 33.53091 83.43749
#
# Poissons Ratio (x) = 0.09081 0.58052
# Poissons Ratio (y) = 0.18315 0.23888
# Poissons Ratio (z) = 0.47048 0.09600
#
# Static dielectric constant tensor:
#      x y z
#    x 1.686640 0.000000 0.000000 
#    y 0.000000 1.675030 0.000000 
#    z 0.000000 0.000000 1.682450 
# 
# From -- ./inp_files/17172.got.cif
#   From: 2010.05.17/outbox.cif.g08.bks.cpg/sg37_9_cif.got.tgz:17172.got - 2010.06.03 17:53:42.
