data_PCOD9353693
_publ_section_title
;
Structure prediction by ZEFSAII (Michael W. Deem and Ramdas Pophale) SiO2 
 PCOD9353693
Probable space group: C C C 2
;
_chemical_formula_sum "Si O2"
_cell_formula_units_Z 32
_cell_length_a 15.853524
_cell_length_b 7.003814
_cell_length_c 10.993641
_cell_angle_alpha 90.000000
_cell_angle_beta 90.000000
_cell_angle_gamma 90.000000
_cell_volume 1220.680394
_symmetry_space_group_name_H-M "C C C 2"
_symmetry_group_IT_number 37
_symmetry_cell_setting 'orthorhombic'
loop_
_space_group_symop_operation_xyz
x,y,z
-x,-y,z
-x,y,1/2+z
x,-y,1/2+z
1/2+x,1/2+y,z
1/2-x,1/2-y,z
1/2-x,1/2+y,1/2+z
1/2+x,1/2-y,1/2+z
loop_
_atom_site_type_symbol
_atom_site_label
_atom_site_fract_x
_atom_site_fract_y
_atom_site_fract_z
Si Si1 0.157861 0.660832 0.055990
Si Si2 0.839534 0.719818 0.921022
Si Si3 0.521239 0.771985 0.389584
Si Si4 0.841924 0.705204 0.197701
O O1 0.250000 0.750000 0.066673
O O2 0.142724 0.520342 0.169895
O O3 0.162815 0.507333 0.945614
O O4 0.074802 0.775041 0.012584
O O5 0.750000 0.750000 0.858496
O O6 0.926418 0.804326 0.872853
O O7 0.837771 0.795415 0.061827
O O8 0.581288 0.725839 0.277658
O O9 0.500000 0.000000 0.397852
O O10 0.750000 0.750000 0.251142
#
# Coordination Sequence:
#
# PCOD9353693 Si02
#       4
#     8   8   8   8
#     4   9  18  34  56  85 109 141 180 228 275 321
#     4   8  18  36  57  82 108 144 183 229 268 319
#     4  10  19  31  60  83 104 145 192 219 266 333
#     4   9  19  35  57  82 111 144 184 228 269 325
#
# _framework density 26.214887000000001
#
# number of rings (size 3 to 8) (size 9 to 14) (size 15 to 20)
#    1.500    1.500    0.000    0.750    3.500    0.000 
#    0.000    7.500    0.000    6.000    0.000    0.000 
#    0.000    0.000    0.000    0.000    0.000    0.000 
#
# Total GULP energy -89183.434781 kJ/mol
# GULP energy per Si atom -5573.964674 kJ/mol
# Density = 2.615522 g / cm^3
# Si number density = 26.214887 Si / 1000 Ang^3
#
#
#
# Elastic Constant Matrix: (Units=GPa)
#
#
# Indices 1 2 3 4 5 6 
#
# 1 304.3835 21.2858 83.3215 0.0000 0.0000 0.0000
# 2 21.2858 61.2674 13.0646 0.0000 0.0000 0.0000
# 3 83.3215 13.0646 97.2342 0.0000 0.0000 0.0000
# 4 0.0000 0.0000 0.0000 19.8632 0.0000 0.0000
# 5 0.0000 0.0000 0.0000 0.0000 38.3974 0.0000
# 6 0.0000 0.0000 0.0000 0.0000 0.0000 29.5629
#
#
#
# Elastic Compliance Matrix: (Units=1/GPa)
#
#
# Indices 1 2 3 4 5 6 
#
# 1 0.004324 -0.000733 -0.003607 0.000000 0.000000 0.000000
# 2 -0.000733 0.016928 -0.001646 0.000000 0.000000 0.000000
# 3 -0.003607 -0.001646 0.013596 0.000000 0.000000 0.000000
# 4 0.000000 0.000000 0.000000 0.050344 0.000000 0.000000
# 5 0.000000 0.000000 0.000000 0.000000 0.026043 0.000000
# 6 0.000000 0.000000 0.000000 0.000000 0.000000 0.033826
#
#
# Mechanical properties :
#
#
# Convention : Reuss Voigt Hill
#
# Bulk Modulus (GPa) = 43.71444 77.58098 60.64771
# Shear Modulus (GPa) = 30.36575 40.57890 35.47232
#
# Velocity S-wave (km/s) = 3.40713 3.93865 3.68249
# Velocity P-wave (km/s) = 5.67360 7.09524 6.42387
#
# Compressibility (1/GPa) = 0.02287573
#
# Stress axis : x y z
#
# Youngs Moduli (GPa) = 231.27304 59.07495 73.54954
#
# Poissons Ratio (x) = 0.04331 0.26527
# Poissons Ratio (y) = 0.16955 0.12108
# Poissons Ratio (z) = 0.83413 0.09725
#
# Static dielectric constant tensor:
#      x y z
#    x 2.150350 0.000000 0.000000 
#    y 0.000000 2.245360 0.000000 
#    z 0.000000 0.000000 2.150370 
# 
# From -- ./inp_files/6820.got.cif
#   From: 2010.05.17/outbox.cif.g08.bks.cpg/sg37_4_cif.got.tgz:6820.got - 2010.06.03 17:53:42.
