data_PCOD9353263
_publ_section_title
;
Structure prediction by ZEFSAII (Michael W. Deem and Ramdas Pophale) SiO2 
 PCOD9353263
Probable space group: C M C 21
;
_chemical_formula_sum "Si O2"
_cell_formula_units_Z 40
_cell_length_a 21.830252
_cell_length_b 9.607687
_cell_length_c 8.327339
_cell_angle_alpha 90.000000
_cell_angle_beta 90.000000
_cell_angle_gamma 90.000000
_cell_volume 1746.561329
_symmetry_space_group_name_H-M "C M C 21"
_symmetry_group_IT_number 36
_symmetry_cell_setting 'orthorhombic'
loop_
_space_group_symop_operation_xyz
x,y,z
-x,-y,1/2+z
x,-y,1/2+z
-x,y,z
1/2+x,1/2+y,z
1/2-x,1/2-y,1/2+z
1/2+x,1/2-y,1/2+z
1/2-x,1/2+y,z
loop_
_atom_site_type_symbol
_atom_site_label
_atom_site_fract_x
_atom_site_fract_y
_atom_site_fract_z
Si Si1 0.369222 0.197941 0.370090
Si Si2 0.500000 0.321809 0.370858
Si Si3 0.000000 0.138627 0.487407
Si Si4 0.817686 0.951755 0.181869
Si Si5 0.175997 0.544313 0.684459
Si Si6 0.868061 0.807236 0.865015
O O1 0.438209 0.240101 0.412201
O O2 0.333373 0.335919 0.315815
O O3 0.338265 0.118001 0.516715
O O4 0.364916 0.090145 0.221699
O O5 0.500000 0.473998 0.449503
O O6 0.500000 0.341547 0.178213
O O7 0.061158 0.202967 0.411994
O O8 0.747208 0.995286 0.190378
O O9 0.859589 0.085083 0.217663
O O10 0.833579 0.880208 0.013464
O O11 0.161333 0.661743 0.816944
#
# Coordination Sequence:
#
# PCOD9353263 Si02
#       6
#     8   4   4   8   8   8
#     4  12  27  47  71 103 144 192 236 295 360 423
#     4  12  28  49  77 100 144 182 248 292 360 429
#     4  12  24  49  73 104 138 178 242 298 338 431
#     4  12  23  46  71 107 142 188 239 291 354 432
#     4  12  27  45  70 105 148 184 236 295 360 429
#     4  12  25  43  77 103 139 191 235 297 358 416
#
# _framework density 22.902144
#
# number of rings (size 3 to 8) (size 9 to 14) (size 15 to 20)
#    0.000    0.000    4.000    6.000    2.800    1.600 
#    0.000    0.000    0.000    0.000    0.000    0.000 
#    0.000    0.000    0.000    0.000    0.000    0.000 
#
# Total GULP energy -112210.533661 kJ/mol
# GULP energy per Si atom -5610.526683 kJ/mol
# Density = 2.285002 g / cm^3
# Si number density = 22.902144 Si / 1000 Ang^3
#
#
#
# Elastic Constant Matrix: (Units=GPa)
#
#
# Indices 1 2 3 4 5 6 
#
# 1 106.3575 0.0213 7.7095 0.0000 0.0000 0.0000
# 2 0.0213 58.7407 5.9850 0.0000 0.0000 0.0000
# 3 7.7095 5.9850 62.3053 0.0000 0.0000 0.0000
# 4 0.0000 0.0000 0.0000 37.0271 0.0000 0.0000
# 5 0.0000 0.0000 0.0000 0.0000 34.0313 0.0000
# 6 0.0000 0.0000 0.0000 0.0000 0.0000 10.0239
#
#
#
# Elastic Compliance Matrix: (Units=1/GPa)
#
#
# Indices 1 2 3 4 5 6 
#
# 1 0.009488 0.000117 -0.001185 0.000000 0.000000 0.000000
# 2 0.000117 0.017194 -0.001666 0.000000 0.000000 0.000000
# 3 -0.001185 -0.001666 0.016357 0.000000 0.000000 0.000000
# 4 0.000000 0.000000 0.000000 0.027007 0.000000 0.000000
# 5 0.000000 0.000000 0.000000 0.000000 0.029385 0.000000
# 6 0.000000 0.000000 0.000000 0.000000 0.000000 0.099762
#
#
# Mechanical properties :
#
#
# Convention : Reuss Voigt Hill
#
# Bulk Modulus (GPa) = 26.61675 28.31501 27.46588
# Shear Modulus (GPa) = 23.02195 30.46230 26.74213
#
# Velocity S-wave (km/s) = 3.17398 3.65102 3.42082
# Velocity P-wave (km/s) = 5.00793 5.49214 5.25561
#
# Compressibility (1/GPa) = 0.03757032
#
# Stress axis : x y z
#
# Youngs Moduli (GPa) = 105.39468 58.16087 61.13703
#
# Poissons Ratio (x) = -0.00682 0.07247
# Poissons Ratio (y) = -0.01237 0.10186
# Poissons Ratio (z) = 0.12492 0.09690
#
# Static dielectric constant tensor:
#      x y z
#    x 1.782460 0.000000 0.000000 
#    y 0.000000 1.817310 0.000000 
#    z 0.000000 0.000000 1.918530 
# 
# From -- ./inp_files/5489.got.cif
#   From: 2010.05.17/outbox.cif.g08.bks.cpg/sg36_3_cif.got.tgz:5489.got - 2010.06.03 17:41:39.
