data_PCOD9353173
_publ_section_title
;
Structure prediction by ZEFSAII (Michael W. Deem and Ramdas Pophale) SiO2 
 PCOD9353173
Probable space group: C M C 21
;
_chemical_formula_sum "Si O2"
_cell_formula_units_Z 40
_cell_length_a 24.592285
_cell_length_b 5.179784
_cell_length_c 13.552356
_cell_angle_alpha 90.000000
_cell_angle_beta 90.000000
_cell_angle_gamma 90.000000
_cell_volume 1726.336029
_symmetry_space_group_name_H-M "C M C 21"
_symmetry_group_IT_number 36
_symmetry_cell_setting 'orthorhombic'
loop_
_space_group_symop_operation_xyz
x,y,z
-x,-y,1/2+z
x,-y,1/2+z
-x,y,z
1/2+x,1/2+y,z
1/2-x,1/2-y,1/2+z
1/2+x,1/2-y,1/2+z
1/2-x,1/2+y,z
loop_
_atom_site_type_symbol
_atom_site_label
_atom_site_fract_x
_atom_site_fract_y
_atom_site_fract_z
Si Si1 0.121809 0.077577 0.467800
Si Si2 0.842545 0.788708 0.754157
Si Si3 0.000000 0.501035 0.255257
Si Si4 0.000000 0.996223 0.389156
Si Si5 0.716397 0.688352 0.061725
Si Si6 0.891328 0.705953 0.172513
O O1 0.152882 0.171645 0.370284
O O2 0.123286 0.275697 0.558529
O O3 0.057853 0.026139 0.445835
O O4 0.157771 0.841976 0.509898
O O5 0.792949 0.844732 0.680099
O O6 0.853140 0.488686 0.731732
O O7 0.886519 0.004043 0.715179
O O8 0.051382 0.571659 0.189542
O O9 0.000000 0.220271 0.304991
O O10 0.000000 0.711266 0.343091
O O11 0.753907 0.448470 0.033528
#
# Coordination Sequence:
#
# PCOD9353173 Si02
#       6
#     8   8   4   4   8   8
#     4  11  25  46  75 108 147 199 245 305 376 450
#     4  11  24  44  70 100 143 188 242 313 363 430
#     4  12  21  42  65 100 150 196 237 304 361 442
#     4  12  25  42  71 110 150 196 245 296 383 448
#     4  11  26  47  72 106 140 187 247 301 361 432
#     4  11  23  41  66 100 144 188 244 297 363 435
#
# _framework density 23.170462000000001
#
# number of rings (size 3 to 8) (size 9 to 14) (size 15 to 20)
#    0.000    0.800    4.000    3.000    0.000   11.200 
#    0.000    3.000    0.000    0.000    0.000    0.000 
#    0.000    0.000    0.000    0.000    0.000    0.000 
#
# Total GULP energy -111710.174547 kJ/mol
# GULP energy per Si atom -5585.508727 kJ/mol
# Density = 2.311773 g / cm^3
# Si number density = 23.170462 Si / 1000 Ang^3
#
#
#
# Elastic Constant Matrix: (Units=GPa)
#
#
# Indices 1 2 3 4 5 6 
#
# 1 -275.0735 -112.4109 -133.4181 0.0000 0.0000 0.0000
# 2 -112.4109 35.0969 -36.0038 0.0000 0.0000 0.0000
# 3 -133.4181 -36.0038 84.4582 0.0000 0.0000 0.0000
# 4 0.0000 0.0000 0.0000 15.8730 0.0000 0.0000
# 5 0.0000 0.0000 0.0000 0.0000 35.4730 0.0000
# 6 0.0000 0.0000 0.0000 0.0000 0.0000 -31.1774
#
#
#
# Elastic Compliance Matrix: (Units=1/GPa)
#
#
# Indices 1 2 3 4 5 6 
#
# 1 -0.000516 -0.004426 -0.002702 0.000000 0.000000 0.000000
# 2 -0.004426 0.012701 -0.001577 0.000000 0.000000 0.000000
# 3 -0.002702 -0.001577 0.006900 0.000000 0.000000 0.000000
# 4 0.000000 0.000000 0.000000 0.063000 0.000000 0.000000
# 5 0.000000 0.000000 0.000000 0.000000 0.028190 0.000000
# 6 0.000000 0.000000 0.000000 0.000000 0.000000 -0.032074
#
#
# Mechanical properties :
#
#
# Convention : Reuss Voigt Hill
#
# Bulk Modulus (GPa) = 596.90593 -79.90933 258.49830
# Shear Modulus (GPa) = 51.99272 12.45465 32.22369
#
# Velocity S-wave (km/s) = 4.74215 2.32097 3.73329
# Velocity P-wave (km/s) = 16.97522 5.23258 11.41881
#
# Compressibility (1/GPa) = 0.00167531
#
# Stress axis : x y z
#
# Youngs Moduli (GPa) = -1936.94269 78.73551 144.93753
#
# Poissons Ratio (x) = 0.34844 0.39164
# Poissons Ratio (y) = -8.57195 0.22853
# Poissons Ratio (z) = -5.23384 0.12414
#
# Static dielectric constant tensor:
#      x y z
#    x 1.945370 0.000000 0.000000 
#    y 0.000000 1.865990 0.000000 
#    z 0.000000 0.000000 1.875760 
# 
# From -- ./inp_files/9569.got.cif
#   From: 2010.05.17/outbox.cif.g08.bks.cpg/sg36_5_cif.got.tgz:9569.got - 2010.06.03 17:41:39.
