data_PCOD9353376
_publ_section_title
;
Structure prediction by ZEFSAII (Michael W. Deem and Ramdas Pophale) SiO2 
 PCOD9353376
Probable space group: C M C 21
;
_chemical_formula_sum "Si O2"
_cell_formula_units_Z 24
_cell_length_a 9.000000
_cell_length_b 18.000000
_cell_length_c 15.000000
_cell_angle_alpha 90.000000
_cell_angle_beta 90.000000
_cell_angle_gamma 90.000000
_cell_volume 2430.000000
_symmetry_space_group_name_H-M "C M C 21"
_symmetry_group_IT_number 36
_symmetry_cell_setting 'orthorhombic'
loop_
_space_group_symop_operation_xyz
x,y,z
-x,-y,1/2+z
x,-y,1/2+z
-x,y,z
1/2+x,1/2+y,z
1/2-x,1/2-y,1/2+z
1/2+x,1/2-y,1/2+z
1/2-x,1/2+y,z
loop_
_atom_site_type_symbol
_atom_site_label
_atom_site_fract_x
_atom_site_fract_y
_atom_site_fract_z
Si Si1 0.167467 0.584237 0.784360
Si Si2 0.828138 0.825813 0.641628
Si Si3 0.329610 0.914255 0.493039
Si Si4 0.330879 0.432244 0.979072
Si Si5 0.166280 0.176590 0.645602
Si Si6 0.172439 0.408194 0.801663
O O1 0.176301 0.603927 0.888474
O O2 0.291108 0.625650 0.728735
O O3 0.185529 0.495561 0.778321
O O4 0.000000 0.602533 0.752542
O O5 0.776383 0.863302 0.550426
O O6 0.787404 0.740068 0.638076
O O7 0.731973 0.861470 0.720125
O O8 0.000000 0.839401 0.658565
O O9 0.500000 0.906950 0.523533
O O10 0.275187 0.998855 0.501535
O O11 0.500000 0.459431 0.965909
O O12 0.270666 0.395767 0.889022
O O13 0.329979 0.374449 0.058766
O O14 0.000000 0.208305 0.654456
O O15 0.000000 0.393256 0.820818
#
# Coordination Sequence:
#
# PCOD9353376 Si02
#       6
#     8   8   8   8   8   8
#     4   9  20  38  61  87 114 148 188 233 283 337
#     4  12  25  39  58  84 116 154 194 239 289 344
#     4  10  21  39  62  87 117 152 192 238 288 341
#     4  10  21  38  61  89 118 150 193 240 285 337
#     4  11  24  39  57  83 117 155 191 234 287 342
#     4  10  21  39  63  88 116 151 190 236 290 345
#
# _framework density 9.8765429999999999
#
# number of rings (size 3 to 8) (size 9 to 14) (size 15 to 20)
#    0.000    1.667    0.000    5.500    0.000   10.667 
#    0.000    1.667    0.000    0.000    0.000    0.000 
#    0.000    0.000    0.000    0.000    0.000    0.000 
#
# Total GULP energy -134068.903161 kJ/mol
# GULP energy per Si atom -5586.204298 kJ/mol
# Density = 0.985406 g / cm^3
# Si number density = 9.876543 Si / 1000 Ang^3
#
#
#
# Elastic Constant Matrix: (Units=GPa)
#
#
# Indices 1 2 3 4 5 6 
#
# 1 14.4017 11.5577 14.8182 0.0000 0.0000 0.0000
# 2 11.5577 14.1138 44.9889 0.0000 0.0000 0.0000
# 3 14.8182 44.9889 39.8026 0.0000 0.0000 0.0000
# 4 0.0000 0.0000 0.0000 47.3951 0.0000 0.0000
# 5 0.0000 0.0000 0.0000 0.0000 44.4847 0.0000
# 6 0.0000 0.0000 0.0000 0.0000 0.0000 31.4590
#
#
#
# Elastic Compliance Matrix: (Units=1/GPa)
#
#
# Indices 1 2 3 4 5 6 
#
# 1 0.103966 -0.014691 -0.022100 0.000000 0.000000 0.000000
# 2 -0.014691 -0.025144 0.033890 0.000000 0.000000 0.000000
# 3 -0.022100 0.033890 -0.004954 0.000000 0.000000 0.000000
# 4 0.000000 0.000000 0.000000 0.021099 0.000000 0.000000
# 5 0.000000 0.000000 0.000000 0.000000 0.022480 0.000000
# 6 0.000000 0.000000 0.000000 0.000000 0.000000 0.031787
#
#
# Mechanical properties :
#
#
# Convention : Reuss Voigt Hill
#
# Bulk Modulus (GPa) = 14.69193 23.44973 19.07083
# Shear Modulus (GPa) = 28.13356 24.46465 26.29911
#
# Velocity S-wave (km/s) = 3.77803 3.52308 3.65278
# Velocity P-wave (km/s) = 5.14639 5.33354 5.24080
#
# Compressibility (1/GPa) = 0.06806458
#
# Stress axis : x y z
#
# Youngs Moduli (GPa) = 9.61855 -39.77022 -201.83871
#
# Poissons Ratio (x) = -0.58428 -4.46064
# Poissons Ratio (y) = 0.14131 6.84036
# Poissons Ratio (z) = 0.21257 1.34782
#
# Static dielectric constant tensor:
#      x y z
#    x 1.671580 0.000000 0.000000 
#    y 0.000000 1.673530 0.000000 
#    z 0.000000 0.000000 1.686160 
# 
# From -- ./inp_files/10384.got.cif
#   From: 2010.05.17/outbox.ucp.g08.bks.cvg/sg36_6_cif.got.tgz:10384.got - 2010.06.11 10:37:26.
