data_PCOD9353233
_publ_section_title
;
Structure prediction by ZEFSAII (Michael W. Deem and Ramdas Pophale) SiO2 
 PCOD9353233
Probable space group: C M C 21
;
_chemical_formula_sum "Si O2"
_cell_formula_units_Z 48
_cell_length_a 18.728013
_cell_length_b 9.204097
_cell_length_c 13.785556
_cell_angle_alpha 90.000000
_cell_angle_beta 90.000000
_cell_angle_gamma 90.000000
_cell_volume 2376.277610
_symmetry_space_group_name_H-M "C M C 21"
_symmetry_group_IT_number 36
_symmetry_cell_setting 'orthorhombic'
loop_
_space_group_symop_operation_xyz
x,y,z
-x,-y,1/2+z
x,-y,1/2+z
-x,y,z
1/2+x,1/2+y,z
1/2-x,1/2-y,1/2+z
1/2+x,1/2-y,1/2+z
1/2-x,1/2+y,z
loop_
_atom_site_type_symbol
_atom_site_label
_atom_site_fract_x
_atom_site_fract_y
_atom_site_fract_z
Si Si1 0.083453 0.373050 0.399400
Si Si2 0.828778 0.802580 0.257497
Si Si3 0.414953 0.365366 0.065789
Si Si4 0.181327 0.101879 0.970736
Si Si5 0.826743 0.431795 0.014539
Si Si6 0.818332 0.465986 0.233237
O O1 0.101646 0.251471 0.480207
O O2 0.105925 0.524464 0.449382
O O3 0.130991 0.371306 0.302810
O O4 0.000000 0.364552 0.377545
O O5 0.885378 0.818859 0.170922
O O6 0.846517 0.875217 0.360969
O O7 0.812550 0.631429 0.271072
O O8 0.757455 0.886995 0.226387
O O9 0.500000 0.382376 0.069273
O O10 0.374153 0.510428 0.033566
O O11 0.191199 0.262868 0.011904
O O12 0.257740 0.020682 0.975975
O O13 0.845162 0.476032 0.123678
#
# Coordination Sequence:
#
# PCOD9353233 Si02
#       6
#     8   8   8   8   8   8
#     4  11  25  45  67  98 140 179 223 283 350 408
#     4  12  24  42  72 100 135 177 233 283 346 414
#     4  11  27  47  67  99 143 183 225 291 354 406
#     4  12  24  42  71 102 134 181 228 285 335 416
#     4  12  23  43  69 101 135 174 231 279 340 402
#     4  12  25  41  72 104 129 182 230 285 339 416
#
# _framework density 20.199660999999999
#
# number of rings (size 3 to 8) (size 9 to 14) (size 15 to 20)
#    0.000    0.333    6.667    2.000    2.333    2.667 
#    0.000    1.667    0.000    0.000    0.000    0.000 
#    0.000    0.000    0.000    0.000    0.000    0.000 
#
# Total GULP energy -134174.264283 kJ/mol
# GULP energy per Si atom -5590.594345 kJ/mol
# Density = 2.015369 g / cm^3
# Si number density = 20.199661 Si / 1000 Ang^3
#
#
#
# Elastic Constant Matrix: (Units=GPa)
#
#
# Indices 1 2 3 4 5 6 
#
# 1 78.9083 27.2286 26.3832 0.0000 0.0000 0.0000
# 2 27.2286 115.5366 14.4602 0.0000 0.0000 0.0000
# 3 26.3832 14.4602 115.9386 0.0000 0.0000 0.0000
# 4 0.0000 0.0000 0.0000 35.2867 0.0000 0.0000
# 5 0.0000 0.0000 0.0000 0.0000 38.7792 0.0000
# 6 0.0000 0.0000 0.0000 0.0000 0.0000 21.5928
#
#
#
# Elastic Compliance Matrix: (Units=1/GPa)
#
#
# Indices 1 2 3 4 5 6 
#
# 1 0.014735 -0.003101 -0.002966 0.000000 0.000000 0.000000
# 2 -0.003101 0.009445 -0.000472 0.000000 0.000000 0.000000
# 3 -0.002966 -0.000472 0.009359 0.000000 0.000000 0.000000
# 4 0.000000 0.000000 0.000000 0.028339 0.000000 0.000000
# 5 0.000000 0.000000 0.000000 0.000000 0.025787 0.000000
# 6 0.000000 0.000000 0.000000 0.000000 0.000000 0.046312
#
#
# Mechanical properties :
#
#
# Convention : Reuss Voigt Hill
#
# Bulk Modulus (GPa) = 48.87704 49.61416 49.24560
# Shear Modulus (GPa) = 32.49347 35.28583 33.88965
#
# Velocity S-wave (km/s) = 4.01510 4.18407 4.10046
# Velocity P-wave (km/s) = 6.76345 6.92511 6.84476
#
# Compressibility (1/GPa) = 0.02045950
#
# Stress axis : x y z
#
# Youngs Moduli (GPa) = 67.86610 105.87304 106.84704
#
# Poissons Ratio (x) = 0.32835 0.31694
# Poissons Ratio (y) = 0.21048 0.05046
# Poissons Ratio (z) = 0.20131 0.05000
#
# Static dielectric constant tensor:
#      x y z
#    x 1.670920 0.000000 0.000000 
#    y 0.000000 1.710230 0.000000 
#    z 0.000000 0.000000 1.801370 
# 
# From -- ./inp_files/12487.got.cif
#   From: 2010.05.17/outbox.cif.g08.bks.cpg/sg36_7_cif.got.tgz:12487.got - 2010.06.03 17:41:39.
