data_PCOD9353051
_publ_section_title
;
Structure prediction by ZEFSAII (Michael W. Deem and Ramdas Pophale) SiO2 
 PCOD9353051
Probable space group: C M C 21
;
_chemical_formula_sum "Si O2"
_cell_formula_units_Z 40
_cell_length_a 14.219933
_cell_length_b 5.407685
_cell_length_c 20.313012
_cell_angle_alpha 90.000000
_cell_angle_beta 90.000000
_cell_angle_gamma 90.000000
_cell_volume 1562.008026
_symmetry_space_group_name_H-M "C M C 21"
_symmetry_group_IT_number 36
_symmetry_cell_setting 'orthorhombic'
loop_
_space_group_symop_operation_xyz
x,y,z
-x,-y,1/2+z
x,-y,1/2+z
-x,y,z
1/2+x,1/2+y,z
1/2-x,1/2-y,1/2+z
1/2+x,1/2-y,1/2+z
1/2-x,1/2+y,z
loop_
_atom_site_type_symbol
_atom_site_label
_atom_site_fract_x
_atom_site_fract_y
_atom_site_fract_z
Si Si1 0.000000 0.176771 0.382970
Si Si2 0.500000 0.471755 0.253800
Si Si3 0.000000 0.909325 0.604086
Si Si4 0.500000 0.068859 0.495313
Si Si5 0.296815 0.445962 0.062784
Si Si6 0.829930 0.144059 0.927730
Si Si7 0.800581 0.722793 0.284087
O O1 0.000000 0.208479 0.304182
O O2 0.000000 0.333351 0.449423
O O3 0.903521 0.033432 0.390715
O O4 0.500000 0.579968 0.181412
O O5 0.406728 0.302472 0.264976
O O6 0.000000 0.633022 0.572412
O O7 0.906820 0.046276 0.577906
O O8 0.595750 0.195994 0.470352
O O9 0.249025 0.695950 0.088632
O O10 0.280830 0.470375 0.983135
O O11 0.791221 0.292519 0.864634
O O12 0.764830 0.453572 0.261164
#
# Coordination Sequence:
#
# PCOD9353051 Si02
#       7
#     4   4   4   4   8   8   8
#     4   9  19  36  69 100 141 186 244 298 365 440
#     4  10  25  48  70 101 144 195 243 302 368 433
#     4  10  25  48  70 101 144 195 243 302 368 433
#     4   9  19  36  69 100 141 186 244 298 365 440
#     4  11  25  43  71 105 140 184 236 291 357 432
#     4   9  20  36  62 103 140 180 224 299 360 425
#     4  11  25  43  71 105 140 184 236 291 357 432
#
# _framework density 25.608063000000001
#
# number of rings (size 3 to 8) (size 9 to 14) (size 15 to 20)
#    0.000    2.000    0.000    2.400   11.200    3.200 
#    0.000    2.000    0.000    0.000    0.000    0.000 
#    0.000    0.000    0.000    0.000    0.000    0.000 
#
# Total GULP energy -111668.534607 kJ/mol
# GULP energy per Si atom -5583.426730 kJ/mol
# Density = 2.554978 g / cm^3
# Si number density = 25.608063 Si / 1000 Ang^3
#
#
#
# Elastic Constant Matrix: (Units=GPa)
#
#
# Indices 1 2 3 4 5 6 
#
# 1 168.5493 22.1317 4.1969 0.0000 0.0000 0.0000
# 2 22.1317 62.5190 4.0289 0.0000 0.0000 0.0000
# 3 4.1969 4.0289 82.3171 0.0000 0.0000 0.0000
# 4 0.0000 0.0000 0.0000 15.8642 0.0000 0.0000
# 5 0.0000 0.0000 0.0000 0.0000 13.8858 0.0000
# 6 0.0000 0.0000 0.0000 0.0000 0.0000 32.3486
#
#
#
# Elastic Compliance Matrix: (Units=1/GPa)
#
#
# Indices 1 2 3 4 5 6 
#
# 1 0.006226 -0.002190 -0.000210 0.000000 0.000000 0.000000
# 2 -0.002190 0.016816 -0.000711 0.000000 0.000000 0.000000
# 3 -0.000210 -0.000711 0.012194 0.000000 0.000000 0.000000
# 4 0.000000 0.000000 0.000000 0.063035 0.000000 0.000000
# 5 0.000000 0.000000 0.000000 0.000000 0.072016 0.000000
# 6 0.000000 0.000000 0.000000 0.000000 0.000000 0.030913
#
#
# Mechanical properties :
#
#
# Convention : Reuss Voigt Hill
#
# Bulk Modulus (GPa) = 34.46863 41.56673 38.01768
# Shear Modulus (GPa) = 23.03144 31.28825 27.15985
#
# Velocity S-wave (km/s) = 3.00222 3.49924 3.26021
# Velocity P-wave (km/s) = 5.05045 5.70906 5.38982
#
# Compressibility (1/GPa) = 0.02901189
#
# Stress axis : x y z
#
# Youngs Moduli (GPa) = 160.62110 59.46586 82.00973
#
# Poissons Ratio (x) = 0.13025 0.01724
# Poissons Ratio (y) = 0.35182 0.05834
# Poissons Ratio (z) = 0.03376 0.04230
#
# Static dielectric constant tensor:
#      x y z
#    x 1.990230 0.000000 0.000000 
#    y 0.000000 2.288480 0.000000 
#    z 0.000000 0.000000 2.085430 
# 
# From -- ./inp_files/14808.got.cif
#   From: 2010.05.17/outbox.cif.g08.bks.cpg/sg36_8_cif.got.tgz:14808.got - 2010.06.03 17:41:39.
