data_PCOD9353689
_publ_section_title
;
Structure prediction by ZEFSAII (Michael W. Deem and Ramdas Pophale) SiO2 
 PCOD9353689
Probable space group: C C C 2
;
_chemical_formula_sum "Si O2"
_cell_formula_units_Z 48
_cell_length_a 8.102119
_cell_length_b 29.275880
_cell_length_c 10.966167
_cell_angle_alpha 90.000000
_cell_angle_beta 90.000000
_cell_angle_gamma 90.000000
_cell_volume 2601.138225
_symmetry_space_group_name_H-M "C C C 2"
_symmetry_group_IT_number 37
_symmetry_cell_setting 'orthorhombic'
loop_
_space_group_symop_operation_xyz
x,y,z
-x,-y,z
-x,y,1/2+z
x,-y,1/2+z
1/2+x,1/2+y,z
1/2-x,1/2-y,z
1/2-x,1/2+y,1/2+z
1/2+x,1/2-y,1/2+z
loop_
_atom_site_type_symbol
_atom_site_label
_atom_site_fract_x
_atom_site_fract_y
_atom_site_fract_z
Si Si1 0.619308 0.870596 0.108940
Si Si2 0.619305 0.129404 0.334129
Si Si3 0.880717 0.791278 0.836008
Si Si4 0.185036 0.478170 0.839680
Si Si5 0.619282 0.291278 0.607058
Si Si6 0.814963 0.478170 0.603387
O O1 0.500002 0.859335 0.221535
O O2 0.777651 0.838131 0.115886
O O3 0.665792 0.923936 0.118487
O O4 0.546781 0.863968 0.971535
O O5 0.777649 0.161869 0.327182
O O6 0.665790 0.076064 0.324581
O O7 0.750000 0.750000 0.831608
O O8 0.999999 0.787282 0.721533
O O9 0.960586 0.789651 0.971533
O O10 0.268118 0.500000 0.721533
O O11 0.000000 0.500000 0.844238
O O12 0.262525 0.487807 0.971533
O O13 0.750000 0.250000 0.611459
O O14 0.000000 0.500000 0.598828
#
# Coordination Sequence:
#
# PCOD9353689 Si02
#       6
#     8   8   8   8   8   8
#     4  10  19  31  51  80 109 138 176 219 265 315
#     4  10  19  31  51  80 109 138 176 219 265 315
#     4  10  22  39  57  79 108 140 177 223 269 319
#     4   9  15  25  43  71 104 134 168 213 257 301
#     4  10  22  39  57  79 108 140 177 223 269 319
#     4   9  15  25  43  71 104 134 168 213 257 301
#
# _framework density 18.453458999999999
#
# number of rings (size 3 to 8) (size 9 to 14) (size 15 to 20)
#    0.000    2.333    3.333    1.000    0.000    2.000 
#    0.000    0.000    0.000    1.000    0.000    7.000 
#    0.000    0.000    0.000    0.000    0.000    0.000 
#
# Total GULP energy -133691.181884 kJ/mol
# GULP energy per Si atom -5570.465912 kJ/mol
# Density = 1.841146 g / cm^3
# Si number density = 18.453459 Si / 1000 Ang^3
#
#
#
# Elastic Constant Matrix: (Units=GPa)
#
#
# Indices 1 2 3 4 5 6 
#
# 1 26.4018 22.3987 57.4779 0.0000 0.0000 0.0000
# 2 22.3987 103.0953 24.3810 0.0000 0.0000 0.0000
# 3 57.4779 24.3810 242.0035 0.0000 0.0000 0.0000
# 4 0.0000 0.0000 0.0000 26.3368 0.0000 0.0000
# 5 0.0000 0.0000 0.0000 0.0000 30.0739 0.0000
# 6 0.0000 0.0000 0.0000 0.0000 0.0000 17.4149
#
#
#
# Elastic Compliance Matrix: (Units=1/GPa)
#
#
# Indices 1 2 3 4 5 6 
#
# 1 0.099904 -0.016487 -0.022067 0.000000 0.000000 0.000000
# 2 -0.016487 0.012657 0.002641 0.000000 0.000000 0.000000
# 3 -0.022067 0.002641 0.009107 0.000000 0.000000 0.000000
# 4 0.000000 0.000000 0.000000 0.037970 0.000000 0.000000
# 5 0.000000 0.000000 0.000000 0.000000 0.033251 0.000000
# 6 0.000000 0.000000 0.000000 0.000000 0.000000 0.057422
#
#
# Mechanical properties :
#
#
# Convention : Reuss Voigt Hill
#
# Bulk Modulus (GPa) = 20.06337 64.44623 42.25480
# Shear Modulus (GPa) = 14.76003 32.58131 23.67067
#
# Velocity S-wave (km/s) = 2.83123 4.20645 3.58540
# Velocity P-wave (km/s) = 4.64584 7.65453 6.33150
#
# Compressibility (1/GPa) = 0.04984207
#
# Stress axis : x y z
#
# Youngs Moduli (GPa) = 10.00960 79.00613 109.80244
#
# Poissons Ratio (x) = 1.30256 2.42302
# Poissons Ratio (y) = 0.16503 -0.28994
# Poissons Ratio (z) = 0.22088 -0.20862
#
# Static dielectric constant tensor:
#      x y z
#    x 1.470720 0.000000 0.000000 
#    y 0.000000 1.621280 0.000000 
#    z 0.000000 0.000000 1.717260 
# 
# From -- ./inp_files/6393.got.cif
#   From: 2010.05.17/outbox.cif.g08.bks.cpg/sg37_4_cif.got.tgz:6393.got - 2010.06.03 17:53:42.
