data_PCOD9353971
_publ_section_title
;
Structure prediction by ZEFSAII (Michael W. Deem and Ramdas Pophale) SiO2 
 PCOD9353971
Probable space group: C C C 2
;
_chemical_formula_sum "Si O2"
_cell_formula_units_Z 60
_cell_length_a 11.934213
_cell_length_b 16.697098
_cell_length_c 14.603513
_cell_angle_alpha 90.000000
_cell_angle_beta 90.000000
_cell_angle_gamma 90.000000
_cell_volume 2909.994195
_symmetry_space_group_name_H-M "C C C 2"
_symmetry_group_IT_number 37
_symmetry_cell_setting 'orthorhombic'
loop_
_space_group_symop_operation_xyz
x,y,z
-x,-y,z
-x,y,1/2+z
x,-y,1/2+z
1/2+x,1/2+y,z
1/2-x,1/2-y,z
1/2-x,1/2+y,1/2+z
1/2+x,1/2-y,1/2+z
loop_
_atom_site_type_symbol
_atom_site_label
_atom_site_fract_x
_atom_site_fract_y
_atom_site_fract_z
Si Si1 0.524569 0.140084 0.490510
Si Si2 0.000000 0.500000 0.853627
Si Si3 0.875996 0.020848 0.057023
Si Si4 0.284706 0.915303 0.796065
Si Si5 0.111144 0.961941 0.347543
Si Si6 0.245553 0.629312 0.604435
Si Si7 0.230917 0.343649 0.499145
Si Si8 0.363551 0.292834 0.930393
O O1 0.620699 0.140074 0.566675
O O2 0.397266 0.132952 0.524786
O O3 0.541209 0.225776 0.439892
O O4 0.553172 0.066695 0.421915
O O5 0.911418 0.448453 0.796415
O O6 0.783311 0.962377 0.096987
O O7 0.826510 0.109749 0.056315
O O8 0.000000 0.000000 0.093329
O O9 0.881370 0.996665 0.950285
O O10 0.253497 0.857041 0.712627
O O11 0.263427 0.871289 0.892699
O O12 0.213339 0.997539 0.796001
O O13 0.108339 0.867240 0.365015
O O14 0.000000 0.000000 0.305859
O O15 0.328266 0.674643 0.532726
O O16 0.250000 0.250000 0.507488
O O17 0.250000 0.250000 0.896857
#
# Coordination Sequence:
#
# PCOD9353971 Si02
#       8
#     8   4   8   8   8   8   8   8
#     4  10  20  35  60  85 115 148 204 249 283 345
#     4  10  20  38  56  86 110 150 200 236 290 348
#     4   9  19  35  57  80 111 152 199 232 276 345
#     4  10  21  35  55  85 117 148 181 239 301 352
#     4   9  18  33  57  81 111 152 200 231 283 348
#     4  10  20  35  58  84 115 150 190 240 294 352
#     4  10  22  35  58  85 114 149 193 247 285 341
#     4   9  18  33  58  87 111 153 201 245 279 341
#
# _framework density 20.618597999999999
#
# number of rings (size 3 to 8) (size 9 to 14) (size 15 to 20)
#    0.000    2.400    0.000    4.000    7.467    3.733 
#    0.000    0.000    0.000    2.400    0.000    0.000 
#    0.000    0.000    0.000    0.000    0.000    0.000 
#
# Total GULP energy -167173.816842 kJ/mol
# GULP energy per Si atom -5572.460561 kJ/mol
# Density = 2.057167 g / cm^3
# Si number density = 20.618598 Si / 1000 Ang^3
#
#
#
# Elastic Constant Matrix: (Units=GPa)
#
#
# Indices 1 2 3 4 5 6 
#
# 1 77.9843 31.3045 16.3406 0.0000 0.0000 0.0000
# 2 31.3045 144.4626 12.0560 0.0000 0.0000 0.0000
# 3 16.3406 12.0560 48.6089 0.0000 0.0000 0.0000
# 4 0.0000 0.0000 0.0000 6.0890 0.0000 0.0000
# 5 0.0000 0.0000 0.0000 0.0000 18.7587 0.0000
# 6 0.0000 0.0000 0.0000 0.0000 0.0000 32.2661
#
#
#
# Elastic Compliance Matrix: (Units=1/GPa)
#
#
# Indices 1 2 3 4 5 6 
#
# 1 0.014872 -0.002865 -0.004289 0.000000 0.000000 0.000000
# 2 -0.002865 0.007620 -0.000927 0.000000 0.000000 0.000000
# 3 -0.004289 -0.000927 0.022244 0.000000 0.000000 0.000000
# 4 0.000000 0.000000 0.000000 0.164232 0.000000 0.000000
# 5 0.000000 0.000000 0.000000 0.000000 0.053308 0.000000
# 6 0.000000 0.000000 0.000000 0.000000 0.000000 0.030992
#
#
# Mechanical properties :
#
#
# Convention : Reuss Voigt Hill
#
# Bulk Modulus (GPa) = 34.99562 43.38422 39.18992
# Shear Modulus (GPa) = 15.67622 25.51307 20.59465
#
# Velocity S-wave (km/s) = 2.76034 3.52146 3.16387
# Velocity P-wave (km/s) = 5.21239 6.13361 5.69167
#
# Compressibility (1/GPa) = 0.02857501
#
# Stress axis : x y z
#
# Youngs Moduli (GPa) = 67.24168 131.22767 44.95592
#
# Poissons Ratio (x) = 0.37593 0.19281
# Poissons Ratio (y) = 0.19263 0.04167
# Poissons Ratio (z) = 0.28839 0.12164
#
# Static dielectric constant tensor:
#      x y z
#    x 1.750210 0.000000 0.000000 
#    y 0.000000 1.749590 0.000000 
#    z 0.000000 0.000000 1.757280 
# 
# From -- ./inp_files/11743.got.cif
#   From: 2010.05.17/outbox.cif.g08.bks.cpg/sg37_6_cif.got.tgz:11743.got - 2010.06.03 17:53:42.
