data_PCOD9353216
_publ_section_title
;
Structure prediction by ZEFSAII (Michael W. Deem and Ramdas Pophale) SiO2 
 PCOD9353216
Probable space group: C M C 21
;
_chemical_formula_sum "Si O2"
_cell_formula_units_Z 36
_cell_length_a 7.311859
_cell_length_b 19.618223
_cell_length_c 10.150393
_cell_angle_alpha 90.000000
_cell_angle_beta 90.000000
_cell_angle_gamma 90.000000
_cell_volume 1456.030030
_symmetry_space_group_name_H-M "C M C 21"
_symmetry_group_IT_number 36
_symmetry_cell_setting 'orthorhombic'
loop_
_space_group_symop_operation_xyz
x,y,z
-x,-y,1/2+z
x,-y,1/2+z
-x,y,z
1/2+x,1/2+y,z
1/2-x,1/2-y,1/2+z
1/2+x,1/2-y,1/2+z
1/2-x,1/2+y,z
loop_
_atom_site_type_symbol
_atom_site_label
_atom_site_fract_x
_atom_site_fract_y
_atom_site_fract_z
Si Si1 0.719162 0.515361 0.257270
Si Si2 0.278960 0.421923 0.028063
Si Si3 0.290732 0.629031 0.038227
Si Si4 0.500000 0.152876 0.831040
Si Si5 0.716632 0.281467 0.135298
O O1 0.500000 0.504538 0.270491
O O2 0.787225 0.537505 0.400693
O O3 0.791514 0.453655 0.165833
O O4 0.746048 0.580702 0.162583
O O5 0.500000 0.428376 0.028596
O O6 0.238697 0.341715 0.030323
O O7 0.500000 0.617937 0.999538
O O8 0.258058 0.707066 0.080383
O O9 0.158090 0.614640 0.918981
O O10 0.659334 0.199526 0.758310
O O11 0.500000 0.285701 0.163984
#
# Coordination Sequence:
#
# PCOD9353216 Si02
#       5
#     8   8   8   4   8
#     4   9  20  39  68 102 138 182 232 283 350 419
#     4   9  20  39  68 102 138 182 232 283 350 419
#     4  11  24  43  72 102 136 185 231 291 348 420
#     4  12  26  44  68 102 144 176 240 284 358 410
#     4  11  24  43  72 102 136 185 231 291 348 420
#
# _framework density 24.724765999999999
#
# number of rings (size 3 to 8) (size 9 to 14) (size 15 to 20)
#    0.000    1.778    2.222    0.667    6.222    0.000 
#    0.000    2.222    0.000    0.000    0.000    0.000 
#    0.000    0.000    0.000    0.000    0.000    0.000 
#
# Total GULP energy -100275.544199 kJ/mol
# GULP energy per Si atom -5570.863567 kJ/mol
# Density = 2.466849 g / cm^3
# Si number density = 24.724766 Si / 1000 Ang^3
#
#
#
# Elastic Constant Matrix: (Units=GPa)
#
#
# Indices 1 2 3 4 5 6 
#
# 1 117.4413 -1.0011 33.8945 0.0000 0.0000 0.0000
# 2 -1.0011 142.2331 20.2146 0.0000 0.0000 0.0000
# 3 33.8945 20.2146 113.5184 0.0000 0.0000 0.0000
# 4 0.0000 0.0000 0.0000 27.9381 0.0000 0.0000
# 5 0.0000 0.0000 0.0000 0.0000 -3.2181 0.0000
# 6 0.0000 0.0000 0.0000 0.0000 0.0000 11.9214
#
#
#
# Elastic Compliance Matrix: (Units=1/GPa)
#
#
# Indices 1 2 3 4 5 6 
#
# 1 0.009349 0.000475 -0.002876 0.000000 0.000000 0.000000
# 2 0.000475 0.007237 -0.001430 0.000000 0.000000 0.000000
# 3 -0.002876 -0.001430 0.009923 0.000000 0.000000 0.000000
# 4 0.000000 0.000000 0.000000 0.035793 0.000000 0.000000
# 5 0.000000 0.000000 0.000000 0.000000 -0.310747 0.000000
# 6 0.000000 0.000000 0.000000 0.000000 0.000000 0.083883
#
#
# Mechanical properties :
#
#
# Convention : Reuss Voigt Hill
#
# Bulk Modulus (GPa) = 53.06401 53.26764 53.16582
# Shear Modulus (GPa) = -33.19699 28.66727 -2.26486
#
# Velocity S-wave (km/s) = -3.66821 3.40877 -0.95813
# Velocity P-wave (km/s) = 1.88877 6.08966 4.50841
#
# Compressibility (1/GPa) = 0.01884517
#
# Stress axis : x y z
#
# Youngs Moduli (GPa) = 106.96387 138.17208 100.78031
#
# Poissons Ratio (x) = -0.06557 0.28984
# Poissons Ratio (y) = -0.05076 0.14416
# Poissons Ratio (z) = 0.30762 0.19765
#
# Static dielectric constant tensor:
#      x y z
#    x 1.913280 0.000000 0.000000 
#    y 0.000000 1.957950 0.000000 
#    z 0.000000 0.000000 1.959730 
# 
# From -- ./inp_files/6560.got.cif
#   From: 2010.05.17/outbox.cif.g08.bks.cpg/sg36_4_cif.got.tgz:6560.got - 2010.06.03 17:41:39.
