data_PCOD9353651
_publ_section_title
;
Structure prediction by ZEFSAII (Michael W. Deem and Ramdas Pophale) SiO2 
 PCOD9353651
Probable space group: C C C 2
;
_chemical_formula_sum "Si O2"
_cell_formula_units_Z 52
_cell_length_a 15.847477
_cell_length_b 16.719647
_cell_length_c 9.346027
_cell_angle_alpha 90.000000
_cell_angle_beta 90.000000
_cell_angle_gamma 90.000000
_cell_volume 2476.362766
_symmetry_space_group_name_H-M "C C C 2"
_symmetry_group_IT_number 37
_symmetry_cell_setting 'orthorhombic'
loop_
_space_group_symop_operation_xyz
x,y,z
-x,-y,z
-x,y,1/2+z
x,-y,1/2+z
1/2+x,1/2+y,z
1/2-x,1/2-y,z
1/2-x,1/2+y,1/2+z
1/2+x,1/2-y,1/2+z
loop_
_atom_site_type_symbol
_atom_site_label
_atom_site_fract_x
_atom_site_fract_y
_atom_site_fract_z
Si Si1 0.808469 0.070331 0.753710
Si Si2 0.902719 0.220559 0.690097
Si Si3 0.250000 0.250000 0.968029
Si Si4 0.246454 0.928832 0.424377
Si Si5 0.536420 0.164250 0.148940
Si Si6 0.561965 0.071284 0.425881
Si Si7 0.314825 0.182668 0.440029
O O1 0.888955 0.128898 0.736737
O O2 0.776515 0.063178 0.591286
O O3 0.741909 0.119613 0.852324
O O4 0.812842 0.983854 0.826928
O O5 0.832496 0.243490 0.570282
O O6 0.875128 0.274370 0.824533
O O7 0.994722 0.248103 0.640079
O O8 0.248131 0.165665 0.886748
O O9 0.342784 0.957121 0.414410
O O10 0.550355 0.141483 0.311912
O O11 0.466670 0.105505 0.078686
O O12 0.622710 0.152043 0.062128
O O13 0.500000 0.000000 0.387720
O O14 0.250000 0.250000 0.495934
#
# Coordination Sequence:
#
# PCOD9353651 Si02
#       7
#     8   8   4   8   8   8   8
#     4  10  22  39  66  89 137 169 225 265 342 391
#     4  10  18  40  62  88 126 184 216 264 318 412
#     4  10  18  40  62  86 130 172 222 256 332 396
#     4  11  23  39  61  96 127 178 209 275 324 406
#     4  12  23  39  60  93 132 176 223 266 338 402
#     4  12  26  35  58  92 138 169 208 264 333 414
#     4  10  19  39  63  93 130 176 221 276 335 406
#
# _framework density 20.998539999999998
#
# number of rings (size 3 to 8) (size 9 to 14) (size 15 to 20)
#    0.000    1.231    6.923    1.385    6.462    0.000 
#    1.385    0.000    0.000    0.000    0.000   61.385 
#    0.000    0.000    0.000    0.000    0.000    0.000 
#
# Total GULP energy -145197.861874 kJ/mol
# GULP energy per Si atom -5584.533149 kJ/mol
# Density = 2.095075 g / cm^3
# Si number density = 20.998540 Si / 1000 Ang^3
#
#
#
# Elastic Constant Matrix: (Units=GPa)
#
#
# Indices 1 2 3 4 5 6 
#
# 1 39.7355 9.5311 12.6972 0.0000 0.0000 0.0000
# 2 9.5311 125.0363 32.0409 0.0000 0.0000 0.0000
# 3 12.6972 32.0409 39.2847 0.0000 0.0000 0.0000
# 4 0.0000 0.0000 0.0000 24.8495 0.0000 0.0000
# 5 0.0000 0.0000 0.0000 0.0000 1.4920 0.0000
# 6 0.0000 0.0000 0.0000 0.0000 0.0000 18.7569
#
#
#
# Elastic Compliance Matrix: (Units=1/GPa)
#
#
# Indices 1 2 3 4 5 6 
#
# 1 0.028070 0.000234 -0.009264 0.000000 0.000000 0.000000
# 2 0.000234 0.010113 -0.008324 0.000000 0.000000 0.000000
# 3 -0.009264 -0.008324 0.035238 0.000000 0.000000 0.000000
# 4 0.000000 0.000000 0.000000 0.040242 0.000000 0.000000
# 5 0.000000 0.000000 0.000000 0.000000 0.670256 0.000000
# 6 0.000000 0.000000 0.000000 0.000000 0.000000 0.053314
#
#
# Mechanical properties :
#
#
# Convention : Reuss Voigt Hill
#
# Bulk Modulus (GPa) = 25.82980 34.73276 30.28128
# Shear Modulus (GPa) = 5.65071 19.00550 12.32810
#
# Velocity S-wave (km/s) = 1.64221 3.01173 2.42563
# Velocity P-wave (km/s) = 3.99040 5.35448 4.72196
#
# Compressibility (1/GPa) = 0.03871497
#
# Stress axis : x y z
#
# Youngs Moduli (GPa) = 35.62473 98.88452 28.37835
#
# Poissons Ratio (x) = -0.02315 0.26288
# Poissons Ratio (y) = -0.00834 0.23621
# Poissons Ratio (z) = 0.33001 0.82309
#
# Static dielectric constant tensor:
#      x y z
#    x 1.771590 0.000000 0.000000 
#    y 0.000000 1.825700 0.000000 
#    z 0.000000 0.000000 1.740830 
# 
# From -- ./inp_files/4043.got.cif
#   From: 2010.05.17/outbox.cif.g08.bks.cpg/sg37_3_cif.got.tgz:4043.got - 2010.06.03 17:53:42.
