data_PCOD9353035
_publ_section_title
;
Structure prediction by ZEFSAII (Michael W. Deem and Ramdas Pophale) SiO2 
 PCOD9353035
Probable space group: C M C 21
;
_chemical_formula_sum "Si O2"
_cell_formula_units_Z 60
_cell_length_a 17.703267
_cell_length_b 14.900261
_cell_length_c 10.967171
_cell_angle_alpha 90.000000
_cell_angle_beta 90.000000
_cell_angle_gamma 90.000000
_cell_volume 2892.956545
_symmetry_space_group_name_H-M "C M C 21"
_symmetry_group_IT_number 36
_symmetry_cell_setting 'orthorhombic'
loop_
_space_group_symop_operation_xyz
x,y,z
-x,-y,1/2+z
x,-y,1/2+z
-x,y,z
1/2+x,1/2+y,z
1/2-x,1/2-y,1/2+z
1/2+x,1/2-y,1/2+z
1/2-x,1/2+y,z
loop_
_atom_site_type_symbol
_atom_site_label
_atom_site_fract_x
_atom_site_fract_y
_atom_site_fract_z
Si Si1 0.129974 0.333612 0.014690
Si Si2 0.230212 0.791231 0.158239
Si Si3 0.283049 0.070144 0.856585
Si Si4 0.585959 0.037075 0.033649
Si Si5 0.000000 0.201267 0.016910
Si Si6 0.838173 0.382892 0.751960
Si Si7 0.586225 0.415683 0.151449
Si Si8 0.116493 0.048982 0.926872
O O1 0.214674 0.303471 0.044497
O O2 0.115342 0.435814 0.054996
O O3 0.066652 0.269231 0.066650
O O4 0.123453 0.337650 0.868835
O O5 0.271163 0.849090 0.263325
O O6 0.217991 0.688917 0.193789
O O7 0.148671 0.837894 0.144097
O O8 0.206350 0.064600 0.934660
O O9 0.294772 0.973615 0.791144
O O10 0.357383 0.080889 0.937106
O O11 0.500000 0.034386 0.991851
O O12 0.597341 0.089880 0.158007
O O13 0.066223 0.134698 0.960530
O O14 0.500000 0.382869 0.156298
O O15 0.601095 0.467812 0.281157
O O16 0.595502 0.475901 0.029803
#
# Coordination Sequence:
#
# PCOD9353035 Si02
#       8
#     8   8   8   8   4   8   8   8
#     4  11  24  45  67 104 137 182 240 288 349 426
#     4  11  25  44  71 103 141 184 240 295 352 437
#     4  10  24  46  69 102 139 185 236 293 361 423
#     4  11  24  45  69 100 138 185 234 294 354 416
#     4  12  24  42  70 104 134 190 238 288 352 440
#     4  11  25  41  75  99 135 187 228 293 354 424
#     4  11  21  42  67 105 144 186 236 297 362 433
#     4  11  24  41  72 103 143 187 237 296 367 434
#
# _framework density 20.740027999999999
#
# number of rings (size 3 to 8) (size 9 to 14) (size 15 to 20)
#    0.000    1.067    3.333    3.200    6.533    1.067 
#    1.200    0.000    0.000    0.000    0.000    0.000 
#    0.000    0.000    0.000    0.000    0.000    0.000 
#
# Total GULP energy -167083.985651 kJ/mol
# GULP energy per Si atom -5569.466188 kJ/mol
# Density = 2.069282 g / cm^3
# Si number density = 20.740028 Si / 1000 Ang^3
#
#
#
# Elastic Constant Matrix: (Units=GPa)
#
#
# Indices 1 2 3 4 5 6 
#
# 1 127.7796 4.6683 29.2671 0.0000 0.0000 0.0000
# 2 4.6683 28.9947 20.3988 0.0000 0.0000 0.0000
# 3 29.2671 20.3988 72.0441 0.0000 0.0000 0.0000
# 4 0.0000 0.0000 0.0000 13.3318 0.0000 0.0000
# 5 0.0000 0.0000 0.0000 0.0000 20.4873 0.0000
# 6 0.0000 0.0000 0.0000 0.0000 0.0000 8.8232
#
#
#
# Elastic Compliance Matrix: (Units=1/GPa)
#
#
# Indices 1 2 3 4 5 6 
#
# 1 0.008671 0.001351 -0.003905 0.000000 0.000000 0.000000
# 2 0.001351 0.043279 -0.012803 0.000000 0.000000 0.000000
# 3 -0.003905 -0.012803 0.019092 0.000000 0.000000 0.000000
# 4 0.000000 0.000000 0.000000 0.075009 0.000000 0.000000
# 5 0.000000 0.000000 0.000000 0.000000 0.048811 0.000000
# 6 0.000000 0.000000 0.000000 0.000000 0.000000 0.113338
#
#
# Mechanical properties :
#
#
# Convention : Reuss Voigt Hill
#
# Bulk Modulus (GPa) = 24.79665 37.49854 31.14759
# Shear Modulus (GPa) = 14.19021 20.16072 17.17547
#
# Velocity S-wave (km/s) = 2.61855 3.12118 2.88085
# Velocity P-wave (km/s) = 4.59612 5.57751 5.11042
#
# Compressibility (1/GPa) = 0.04032803
#
# Stress axis : x y z
#
# Youngs Moduli (GPa) = 115.32625 23.10599 52.37822
#
# Poissons Ratio (x) = -0.03122 0.20454
# Poissons Ratio (y) = -0.15584 0.67060
# Poissons Ratio (z) = 0.45036 0.29583
#
# Static dielectric constant tensor:
#      x y z
#    x 1.724940 0.000000 0.000000 
#    y 0.000000 1.743680 0.000000 
#    z 0.000000 0.000000 1.796270 
# 
# From -- ./inp_files/8973.got.cif
#   From: 2010.05.17/outbox.cif.g08.bks.cpg/sg36_5_cif.got.tgz:8973.got - 2010.06.03 17:41:39.
