data_PCOD9353168
_publ_section_title
;
Structure prediction by ZEFSAII (Michael W. Deem and Ramdas Pophale) SiO2 
 PCOD9353168
Probable space group: C M C 21
;
_chemical_formula_sum "Si O2"
_cell_formula_units_Z 48
_cell_length_a 8.800299
_cell_length_b 14.990646
_cell_length_c 18.221416
_cell_angle_alpha 90.000000
_cell_angle_beta 90.000000
_cell_angle_gamma 90.000000
_cell_volume 2403.808685
_symmetry_space_group_name_H-M "C M C 21"
_symmetry_group_IT_number 36
_symmetry_cell_setting 'orthorhombic'
loop_
_space_group_symop_operation_xyz
x,y,z
-x,-y,1/2+z
x,-y,1/2+z
-x,y,z
1/2+x,1/2+y,z
1/2-x,1/2-y,1/2+z
1/2+x,1/2-y,1/2+z
1/2-x,1/2+y,z
loop_
_atom_site_type_symbol
_atom_site_label
_atom_site_fract_x
_atom_site_fract_y
_atom_site_fract_z
Si Si1 0.318880 0.765187 0.566730
Si Si2 0.179761 0.911792 0.672436
Si Si3 0.819181 0.515771 0.437824
Si Si4 0.179554 0.166563 0.334612
Si Si5 0.318857 0.323408 0.412438
Si Si6 0.181101 0.422248 0.104518
O O1 0.500000 0.762275 0.559124
O O2 0.268209 0.848304 0.616146
O O3 0.243590 0.778519 0.487169
O O4 0.255999 0.674823 0.602700
O O5 0.200884 0.872434 0.753460
O O6 0.000000 0.911181 0.655185
O O7 0.245053 0.010956 0.662869
O O8 0.755111 0.597701 0.391168
O O9 0.740980 0.424273 0.413007
O O10 0.790604 0.534910 0.523840
O O11 0.000000 0.508577 0.427979
O O12 0.254227 0.262938 0.346917
O O13 0.000000 0.172852 0.349502
O O14 0.500000 0.321920 0.412426
O O15 0.000000 0.415007 0.114956
#
# Coordination Sequence:
#
# PCOD9353168 Si02
#       6
#     8   8   8   8   8   8
#     4  12  24  40  66  96 128 168 214 263 316 377
#     4  11  25  44  66  95 131 169 211 263 320 377
#     4  11  23  40  66  97 127 167 214 261 314 377
#     4  11  25  44  66  95 131 169 211 263 320 377
#     4  12  24  40  66  96 128 168 214 263 316 377
#     4  11  23  40  66  97 127 167 214 261 314 377
#
# _framework density 19.968312000000001
#
# number of rings (size 3 to 8) (size 9 to 14) (size 15 to 20)
#    0.000    0.667    3.333    5.000    0.000    5.333 
#    0.000    0.000    0.000    0.000    0.000    0.000 
#    0.000    0.000    0.000    0.000    0.000    0.000 
#
# Total GULP energy -134363.055172 kJ/mol
# GULP energy per Si atom -5598.460632 kJ/mol
# Density = 1.992286 g / cm^3
# Si number density = 19.968312 Si / 1000 Ang^3
#
#
#
# Elastic Constant Matrix: (Units=GPa)
#
#
# Indices 1 2 3 4 5 6 
#
# 1 83.6358 0.5550 13.8586 0.0000 0.0000 0.0000
# 2 0.5550 81.6259 -18.4153 0.0000 0.0000 0.0000
# 3 13.8586 -18.4153 15.8987 0.0000 0.0000 0.0000
# 4 0.0000 0.0000 0.0000 7.4091 0.0000 0.0000
# 5 0.0000 0.0000 0.0000 0.0000 26.6847 0.0000
# 6 0.0000 0.0000 0.0000 0.0000 0.0000 41.2212
#
#
#
# Elastic Compliance Matrix: (Units=1/GPa)
#
#
# Indices 1 2 3 4 5 6 
#
# 1 0.014930 -0.004112 -0.017777 0.000000 0.000000 0.000000
# 2 -0.004112 0.017718 0.024107 0.000000 0.000000 0.000000
# 3 -0.017777 0.024107 0.106317 0.000000 0.000000 0.000000
# 4 0.000000 0.000000 0.000000 0.134968 0.000000 0.000000
# 5 0.000000 0.000000 0.000000 0.000000 0.037475 0.000000
# 6 0.000000 0.000000 0.000000 0.000000 0.000000 0.024259
#
#
# Mechanical properties :
#
#
# Convention : Reuss Voigt Hill
#
# Bulk Modulus (GPa) = 6.97354 19.23966 13.10660
# Shear Modulus (GPa) = 13.19155 27.40714 20.29934
#
# Velocity S-wave (km/s) = 2.57305 3.70879 3.19184
# Velocity P-wave (km/s) = 3.51103 5.29114 4.49018
#
# Compressibility (1/GPa) = 0.14339926
#
# Stress axis : x y z
#
# Youngs Moduli (GPa) = 66.98124 56.44111 9.40585
#
# Poissons Ratio (x) = 0.23209 0.16721
# Poissons Ratio (y) = 0.27543 -0.22674
# Poissons Ratio (z) = 1.19072 -1.36060
#
# Static dielectric constant tensor:
#      x y z
#    x 1.661910 0.000000 0.000000 
#    y 0.000000 1.688510 0.000000 
#    z 0.000000 0.000000 1.694360 
# 
# From -- ./inp_files/13494.got.cif
#   From: 2010.05.17/outbox.cif.g08.bks.cpg/sg36_7_cif.got.tgz:13494.got - 2010.06.03 17:41:39.
