data_PCOD9353920
_publ_section_title
;
Structure prediction by ZEFSAII (Michael W. Deem and Ramdas Pophale) SiO2 
 PCOD9353920
Probable space group: C C C 2
;
_chemical_formula_sum "Si O2"
_cell_formula_units_Z 60
_cell_length_a 11.908936
_cell_length_b 25.905198
_cell_length_c 8.556956
_cell_angle_alpha 90.000000
_cell_angle_beta 90.000000
_cell_angle_gamma 90.000000
_cell_volume 2639.849549
_symmetry_space_group_name_H-M "C C C 2"
_symmetry_group_IT_number 37
_symmetry_cell_setting 'orthorhombic'
loop_
_space_group_symop_operation_xyz
x,y,z
-x,-y,z
-x,y,1/2+z
x,-y,1/2+z
1/2+x,1/2+y,z
1/2-x,1/2-y,z
1/2-x,1/2+y,1/2+z
1/2+x,1/2-y,1/2+z
loop_
_atom_site_type_symbol
_atom_site_label
_atom_site_fract_x
_atom_site_fract_y
_atom_site_fract_z
Si Si1 0.634629 0.048086 0.094160
Si Si2 0.143674 0.828045 0.389454
Si Si3 0.405388 0.064457 0.231114
Si Si4 0.192735 0.137755 0.205455
Si Si5 0.897384 0.712092 0.869709
Si Si6 0.318797 0.625916 0.060702
Si Si7 0.250000 0.250000 0.297070
Si Si8 0.898823 0.302197 0.021847
O O1 0.534266 0.077134 0.187284
O O2 0.759050 0.072208 0.111242
O O3 0.626734 0.988793 0.144660
O O4 0.602104 0.053068 0.914049
O O5 0.127069 0.865407 0.539599
O O6 0.095703 0.771040 0.428869
O O7 0.276482 0.813911 0.377552
O O8 0.118145 0.850570 0.214019
O O9 0.307640 0.105175 0.195576
O O10 0.137337 0.125401 0.378213
O O11 0.231522 0.197480 0.207850
O O12 0.926115 0.718397 0.689635
O O13 0.989066 0.675927 0.948692
O O14 0.207049 0.660825 0.034572
O O15 0.143645 0.257445 0.408466
#
# Coordination Sequence:
#
# PCOD9353920 Si02
#       8
#     8   8   8   8   8   8   4   8
#     4  10  20  33  49  72 109 134 188 223 273 317
#     4  10  21  35  51  70 108 138 183 223 269 312
#     4  10  21  32  50  76 101 148 177 229 271 321
#     4  10  21  33  55  71  99 140 183 214 275 306
#     4  10  21  33  48  78  98 145 180 222 266 326
#     4   9  21  34  50  74 100 145 175 227 263 318
#     4  10  20  38  52  72 110 144 174 238 258 324
#     4  10  21  33  54  71 107 139 183 218 274 317
#
# _framework density 22.728570000000001
#
# number of rings (size 3 to 8) (size 9 to 14) (size 15 to 20)
#    0.000    2.133    0.000    4.800   11.200    3.200 
#    0.000    0.000    0.000    0.000    0.000    0.000 
#    0.000    1.067    0.533    0.000    0.000    0.000 
#
# Total GULP energy -167403.343556 kJ/mol
# GULP energy per Si atom -5580.111452 kJ/mol
# Density = 2.267684 g / cm^3
# Si number density = 22.728570 Si / 1000 Ang^3
#
#
#
# Elastic Constant Matrix: (Units=GPa)
#
#
# Indices 1 2 3 4 5 6 
#
# 1 41.2161 2.7323 19.6277 0.0000 0.0000 0.0000
# 2 2.7323 72.5158 23.5849 0.0000 0.0000 0.0000
# 3 19.6277 23.5849 158.9782 0.0000 0.0000 0.0000
# 4 0.0000 0.0000 0.0000 28.3619 0.0000 0.0000
# 5 0.0000 0.0000 0.0000 0.0000 36.9095 0.0000
# 6 0.0000 0.0000 0.0000 0.0000 0.0000 113.6596
#
#
#
# Elastic Compliance Matrix: (Units=1/GPa)
#
#
# Indices 1 2 3 4 5 6 
#
# 1 0.025778 0.000067 -0.003193 0.000000 0.000000 0.000000
# 2 0.000067 0.014489 -0.002158 0.000000 0.000000 0.000000
# 3 -0.003193 -0.002158 0.007004 0.000000 0.000000 0.000000
# 4 0.000000 0.000000 0.000000 0.035259 0.000000 0.000000
# 5 0.000000 0.000000 0.000000 0.000000 0.027093 0.000000
# 6 0.000000 0.000000 0.000000 0.000000 0.000000 0.008798
#
#
# Mechanical properties :
#
#
# Convention : Reuss Voigt Hill
#
# Bulk Modulus (GPa) = 27.24392 40.51110 33.87751
# Shear Modulus (GPa) = 35.40474 50.90387 43.15431
#
# Velocity S-wave (km/s) = 3.95108 4.73762 4.36211
# Velocity P-wave (km/s) = 5.72952 6.91298 6.34888
#
# Compressibility (1/GPa) = 0.03670543
#
# Stress axis : x y z
#
# Youngs Moduli (GPa) = 38.79231 69.01612 142.76632
#
# Poissons Ratio (x) = -0.00463 0.45579
# Poissons Ratio (y) = -0.00260 0.30806
# Poissons Ratio (z) = 0.12385 0.14892
#
# Static dielectric constant tensor:
#      x y z
#    x 1.909810 0.000000 0.000000 
#    y 0.000000 1.883000 0.000000 
#    z 0.000000 0.000000 1.931210 
# 
# From -- ./inp_files/3796.got.cif
#   From: 2010.05.17/outbox.cif.g08.bks.cpg/sg37_2_cif.got.tgz:3796.got - 2010.06.03 17:53:42.
