data_PCOD9353047
_publ_section_title
;
Structure prediction by ZEFSAII (Michael W. Deem and Ramdas Pophale) SiO2 
 PCOD9353047
Probable space group: C M C 21
;
_chemical_formula_sum "Si O2"
_cell_formula_units_Z 48
_cell_length_a 21.400439
_cell_length_b 9.660473
_cell_length_c 10.791611
_cell_angle_alpha 90.000000
_cell_angle_beta 90.000000
_cell_angle_gamma 90.000000
_cell_volume 2231.039994
_symmetry_space_group_name_H-M "C M C 21"
_symmetry_group_IT_number 36
_symmetry_cell_setting 'orthorhombic'
loop_
_space_group_symop_operation_xyz
x,y,z
-x,-y,1/2+z
x,-y,1/2+z
-x,y,z
1/2+x,1/2+y,z
1/2-x,1/2-y,1/2+z
1/2+x,1/2-y,1/2+z
1/2-x,1/2+y,z
loop_
_atom_site_type_symbol
_atom_site_label
_atom_site_fract_x
_atom_site_fract_y
_atom_site_fract_z
Si Si1 0.122745 0.919696 0.969180
Si Si2 0.926727 0.342758 0.885635
Si Si3 0.926984 0.916682 0.233735
Si Si4 0.130111 0.639252 0.866102
Si Si5 0.171069 0.289843 0.104352
Si Si6 0.751815 0.536939 0.011612
O O1 0.106799 0.757781 0.958815
O O2 0.088192 0.000712 0.859717
O O3 0.107865 0.964313 0.109754
O O4 0.196220 0.948516 0.950058
O O5 0.912311 0.242677 0.769744
O O6 0.912004 0.502950 0.859084
O O7 0.000000 0.323909 0.916582
O O8 0.880385 0.296840 0.995618
O O9 0.000000 0.928890 0.207069
O O10 0.137133 0.714044 0.734968
O O11 0.198320 0.591929 0.912827
O O12 0.209930 0.433210 0.099029
O O13 0.218937 0.165525 0.079067
#
# Coordination Sequence:
#
# PCOD9353047 Si02
#       6
#     8   8   8   8   8   8
#     4  12  25  46  72 103 139 184 232 292 349 422
#     4  10  25  47  69  98 139 184 234 293 350 413
#     4  11  26  47  72 101 139 185 234 291 351 415
#     4  11  27  42  69 103 135 186 232 286 353 418
#     4  11  24  43  68 102 138 184 229 290 349 417
#     4  11  24  41  64 101 141 175 227 286 346 417
#
# _framework density 21.514627999999998
#
# number of rings (size 3 to 8) (size 9 to 14) (size 15 to 20)
#    0.000    1.000    3.333    1.500    9.333    2.000 
#    0.000    0.000    0.000    0.000    0.000    0.000 
#    0.000    0.000    0.000    0.000    0.000    0.000 
#
# Total GULP energy -134205.543934 kJ/mol
# GULP energy per Si atom -5591.897664 kJ/mol
# Density = 2.146566 g / cm^3
# Si number density = 21.514628 Si / 1000 Ang^3
#
#
#
# Elastic Constant Matrix: (Units=GPa)
#
#
# Indices 1 2 3 4 5 6 
#
# 1 60.1513 25.3076 23.6543 0.0000 0.0000 0.0000
# 2 25.3076 112.8615 32.3162 0.0000 0.0000 0.0000
# 3 23.6543 32.3162 102.2353 0.0000 0.0000 0.0000
# 4 0.0000 0.0000 0.0000 24.4722 0.0000 0.0000
# 5 0.0000 0.0000 0.0000 0.0000 14.4591 0.0000
# 6 0.0000 0.0000 0.0000 0.0000 0.0000 25.8393
#
#
#
# Elastic Compliance Matrix: (Units=1/GPa)
#
#
# Indices 1 2 3 4 5 6 
#
# 1 0.019387 -0.003368 -0.003421 0.000000 0.000000 0.000000
# 2 -0.003368 0.010327 -0.002485 0.000000 0.000000 0.000000
# 3 -0.003421 -0.002485 0.011358 0.000000 0.000000 0.000000
# 4 0.000000 0.000000 0.000000 0.040863 0.000000 0.000000
# 5 0.000000 0.000000 0.000000 0.000000 0.069160 0.000000
# 6 0.000000 0.000000 0.000000 0.000000 0.000000 0.038701
#
#
# Mechanical properties :
#
#
# Convention : Reuss Voigt Hill
#
# Bulk Modulus (GPa) = 44.39573 48.64493 46.52033
# Shear Modulus (GPa) = 23.16396 25.88545 24.52470
#
# Velocity S-wave (km/s) = 3.28481 3.47242 3.37992
# Velocity P-wave (km/s) = 5.92170 6.22384 6.07465
#
# Compressibility (1/GPa) = 0.02252469
#
# Stress axis : x y z
#
# Youngs Moduli (GPa) = 51.58099 96.83194 88.04010
#
# Poissons Ratio (x) = 0.32610 0.30119
# Poissons Ratio (y) = 0.17371 0.21880
# Poissons Ratio (z) = 0.17646 0.24065
#
# Static dielectric constant tensor:
#      x y z
#    x 1.731870 0.000000 0.000000 
#    y 0.000000 1.823980 0.000000 
#    z 0.000000 0.000000 1.769210 
# 
# From -- ./inp_files/9413.got.cif
#   From: 2010.05.17/outbox.cif.g08.bks.cpg/sg36_5_cif.got.tgz:9413.got - 2010.06.03 17:41:39.
