data_PCOD9353869
_publ_section_title
;
Structure prediction by ZEFSAII (Michael W. Deem and Ramdas Pophale) SiO2 
 PCOD9353869
Probable space group: C C C 2
;
_chemical_formula_sum "Si O2"
_cell_formula_units_Z 52
_cell_length_a 8.153185
_cell_length_b 12.278139
_cell_length_c 22.563894
_cell_angle_alpha 90.000000
_cell_angle_beta 90.000000
_cell_angle_gamma 90.000000
_cell_volume 2258.779790
_symmetry_space_group_name_H-M "C C C 2"
_symmetry_group_IT_number 37
_symmetry_cell_setting 'orthorhombic'
loop_
_space_group_symop_operation_xyz
x,y,z
-x,-y,z
-x,y,1/2+z
x,-y,1/2+z
1/2+x,1/2+y,z
1/2-x,1/2-y,z
1/2-x,1/2+y,1/2+z
1/2+x,1/2-y,1/2+z
loop_
_atom_site_type_symbol
_atom_site_label
_atom_site_fract_x
_atom_site_fract_y
_atom_site_fract_z
Si Si1 0.424340 0.769363 0.967980
Si Si2 0.177316 0.551290 0.735563
Si Si3 0.668613 0.934872 0.363881
Si Si4 0.396284 0.388567 0.137873
Si Si5 0.250000 0.250000 0.035344
Si Si6 0.882241 0.149686 0.377631
Si Si7 0.393514 0.662852 0.246562
O O1 0.250000 0.750000 0.002149
O O2 0.366573 0.852318 0.916725
O O3 0.492536 0.665432 0.931275
O O4 0.594703 0.805051 0.000425
O O5 0.189249 0.614713 0.797700
O O6 0.225013 0.600476 0.672934
O O7 0.311171 0.455596 0.742521
O O8 0.000000 0.500000 0.731040
O O9 0.500000 0.000000 0.357393
O O10 0.798266 0.031448 0.377192
O O11 0.500000 0.500000 0.128157
O O12 0.350685 0.333259 0.076580
O O13 0.497105 0.323404 0.188551
O O14 0.750000 0.250000 0.382371
O O15 0.963049 0.167196 0.313110
O O16 0.250000 0.750000 0.244540
#
# Coordination Sequence:
#
# PCOD9353869 Si02
#       7
#     8   8   8   8   4   8   8
#     4  12  27  46  68 102 138 190 253 283 353 431
#     4   9  20  37  63 107 138 166 225 279 361 442
#     4  10  19  39  70 102 144 181 214 292 370 425
#     4  10  24  47  70  99 135 185 238 289 359 417
#     4  12  28  54  68  94 148 190 256 314 324 424
#     4  10  19  40  67 104 147 172 222 297 359 438
#     4   9  20  36  68 104 137 172 215 290 363 432
#
# _framework density 23.021280000000001
#
# number of rings (size 3 to 8) (size 9 to 14) (size 15 to 20)
#    0.000    1.846    2.308    0.000    6.462    1.231 
#    8.308    0.000    0.000    0.000    0.000    0.000 
#    0.000    0.000    0.000    0.000    0.000    0.000 
#
# Total GULP energy -144999.042352 kJ/mol
# GULP energy per Si atom -5576.886244 kJ/mol
# Density = 2.296888 g / cm^3
# Si number density = 23.021280 Si / 1000 Ang^3
#
#
#
# Elastic Constant Matrix: (Units=GPa)
#
#
# Indices 1 2 3 4 5 6 
#
# 1 151.1924 9.3904 36.4164 0.0000 0.0000 0.0000
# 2 9.3904 54.6308 20.3755 0.0000 0.0000 0.0000
# 3 36.4164 20.3755 93.6097 0.0000 0.0000 0.0000
# 4 0.0000 0.0000 0.0000 30.9855 0.0000 0.0000
# 5 0.0000 0.0000 0.0000 0.0000 54.6292 0.0000
# 6 0.0000 0.0000 0.0000 0.0000 0.0000 41.9083
#
#
#
# Elastic Compliance Matrix: (Units=1/GPa)
#
#
# Indices 1 2 3 4 5 6 
#
# 1 0.007300 -0.000213 -0.002794 0.000000 0.000000 0.000000
# 2 -0.000213 0.019928 -0.004255 0.000000 0.000000 0.000000
# 3 -0.002794 -0.004255 0.012696 0.000000 0.000000 0.000000
# 4 0.000000 0.000000 0.000000 0.032273 0.000000 0.000000
# 5 0.000000 0.000000 0.000000 0.000000 0.018305 0.000000
# 6 0.000000 0.000000 0.000000 0.000000 0.000000 0.023862
#
#
# Mechanical properties :
#
#
# Convention : Reuss Voigt Hill
#
# Bulk Modulus (GPa) = 39.36811 47.97750 43.67281
# Shear Modulus (GPa) = 36.40237 41.05464 38.72850
#
# Velocity S-wave (km/s) = 3.98081 4.22754 4.10602
# Velocity P-wave (km/s) = 6.18603 6.68694 6.44136
#
# Compressibility (1/GPa) = 0.02540127
#
# Stress axis : x y z
#
# Youngs Moduli (GPa) = 136.98290 50.18015 78.76772
#
# Poissons Ratio (x) = 0.01068 0.22005
# Poissons Ratio (y) = 0.02916 0.33514
# Poissons Ratio (z) = 0.38268 0.21351
#
# Static dielectric constant tensor:
#      x y z
#    x 1.944150 0.000000 0.000000 
#    y 0.000000 1.881010 0.000000 
#    z 0.000000 0.000000 1.899200 
# 
# From -- ./inp_files/16390.got.cif
#   From: 2010.05.17/outbox.cif.g08.bks.cpg/sg37_9_cif.got.tgz:16390.got - 2010.06.03 17:53:42.
