data_PCOD9353870
_publ_section_title
;
Structure prediction by ZEFSAII (Michael W. Deem and Ramdas Pophale) SiO2 
 PCOD9353870
Probable space group: C C C 2
;
_chemical_formula_sum "Si O2"
_cell_formula_units_Z 28
_cell_length_a 14.473251
_cell_length_b 12.893494
_cell_length_c 5.460079
_cell_angle_alpha 90.000000
_cell_angle_beta 90.000000
_cell_angle_gamma 90.000000
_cell_volume 1018.909573
_symmetry_space_group_name_H-M "C C C 2"
_symmetry_group_IT_number 37
_symmetry_cell_setting 'orthorhombic'
loop_
_space_group_symop_operation_xyz
x,y,z
-x,-y,z
-x,y,1/2+z
x,-y,1/2+z
1/2+x,1/2+y,z
1/2-x,1/2-y,z
1/2-x,1/2+y,1/2+z
1/2+x,1/2-y,1/2+z
loop_
_atom_site_type_symbol
_atom_site_label
_atom_site_fract_x
_atom_site_fract_y
_atom_site_fract_z
Si Si1 0.548058 0.280911 0.395530
Si Si2 0.250000 0.250000 0.134679
Si Si3 0.297804 0.472598 0.317081
Si Si4 0.603135 0.941008 0.818550
O O1 0.489768 0.320911 0.631206
O O2 0.656124 0.271310 0.480218
O O3 0.539769 0.158598 0.338996
O O4 0.253145 0.356415 0.299988
O O5 0.349848 0.502177 0.067668
O O6 0.215661 0.440865 0.820727
O O7 0.588694 0.994008 0.561276
#
# Coordination Sequence:
#
# PCOD9353870 Si02
#       4
#     8   4   8   8
#     4  12  28  43  69 110 146 193 248 304 382 456
#     4  12  26  50  78 100 168 200 242 330 366 466
#     4  10  22  41  68 108 134 201 242 293 379 451
#     4  10  19  40  60 102 142 181 224 300 372 455
#
# _framework density 27.480360000000001
#
# number of rings (size 3 to 8) (size 9 to 14) (size 15 to 20)
#    0.000    1.143    5.714    1.714    4.000    8.000 
#    0.000    0.000    0.000    5.143    0.000    0.000 
#    0.000    0.000    0.000    0.000    0.000    0.000 
#
# Total GULP energy -77955.064541 kJ/mol
# GULP energy per Si atom -5568.218896 kJ/mol
# Density = 2.741781 g / cm^3
# Si number density = 27.480360 Si / 1000 Ang^3
#
#
#
# Elastic Constant Matrix: (Units=GPa)
#
#
# Indices 1 2 3 4 5 6 
#
# 1 82.2078 28.6923 45.5415 0.0000 0.0000 0.0000
# 2 28.6923 113.9753 61.7465 0.0000 0.0000 0.0000
# 3 45.5415 61.7465 265.8711 0.0000 0.0000 0.0000
# 4 0.0000 0.0000 0.0000 8.1106 0.0000 0.0000
# 5 0.0000 0.0000 0.0000 0.0000 16.3134 0.0000
# 6 0.0000 0.0000 0.0000 0.0000 0.0000 43.6766
#
#
#
# Elastic Compliance Matrix: (Units=1/GPa)
#
#
# Indices 1 2 3 4 5 6 
#
# 1 0.014062 -0.002557 -0.001815 0.000000 0.000000 0.000000
# 2 -0.002557 0.010501 -0.002001 0.000000 0.000000 0.000000
# 3 -0.001815 -0.002001 0.004537 0.000000 0.000000 0.000000
# 4 0.000000 0.000000 0.000000 0.123296 0.000000 0.000000
# 5 0.000000 0.000000 0.000000 0.000000 0.061299 0.000000
# 6 0.000000 0.000000 0.000000 0.000000 0.000000 0.022896
#
#
# Mechanical properties :
#
#
# Convention : Reuss Voigt Hill
#
# Bulk Modulus (GPa) = 61.14290 81.55718 71.35004
# Shear Modulus (GPa) = 19.62416 35.35838 27.49127
#
# Velocity S-wave (km/s) = 2.67519 3.59092 3.16634
# Velocity P-wave (km/s) = 5.64271 6.85097 6.27598
#
# Compressibility (1/GPa) = 0.01635513
#
# Stress axis : x y z
#
# Youngs Moduli (GPa) = 71.11318 95.22459 220.41944
#
# Poissons Ratio (x) = 0.24347 0.40005
# Poissons Ratio (y) = 0.18182 0.44105
# Poissons Ratio (z) = 0.12907 0.19054
#
# Static dielectric constant tensor:
#      x y z
#    x 2.234940 0.000000 0.000000 
#    y 0.000000 2.463650 0.000000 
#    z 0.000000 0.000000 2.306860 
# 
# From -- ./inp_files/390.got.cif
#   From: 2010.05.17/outbox.cif.g08.bks.cpg/sg37_1_cif.got.tgz:390.got - 2010.06.03 17:53:42.
