data_PCOD9353217
_publ_section_title
;
Structure prediction by ZEFSAII (Michael W. Deem and Ramdas Pophale) SiO2 
 PCOD9353217
Probable space group: C M C 21
;
_chemical_formula_sum "Si O2"
_cell_formula_units_Z 40
_cell_length_a 21.721872
_cell_length_b 9.235966
_cell_length_c 8.299005
_cell_angle_alpha 90.000000
_cell_angle_beta 90.000000
_cell_angle_gamma 90.000000
_cell_volume 1664.966892
_symmetry_space_group_name_H-M "C M C 21"
_symmetry_group_IT_number 36
_symmetry_cell_setting 'orthorhombic'
loop_
_space_group_symop_operation_xyz
x,y,z
-x,-y,1/2+z
x,-y,1/2+z
-x,y,z
1/2+x,1/2+y,z
1/2-x,1/2-y,1/2+z
1/2+x,1/2-y,1/2+z
1/2-x,1/2+y,z
loop_
_atom_site_type_symbol
_atom_site_label
_atom_site_fract_x
_atom_site_fract_y
_atom_site_fract_z
Si Si1 0.000000 0.316307 0.636040
Si Si2 0.816852 0.467250 0.382434
Si Si3 0.869708 0.782693 0.693655
Si Si4 0.000000 0.647337 0.751038
Si Si5 0.677767 0.471811 0.984532
Si Si6 0.634958 0.217242 0.178071
O O1 0.000000 0.477659 0.710021
O O2 0.063463 0.241820 0.687392
O O3 0.000000 0.330913 0.443165
O O4 0.824484 0.350586 0.237631
O O5 0.747073 0.495533 0.432001
O O6 0.854882 0.392026 0.525986
O O7 0.844885 0.618703 0.326209
O O8 0.851679 0.879313 0.542593
O O9 0.938000 0.719617 0.684755
O O10 0.860503 0.891445 0.845406
O O11 0.675162 0.356282 0.132019
#
# Coordination Sequence:
#
# PCOD9353217 Si02
#       6
#     4   8   8   4   8   8
#     4  12  20  49  79 105 143 189 251 308 364 458
#     4  11  24  44  69 103 148 189 243 298 369 458
#     4  11  26  48  71 106 144 196 245 308 374 445
#     4  12  24  49  79 105 147 189 259 304 376 456
#     4  11  26  45  69 106 153 189 244 307 378 443
#     4  11  24  44  76 107 139 191 243 306 368 437
#
# _framework density 24.024501999999998
#
# number of rings (size 3 to 8) (size 9 to 14) (size 15 to 20)
#    0.000    0.800    6.000    1.200    0.000   16.000 
#    3.600    0.000    0.000    0.000    0.000    0.000 
#    0.000    0.000    0.000    0.000    0.000    0.000 
#
# Total GULP energy -112134.168064 kJ/mol
# GULP energy per Si atom -5606.708403 kJ/mol
# Density = 2.396982 g / cm^3
# Si number density = 24.024502 Si / 1000 Ang^3
#
#
#
# Elastic Constant Matrix: (Units=GPa)
#
#
# Indices 1 2 3 4 5 6 
#
# 1 205.9507 53.6691 22.3438 0.0000 0.0000 0.0000
# 2 53.6691 140.4849 40.2465 0.0000 0.0000 0.0000
# 3 22.3438 40.2465 28.9455 0.0000 0.0000 0.0000
# 4 0.0000 0.0000 0.0000 63.9255 0.0000 0.0000
# 5 0.0000 0.0000 0.0000 0.0000 34.5818 0.0000
# 6 0.0000 0.0000 0.0000 0.0000 0.0000 -10.0611
#
#
#
# Elastic Compliance Matrix: (Units=1/GPa)
#
#
# Indices 1 2 3 4 5 6 
#
# 1 0.005475 -0.001464 -0.002191 0.000000 0.000000 0.000000
# 2 -0.001464 0.012222 -0.015864 0.000000 0.000000 0.000000
# 3 -0.002191 -0.015864 0.058296 0.000000 0.000000 0.000000
# 4 0.000000 0.000000 0.000000 0.015643 0.000000 0.000000
# 5 0.000000 0.000000 0.000000 0.000000 0.028917 0.000000
# 6 0.000000 0.000000 0.000000 0.000000 0.000000 -0.099393
#
#
# Mechanical properties :
#
#
# Convention : Reuss Voigt Hill
#
# Bulk Modulus (GPa) = 27.05902 67.54444 47.30173
# Shear Modulus (GPa) = 68.94988 34.96403 51.95695
#
# Velocity S-wave (km/s) = 5.36303 3.81904 4.65549
# Velocity P-wave (km/s) = 7.04536 6.90091 6.97351
#
# Compressibility (1/GPa) = 0.03695625
#
# Stress axis : x y z
#
# Youngs Moduli (GPa) = 182.65932 81.81813 17.15370
#
# Poissons Ratio (x) = 0.11977 0.03758
# Poissons Ratio (y) = 0.26740 0.27213
# Poissons Ratio (z) = 0.40013 1.29797
#
# Static dielectric constant tensor:
#      x y z
#    x 1.840410 0.000000 0.000000 
#    y 0.000000 1.899050 0.000000 
#    z 0.000000 0.000000 2.050470 
# 
# From -- ./inp_files/5494.got.cif
#   From: 2010.05.17/outbox.cif.g08.bks.cpg/sg36_3_cif.got.tgz:5494.got - 2010.06.03 17:41:39.
