data_PCOD9353593
_publ_section_title
;
Structure prediction by ZEFSAII (Michael W. Deem and Ramdas Pophale) SiO2 
 PCOD9353593
Probable space group: C C C 2
;
_chemical_formula_sum "Si O2"
_cell_formula_units_Z 44
_cell_length_a 9.271003
_cell_length_b 13.231747
_cell_length_c 16.895225
_cell_angle_alpha 90.000000
_cell_angle_beta 90.000000
_cell_angle_gamma 90.000000
_cell_volume 2072.563711
_symmetry_space_group_name_H-M "C C C 2"
_symmetry_group_IT_number 37
_symmetry_cell_setting 'orthorhombic'
loop_
_space_group_symop_operation_xyz
x,y,z
-x,-y,z
-x,y,1/2+z
x,-y,1/2+z
1/2+x,1/2+y,z
1/2-x,1/2-y,z
1/2-x,1/2+y,1/2+z
1/2+x,1/2-y,1/2+z
loop_
_atom_site_type_symbol
_atom_site_label
_atom_site_fract_x
_atom_site_fract_y
_atom_site_fract_z
Si Si1 0.007149 0.784540 0.857720
Si Si2 0.285937 0.890676 0.801830
Si Si3 0.968535 0.806364 0.037604
Si Si4 0.750000 0.750000 0.156937
Si Si5 0.500000 0.500000 0.122154
Si Si6 0.750000 0.250000 0.121836
Si Si7 0.219799 0.101868 0.745212
O O1 0.145294 0.860883 0.854026
O O2 0.078007 0.677271 0.830371
O O3 0.880477 0.830058 0.802892
O O4 0.950308 0.780322 0.946842
O O5 0.241929 0.843975 0.716426
O O6 0.297336 0.010853 0.791638
O O7 0.882296 0.736668 0.098184
O O8 0.925186 0.919122 0.064177
O O9 0.133222 0.796284 0.063760
O O10 0.391474 0.553197 0.182654
O O11 0.685618 0.169110 0.184887
#
# Coordination Sequence:
#
# PCOD9353593 Si02
#       7
#     8   8   8   4   4   4   8
#     4  10  21  34  61  96 124 159 214 273 321 374
#     4  10  18  37  62  88 120 166 218 255 312 396
#     4  11  22  38  60  95 130 155 206 272 318 370
#     4  10  20  40  62  84 120 170 208 248 308 392
#     4  10  18  34  62  86 114 164 218 236 304 386
#     4  10  22  38  62  92 128 160 218 264 314 376
#     4  11  19  38  61  90 118 172 215 257 306 400
#
# _framework density 21.229747
#
# number of rings (size 3 to 8) (size 9 to 14) (size 15 to 20)
#    0.000    1.818    3.636    4.364    2.545    0.727 
#    0.000    3.636    0.000    2.182    0.000    0.000 
#    0.000    0.000    0.000    0.000    0.000    0.000 
#
# Total GULP energy -122635.156824 kJ/mol
# GULP energy per Si atom -5574.325310 kJ/mol
# Density = 2.118143 g / cm^3
# Si number density = 21.229747 Si / 1000 Ang^3
#
#
#
# Elastic Constant Matrix: (Units=GPa)
#
#
# Indices 1 2 3 4 5 6 
#
# 1 30.4545 13.9481 40.7341 0.0000 0.0000 0.0000
# 2 13.9481 65.6086 28.2703 0.0000 0.0000 0.0000
# 3 40.7341 28.2703 129.1867 0.0000 0.0000 0.0000
# 4 0.0000 0.0000 0.0000 3.0601 0.0000 0.0000
# 5 0.0000 0.0000 0.0000 0.0000 11.4404 0.0000
# 6 0.0000 0.0000 0.0000 0.0000 0.0000 25.6935
#
#
#
# Elastic Compliance Matrix: (Units=1/GPa)
#
#
# Indices 1 2 3 4 5 6 
#
# 1 0.058193 -0.004930 -0.017270 0.000000 0.000000 0.000000
# 2 -0.004930 0.017246 -0.002220 0.000000 0.000000 0.000000
# 3 -0.017270 -0.002220 0.013672 0.000000 0.000000 0.000000
# 4 0.000000 0.000000 0.000000 0.326788 0.000000 0.000000
# 5 0.000000 0.000000 0.000000 0.000000 0.087410 0.000000
# 6 0.000000 0.000000 0.000000 0.000000 0.000000 0.038920
#
#
# Mechanical properties :
#
#
# Convention : Reuss Voigt Hill
#
# Bulk Modulus (GPa) = 24.83108 43.46165 34.14637
# Shear Modulus (GPa) = 8.27138 17.52529 12.89833
#
# Velocity S-wave (km/s) = 1.97600 2.87628 2.46755
# Velocity P-wave (km/s) = 4.11435 5.61668 4.92316
#
# Compressibility (1/GPa) = 0.04027210
#
# Stress axis : x y z
#
# Youngs Moduli (GPa) = 17.18408 57.98309 73.14249
#
# Poissons Ratio (x) = 0.28586 1.26318
# Poissons Ratio (y) = 0.08472 0.16235
# Poissons Ratio (z) = 0.29677 0.12870
#
# Static dielectric constant tensor:
#      x y z
#    x 1.880140 0.000000 0.000000 
#    y 0.000000 1.898470 0.000000 
#    z 0.000000 0.000000 1.725010 
# 
# From -- ./inp_files/12063.got.cif
#   From: 2010.05.17/outbox.cif.g08.bks.cpg/sg37_7_cif.got.tgz:12063.got - 2010.06.03 17:53:42.
