data_PCOD9353544
_publ_section_title
;
Structure prediction by ZEFSAII (Michael W. Deem and Ramdas Pophale) SiO2 
 PCOD9353544
Probable space group: C C C 2
;
_chemical_formula_sum "Si O2"
_cell_formula_units_Z 64
_cell_length_a 24.086025
_cell_length_b 12.944966
_cell_length_c 11.239807
_cell_angle_alpha 90.000000
_cell_angle_beta 90.000000
_cell_angle_gamma 90.000000
_cell_volume 3504.490612
_symmetry_space_group_name_H-M "C C C 2"
_symmetry_group_IT_number 37
_symmetry_cell_setting 'orthorhombic'
loop_
_space_group_symop_operation_xyz
x,y,z
-x,-y,z
-x,y,1/2+z
x,-y,1/2+z
1/2+x,1/2+y,z
1/2-x,1/2-y,z
1/2-x,1/2+y,1/2+z
1/2+x,1/2-y,1/2+z
loop_
_atom_site_type_symbol
_atom_site_label
_atom_site_fract_x
_atom_site_fract_y
_atom_site_fract_z
Si Si1 0.523911 0.116477 0.776280
Si Si2 0.149269 0.191838 0.589875
Si Si3 0.547632 0.158049 0.045555
Si Si4 0.694562 0.501391 0.163503
Si Si5 0.201060 0.364842 0.748147
Si Si6 0.776241 0.553558 0.982845
Si Si7 0.380468 0.020656 0.147603
Si Si8 0.226378 0.143340 0.367310
O O1 0.491044 0.166637 0.663864
O O2 0.586332 0.103174 0.725224
O O3 0.500000 0.000000 0.786653
O O4 0.522600 0.160928 0.911210
O O5 0.094197 0.253586 0.557336
O O6 0.144192 0.075915 0.640964
O O7 0.183452 0.261976 0.682603
O O8 0.187895 0.178487 0.475157
O O9 0.577830 0.045873 0.063882
O O10 0.747874 0.425836 0.187672
O O11 0.691474 0.578403 0.272484
O O12 0.717412 0.562009 0.049342
O O13 0.216746 0.359933 0.884307
O O14 0.147161 0.437956 0.736378
O O15 0.771764 0.439780 0.917708
O O16 0.828910 0.559176 0.069401
O O17 0.250000 0.250000 0.315346
#
# Coordination Sequence:
#
# PCOD9353544 Si02
#       8
#     8   8   8   8   8   8   8   8
#     4  10  19  31  48  76 111 141 174 222 276 326
#     4  10  19  33  52  74 101 141 182 210 254 319
#     4  10  20  32  50  72 101 140 179 225 275 322
#     4   9  18  31  47  72 104 139 173 212 250 298
#     4   9  16  27  48  74 106 145 173 197 241 309
#     4   9  17  29  46  74 110 143 172 205 248 309
#     4   9  16  26  45  73 110 148 175 201 257 325
#     4  10  18  31  51  73 104 139 176 214 255 308
#
# _framework density 18.262284000000001
#
# number of rings (size 3 to 8) (size 9 to 14) (size 15 to 20)
#    0.000    2.500    0.000    5.250    0.000    4.000 
#    0.000    3.750    0.000    4.500    0.000    2.625 
#    0.000    0.000    0.000    0.000    0.000    0.000 
#
# Total GULP energy -178187.231626 kJ/mol
# GULP energy per Si atom -5568.350988 kJ/mol
# Density = 1.822072 g / cm^3
# Si number density = 18.262284 Si / 1000 Ang^3
#
#
#
# Elastic Constant Matrix: (Units=GPa)
#
#
# Indices 1 2 3 4 5 6 
#
# 1 50.2749 25.9775 35.5576 0.0000 0.0000 0.0000
# 2 25.9775 65.3293 54.6229 0.0000 0.0000 0.0000
# 3 35.5576 54.6229 138.6535 0.0000 0.0000 0.0000
# 4 0.0000 0.0000 0.0000 23.8771 0.0000 0.0000
# 5 0.0000 0.0000 0.0000 0.0000 13.0703 0.0000
# 6 0.0000 0.0000 0.0000 0.0000 0.0000 15.4192
#
#
#
# Elastic Compliance Matrix: (Units=1/GPa)
#
#
# Indices 1 2 3 4 5 6 
#
# 1 0.026395 -0.007211 -0.003928 0.000000 0.000000 0.000000
# 2 -0.007211 0.024796 -0.007919 0.000000 0.000000 0.000000
# 3 -0.003928 -0.007919 0.011339 0.000000 0.000000 0.000000
# 4 0.000000 0.000000 0.000000 0.041881 0.000000 0.000000
# 5 0.000000 0.000000 0.000000 0.000000 0.076509 0.000000
# 6 0.000000 0.000000 0.000000 0.000000 0.000000 0.064854
#
#
# Mechanical properties :
#
#
# Convention : Reuss Voigt Hill
#
# Bulk Modulus (GPa) = 40.96146 54.06377 47.51262
# Shear Modulus (GPa) = 17.12156 19.67997 18.40077
#
# Velocity S-wave (km/s) = 3.06524 3.28629 3.17769
# Velocity P-wave (km/s) = 5.91658 6.63837 6.28784
#
# Compressibility (1/GPa) = 0.02441319
#
# Stress axis : x y z
#
# Youngs Moduli (GPa) = 37.88599 40.32934 88.18896
#
# Poissons Ratio (x) = 0.29083 0.34641
# Poissons Ratio (y) = 0.27321 0.69837
# Poissons Ratio (z) = 0.14882 0.31937
#
# Static dielectric constant tensor:
#      x y z
#    x 1.651940 0.000000 0.000000 
#    y 0.000000 1.648550 0.000000 
#    z 0.000000 0.000000 1.706090 
# 
# From -- ./inp_files/7407.got.cif
#   From: 2010.05.17/outbox.cif.g08.bks.cpg/sg37_4_cif.got.tgz:7407.got - 2010.06.03 17:53:42.
