data_PCOD9353515
_publ_section_title
;
Structure prediction by ZEFSAII (Michael W. Deem and Ramdas Pophale) SiO2 
 PCOD9353515
Probable space group: C C C 2
;
_chemical_formula_sum "Si O2"
_cell_formula_units_Z 56
_cell_length_a 12.231188
_cell_length_b 14.752589
_cell_length_c 14.219919
_cell_angle_alpha 90.000000
_cell_angle_beta 90.000000
_cell_angle_gamma 90.000000
_cell_volume 2565.866210
_symmetry_space_group_name_H-M "C C C 2"
_symmetry_group_IT_number 37
_symmetry_cell_setting 'orthorhombic'
loop_
_space_group_symop_operation_xyz
x,y,z
-x,-y,z
-x,y,1/2+z
x,-y,1/2+z
1/2+x,1/2+y,z
1/2-x,1/2-y,z
1/2-x,1/2+y,1/2+z
1/2+x,1/2-y,1/2+z
loop_
_atom_site_type_symbol
_atom_site_label
_atom_site_fract_x
_atom_site_fract_y
_atom_site_fract_z
Si Si1 0.715863 0.855491 0.401870
Si Si2 0.119300 0.268024 0.692487
Si Si3 0.971899 0.291550 0.404457
Si Si4 0.464486 0.598552 0.686894
Si Si5 0.234073 0.358213 0.191062
Si Si6 0.443071 0.406537 0.416010
Si Si7 0.028511 0.603495 0.571207
O O1 0.750000 0.750000 0.405287
O O2 0.586195 0.848406 0.414269
O O3 0.728393 0.893280 0.297247
O O4 0.817641 0.903188 0.453621
O O5 0.250000 0.250000 0.688888
O O6 0.079630 0.292189 0.800035
O O7 0.074854 0.343164 0.618646
O O8 0.051597 0.176988 0.667299
O O9 0.996970 0.188768 0.437557
O O10 0.910046 0.344385 0.485703
O O11 0.500000 0.500000 0.658991
O O12 0.345845 0.613064 0.642776
O O13 0.448672 0.598601 0.800921
O O14 0.250000 0.250000 0.197794
O O15 0.122189 0.390747 0.148786
O O16 0.500000 0.500000 0.442866
O O17 0.000000 0.500000 0.549311
#
# Coordination Sequence:
#
# PCOD9353515 Si02
#       7
#     8   8   8   8   8   8   8
#     4   8  14  31  64  88 119 171 211 258 327 398
#     4  11  24  45  69 100 140 179 225 289 346 399
#     4  10  21  42  61  92 136 181 223 276 341 410
#     4   9  18  35  66 101 124 163 217 274 336 400
#     4  10  17  38  67  88 122 171 219 264 323 403
#     4   8  15  31  62 100 127 158 219 274 333 400
#     4  12  27  43  64  99 137 185 235 275 341 412
#
# _framework density 21.824987
#
# number of rings (size 3 to 8) (size 9 to 14) (size 15 to 20)
#    0.000    2.286    2.857    1.714    2.000    2.857 
#    0.000    2.143    0.000    0.000    0.000    0.000 
#    0.000    0.000    0.000    0.000    0.000    0.000 
#
# Total GULP energy -155917.441590 kJ/mol
# GULP energy per Si atom -5568.480057 kJ/mol
# Density = 2.177531 g / cm^3
# Si number density = 21.824987 Si / 1000 Ang^3
#
#
#
# Elastic Constant Matrix: (Units=GPa)
#
#
# Indices 1 2 3 4 5 6 
#
# 1 110.5001 30.7512 3.1912 0.0000 0.0000 0.0000
# 2 30.7512 110.5778 24.5825 0.0000 0.0000 0.0000
# 3 3.1912 24.5825 72.5395 0.0000 0.0000 0.0000
# 4 0.0000 0.0000 0.0000 -8.5162 0.0000 0.0000
# 5 0.0000 0.0000 0.0000 0.0000 -47.1928 0.0000
# 6 0.0000 0.0000 0.0000 0.0000 0.0000 30.1035
#
#
#
# Elastic Compliance Matrix: (Units=1/GPa)
#
#
# Indices 1 2 3 4 5 6 
#
# 1 0.009828 -0.002852 0.000534 0.000000 0.000000 0.000000
# 2 -0.002852 0.010608 -0.003469 0.000000 0.000000 0.000000
# 3 0.000534 -0.003469 0.014938 0.000000 0.000000 0.000000
# 4 0.000000 0.000000 0.000000 -0.117423 0.000000 0.000000
# 5 0.000000 0.000000 0.000000 0.000000 -0.021190 0.000000
# 6 0.000000 0.000000 0.000000 0.000000 0.000000 0.033219
#
#
# Mechanical properties :
#
#
# Convention : Reuss Voigt Hill
#
# Bulk Modulus (GPa) = 42.01800 45.62970 43.82385
# Shear Modulus (GPa) = -98.98360 10.55172 -44.21594
#
# Velocity S-wave (km/s) = -6.74179 2.20118 -4.50592
# Velocity P-wave (km/s) = 6.42716 5.23572 2.63587
#
# Compressibility (1/GPa) = 0.02379933
#
# Stress axis : x y z
#
# Youngs Moduli (GPa) = 101.75018 94.27057 66.94430
#
# Poissons Ratio (x) = 0.26885 -0.03575
# Poissons Ratio (y) = 0.29018 0.23225
# Poissons Ratio (z) = -0.05434 0.32706
#
# Static dielectric constant tensor:
#      x y z
#    x 1.942260 0.000000 0.000000 
#    y 0.000000 1.823460 0.000000 
#    z 0.000000 0.000000 1.916340 
# 
# From -- ./inp_files/11603.got.cif
#   From: 2010.05.17/outbox.cif.g08.bks.cpg/sg37_6_cif.got.tgz:11603.got - 2010.06.03 17:53:42.
