data_PCOD9353495
_publ_section_title
;
Structure prediction by ZEFSAII (Michael W. Deem and Ramdas Pophale) SiO2 
 PCOD9353495
Probable space group: C C C 2
;
_chemical_formula_sum "Si O2"
_cell_formula_units_Z 48
_cell_length_a 22.530896
_cell_length_b 15.403147
_cell_length_c 5.578546
_cell_angle_alpha 90.000000
_cell_angle_beta 90.000000
_cell_angle_gamma 90.000000
_cell_volume 1936.015998
_symmetry_space_group_name_H-M "C C C 2"
_symmetry_group_IT_number 37
_symmetry_cell_setting 'orthorhombic'
loop_
_space_group_symop_operation_xyz
x,y,z
-x,-y,z
-x,y,1/2+z
x,-y,1/2+z
1/2+x,1/2+y,z
1/2-x,1/2-y,z
1/2-x,1/2+y,1/2+z
1/2+x,1/2-y,1/2+z
loop_
_atom_site_type_symbol
_atom_site_label
_atom_site_fract_x
_atom_site_fract_y
_atom_site_fract_z
Si Si1 0.844605 0.841211 0.056110
Si Si2 0.523967 0.400891 0.556368
Si Si3 0.277397 0.052922 0.056005
Si Si4 0.590178 0.900098 0.055956
Si Si5 0.320943 0.245534 0.556123
Si Si6 0.413638 0.109582 0.555960
O O1 0.904755 0.897263 0.056187
O O2 0.782846 0.892867 0.056025
O O3 0.843434 0.789808 0.309610
O O4 0.843462 0.789795 0.802616
O O5 0.500000 0.500000 0.556432
O O6 0.499970 0.361225 0.306414
O O7 0.277738 0.999999 0.306004
O O8 0.338431 0.107642 0.055995
O O9 0.563526 0.863233 0.813965
O O10 0.582783 0.005044 0.055947
O O11 0.563535 0.863224 0.297952
O O12 0.250000 0.250000 0.556191
O O13 0.347204 0.148556 0.556027
#
# Coordination Sequence:
#
# PCOD9353495 Si02
#       6
#     8   8   8   8   8   8
#     4  12  26  39  60  89 121 165 218 270 346 399
#     4  10  23  43  67  89 117 156 217 299 353 375
#     4  12  21  32  52  73 107 142 199 268 301 353
#     4  10  17  32  50  75  99 154 205 244 276 338
#     4  12  24  39  55  84 130 172 205 255 327 421
#     4  10  18  31  50  69 104 146 199 239 283 349
#
# _framework density 24.793182999999999
#
# number of rings (size 3 to 8) (size 9 to 14) (size 15 to 20)
#    0.000    1.000    3.333    5.500    4.667    0.000 
#    0.000    0.000    0.000    0.000    0.000    0.000 
#    0.000    0.000    0.000  210.000    0.000    0.000 
#
# Total GULP energy -134098.760873 kJ/mol
# GULP energy per Si atom -5587.448370 kJ/mol
# Density = 2.473675 g / cm^3
# Si number density = 24.793183 Si / 1000 Ang^3
#
#
#
# Elastic Constant Matrix: (Units=GPa)
#
#
# Indices 1 2 3 4 5 6 
#
# 1 167.2417 37.4489 33.7001 0.0000 0.0000 0.0000
# 2 37.4489 61.8014 46.6809 0.0000 0.0000 0.0000
# 3 33.7001 46.6809 336.5776 0.0000 0.0000 0.0000
# 4 0.0000 0.0000 0.0000 30.6448 0.0000 0.0000
# 5 0.0000 0.0000 0.0000 0.0000 450.2467 0.0000
# 6 0.0000 0.0000 0.0000 0.0000 0.0000 -82.5545
#
#
#
# Elastic Compliance Matrix: (Units=1/GPa)
#
#
# Indices 1 2 3 4 5 6 
#
# 1 0.006923 -0.004101 -0.000124 0.000000 0.000000 0.000000
# 2 -0.004101 0.020504 -0.002433 0.000000 0.000000 0.000000
# 3 -0.000124 -0.002433 0.003321 0.000000 0.000000 0.000000
# 4 0.000000 0.000000 0.000000 0.032632 0.000000 0.000000
# 5 0.000000 0.000000 0.000000 0.000000 0.002221 0.000000
# 6 0.000000 0.000000 0.000000 0.000000 0.000000 -0.012113
#
#
# Mechanical properties :
#
#
# Convention : Reuss Voigt Hill
#
# Bulk Modulus (GPa) = 57.37049 89.03116 73.20083
# Shear Modulus (GPa) = 68.85723 109.52011 89.18867
#
# Velocity S-wave (km/s) = 5.27569 6.65352 6.00426
# Velocity P-wave (km/s) = 7.76534 9.74748 8.81231
#
# Compressibility (1/GPa) = 0.01743056
#
# Stress axis : x y z
#
# Youngs Moduli (GPa) = 144.45207 48.77186 301.11501
#
# Poissons Ratio (x) = 0.20001 0.03745
# Poissons Ratio (y) = 0.59238 0.73264
# Poissons Ratio (z) = 0.01797 0.11867
#
# Static dielectric constant tensor:
#      x y z
#    x 1.943900 0.000000 0.000000 
#    y 0.000000 1.869100 0.000000 
#    z 0.000000 0.000000 2.038470 
# 
# From -- ./inp_files/1196.got.cif
#   From: 2010.05.17/outbox.cif.g08.bks.cpg/sg37_1_cif.got.tgz:1196.got - 2010.06.03 17:53:42.
