data_PCOD9353165
_publ_section_title
;
Structure prediction by ZEFSAII (Michael W. Deem and Ramdas Pophale) SiO2 
 PCOD9353165
Probable space group: C M C 21
;
_chemical_formula_sum "Si O2"
_cell_formula_units_Z 48
_cell_length_a 14.908448
_cell_length_b 19.697349
_cell_length_c 7.996122
_cell_angle_alpha 90.000000
_cell_angle_beta 90.000000
_cell_angle_gamma 90.000000
_cell_volume 2348.116425
_symmetry_space_group_name_H-M "C M C 21"
_symmetry_group_IT_number 36
_symmetry_cell_setting 'orthorhombic'
loop_
_space_group_symop_operation_xyz
x,y,z
-x,-y,1/2+z
x,-y,1/2+z
-x,y,z
1/2+x,1/2+y,z
1/2-x,1/2-y,1/2+z
1/2+x,1/2-y,1/2+z
1/2-x,1/2+y,z
loop_
_atom_site_type_symbol
_atom_site_label
_atom_site_fract_x
_atom_site_fract_y
_atom_site_fract_z
Si Si1 0.314550 0.898916 0.076220
Si Si2 0.811760 0.781100 0.981131
Si Si3 0.806709 0.839824 0.605592
Si Si4 0.817592 0.458234 0.702550
Si Si5 0.000000 0.745350 0.155060
Si Si6 0.500000 0.902081 0.568303
Si Si7 0.000000 0.805941 0.524371
Si Si8 0.000000 0.663146 0.697634
O O1 0.238474 0.841505 0.079866
O O2 0.409150 0.864950 0.117847
O O3 0.296510 0.962459 0.196004
O O4 0.321817 0.930406 0.890685
O O5 0.751760 0.713426 0.998478
O O6 0.909981 0.765762 0.054853
O O7 0.811646 0.806395 0.790629
O O8 0.755937 0.910944 0.614569
O O9 0.908165 0.846167 0.546313
O O10 0.912098 0.445275 0.609257
O O11 0.000000 0.664460 0.184218
O O12 0.000000 0.776907 0.337831
O O13 0.500000 0.866941 0.385848
O O14 0.000000 0.743510 0.658308
#
# Coordination Sequence:
#
# PCOD9353165 Si02
#       8
#     8   8   8   8   4   4   4   4
#     4  11  24  41  62  90 126 163 205 252 307 369
#     4  11  23  40  64  91 123 162 206 253 304 365
#     4  11  23  40  64  91 123 162 206 253 304 365
#     4  11  24  41  62  90 126 163 205 252 307 369
#     4  12  24  39  62  93 126 159 206 257 306 363
#     4  12  23  37  62  91 126 163 202 253 310 367
#     4  12  24  39  62  93 126 159 206 257 306 363
#     4  12  23  37  62  91 126 163 202 253 310 367
#
# _framework density 20.441915000000002
#
# number of rings (size 3 to 8) (size 9 to 14) (size 15 to 20)
#    0.000    0.667    3.333    5.500    0.000    4.000 
#    0.000    0.833    0.000    0.000    0.000    0.000 
#    0.000    0.000    0.000    0.000    0.000    0.000 
#
# Total GULP energy -134367.901506 kJ/mol
# GULP energy per Si atom -5598.662563 kJ/mol
# Density = 2.039539 g / cm^3
# Si number density = 20.441915 Si / 1000 Ang^3
#
#
#
# Elastic Constant Matrix: (Units=GPa)
#
#
# Indices 1 2 3 4 5 6 
#
# 1 154.4513 35.9332 8.6923 0.0000 0.0000 0.0000
# 2 35.9332 64.4684 -21.0884 0.0000 0.0000 0.0000
# 3 8.6923 -21.0884 46.0439 0.0000 0.0000 0.0000
# 4 0.0000 0.0000 0.0000 29.5043 0.0000 0.0000
# 5 0.0000 0.0000 0.0000 0.0000 2.0854 0.0000
# 6 0.0000 0.0000 0.0000 0.0000 0.0000 20.3428
#
#
#
# Elastic Compliance Matrix: (Units=1/GPa)
#
#
# Indices 1 2 3 4 5 6 
#
# 1 0.008081 -0.005885 -0.004221 0.000000 0.000000 0.000000
# 2 -0.005885 0.022531 0.011430 0.000000 0.000000 0.000000
# 3 -0.004221 0.011430 0.027750 0.000000 0.000000 0.000000
# 4 0.000000 0.000000 0.000000 0.033893 0.000000 0.000000
# 5 0.000000 0.000000 0.000000 0.000000 0.479528 0.000000
# 6 0.000000 0.000000 0.000000 0.000000 0.000000 0.049157
#
#
# Mechanical properties :
#
#
# Convention : Reuss Voigt Hill
#
# Bulk Modulus (GPa) = 16.39063 34.67086 25.53074
# Shear Modulus (GPa) = 7.82926 26.48161 17.15543
#
# Velocity S-wave (km/s) = 1.95916 3.60315 2.90009
# Velocity P-wave (km/s) = 3.62675 5.85728 4.87140
#
# Compressibility (1/GPa) = 0.06101048
#
# Stress axis : x y z
#
# Youngs Moduli (GPa) = 123.74345 44.38408 36.03559
#
# Poissons Ratio (x) = 0.26120 0.15211
# Poissons Ratio (y) = 0.72823 -0.41189
# Poissons Ratio (z) = 0.52232 -0.50732
#
# Static dielectric constant tensor:
#      x y z
#    x 1.698140 0.000000 0.000000 
#    y 0.000000 1.693000 0.000000 
#    z 0.000000 0.000000 1.773840 
# 
# From -- ./inp_files/4027.got.cif
#   From: 2010.05.17/outbox.cif.g08.bks.cpg/sg36_3_cif.got.tgz:4027.got - 2010.06.03 17:41:39.
