data_PCOD9353799
_publ_section_title
;
Structure prediction by ZEFSAII (Michael W. Deem and Ramdas Pophale) SiO2 
 PCOD9353799
Probable space group: C C C 2
;
_chemical_formula_sum "Si O2"
_cell_formula_units_Z 64
_cell_length_a 15.667528
_cell_length_b 8.804643
_cell_length_c 24.044329
_cell_angle_alpha 90.000000
_cell_angle_beta 90.000000
_cell_angle_gamma 90.000000
_cell_volume 3316.842830
_symmetry_space_group_name_H-M "C C C 2"
_symmetry_group_IT_number 37
_symmetry_cell_setting 'orthorhombic'
loop_
_space_group_symop_operation_xyz
x,y,z
-x,-y,z
-x,y,1/2+z
x,-y,1/2+z
1/2+x,1/2+y,z
1/2-x,1/2-y,z
1/2-x,1/2+y,1/2+z
1/2+x,1/2-y,1/2+z
loop_
_atom_site_type_symbol
_atom_site_label
_atom_site_fract_x
_atom_site_fract_y
_atom_site_fract_z
Si Si1 0.567028 0.899371 0.079190
Si Si2 0.671491 0.363690 0.344350
Si Si3 0.995657 0.672317 0.345904
Si Si4 0.410408 0.409513 0.266381
Si Si5 0.356451 0.490400 0.963244
Si Si6 0.510095 0.750478 0.471379
Si Si7 0.753870 0.432743 0.064131
Si Si8 0.335623 0.349957 0.145829
O O1 0.599549 0.745683 0.107648
O O2 0.500000 0.000000 0.114033
O O3 0.650727 0.002219 0.070171
O O4 0.514495 0.850579 0.024119
O O5 0.750000 0.250000 0.340635
O O6 0.585801 0.261084 0.343830
O O7 0.659314 0.480976 0.294430
O O8 0.676207 0.463828 0.400770
O O9 0.975799 0.670226 0.411885
O O10 0.000000 0.500000 0.325541
O O11 0.930523 0.770840 0.308656
O O12 0.500000 0.500000 0.262468
O O13 0.378294 0.368969 0.205503
O O14 0.406514 0.645819 0.976462
O O15 0.428433 0.361203 0.968069
O O16 0.282497 0.487166 0.008448
O O17 0.750000 0.250000 0.061290
O O18 0.694788 0.497398 0.114254
O O19 0.250000 0.250000 0.151304
#
# Coordination Sequence:
#
# PCOD9353799 Si02
#       8
#     8   8   8   8   8   8   8   8
#     4  11  23  40  64  93 126 165 211 259 322 381
#     4  10  22  39  62  89 123 168 210 256 321 375
#     4  10  21  38  61  91 124 162 209 263 310 375
#     4  10  22  43  64  88 123 166 215 260 309 376
#     4  10  20  36  61  89 126 163 203 258 317 381
#     4  10  19  36  62  89 125 165 204 255 319 378
#     4  11  24  41  61  95 129 162 211 263 317 382
#     4  10  24  44  66  89 126 169 212 266 315 367
#
# _framework density 19.295456000000001
#
# number of rings (size 3 to 8) (size 9 to 14) (size 15 to 20)
#    0.000    1.750    2.500    1.125    3.500    4.000 
#    0.000    5.625    0.000    0.000    0.000    0.000 
#    0.000    0.000    0.000    0.000    0.000    0.000 
#
# Total GULP energy -178506.596271 kJ/mol
# GULP energy per Si atom -5578.331133 kJ/mol
# Density = 1.925154 g / cm^3
# Si number density = 19.295456 Si / 1000 Ang^3
#
#
#
# Elastic Constant Matrix: (Units=GPa)
#
#
# Indices 1 2 3 4 5 6 
#
# 1 82.0508 30.3745 43.2766 0.0000 0.0000 0.0000
# 2 30.3745 105.2691 53.4144 0.0000 0.0000 0.0000
# 3 43.2766 53.4144 127.6409 0.0000 0.0000 0.0000
# 4 0.0000 0.0000 0.0000 -6.3442 0.0000 0.0000
# 5 0.0000 0.0000 0.0000 0.0000 22.5127 0.0000
# 6 0.0000 0.0000 0.0000 0.0000 0.0000 16.3872
#
#
#
# Elastic Compliance Matrix: (Units=1/GPa)
#
#
# Indices 1 2 3 4 5 6 
#
# 1 0.015252 -0.002256 -0.004227 0.000000 0.000000 0.000000
# 2 -0.002256 0.012394 -0.004422 0.000000 0.000000 0.000000
# 3 -0.004227 -0.004422 0.011118 0.000000 0.000000 0.000000
# 4 0.000000 0.000000 0.000000 -0.157624 0.000000 0.000000
# 5 0.000000 0.000000 0.000000 0.000000 0.044419 0.000000
# 6 0.000000 0.000000 0.000000 0.000000 0.000000 0.061023
#
#
# Mechanical properties :
#
#
# Convention : Reuss Voigt Hill
#
# Bulk Modulus (GPa) = 58.98100 63.23241 61.10671
# Shear Modulus (GPa) = 356.01473 19.03749 187.52611
#
# Velocity S-wave (km/s) = 13.59807 3.14448 9.86902
# Velocity P-wave (km/s) = 16.64864 6.78420 12.71225
#
# Compressibility (1/GPa) = 0.01695461
#
# Stress axis : x y z
#
# Youngs Moduli (GPa) = 65.56381 80.68416 89.94373
#
# Poissons Ratio (x) = 0.18202 0.38021
# Poissons Ratio (y) = 0.14791 0.39770
# Poissons Ratio (z) = 0.27715 0.35676
#
# Static dielectric constant tensor:
#      x y z
#    x 1.663040 0.000000 0.000000 
#    y 0.000000 1.701520 0.000000 
#    z 0.000000 0.000000 1.668310 
# 
# From -- ./inp_files/18904.got.cif
#   From: 2010.05.17/outbox.cif.g08.bks.cpg/sg37_10_cif.got.tgz:18904.got - 2010.06.03 17:53:42.
