data_PCOD9353750
_publ_section_title
;
Structure prediction by ZEFSAII (Michael W. Deem and Ramdas Pophale) SiO2 
 PCOD9353750
Probable space group: C C C 2
;
_chemical_formula_sum "Si O2"
_cell_formula_units_Z 48
_cell_length_a 14.631177
_cell_length_b 18.561872
_cell_length_c 8.748299
_cell_angle_alpha 90.000000
_cell_angle_beta 90.000000
_cell_angle_gamma 90.000000
_cell_volume 2375.880842
_symmetry_space_group_name_H-M "C C C 2"
_symmetry_group_IT_number 37
_symmetry_cell_setting 'orthorhombic'
loop_
_space_group_symop_operation_xyz
x,y,z
-x,-y,z
-x,y,1/2+z
x,-y,1/2+z
1/2+x,1/2+y,z
1/2-x,1/2-y,z
1/2-x,1/2+y,1/2+z
1/2+x,1/2-y,1/2+z
loop_
_atom_site_type_symbol
_atom_site_label
_atom_site_fract_x
_atom_site_fract_y
_atom_site_fract_z
Si Si1 0.376352 0.560137 0.960150
Si Si2 0.250000 0.750000 0.533174
Si Si3 0.000000 0.000000 0.697304
Si Si4 0.389615 0.847727 0.372657
Si Si5 0.695164 0.023217 0.546615
Si Si6 0.086398 0.373777 0.521818
Si Si7 0.763194 0.361554 0.792259
O O1 0.423194 0.531296 0.807125
O O2 0.320222 0.629385 0.909188
O O3 0.454056 0.559716 0.088227
O O4 0.295824 0.507668 0.016620
O O5 0.335005 0.778168 0.434221
O O6 0.269482 0.685626 0.650927
O O7 0.328967 0.917212 0.419332
O O8 0.484151 0.863555 0.460876
O O9 0.404811 0.843370 0.192328
O O10 0.700480 0.065014 0.709118
O O11 0.623268 0.956888 0.537780
O O12 0.152351 0.336831 0.396187
#
# Coordination Sequence:
#
# PCOD9353750 Si02
#       7
#     8   4   4   8   8   8   8
#     4  10  19  35  56  87 120 159 199 257 312 355
#     4  10  24  44  60  82 126 168 210 248 302 368
#     4  10  20  32  56  84 128 152 202 250 298 380
#     4  11  23  39  63  91 129 165 203 254 307 383
#     4  10  20  36  62  94 130 158 199 257 334 365
#     4  11  22  38  66  98 122 156 206 263 315 366
#     4  10  21  40  64  87 127 166 203 259 308 376
#
# _framework density 20.203033000000001
#
# number of rings (size 3 to 8) (size 9 to 14) (size 15 to 20)
#    0.000    1.667    1.667    4.500    2.333    2.000 
#    0.000    3.333    0.000    0.000    0.000    0.000 
#    0.000    0.000    0.000    0.000    0.000    0.000 
#
# Total GULP energy -133843.318010 kJ/mol
# GULP energy per Si atom -5576.804917 kJ/mol
# Density = 2.015705 g / cm^3
# Si number density = 20.203033 Si / 1000 Ang^3
#
#
#
# Elastic Constant Matrix: (Units=GPa)
#
#
# Indices 1 2 3 4 5 6 
#
# 1 113.7094 39.8331 53.3814 0.0000 0.0000 0.0000
# 2 39.8331 57.0049 31.2894 0.0000 0.0000 0.0000
# 3 53.3814 31.2894 143.6766 0.0000 0.0000 0.0000
# 4 0.0000 0.0000 0.0000 27.0475 0.0000 0.0000
# 5 0.0000 0.0000 0.0000 0.0000 34.0015 0.0000
# 6 0.0000 0.0000 0.0000 0.0000 0.0000 15.3364
#
#
#
# Elastic Compliance Matrix: (Units=1/GPa)
#
#
# Indices 1 2 3 4 5 6 
#
# 1 0.012817 -0.007203 -0.003193 0.000000 0.000000 0.000000
# 2 -0.007203 0.023972 -0.002544 0.000000 0.000000 0.000000
# 3 -0.003193 -0.002544 0.008701 0.000000 0.000000 0.000000
# 4 0.000000 0.000000 0.000000 0.036972 0.000000 0.000000
# 5 0.000000 0.000000 0.000000 0.000000 0.029410 0.000000
# 6 0.000000 0.000000 0.000000 0.000000 0.000000 0.065204
#
#
# Mechanical properties :
#
#
# Convention : Reuss Voigt Hill
#
# Bulk Modulus (GPa) = 50.99936 62.59985 56.79961
# Shear Modulus (GPa) = 23.86703 27.93621 25.90162
#
# Velocity S-wave (km/s) = 3.44082 3.72260 3.58448
# Velocity P-wave (km/s) = 6.40967 7.03773 6.73103
#
# Compressibility (1/GPa) = 0.01960809
#
# Stress axis : x y z
#
# Youngs Moduli (GPa) = 78.02298 41.71487 114.93490
#
# Poissons Ratio (x) = 0.30048 0.36701
# Poissons Ratio (y) = 0.56201 0.29243
# Poissons Ratio (z) = 0.24914 0.10614
#
# Static dielectric constant tensor:
#      x y z
#    x 1.718830 0.000000 0.000000 
#    y 0.000000 1.768130 0.000000 
#    z 0.000000 0.000000 1.723270 
# 
# From -- ./inp_files/3534.got.cif
#   From: 2010.05.17/outbox.cif.g08.bks.cpg/sg37_2_cif.got.tgz:3534.got - 2010.06.03 17:53:42.
