data_PCOD9353699
_publ_section_title
;
Structure prediction by ZEFSAII (Michael W. Deem and Ramdas Pophale) SiO2 
 PCOD9353699
Probable space group: C C C 2
;
_chemical_formula_sum "Si O2"
_cell_formula_units_Z 32
_cell_length_a 41.360230
_cell_length_b 6.701058
_cell_length_c 5.124695
_cell_angle_alpha 90.000000
_cell_angle_beta 90.000000
_cell_angle_gamma 90.000000
_cell_volume 1420.346630
_symmetry_space_group_name_H-M "C C C 2"
_symmetry_group_IT_number 37
_symmetry_cell_setting 'orthorhombic'
loop_
_space_group_symop_operation_xyz
x,y,z
-x,-y,z
-x,y,1/2+z
x,-y,1/2+z
1/2+x,1/2+y,z
1/2-x,1/2-y,z
1/2-x,1/2+y,1/2+z
1/2+x,1/2-y,1/2+z
loop_
_atom_site_type_symbol
_atom_site_label
_atom_site_fract_x
_atom_site_fract_y
_atom_site_fract_z
Si Si1 0.486505 0.720557 0.924270
Si Si2 0.782807 0.367918 0.742352
Si Si3 0.649357 0.862166 0.364664
Si Si4 0.080735 0.637632 0.754276
O O1 0.500000 0.500000 0.977663
O O2 0.511049 0.811339 0.712263
O O3 0.450659 0.731010 0.812099
O O4 0.783132 0.448924 0.447728
O O5 0.750000 0.250000 0.788829
O O6 0.816605 0.255870 0.805421
O O7 0.649308 0.952990 0.655712
O O8 0.615283 0.757001 0.306168
O O9 0.079918 0.541914 0.467536
#
# Coordination Sequence:
#
# PCOD9353699 Si02
#       4
#     8   8   8   8
#     4  10  21  35  50  68 100 134 162 198 266 312
#     4  10  19  33  55  79 112 144 178 218 264 315
#     4   8  16  30  49  74  99 133 166 208 258 296
#     4  10  19  32  53  77  98 125 175 218 246 295
#
# _framework density 22.529713000000001
#
# number of rings (size 3 to 8) (size 9 to 14) (size 15 to 20)
#    0.000    2.500    0.000    2.250    0.000    3.000 
#    0.000    0.000   11.000    0.000    0.000    0.000 
#    0.000    0.000    0.000    0.000    0.000    0.000 
#
# Total GULP energy -89204.581154 kJ/mol
# GULP energy per Si atom -5575.286322 kJ/mol
# Density = 2.247843 g / cm^3
# Si number density = 22.529713 Si / 1000 Ang^3
#
#
#
# Elastic Constant Matrix: (Units=GPa)
#
#
# Indices 1 2 3 4 5 6 
#
# 1 226.0540 13.0053 -2.8099 0.0000 0.0000 0.0000
# 2 13.0053 28.0787 -14.3190 0.0000 0.0000 0.0000
# 3 -2.8099 -14.3190 127.1882 0.0000 0.0000 0.0000
# 4 0.0000 0.0000 0.0000 8.8885 0.0000 0.0000
# 5 0.0000 0.0000 0.0000 0.0000 37.4105 0.0000
# 6 0.0000 0.0000 0.0000 0.0000 0.0000 28.8152
#
#
#
# Elastic Compliance Matrix: (Units=1/GPa)
#
#
# Indices 1 2 3 4 5 6 
#
# 1 0.004547 -0.002180 -0.000145 0.000000 0.000000 0.000000
# 2 -0.002180 0.038829 0.004323 0.000000 0.000000 0.000000
# 3 -0.000145 0.004323 0.008346 0.000000 0.000000 0.000000
# 4 0.000000 0.000000 0.000000 0.112505 0.000000 0.000000
# 5 0.000000 0.000000 0.000000 0.000000 0.026730 0.000000
# 6 0.000000 0.000000 0.000000 0.000000 0.000000 0.034704
#
#
# Mechanical properties :
#
#
# Convention : Reuss Voigt Hill
#
# Bulk Modulus (GPa) = 17.94751 41.45263 29.70007
# Shear Modulus (GPa) = 20.81272 40.71915 30.76594
#
# Velocity S-wave (km/s) = 3.04269 4.25591 3.69937
# Velocity P-wave (km/s) = 4.50859 6.52606 5.60878
#
# Compressibility (1/GPa) = 0.05571805
#
# Stress axis : x y z
#
# Youngs Moduli (GPa) = 219.90845 25.75418 119.81970
#
# Poissons Ratio (x) = 0.05615 0.01737
# Poissons Ratio (y) = 0.47943 -0.51801
# Poissons Ratio (z) = 0.03188 -0.11134
#
# Static dielectric constant tensor:
#      x y z
#    x 1.926920 0.000000 0.000000 
#    y 0.000000 1.125600 0.000000 
#    z 0.000000 0.000000 1.878350 
# 
# From -- ./inp_files/146.got.cif
#   From: 2010.05.17/outbox.cif.g08.bks.cpg/sg37_1_cif.got.tgz:146.got - 2010.06.03 17:53:42.
