data_PCOD9353491
_publ_section_title
;
Structure prediction by ZEFSAII (Michael W. Deem and Ramdas Pophale) SiO2 
 PCOD9353491
Probable space group: C C C 2
;
_chemical_formula_sum "Si O2"
_cell_formula_units_Z 60
_cell_length_a 11.829734
_cell_length_b 19.242561
_cell_length_c 14.742602
_cell_angle_alpha 90.000000
_cell_angle_beta 90.000000
_cell_angle_gamma 90.000000
_cell_volume 3355.923038
_symmetry_space_group_name_H-M "C C C 2"
_symmetry_group_IT_number 37
_symmetry_cell_setting 'orthorhombic'
loop_
_space_group_symop_operation_xyz
x,y,z
-x,-y,z
-x,y,1/2+z
x,-y,1/2+z
1/2+x,1/2+y,z
1/2-x,1/2-y,z
1/2-x,1/2+y,1/2+z
1/2+x,1/2-y,1/2+z
loop_
_atom_site_type_symbol
_atom_site_label
_atom_site_fract_x
_atom_site_fract_y
_atom_site_fract_z
Si Si1 0.679068 0.602900 0.996860
Si Si2 0.993718 0.899115 0.337674
Si Si3 0.664211 0.184009 0.961326
Si Si4 0.116438 0.256383 0.646475
Si Si5 0.973952 0.100657 0.129277
Si Si6 0.984213 0.260898 0.333280
Si Si7 0.186918 0.952955 0.973498
Si Si8 0.250000 0.750000 0.444365
O O1 0.597834 0.601696 0.907868
O O2 0.741337 0.528997 0.985259
O O3 0.741545 0.676758 0.997288
O O4 0.597118 0.599960 0.083885
O O5 0.023645 0.920006 0.234909
O O6 0.962529 0.816961 0.332020
O O7 0.896418 0.943855 0.386481
O O8 0.750000 0.250000 0.952526
O O9 0.571624 0.189876 0.883470
O O10 0.729105 0.111643 0.965461
O O11 0.605129 0.197241 0.057925
O O12 0.250000 0.250000 0.668986
O O13 0.072663 0.179270 0.624635
O O14 0.046991 0.282594 0.732016
O O15 0.892360 0.058044 0.062277
O O16 0.864640 0.255550 0.385610
#
# Coordination Sequence:
#
# PCOD9353491 Si02
#       8
#     8   8   8   8   8   8   8   4
#     4  10  22  34  53  80 113 146 186 232 287 341
#     4   9  18  32  55  83 115 141 176 233 288 338
#     4  11  19  35  58  82 117 149 184 232 280 340
#     4  10  17  31  56  86 110 149 194 226 275 343
#     4  10  18  33  56  84 114 147 181 234 289 337
#     4  10  19  33  57  83 111 149 192 230 273 334
#     4  11  20  34  53  84 115 147 188 230 291 343
#     4  10  20  38  54  76 110 148 188 236 276 336
#
# _framework density 17.878837000000001
#
# number of rings (size 3 to 8) (size 9 to 14) (size 15 to 20)
#    0.000    1.867    4.667    3.200    0.000    2.133 
#    0.000    4.667    1.467    0.000    0.000    7.467 
#    0.000    0.000    0.000    0.000    0.000    0.000 
#
# Total GULP energy -167230.648954 kJ/mol
# GULP energy per Si atom -5574.354965 kJ/mol
# Density = 1.783814 g / cm^3
# Si number density = 17.878837 Si / 1000 Ang^3
#
#
#
# Elastic Constant Matrix: (Units=GPa)
#
#
# Indices 1 2 3 4 5 6 
#
# 1 37.2040 34.0861 20.1662 0.0000 0.0000 0.0000
# 2 34.0861 123.5673 11.0288 0.0000 0.0000 0.0000
# 3 20.1662 11.0288 105.5828 0.0000 0.0000 0.0000
# 4 0.0000 0.0000 0.0000 1.1792 0.0000 0.0000
# 5 0.0000 0.0000 0.0000 0.0000 21.7960 0.0000
# 6 0.0000 0.0000 0.0000 0.0000 0.0000 25.3632
#
#
#
# Elastic Compliance Matrix: (Units=1/GPa)
#
#
# Indices 1 2 3 4 5 6 
#
# 1 0.040003 -0.010450 -0.006549 0.000000 0.000000 0.000000
# 2 -0.010450 0.010899 0.000858 0.000000 0.000000 0.000000
# 3 -0.006549 0.000858 0.010633 0.000000 0.000000 0.000000
# 4 0.000000 0.000000 0.000000 0.848035 0.000000 0.000000
# 5 0.000000 0.000000 0.000000 0.000000 0.045880 0.000000
# 6 0.000000 0.000000 0.000000 0.000000 0.000000 0.039427
#
#
# Mechanical properties :
#
#
# Convention : Reuss Voigt Hill
#
# Bulk Modulus (GPa) = 34.18678 44.10183 39.14430
# Shear Modulus (GPa) = 4.82202 23.07256 13.94729
#
# Velocity S-wave (km/s) = 1.64405 3.59624 2.79606
# Velocity P-wave (km/s) = 4.77145 6.47801 5.68908
#
# Compressibility (1/GPa) = 0.02925107
#
# Stress axis : x y z
#
# Youngs Moduli (GPa) = 24.99797 91.75178 94.05124
#
# Poissons Ratio (x) = 0.95884 0.61594
# Poissons Ratio (y) = 0.26124 -0.08065
# Poissons Ratio (z) = 0.16371 -0.07868
#
# Static dielectric constant tensor:
#      x y z
#    x 1.601570 0.000000 0.000000 
#    y 0.000000 1.659030 0.000000 
#    z 0.000000 0.000000 1.621830 
# 
# From -- ./inp_files/11739.got.cif
#   From: 2010.05.17/outbox.cif.g08.bks.cpg/sg37_6_cif.got.tgz:11739.got - 2010.06.03 17:53:42.
