data_PCOD9353506
_publ_section_title
;
Structure prediction by ZEFSAII (Michael W. Deem and Ramdas Pophale) SiO2 
 PCOD9353506
Probable space group: C C C 2
;
_chemical_formula_sum "Si O2"
_cell_formula_units_Z 64
_cell_length_a 23.202346
_cell_length_b 11.501646
_cell_length_c 12.904965
_cell_angle_alpha 90.000000
_cell_angle_beta 90.000000
_cell_angle_gamma 90.000000
_cell_volume 3443.885679
_symmetry_space_group_name_H-M "C C C 2"
_symmetry_group_IT_number 37
_symmetry_cell_setting 'orthorhombic'
loop_
_space_group_symop_operation_xyz
x,y,z
-x,-y,z
-x,y,1/2+z
x,-y,1/2+z
1/2+x,1/2+y,z
1/2-x,1/2-y,z
1/2-x,1/2+y,1/2+z
1/2+x,1/2-y,1/2+z
loop_
_atom_site_type_symbol
_atom_site_label
_atom_site_fract_x
_atom_site_fract_y
_atom_site_fract_z
Si Si1 0.948725 0.371154 0.402080
Si Si2 0.893044 0.373403 0.616339
Si Si3 0.189554 0.815326 0.517610
Si Si4 0.814644 0.267813 0.951090
Si Si5 0.924745 0.627046 0.335586
Si Si6 0.359840 0.292618 0.796580
Si Si7 0.191077 0.413300 0.655266
Si Si8 0.321327 0.565394 0.120278
O O1 0.932438 0.406174 0.519266
O O2 0.926526 0.485928 0.341020
O O3 0.915859 0.261735 0.351925
O O4 0.016320 0.344980 0.394861
O O5 0.856448 0.269398 0.569384
O O6 0.929714 0.339467 0.715771
O O7 0.848121 0.472230 0.654560
O O8 0.250000 0.750000 0.533976
O O9 0.179349 0.827610 0.394468
O O10 0.180240 0.937908 0.572827
O O11 0.750000 0.250000 0.903620
O O12 0.867326 0.309760 0.879080
O O13 0.809922 0.368944 0.036791
O O14 0.826849 0.154721 0.023109
O O15 0.332572 0.186139 0.730845
O O16 0.365080 0.394650 0.711009
O O17 0.258768 0.425277 0.675672
#
# Coordination Sequence:
#
# PCOD9353506 Si02
#       8
#     8   8   8   8   8   8   8   8
#     4  10  23  38  61  89 124 165 208 260 324 384
#     4  11  22  36  59  88 129 150 206 264 314 374
#     4  11  22  37  57  89 125 165 208 269 305 368
#     4   9  20  36  59  88 123 156 200 256 311 388
#     4  11  22  38  61  94 123 160 204 264 331 374
#     4  10  21  38  60  85 121 168 208 254 323 382
#     4  10  17  36  57  87 119 159 200 252 317 384
#     4  10  21  37  60  84 123 172 212 248 314 383
#
# _framework density 18.583659999999998
#
# number of rings (size 3 to 8) (size 9 to 14) (size 15 to 20)
#    0.000    1.750    3.750    1.875    0.000    5.500 
#    4.500    0.000    0.000    9.750    0.000    0.000 
#    0.000    0.000    0.000    0.000    0.000    0.000 
#
# Total GULP energy -178207.195637 kJ/mol
# GULP energy per Si atom -5568.974864 kJ/mol
# Density = 1.854136 g / cm^3
# Si number density = 18.583660 Si / 1000 Ang^3
#
#
#
# Elastic Constant Matrix: (Units=GPa)
#
#
# Indices 1 2 3 4 5 6 
#
# 1 84.7365 22.3175 31.8270 0.0000 0.0000 0.0000
# 2 22.3175 76.7377 23.1443 0.0000 0.0000 0.0000
# 3 31.8270 23.1443 94.9067 0.0000 0.0000 0.0000
# 4 0.0000 0.0000 0.0000 14.7919 0.0000 0.0000
# 5 0.0000 0.0000 0.0000 0.0000 -0.0240 0.0000
# 6 0.0000 0.0000 0.0000 0.0000 0.0000 18.9859
#
#
#
# Elastic Compliance Matrix: (Units=1/GPa)
#
#
# Indices 1 2 3 4 5 6 
#
# 1 0.014068 -0.002880 -0.004015 0.000000 0.000000 0.000000
# 2 -0.002880 0.014656 -0.002608 0.000000 0.000000 0.000000
# 3 -0.004015 -0.002608 0.012519 0.000000 0.000000 0.000000
# 4 0.000000 0.000000 0.000000 0.067604 0.000000 0.000000
# 5 0.000000 0.000000 0.000000 0.000000-41.613544 0.000000
# 6 0.000000 0.000000 0.000000 0.000000 0.000000 0.052671
#
#
# Mechanical properties :
#
#
# Convention : Reuss Voigt Hill
#
# Bulk Modulus (GPa) = 44.97314 45.66204 45.31759
# Shear Modulus (GPa) = -0.12070 18.69023 9.28477
#
# Velocity S-wave (km/s) = -0.25513 3.17477 2.23764
# Velocity P-wave (km/s) = 4.91590 6.16955 5.57806
#
# Compressibility (1/GPa) = 0.02223550
#
# Stress axis : x y z
#
# Youngs Moduli (GPa) = 71.08305 68.23285 79.87723
#
# Poissons Ratio (x) = 0.19654 0.32073
# Poissons Ratio (y) = 0.20475 0.20832
# Poissons Ratio (z) = 0.28542 0.17795
#
# Static dielectric constant tensor:
#      x y z
#    x 1.695860 0.000000 0.000000 
#    y 0.000000 1.669690 0.000000 
#    z 0.000000 0.000000 1.660860 
# 
# From -- ./inp_files/8938.got.cif
#   From: 2010.05.17/outbox.cif.g08.bks.cpg/sg37_5_cif.got.tgz:8938.got - 2010.06.03 17:53:42.
