data_PCOD9353007
_publ_section_title
;
Structure prediction by ZEFSAII (Michael W. Deem and Ramdas Pophale) SiO2 
 PCOD9353007
Probable space group: C M C 21
;
_chemical_formula_sum "Si O2"
_cell_formula_units_Z 64
_cell_length_a 8.479342
_cell_length_b 31.347567
_cell_length_c 12.267171
_cell_angle_alpha 90.000000
_cell_angle_beta 90.000000
_cell_angle_gamma 90.000000
_cell_volume 3260.696750
_symmetry_space_group_name_H-M "C M C 21"
_symmetry_group_IT_number 36
_symmetry_cell_setting 'orthorhombic'
loop_
_space_group_symop_operation_xyz
x,y,z
-x,-y,1/2+z
x,-y,1/2+z
-x,y,z
1/2+x,1/2+y,z
1/2-x,1/2-y,1/2+z
1/2+x,1/2-y,1/2+z
1/2-x,1/2+y,z
loop_
_atom_site_type_symbol
_atom_site_label
_atom_site_fract_x
_atom_site_fract_y
_atom_site_fract_z
Si Si1 0.310578 0.543592 0.559470
Si Si2 0.814230 0.664661 0.342347
Si Si3 0.189577 0.374151 0.447993
Si Si4 0.311958 0.793940 0.067217
Si Si5 0.814049 0.450924 0.603080
Si Si6 0.310043 0.302893 0.612191
Si Si7 0.311056 0.374927 0.200906
Si Si8 0.184336 0.925088 0.831977
O O1 0.500000 0.547168 0.556378
O O2 0.264517 0.497164 0.600339
O O3 0.253757 0.583213 0.633506
O O4 0.255625 0.547805 0.434305
O O5 0.785637 0.697948 0.439004
O O6 0.766880 0.680945 0.223857
O O7 0.708958 0.623554 0.367434
O O8 0.000000 0.653241 0.344041
O O9 0.242779 0.417195 0.511799
O O10 0.257679 0.333801 0.514110
O O11 0.242085 0.374553 0.322711
O O12 0.000000 0.372371 0.454203
O O13 0.500000 0.796722 0.086723
O O14 0.260742 0.746160 0.095397
O O15 0.234610 0.831871 0.136553
O O16 0.778348 0.431431 0.721186
O O17 0.000000 0.456379 0.588030
O O18 0.500000 0.304768 0.620945
O O19 0.500000 0.377279 0.208624
O O20 0.000000 0.934042 0.811577
#
# Coordination Sequence:
#
# PCOD9353007 Si02
#       8
#     8   8   8   8   8   8   8   8
#     4  10  24  43  64  94 126 162 208 255 312 373
#     4  11  22  40  65  93 126 164 208 262 316 371
#     4  11  25  44  63  92 129 168 210 258 315 373
#     4  10  24  43  64  94 129 165 209 258 315 375
#     4  11  25  42  64  94 126 164 210 256 311 374
#     4  11  24  42  65  95 126 167 213 257 314 374
#     4  11  24  43  66  93 126 167 213 258 312 375
#     4  11  22  41  67  93 124 161 207 262 313 371
#
# _framework density 19.627706
#
# number of rings (size 3 to 8) (size 9 to 14) (size 15 to 20)
#    0.000    1.250    2.500    2.250    3.500    5.000 
#    0.000    0.000    0.000    0.000    0.000    0.000 
#    0.000    0.000    0.000    0.000    0.000    0.000 
#
# Total GULP energy -178827.851056 kJ/mol
# GULP energy per Si atom -5588.370346 kJ/mol
# Density = 1.958303 g / cm^3
# Si number density = 19.627706 Si / 1000 Ang^3
#
#
#
# Elastic Constant Matrix: (Units=GPa)
#
#
# Indices 1 2 3 4 5 6 
#
# 1 15.7515 7.1663 15.6482 0.0000 0.0000 0.0000
# 2 7.1663 105.1573 27.0095 0.0000 0.0000 0.0000
# 3 15.6482 27.0095 108.7107 0.0000 0.0000 0.0000
# 4 0.0000 0.0000 0.0000 19.6938 0.0000 0.0000
# 5 0.0000 0.0000 0.0000 0.0000 31.8175 0.0000
# 6 0.0000 0.0000 0.0000 0.0000 0.0000 29.2855
#
#
#
# Elastic Compliance Matrix: (Units=1/GPa)
#
#
# Indices 1 2 3 4 5 6 
#
# 1 0.074683 -0.002487 -0.010132 0.000000 0.000000 0.000000
# 2 -0.002487 0.010241 -0.002186 0.000000 0.000000 0.000000
# 3 -0.010132 -0.002186 0.011200 0.000000 0.000000 0.000000
# 4 0.000000 0.000000 0.000000 0.050777 0.000000 0.000000
# 5 0.000000 0.000000 0.000000 0.000000 0.031429 0.000000
# 6 0.000000 0.000000 0.000000 0.000000 0.000000 0.034147
#
#
# Mechanical properties :
#
#
# Convention : Reuss Voigt Hill
#
# Bulk Modulus (GPa) = 15.03465 36.58527 25.80996
# Shear Modulus (GPa) = 18.92077 28.14573 23.53325
#
# Velocity S-wave (km/s) = 3.10818 3.79090 3.46639
# Velocity P-wave (km/s) = 4.53404 6.15153 5.40365
#
# Compressibility (1/GPa) = 0.06651300
#
# Stress axis : x y z
#
# Youngs Moduli (GPa) = 13.38987 97.65049 89.28260
#
# Poissons Ratio (x) = 0.24287 0.90463
# Poissons Ratio (y) = 0.03330 0.19520
# Poissons Ratio (z) = 0.13567 0.21349
#
# Static dielectric constant tensor:
#      x y z
#    x 1.675200 0.000000 0.000000 
#    y 0.000000 1.672060 0.000000 
#    z 0.000000 0.000000 1.661920 
# 
# From -- ./inp_files/7202.got.cif
#   From: 2010.05.17/outbox.cif.g08.bks.cpg/sg36_4_cif.got.tgz:7202.got - 2010.06.03 17:41:39.
