data_PCOD9353134
_publ_section_title
;
Structure prediction by ZEFSAII (Michael W. Deem and Ramdas Pophale) SiO2 
 PCOD9353134
Probable space group: C M C 21
;
_chemical_formula_sum "Si O2"
_cell_formula_units_Z 52
_cell_length_a 11.379195
_cell_length_b 15.913880
_cell_length_c 12.616988
_cell_angle_alpha 90.000000
_cell_angle_beta 90.000000
_cell_angle_gamma 90.000000
_cell_volume 2284.774319
_symmetry_space_group_name_H-M "C M C 21"
_symmetry_group_IT_number 36
_symmetry_cell_setting 'orthorhombic'
loop_
_space_group_symop_operation_xyz
x,y,z
-x,-y,1/2+z
x,-y,1/2+z
-x,y,z
1/2+x,1/2+y,z
1/2-x,1/2-y,1/2+z
1/2+x,1/2-y,1/2+z
1/2-x,1/2+y,z
loop_
_atom_site_type_symbol
_atom_site_label
_atom_site_fract_x
_atom_site_fract_y
_atom_site_fract_z
Si Si1 0.000000 0.125518 0.122610
Si Si2 0.302978 0.839097 0.278211
Si Si3 0.500000 0.431692 0.165389
Si Si4 0.742910 0.831875 0.695343
Si Si5 0.129171 0.270725 0.495491
Si Si6 0.000000 0.042738 0.895778
Si Si7 0.747393 0.477560 0.865828
Si Si8 0.756480 0.612218 0.563337
O O1 0.880574 0.168428 0.161638
O O2 0.000000 0.032644 0.172072
O O3 0.000000 0.104234 0.996999
O O4 0.219230 0.759206 0.248783
O O5 0.375433 0.803323 0.376271
O O6 0.264587 0.928315 0.326173
O O7 0.341931 0.866984 0.160638
O O8 0.500000 0.403657 0.287700
O O9 0.372113 0.411803 0.114251
O O10 0.669705 0.835911 0.586297
O O11 0.724926 0.909266 0.775368
O O12 0.224825 0.197039 0.500631
O O13 0.000000 0.239026 0.525434
O O14 0.889780 0.980317 0.895870
O O15 0.804491 0.453278 0.978012
#
# Coordination Sequence:
#
# PCOD9353134 Si02
#       8
#     4   8   4   8   8   4   8   8
#     4  12  22  38  66 104 142 162 224 292 361 409
#     4  11  25  39  67  96 131 183 225 277 344 411
#     4  12  20  34  64 106 135 170 209 297 369 410
#     4  11  25  43  67 105 138 183 227 288 348 414
#     4  11  25  45  68  95 138 193 233 274 341 424
#     4  12  22  32  66 106 135 172 207 301 386 395
#     4  12  22  40  67 100 140 174 230 293 358 412
#     4  11  22  40  65 102 136 169 229 296 355 407
#
# _framework density 22.759357999999999
#
# number of rings (size 3 to 8) (size 9 to 14) (size 15 to 20)
#    0.000    0.615    6.923    0.923    3.231    0.000 
#    0.000    0.769    0.000    0.923    0.000    0.000 
#    0.000    0.000    0.000    0.000    0.000    0.000 
#
# Total GULP energy -144940.786623 kJ/mol
# GULP energy per Si atom -5574.645639 kJ/mol
# Density = 2.270756 g / cm^3
# Si number density = 22.759358 Si / 1000 Ang^3
#
#
#
# Elastic Constant Matrix: (Units=GPa)
#
#
# Indices 1 2 3 4 5 6 
#
# 1 22.1139 10.5174 25.5441 0.0000 0.0000 0.0000
# 2 10.5174 106.2241 39.7006 0.0000 0.0000 0.0000
# 3 25.5441 39.7006 170.7307 0.0000 0.0000 0.0000
# 4 0.0000 0.0000 0.0000 45.8858 0.0000 0.0000
# 5 0.0000 0.0000 0.0000 0.0000 12.2081 0.0000
# 6 0.0000 0.0000 0.0000 0.0000 0.0000 18.0051
#
#
#
# Elastic Compliance Matrix: (Units=1/GPa)
#
#
# Indices 1 2 3 4 5 6 
#
# 1 0.055322 -0.002611 -0.007670 0.000000 0.000000 0.000000
# 2 -0.002611 0.010433 -0.002035 0.000000 0.000000 0.000000
# 3 -0.007670 -0.002035 0.007478 0.000000 0.000000 0.000000
# 4 0.000000 0.000000 0.000000 0.021793 0.000000 0.000000
# 5 0.000000 0.000000 0.000000 0.000000 0.081913 0.000000
# 6 0.000000 0.000000 0.000000 0.000000 0.000000 0.055540
#
#
# Mechanical properties :
#
#
# Convention : Reuss Voigt Hill
#
# Bulk Modulus (GPa) = 20.57590 50.06587 35.32089
# Shear Modulus (GPa) = 18.29412 30.10690 24.20051
#
# Velocity S-wave (km/s) = 2.83822 3.64103 3.26440
# Velocity P-wave (km/s) = 4.44983 6.30252 5.45540
#
# Compressibility (1/GPa) = 0.04860055
#
# Stress axis : x y z
#
# Youngs Moduli (GPa) = 18.07609 95.84690 133.72497
#
# Poissons Ratio (x) = 0.25024 1.02566
# Poissons Ratio (y) = 0.04719 0.27219
# Poissons Ratio (z) = 0.13864 0.19509
#
# Static dielectric constant tensor:
#      x y z
#    x 1.943100 0.000000 0.000000 
#    y 0.000000 1.866090 0.000000 
#    z 0.000000 0.000000 1.929740 
# 
# From -- ./inp_files/8503.got.cif
#   From: 2010.05.17/outbox.cif.g08.bks.cpg/sg36_5_cif.got.tgz:8503.got - 2010.06.03 17:41:39.
