data_PCOD9353461
_publ_section_title
;
Structure prediction by ZEFSAII (Michael W. Deem and Ramdas Pophale) SiO2 
 PCOD9353461
Probable space group: C C C 2
;
_chemical_formula_sum "Si O2"
_cell_formula_units_Z 36
_cell_length_a 24.168130
_cell_length_b 10.044315
_cell_length_c 5.325380
_cell_angle_alpha 90.000000
_cell_angle_beta 90.000000
_cell_angle_gamma 90.000000
_cell_volume 1292.748300
_symmetry_space_group_name_H-M "C C C 2"
_symmetry_group_IT_number 37
_symmetry_cell_setting 'orthorhombic'
loop_
_space_group_symop_operation_xyz
x,y,z
-x,-y,z
-x,y,1/2+z
x,-y,1/2+z
1/2+x,1/2+y,z
1/2-x,1/2-y,z
1/2-x,1/2+y,1/2+z
1/2+x,1/2-y,1/2+z
loop_
_atom_site_type_symbol
_atom_site_label
_atom_site_fract_x
_atom_site_fract_y
_atom_site_fract_z
Si Si1 0.750000 0.250000 0.701741
Si Si2 0.333881 0.579390 0.400177
Si Si3 0.061414 0.941483 0.560778
Si Si4 0.653265 0.084535 0.946767
Si Si5 0.474852 0.150936 0.395421
O O1 0.716577 0.339408 0.506544
O O2 0.703783 0.179636 0.874085
O O3 0.330047 0.538511 0.112006
O O4 0.392544 0.659448 0.446584
O O5 0.079094 0.947377 0.849827
O O6 0.000000 0.000000 0.593014
O O7 0.590296 0.140408 0.921732
O O8 0.656857 0.972146 0.728149
O O9 0.505249 0.218907 0.634773
O O10 0.500000 0.000000 0.381742
#
# Coordination Sequence:
#
# PCOD9353461 Si02
#       5
#     4   8   8   8   8
#     4  12  28  42  64  98 134 170 228 252 326 400
#     4  10  22  42  64  86 125 167 208 262 311 371
#     4   8  14  28  56  81 105 149 195 239 300 346
#     4  12  24  42  68  96 135 177 215 275 331 391
#     4  10  16  34  66  95 120 164 209 265 340 391
#
# _framework density 27.847646999999998
#
# number of rings (size 3 to 8) (size 9 to 14) (size 15 to 20)
#    0.000    1.778    4.444    1.333    0.000    3.556 
#    0.000    0.000   19.556    0.000    0.000    0.000 
#    0.000    0.000    0.000    0.000    0.000    0.000 
#
# Total GULP energy -100310.615498 kJ/mol
# GULP energy per Si atom -5572.811972 kJ/mol
# Density = 2.778426 g / cm^3
# Si number density = 27.847647 Si / 1000 Ang^3
#
#
#
# Elastic Constant Matrix: (Units=GPa)
#
#
# Indices 1 2 3 4 5 6 
#
# 1 236.9521 48.2468 21.9478 0.0000 0.0000 0.0000
# 2 48.2468 50.0019 9.4231 0.0000 0.0000 0.0000
# 3 21.9478 9.4231 137.2973 0.0000 0.0000 0.0000
# 4 0.0000 0.0000 0.0000 32.9260 0.0000 0.0000
# 5 0.0000 0.0000 0.0000 0.0000 40.4159 0.0000
# 6 0.0000 0.0000 0.0000 0.0000 0.0000 89.6148
#
#
#
# Elastic Compliance Matrix: (Units=1/GPa)
#
#
# Indices 1 2 3 4 5 6 
#
# 1 0.005286 -0.005006 -0.000501 0.000000 0.000000 0.000000
# 2 -0.005006 0.025002 -0.000916 0.000000 0.000000 0.000000
# 3 -0.000501 -0.000916 0.007426 0.000000 0.000000 0.000000
# 4 0.000000 0.000000 0.000000 0.030371 0.000000 0.000000
# 5 0.000000 0.000000 0.000000 0.000000 0.024743 0.000000
# 6 0.000000 0.000000 0.000000 0.000000 0.000000 0.011159
#
#
# Mechanical properties :
#
#
# Convention : Reuss Voigt Hill
#
# Bulk Modulus (GPa) = 40.21185 64.83185 52.52185
# Shear Modulus (GPa) = 39.96073 55.56692 47.76382
#
# Velocity S-wave (km/s) = 3.79222 4.47182 4.14597
# Velocity P-wave (km/s) = 5.80050 7.07067 6.46685
#
# Compressibility (1/GPa) = 0.02486829
#
# Stress axis : x y z
#
# Youngs Moduli (GPa) = 189.17939 39.99675 134.65349
#
# Poissons Ratio (x) = 0.20022 0.06752
# Poissons Ratio (y) = 0.94702 0.12331
# Poissons Ratio (z) = 0.09486 0.03663
#
# Static dielectric constant tensor:
#      x y z
#    x 2.656970 0.000000 0.000000 
#    y 0.000000 2.509410 0.000000 
#    z 0.000000 0.000000 2.148400 
# 
# From -- ./inp_files/295.got.cif
#   From: 2010.05.17/outbox.cif.g08.bks.cpg/sg37_1_cif.got.tgz:295.got - 2010.06.03 17:53:42.
