data_PCOD9353629
_publ_section_title
;
Structure prediction by ZEFSAII (Michael W. Deem and Ramdas Pophale) SiO2 
 PCOD9353629
Probable space group: C C C 2
;
_chemical_formula_sum "Si O2"
_cell_formula_units_Z 64
_cell_length_a 14.848699
_cell_length_b 8.164215
_cell_length_c 23.305594
_cell_angle_alpha 90.000000
_cell_angle_beta 90.000000
_cell_angle_gamma 90.000000
_cell_volume 2825.289876
_symmetry_space_group_name_H-M "C C C 2"
_symmetry_group_IT_number 37
_symmetry_cell_setting 'orthorhombic'
loop_
_space_group_symop_operation_xyz
x,y,z
-x,-y,z
-x,y,1/2+z
x,-y,1/2+z
1/2+x,1/2+y,z
1/2-x,1/2-y,z
1/2-x,1/2+y,1/2+z
1/2+x,1/2-y,1/2+z
loop_
_atom_site_type_symbol
_atom_site_label
_atom_site_fract_x
_atom_site_fract_y
_atom_site_fract_z
Si Si1 0.346926 0.675037 0.631740
Si Si2 0.034425 0.744530 0.405964
Si Si3 0.989776 0.802757 0.035127
Si Si4 0.446861 0.352186 0.241630
Si Si5 0.347739 0.714074 0.116941
Si Si6 0.630587 0.576602 0.362114
Si Si7 0.086482 0.602814 0.229506
Si Si8 0.191241 0.579186 0.339799
O O1 0.250000 0.750000 0.624450
O O2 0.409661 0.727692 0.579583
O O3 0.386607 0.728548 0.693060
O O4 0.347528 0.478189 0.631781
O O5 0.028339 0.723442 0.474066
O O6 0.101658 0.613182 0.377276
O O7 0.931113 0.773708 0.385043
O O8 0.085694 0.916290 0.391111
O O9 0.078135 0.748460 0.069345
O O10 0.000000 0.000000 0.026085
O O11 0.500000 0.500000 0.211390
O O12 0.390219 0.419057 0.294183
O O13 0.529273 0.242033 0.263807
O O14 0.250000 0.750000 0.093256
O O15 0.365701 0.817370 0.174876
O O16 0.738008 0.551170 0.365952
O O17 0.155248 0.531636 0.276209
O O18 0.000000 0.500000 0.209577
O O19 0.250000 0.750000 0.334524
#
# Coordination Sequence:
#
# PCOD9353629 Si02
#       8
#     8   8   8   8   8   8   8   8
#     4  11  25  40  64 100 132 165 227 280 333 407
#     4  10  18  36  67  95 130 176 224 279 336 397
#     4  10  20  42  65  91 128 176 228 278 329 398
#     4  12  19  40  64  92 133 174 209 280 343 398
#     4  11  25  42  65  92 132 179 221 279 342 409
#     4  10  19  33  64  97 127 165 221 274 337 398
#     4  12  25  40  66  93 139 178 219 276 349 416
#     4  10  21  37  62  99 127 169 225 271 334 419
#
# _framework density 22.652542
#
# number of rings (size 3 to 8) (size 9 to 14) (size 15 to 20)
#    0.000    1.250    6.250    1.500    3.500    1.500 
#    0.000    0.000    2.750    0.000    0.000    0.000 
#    0.000    0.000    0.000    0.000    0.000    0.000 
#
# Total GULP energy -178787.384260 kJ/mol
# GULP energy per Si atom -5587.105758 kJ/mol
# Density = 2.260098 g / cm^3
# Si number density = 22.652542 Si / 1000 Ang^3
#
#
#
# Elastic Constant Matrix: (Units=GPa)
#
#
# Indices 1 2 3 4 5 6 
#
# 1 198.3376 37.0528 86.0374 0.0000 0.0000 0.0000
# 2 37.0528 42.3676 21.3691 0.0000 0.0000 0.0000
# 3 86.0374 21.3691 168.2740 0.0000 0.0000 0.0000
# 4 0.0000 0.0000 0.0000-1001.2650 0.0000 0.0000
# 5 0.0000 0.0000 0.0000 0.0000 -54.7182 0.0000
# 6 0.0000 0.0000 0.0000 0.0000 0.0000 37.3361
#
#
#
# Elastic Compliance Matrix: (Units=1/GPa)
#
#
# Indices 1 2 3 4 5 6 
#
# 1 0.007292 -0.004805 -0.003118 0.000000 0.000000 0.000000
# 2 -0.004805 0.028384 -0.001148 0.000000 0.000000 0.000000
# 3 -0.003118 -0.001148 0.007683 0.000000 0.000000 0.000000
# 4 0.000000 0.000000 0.000000 -0.000999 0.000000 0.000000
# 5 0.000000 0.000000 0.000000 0.000000 -0.018275 0.000000
# 6 0.000000 0.000000 0.000000 0.000000 0.000000 0.026784
#
#
# Mechanical properties :
#
#
# Convention : Reuss Voigt Hill
#
# Bulk Modulus (GPa) = 39.65552 77.54420 58.59986
# Shear Modulus (GPa) = 64.58638 -186.09475 -60.75419
#
# Velocity S-wave (km/s) = 5.34543 -9.07360 -5.18442
# Velocity P-wave (km/s) = 7.45937 8.68719 3.14841
#
# Compressibility (1/GPa) = 0.02521717
#
# Stress axis : x y z
#
# Youngs Moduli (GPa) = 137.13304 35.23139 130.16042
#
# Poissons Ratio (x) = 0.16927 0.40588
# Poissons Ratio (y) = 0.65887 0.14941
# Poissons Ratio (z) = 0.42762 0.04044
#
# Static dielectric constant tensor:
#      x y z
#    x 1.837460 0.000000 0.000000 
#    y 0.000000 3.415780 0.000000 
#    z 0.000000 0.000000 1.772520 
# 
# From -- ./inp_files/18931.got.cif
#   From: 2010.05.17/outbox.cif.g08.bks.cpg/sg37_10_cif.got.tgz:18931.got - 2010.06.03 17:53:42.
