data_PCOD9353619
_publ_section_title
;
Structure prediction by ZEFSAII (Michael W. Deem and Ramdas Pophale) SiO2 
 PCOD9353619
Probable space group: C C C 2
;
_chemical_formula_sum "Si O2"
_cell_formula_units_Z 48
_cell_length_a 19.548145
_cell_length_b 7.901536
_cell_length_c 15.981054
_cell_angle_alpha 90.000000
_cell_angle_beta 90.000000
_cell_angle_gamma 90.000000
_cell_volume 2468.439537
_symmetry_space_group_name_H-M "C C C 2"
_symmetry_group_IT_number 37
_symmetry_cell_setting 'orthorhombic'
loop_
_space_group_symop_operation_xyz
x,y,z
-x,-y,z
-x,y,1/2+z
x,-y,1/2+z
1/2+x,1/2+y,z
1/2-x,1/2-y,z
1/2-x,1/2+y,1/2+z
1/2+x,1/2-y,1/2+z
loop_
_atom_site_type_symbol
_atom_site_label
_atom_site_fract_x
_atom_site_fract_y
_atom_site_fract_z
Si Si1 0.553517 0.758511 0.395390
Si Si2 0.194224 0.101384 0.402160
Si Si3 0.722147 0.081730 0.268849
Si Si4 0.637370 0.369912 0.535070
Si Si5 0.500000 0.500000 0.034499
Si Si6 0.908720 0.639248 0.877885
Si Si7 0.750000 0.250000 0.660116
O O1 0.622247 0.666420 0.362448
O O2 0.530545 0.647320 0.474836
O O3 0.481089 0.780367 0.347183
O O4 0.576196 0.950833 0.412980
O O5 0.250000 0.250000 0.405601
O O6 0.228600 0.953316 0.348457
O O7 0.175663 0.029500 0.493080
O O8 0.750000 0.250000 0.224677
O O9 0.646631 0.114334 0.305038
O O10 0.731391 0.912872 0.215446
O O11 0.566259 0.424579 0.578198
O O12 0.618908 0.252608 0.454688
O O13 0.686175 0.284455 0.600576
#
# Coordination Sequence:
#
# PCOD9353619 Si02
#       7
#     8   8   8   8   4   8   4
#     4   9  18  30  59  95 117 147 196 265 310 361
#     4  11  19  35  65  93 118 154 209 262 314 364
#     4  12  23  40  61  88 129 167 201 259 314 372
#     4  10  21  38  64  90 117 162 208 264 305 376
#     4   8  18  36  58  88 124 150 198 254 326 362
#     4  10  18  36  62  89 119 152 208 256 305 370
#     4  12  26  40  60  90 132 166 212 256 316 378
#
# _framework density 19.445482999999999
#
# number of rings (size 3 to 8) (size 9 to 14) (size 15 to 20)
#    0.000    1.667    4.167    1.000    0.000    0.667 
#    3.000    0.000   11.000    0.000    0.000    0.000 
#    0.000    0.000    0.000    0.000    0.000    0.000 
#
# Total GULP energy -133732.723111 kJ/mol
# GULP energy per Si atom -5572.196796 kJ/mol
# Density = 1.940122 g / cm^3
# Si number density = 19.445483 Si / 1000 Ang^3
#
#
#
# Elastic Constant Matrix: (Units=GPa)
#
#
# Indices 1 2 3 4 5 6 
#
# 1 176.2616 46.3624 38.8863 0.0000 0.0000 0.0000
# 2 46.3624 98.3527 17.5325 0.0000 0.0000 0.0000
# 3 38.8863 17.5325 33.0609 0.0000 0.0000 0.0000
# 4 0.0000 0.0000 0.0000 82.4314 0.0000 0.0000
# 5 0.0000 0.0000 0.0000 0.0000 -7.2102 0.0000
# 6 0.0000 0.0000 0.0000 0.0000 0.0000 44.1928
#
#
#
# Elastic Compliance Matrix: (Units=1/GPa)
#
#
# Indices 1 2 3 4 5 6 
#
# 1 0.008125 -0.002348 -0.008311 0.000000 0.000000 0.000000
# 2 -0.002348 0.011908 -0.003553 0.000000 0.000000 0.000000
# 3 -0.008311 -0.003553 0.041906 0.000000 0.000000 0.000000
# 4 0.000000 0.000000 0.000000 0.012131 0.000000 0.000000
# 5 0.000000 0.000000 0.000000 0.000000 -0.138692 0.000000
# 6 0.000000 0.000000 0.000000 0.000000 0.000000 0.022628
#
#
# Mechanical properties :
#
#
# Convention : Reuss Voigt Hill
#
# Bulk Modulus (GPa) = 29.83724 57.02640 43.43182
# Shear Modulus (GPa) = -2084.61311 37.54240 -1023.53536
#
# Velocity S-wave (km/s) = -32.77738 4.39868 -22.96746
# Velocity P-wave (km/s) = 37.64437 7.42885 26.09512
#
# Compressibility (1/GPa) = 0.03351516
#
# Stress axis : x y z
#
# Youngs Moduli (GPa) = 123.08329 83.97878 23.86267
#
# Poissons Ratio (x) = 0.19721 0.19832
# Poissons Ratio (y) = 0.28904 0.08478
# Poissons Ratio (z) = 1.02292 0.29835
#
# Static dielectric constant tensor:
#      x y z
#    x 1.747150 0.000000 0.000000 
#    y 0.000000 1.723810 0.000000 
#    z 0.000000 0.000000 1.621910 
# 
# From -- ./inp_files/10717.got.cif
#   From: 2010.05.17/outbox.cif.g08.bks.cpg/sg37_6_cif.got.tgz:10717.got - 2010.06.03 17:53:42.
