data_PCOD9353997
_publ_section_title
;
Structure prediction by ZEFSAII (Michael W. Deem and Ramdas Pophale) SiO2 
 PCOD9353997
Probable space group: C C C 2
;
_chemical_formula_sum "Si O2"
_cell_formula_units_Z 52
_cell_length_a 15.326964
_cell_length_b 17.511518
_cell_length_c 10.640423
_cell_angle_alpha 90.000000
_cell_angle_beta 90.000000
_cell_angle_gamma 90.000000
_cell_volume 2855.872572
_symmetry_space_group_name_H-M "C C C 2"
_symmetry_group_IT_number 37
_symmetry_cell_setting 'orthorhombic'
loop_
_space_group_symop_operation_xyz
x,y,z
-x,-y,z
-x,y,1/2+z
x,-y,1/2+z
1/2+x,1/2+y,z
1/2-x,1/2-y,z
1/2-x,1/2+y,1/2+z
1/2+x,1/2-y,1/2+z
loop_
_atom_site_type_symbol
_atom_site_label
_atom_site_fract_x
_atom_site_fract_y
_atom_site_fract_z
Si Si1 0.755012 0.141658 0.862600
Si Si2 0.927334 0.292011 0.217447
Si Si3 0.317380 0.184824 0.948747
Si Si4 0.589785 0.956466 0.624842
Si Si5 0.375695 0.236601 0.224084
Si Si6 0.304931 0.983450 0.383324
Si Si7 0.250000 0.750000 0.092404
O O1 0.659525 0.167167 0.810981
O O2 0.823678 0.189463 0.777282
O O3 0.764752 0.051183 0.863831
O O4 0.757092 0.176791 0.001419
O O5 0.901364 0.315704 0.358704
O O6 0.932754 0.367112 0.131089
O O7 0.840867 0.250533 0.166660
O O8 0.020891 0.252337 0.221847
O O9 0.250000 0.250000 0.907821
O O10 0.345389 0.209699 0.087102
O O11 0.277024 0.100287 0.932591
O O12 0.650110 0.972583 0.747024
O O13 0.500000 0.000000 0.642511
O O14 0.633035 0.983914 0.494693
#
# Coordination Sequence:
#
# PCOD9353997 Si02
#       7
#     8   8   8   8   8   8   4
#     4  10  21  39  58  84 120 167 198 242 301 385
#     4  11  22  36  58  90 120 158 197 256 308 368
#     4  11  22  38  58  89 119 160 205 261 307 366
#     4  11  22  34  56  90 130 160 195 252 318 383
#     4  10  22  37  60  87 123 160 207 241 310 377
#     4  11  22  36  59  87 123 165 207 253 316 373
#     4  10  20  36  56  80 120 152 204 234 308 360
#
# _framework density 18.208095
#
# number of rings (size 3 to 8) (size 9 to 14) (size 15 to 20)
#    0.000    1.538    3.846    3.231    4.308    2.462 
#    0.000    0.000    0.000    0.923    0.000    0.000 
#    0.000    0.000    0.000    0.000    0.000    0.000 
#
# Total GULP energy -144922.468523 kJ/mol
# GULP energy per Si atom -5573.941097 kJ/mol
# Density = 1.816665 g / cm^3
# Si number density = 18.208095 Si / 1000 Ang^3
#
#
#
# Elastic Constant Matrix: (Units=GPa)
#
#
# Indices 1 2 3 4 5 6 
#
# 1 101.5482 45.3306 27.3764 0.0000 0.0000 0.0000
# 2 45.3306 114.9712 16.9795 0.0000 0.0000 0.0000
# 3 27.3764 16.9795 82.0017 0.0000 0.0000 0.0000
# 4 0.0000 0.0000 0.0000 20.9887 0.0000 0.0000
# 5 0.0000 0.0000 0.0000 0.0000 17.0601 0.0000
# 6 0.0000 0.0000 0.0000 0.0000 0.0000 17.8992
#
#
#
# Elastic Compliance Matrix: (Units=1/GPa)
#
#
# Indices 1 2 3 4 5 6 
#
# 1 0.012772 -0.004545 -0.003323 0.000000 0.000000 0.000000
# 2 -0.004545 0.010590 -0.000675 0.000000 0.000000 0.000000
# 3 -0.003323 -0.000675 0.013444 0.000000 0.000000 0.000000
# 4 0.000000 0.000000 0.000000 0.047645 0.000000 0.000000
# 5 0.000000 0.000000 0.000000 0.000000 0.058616 0.000000
# 6 0.000000 0.000000 0.000000 0.000000 0.000000 0.055868
#
#
# Mechanical properties :
#
#
# Convention : Reuss Voigt Hill
#
# Bulk Modulus (GPa) = 50.71185 53.09935 51.90560
# Shear Modulus (GPa) = 22.46233 25.11192 23.78713
#
# Velocity S-wave (km/s) = 3.51614 3.71774 3.61834
# Velocity P-wave (km/s) = 6.66304 6.90323 6.78419
#
# Compressibility (1/GPa) = 0.01971926
#
# Stress axis : x y z
#
# Youngs Moduli (GPa) = 78.29468 94.43238 74.38227
#
# Poissons Ratio (x) = 0.42920 0.24717
# Poissons Ratio (y) = 0.35585 0.05023
# Poissons Ratio (z) = 0.26017 0.06377
#
# Static dielectric constant tensor:
#      x y z
#    x 1.615260 0.000000 0.000000 
#    y 0.000000 1.469830 0.000000 
#    z 0.000000 0.000000 1.686540 
# 
# From -- ./inp_files/7935.got.cif
#   From: 2010.05.17/outbox.cif.g08.bks.cpg/sg37_4_cif.got.tgz:7935.got - 2010.06.03 17:53:42.
