data_PCOD9353365
_publ_section_title
;
Structure prediction by ZEFSAII (Michael W. Deem and Ramdas Pophale) SiO2 
 PCOD9353365
Probable space group: C M C 21
;
_chemical_formula_sum "Si O2"
_cell_formula_units_Z 24
_cell_length_a 9.000000
_cell_length_b 18.000000
_cell_length_c 15.000000
_cell_angle_alpha 90.000000
_cell_angle_beta 90.000000
_cell_angle_gamma 90.000000
_cell_volume 2430.000000
_symmetry_space_group_name_H-M "C M C 21"
_symmetry_group_IT_number 36
_symmetry_cell_setting 'orthorhombic'
loop_
_space_group_symop_operation_xyz
x,y,z
-x,-y,1/2+z
x,-y,1/2+z
-x,y,z
1/2+x,1/2+y,z
1/2-x,1/2-y,1/2+z
1/2+x,1/2-y,1/2+z
1/2-x,1/2+y,z
loop_
_atom_site_type_symbol
_atom_site_label
_atom_site_fract_x
_atom_site_fract_y
_atom_site_fract_z
Si Si1 0.668450 0.304064 0.337990
Si Si2 0.177901 0.525766 0.529337
Si Si3 0.831680 0.658150 0.224356
Si Si4 0.823707 0.348350 0.520863
Si Si5 0.823048 0.578200 0.727463
Si Si6 0.825186 0.955133 0.845417
O O1 0.500000 0.334967 0.339239
O O2 0.658789 0.221858 0.298334
O O3 0.736781 0.313224 0.437009
O O4 0.767788 0.343102 0.262269
O O5 0.207213 0.437048 0.525189
O O6 0.225055 0.556320 0.626864
O O7 0.256081 0.561278 0.442818
O O8 0.000000 0.536447 0.521704
O O9 0.793534 0.680294 0.122186
O O10 0.714127 0.603215 0.267947
O O11 0.000000 0.623885 0.217357
O O12 0.000000 0.338475 0.504109
O O13 0.754491 0.526982 0.804745
O O14 0.000000 0.572324 0.729514
O O15 0.000000 0.964824 0.854748
#
# Coordination Sequence:
#
# PCOD9353365 Si02
#       6
#     8   8   8   8   8   8
#     4  11  24  40  62  94 128 159 199 257 310 359
#     4  10  21  38  64  91 120 163 208 249 299 363
#     4  10  23  44  64  86 124 167 206 249 302 365
#     4  10  20  39  65  87 118 167 209 245 301 369
#     4  11  22  40  64  88 120 162 206 247 297 364
#     4  12  24  37  61  94 124 154 200 257 305 356
#
# _framework density 9.8765429999999999
#
# number of rings (size 3 to 8) (size 9 to 14) (size 15 to 20)
#    0.000    1.333    3.333    2.500    0.000    4.667 
#    0.000    3.333    0.000    0.000    0.000    0.000 
#    0.000    0.000    0.000    0.000    0.000    0.000 
#
# Total GULP energy -133872.250010 kJ/mol
# GULP energy per Si atom -5578.010417 kJ/mol
# Density = 0.985406 g / cm^3
# Si number density = 9.876543 Si / 1000 Ang^3
#
#
#
# Elastic Constant Matrix: (Units=GPa)
#
#
# Indices 1 2 3 4 5 6 
#
# 1 75.0445 9.7394 45.4536 0.0000 0.0000 0.0000
# 2 9.7394 18.6724 -2.4794 0.0000 0.0000 0.0000
# 3 45.4536 -2.4794 153.3520 0.0000 0.0000 0.0000
# 4 0.0000 0.0000 0.0000 32.2818 0.0000 0.0000
# 5 0.0000 0.0000 0.0000 0.0000 30.9157 0.0000
# 6 0.0000 0.0000 0.0000 0.0000 0.0000 17.4663
#
#
#
# Elastic Compliance Matrix: (Units=1/GPa)
#
#
# Indices 1 2 3 4 5 6 
#
# 1 0.017959 -0.010096 -0.005486 0.000000 0.000000 0.000000
# 2 -0.010096 0.059346 0.003952 0.000000 0.000000 0.000000
# 3 -0.005486 0.003952 0.008211 0.000000 0.000000 0.000000
# 4 0.000000 0.000000 0.000000 0.030977 0.000000 0.000000
# 5 0.000000 0.000000 0.000000 0.000000 0.032346 0.000000
# 6 0.000000 0.000000 0.000000 0.000000 0.000000 0.057253
#
#
# Mechanical properties :
#
#
# Convention : Reuss Voigt Hill
#
# Bulk Modulus (GPa) = 16.06289 39.16625 27.61457
# Shear Modulus (GPa) = 19.99176 29.08978 24.54077
#
# Velocity S-wave (km/s) = 3.18478 3.84170 3.52856
# Velocity P-wave (km/s) = 4.65545 6.28881 5.53274
#
# Compressibility (1/GPa) = 0.06225531
#
# Stress axis : x y z
#
# Youngs Moduli (GPa) = 55.68385 16.85045 121.78886
#
# Poissons Ratio (x) = 0.17011 0.66815
# Poissons Ratio (y) = 0.56216 -0.48129
# Poissons Ratio (z) = 0.30549 -0.06659
#
# Static dielectric constant tensor:
#      x y z
#    x 1.690870 0.000000 0.000000 
#    y 0.000000 1.792500 0.000000 
#    z 0.000000 0.000000 1.659640 
# 
# From -- ./inp_files/10376.got.cif
#   From: 2010.05.17/outbox.ucp.g08.bks.cvg/sg36_6_cif.got.tgz:10376.got - 2010.06.11 10:37:26.
