data_PCOD9353433
_publ_section_title
;
Structure prediction by ZEFSAII (Michael W. Deem and Ramdas Pophale) SiO2 
 PCOD9353433
Probable space group: C C C 2
;
_chemical_formula_sum "Si O2"
_cell_formula_units_Z 48
_cell_length_a 27.914338
_cell_length_b 13.467767
_cell_length_c 5.258949
_cell_angle_alpha 90.000000
_cell_angle_beta 90.000000
_cell_angle_gamma 90.000000
_cell_volume 1977.069272
_symmetry_space_group_name_H-M "C C C 2"
_symmetry_group_IT_number 37
_symmetry_cell_setting 'orthorhombic'
loop_
_space_group_symop_operation_xyz
x,y,z
-x,-y,z
-x,y,1/2+z
x,-y,1/2+z
1/2+x,1/2+y,z
1/2-x,1/2-y,z
1/2-x,1/2+y,1/2+z
1/2+x,1/2-y,1/2+z
loop_
_atom_site_type_symbol
_atom_site_label
_atom_site_fract_x
_atom_site_fract_y
_atom_site_fract_z
Si Si1 0.328710 0.378164 0.037050
Si Si2 0.522986 0.376800 0.163142
Si Si3 0.726094 0.934159 0.904804
Si Si4 0.523422 0.142238 0.250113
Si Si5 0.121078 0.435199 0.961767
Si Si6 0.869602 0.894271 0.540265
O O1 0.346539 0.338104 0.303789
O O2 0.344817 0.496201 0.053107
O O3 0.272940 0.371405 0.973263
O O4 0.357771 0.339004 0.799612
O O5 0.517021 0.408711 0.456911
O O6 0.518513 0.258764 0.195547
O O7 0.573589 0.402507 0.035500
O O8 0.673745 0.887056 0.932907
O O9 0.729072 0.978455 0.619742
O O10 0.485780 0.102997 0.463180
O O11 0.574766 0.125931 0.379862
O O12 0.119902 0.523573 0.749350
#
# Coordination Sequence:
#
# PCOD9353433 Si02
#       6
#     8   8   8   8   8   8
#     4  10  17  30  48  76 103 133 167 217 262 302
#     4  10  21  37  52  71 100 142 183 214 257 311
#     4  10  16  30  48  74 107 131 163 198 258 316
#     4  10  21  37  55  73 104 142 176 215 260 314
#     4  10  21  32  53  84 105 134 166 216 265 313
#     4  10  18  30  51  74 100 133 179 211 255 309
#
# _framework density 24.278358000000001
#
# number of rings (size 3 to 8) (size 9 to 14) (size 15 to 20)
#    0.000    2.000    3.333    2.000    0.000    2.000 
#    0.000   10.000    0.000    1.000    0.000    2.333 
#    0.000    0.000    0.000    0.000    0.000    0.000 
#
# Total GULP energy -133941.500681 kJ/mol
# GULP energy per Si atom -5580.895862 kJ/mol
# Density = 2.422310 g / cm^3
# Si number density = 24.278358 Si / 1000 Ang^3
#
#
#
# Elastic Constant Matrix: (Units=GPa)
#
#
# Indices 1 2 3 4 5 6 
#
# 1 221.4818 -28.4696 245.1910 0.0000 0.0000 0.0000
# 2 -28.4696 52.1327 -28.0971 0.0000 0.0000 0.0000
# 3 245.1910 -28.0971 550.6588 0.0000 0.0000 0.0000
# 4 0.0000 0.0000 0.0000 48.8287 0.0000 0.0000
# 5 0.0000 0.0000 0.0000 0.0000 44.2793 0.0000
# 6 0.0000 0.0000 0.0000 0.0000 0.0000 25.8848
#
#
#
# Elastic Compliance Matrix: (Units=1/GPa)
#
#
# Indices 1 2 3 4 5 6 
#
# 1 0.009321 0.002934 -0.004001 0.000000 0.000000 0.000000
# 2 0.002934 0.020648 -0.000253 0.000000 0.000000 0.000000
# 3 -0.004001 -0.000253 0.003584 0.000000 0.000000 0.000000
# 4 0.000000 0.000000 0.000000 0.020480 0.000000 0.000000
# 5 0.000000 0.000000 0.000000 0.000000 0.022584 0.000000
# 6 0.000000 0.000000 0.000000 0.000000 0.000000 0.038633
#
#
# Mechanical properties :
#
#
# Convention : Reuss Voigt Hill
#
# Bulk Modulus (GPa) = 32.34738 133.50241 82.92490
# Shear Modulus (GPa) = 39.00344 66.17515 52.58930
#
# Velocity S-wave (km/s) = 4.01248 5.22647 4.65918
# Velocity P-wave (km/s) = 5.90077 9.56708 7.94821
#
# Compressibility (1/GPa) = 0.03091441
#
# Stress axis : x y z
#
# Youngs Moduli (GPa) = 107.28248 48.43129 278.97927
#
# Poissons Ratio (x) = -0.14210 1.11612
# Poissons Ratio (y) = -0.31478 0.07056
# Poissons Ratio (z) = 0.42921 0.01225
#
# Static dielectric constant tensor:
#      x y z
#    x 1.931080 0.000000 0.000000 
#    y 0.000000 1.564700 0.000000 
#    z 0.000000 0.000000 1.842200 
# 
# From -- ./inp_files/1189.got.cif
#   From: 2010.05.17/outbox.cif.g08.bks.cpg/sg37_1_cif.got.tgz:1189.got - 2010.06.03 17:53:42.
