data_PCOD9353334
_publ_section_title
;
Structure prediction by ZEFSAII (Michael W. Deem and Ramdas Pophale) SiO2 
 PCOD9353334
Probable space group: C M C 21
;
_chemical_formula_sum "Si O2"
_cell_formula_units_Z 32
_cell_length_a 9.000000
_cell_length_b 18.000000
_cell_length_c 21.000000
_cell_angle_alpha 90.000000
_cell_angle_beta 90.000000
_cell_angle_gamma 90.000000
_cell_volume 3402.000000
_symmetry_space_group_name_H-M "C M C 21"
_symmetry_group_IT_number 36
_symmetry_cell_setting 'orthorhombic'
loop_
_space_group_symop_operation_xyz
x,y,z
-x,-y,1/2+z
x,-y,1/2+z
-x,y,z
1/2+x,1/2+y,z
1/2-x,1/2-y,1/2+z
1/2+x,1/2-y,1/2+z
1/2-x,1/2+y,z
loop_
_atom_site_type_symbol
_atom_site_label
_atom_site_fract_x
_atom_site_fract_y
_atom_site_fract_z
Si Si1 0.673652 0.077368 0.954930
Si Si2 0.324110 0.300905 0.369931
Si Si3 0.169232 0.183945 0.458882
Si Si4 0.320010 0.773100 0.090642
Si Si5 0.169390 0.960522 0.872823
Si Si6 0.322724 0.397587 0.731640
Si Si7 0.821657 0.391461 0.598478
Si Si8 0.177455 0.279569 0.236154
O O1 0.500000 0.098315 0.951700
O O2 0.777153 0.139115 0.922901
O O3 0.708004 0.010950 0.906514
O O4 0.707573 0.066806 0.030609
O O5 0.500000 0.295528 0.363761
O O6 0.255025 0.229219 0.404124
O O7 0.255978 0.313329 0.298960
O O8 0.250680 0.187651 0.527779
O O9 0.157714 0.105108 0.424492
O O10 0.000000 0.212952 0.467850
O O11 0.500000 0.771896 0.085824
O O12 0.255420 0.689186 0.089865
O O13 0.283257 0.803041 0.162817
O O14 0.209749 0.935329 0.800459
O O15 0.000000 0.993321 0.868534
O O16 0.500000 0.405224 0.721352
O O17 0.241006 0.422626 0.666111
O O18 0.291458 0.309265 0.738758
O O19 0.000000 0.383781 0.604454
O O20 0.000000 0.289962 0.243179
#
# Coordination Sequence:
#
# PCOD9353334 Si02
#       8
#     8   8   8   8   8   8   8   8
#     4  11  24  40  58  83 118 155 192 241 291 339
#     4  12  23  35  58  87 114 149 194 237 283 344
#     4  11  21  37  59  84 117 151 187 237 291 340
#     4  10  20  34  56  86 116 150 191 239 289 342
#     4  10  22  40  60  84 116 154 193 236 289 348
#     4   9  18  35  58  83 113 148 187 234 287 343
#     4  10  20  34  55  83 114 150 190 235 286 343
#     4   9  18  35  56  82 118 151 184 235 294 339
#
# _framework density 9.4062319999999993
#
# number of rings (size 3 to 8) (size 9 to 14) (size 15 to 20)
#    0.000    1.750    2.500    3.375    0.000    5.500 
#    0.000    1.250    0.000    3.000    0.000    0.000 
#    0.000    0.000    0.000    0.000    0.000    0.000 
#
# Total GULP energy -178236.549125 kJ/mol
# GULP energy per Si atom -5569.892160 kJ/mol
# Density = 0.938482 g / cm^3
# Si number density = 9.406232 Si / 1000 Ang^3
#
#
#
# Elastic Constant Matrix: (Units=GPa)
#
#
# Indices 1 2 3 4 5 6 
#
# 1 89.1259 3.5502 53.3703 0.0000 0.0000 0.0000
# 2 3.5502 1.3886 -6.8157 0.0000 0.0000 0.0000
# 3 53.3703 -6.8157 179.7336 0.0000 0.0000 0.0000
# 4 0.0000 0.0000 0.0000 26.7559 0.0000 0.0000
# 5 0.0000 0.0000 0.0000 0.0000 36.6429 0.0000
# 6 0.0000 0.0000 0.0000 0.0000 0.0000 19.5254
#
#
#
# Elastic Compliance Matrix: (Units=1/GPa)
#
#
# Indices 1 2 3 4 5 6 
#
# 1 0.021841 -0.107729 -0.010571 0.000000 0.000000 0.000000
# 2 -0.107729 1.416233 0.085694 0.000000 0.000000 0.000000
# 3 -0.010571 0.085694 0.011952 0.000000 0.000000 0.000000
# 4 0.000000 0.000000 0.000000 0.037375 0.000000 0.000000
# 5 0.000000 0.000000 0.000000 0.000000 0.027290 0.000000
# 6 0.000000 0.000000 0.000000 0.000000 0.000000 0.051215
#
#
# Mechanical properties :
#
#
# Convention : Reuss Voigt Hill
#
# Bulk Modulus (GPa) = 0.72212 41.16197 20.94205
# Shear Modulus (GPa) = 2.38923 31.26104 16.82514
#
# Velocity S-wave (km/s) = 1.12818 4.08084 2.99383
# Velocity P-wave (km/s) = 1.44282 6.64319 4.80696
#
# Compressibility (1/GPa) = 1.38481488
#
# Stress axis : x y z
#
# Youngs Moduli (GPa) = 45.78472 0.70610 83.66576
#
# Poissons Ratio (x) = 0.07607 0.88441
# Poissons Ratio (y) = 4.93235 -7.16968
# Poissons Ratio (z) = 0.48398 -0.06051
#
# Static dielectric constant tensor:
#      x y z
#    x 1.655190 0.000000 0.000000 
#    y 0.000000 1.784210 0.000000 
#    z 0.000000 0.000000 1.645990 
# 
# From -- ./inp_files/15654.got.cif
#   From: 2010.05.17/outbox.ucp.g08.bks.cvg/sg36_8_cif.got.tgz:15654.got - 2010.06.11 10:37:26.
