data_PCOD9353531
_publ_section_title
;
Structure prediction by ZEFSAII (Michael W. Deem and Ramdas Pophale) SiO2 
 PCOD9353531
Probable space group: C C C 2
;
_chemical_formula_sum "Si O2"
_cell_formula_units_Z 36
_cell_length_a 13.268515
_cell_length_b 7.895620
_cell_length_c 12.447115
_cell_angle_alpha 90.000000
_cell_angle_beta 90.000000
_cell_angle_gamma 90.000000
_cell_volume 1303.999006
_symmetry_space_group_name_H-M "C C C 2"
_symmetry_group_IT_number 37
_symmetry_cell_setting 'orthorhombic'
loop_
_space_group_symop_operation_xyz
x,y,z
-x,-y,z
-x,y,1/2+z
x,-y,1/2+z
1/2+x,1/2+y,z
1/2-x,1/2-y,z
1/2-x,1/2+y,1/2+z
1/2+x,1/2-y,1/2+z
loop_
_atom_site_type_symbol
_atom_site_label
_atom_site_fract_x
_atom_site_fract_y
_atom_site_fract_z
Si Si1 0.500000 0.000000 0.678520
Si Si2 0.366004 0.754972 0.941483
Si Si3 0.578441 0.276486 0.543350
Si Si4 0.649233 0.875533 0.833985
Si Si5 0.817940 0.079798 0.734066
O O1 0.582176 0.098803 0.608939
O O2 0.442211 0.138510 0.750326
O O3 0.250000 0.750000 0.983100
O O4 0.377685 0.624157 0.842442
O O5 0.373762 0.943160 0.892000
O O6 0.460454 0.718246 0.015939
O O7 0.639289 0.254586 0.432549
O O8 0.621121 0.417312 0.623708
O O9 0.749308 0.920581 0.765589
O O10 0.750000 0.250000 0.724226
#
# Coordination Sequence:
#
# PCOD9353531 Si02
#       5
#     4   8   8   8   8
#     4  12  16  26  52  90 112 146 210 250 306 372
#     4   9  17  29  46  82 121 147 198 261 303 377
#     4  12  17  29  57  83 116 166 190 255 332 358
#     4  10  18  30  47  89 121 146 207 264 296 384
#     4   9  19  32  47  83 127 149 198 264 307 369
#
# _framework density 27.607382999999999
#
# number of rings (size 3 to 8) (size 9 to 14) (size 15 to 20)
#    0.000    2.222    8.889    0.000    0.000    0.000 
#    0.000    0.000    0.000    5.333    0.000   45.111 
#    0.000    0.000    0.000    0.000    0.000    0.000 
#
# Total GULP energy -100748.976442 kJ/mol
# GULP energy per Si atom -5597.165358 kJ/mol
# Density = 2.754455 g / cm^3
# Si number density = 27.607383 Si / 1000 Ang^3
#
#
#
# Elastic Constant Matrix: (Units=GPa)
#
#
# Indices 1 2 3 4 5 6 
#
# 1 162.9035 28.5531 104.7483 0.0000 0.0000 0.0000
# 2 28.5531 111.9384 55.2676 0.0000 0.0000 0.0000
# 3 104.7483 55.2676 185.8849 0.0000 0.0000 0.0000
# 4 0.0000 0.0000 0.0000 9.3345 0.0000 0.0000
# 5 0.0000 0.0000 0.0000 0.0000 70.6097 0.0000
# 6 0.0000 0.0000 0.0000 0.0000 0.0000 31.7204
#
#
#
# Elastic Compliance Matrix: (Units=1/GPa)
#
#
# Indices 1 2 3 4 5 6 
#
# 1 0.009633 0.000261 -0.005506 0.000000 0.000000 0.000000
# 2 0.000261 0.010478 -0.003262 0.000000 0.000000 0.000000
# 3 -0.005506 -0.003262 0.009452 0.000000 0.000000 0.000000
# 4 0.000000 0.000000 0.000000 0.107129 0.000000 0.000000
# 5 0.000000 0.000000 0.000000 0.000000 0.014162 0.000000
# 6 0.000000 0.000000 0.000000 0.000000 0.000000 0.031525
#
#
# Mechanical properties :
#
#
# Convention : Reuss Voigt Hill
#
# Bulk Modulus (GPa) = 79.68933 93.09609 86.39271
# Shear Modulus (GPa) = 24.56062 40.47678 32.51870
#
# Velocity S-wave (km/s) = 2.98592 3.83320 3.43578
# Velocity P-wave (km/s) = 6.38870 7.30656 6.86299
#
# Compressibility (1/GPa) = 0.01254873
#
# Stress axis : x y z
#
# Youngs Moduli (GPa) = 103.80634 95.44158 105.79241
#
# Poissons Ratio (x) = -0.02494 0.58251
# Poissons Ratio (y) = -0.02713 0.34515
# Poissons Ratio (z) = 0.57158 0.31138
#
# Static dielectric constant tensor:
#      x y z
#    x 2.226330 0.000000 0.000000 
#    y 0.000000 2.210230 0.000000 
#    z 0.000000 0.000000 2.197030 
# 
# From -- ./inp_files/6991.got.cif
#   From: 2010.05.17/outbox.cif.g08.bks.cpg/sg37_4_cif.got.tgz:6991.got - 2010.06.03 17:53:42.
