data_PCOD9353073
_publ_section_title
;
Structure prediction by ZEFSAII (Michael W. Deem and Ramdas Pophale) SiO2 
 PCOD9353073
Probable space group: C M C 21
;
_chemical_formula_sum "Si O2"
_cell_formula_units_Z 64
_cell_length_a 30.856132
_cell_length_b 13.730034
_cell_length_c 9.456823
_cell_angle_alpha 90.000000
_cell_angle_beta 90.000000
_cell_angle_gamma 90.000000
_cell_volume 4006.437360
_symmetry_space_group_name_H-M "C M C 21"
_symmetry_group_IT_number 36
_symmetry_cell_setting 'orthorhombic'
loop_
_space_group_symop_operation_xyz
x,y,z
-x,-y,1/2+z
x,-y,1/2+z
-x,y,z
1/2+x,1/2+y,z
1/2-x,1/2-y,1/2+z
1/2+x,1/2-y,1/2+z
1/2-x,1/2+y,z
loop_
_atom_site_type_symbol
_atom_site_label
_atom_site_fract_x
_atom_site_fract_y
_atom_site_fract_z
Si Si1 0.864882 0.772026 0.121050
Si Si2 0.451464 0.365612 0.167319
Si Si3 0.782995 0.589481 0.757770
Si Si4 0.814117 0.901160 0.344257
Si Si5 0.788858 0.195177 0.130494
Si Si6 0.856950 0.103756 0.343239
Si Si7 0.549643 0.542060 0.362599
Si Si8 0.803801 0.598975 0.088649
O O1 0.915665 0.783428 0.150086
O O2 0.842280 0.844453 0.230901
O O3 0.844155 0.666283 0.129399
O O4 0.854880 0.817997 0.968167
O O5 0.500000 0.326555 0.163329
O O6 0.446371 0.431742 0.306798
O O7 0.446694 0.438066 0.030959
O O8 0.731608 0.568992 0.774612
O O9 0.788543 0.693573 0.681879
O O10 0.803866 0.505206 0.663510
O O11 0.800697 0.590881 0.918372
O O12 0.802649 0.827187 0.470183
O O13 0.839853 0.997585 0.393388
O O14 0.823800 0.137544 0.223880
O O15 0.740042 0.153645 0.141220
O O16 0.907584 0.094473 0.300089
O O17 0.500000 0.572794 0.322616
#
# Coordination Sequence:
#
# PCOD9353073 Si02
#       8
#     8   8   8   8   8   8   8   8
#     4  11  21  34  52  78 106 139 183 212 261 317
#     4   9  18  32  51  76 107 138 173 214 263 319
#     4  11  24  38  53  74 104 144 178 221 263 301
#     4  11  22  32  54  76 107 144 172 214 255 315
#     4  11  23  36  52  77 108 139 180 215 260 312
#     4  11  20  35  52  77 107 143 181 207 262 314
#     4   9  18  30  48  74 106 138 169 210 257 317
#     4  11  24  37  55  74 105 141 181 223 259 311
#
# _framework density 15.974292
#
# number of rings (size 3 to 8) (size 9 to 14) (size 15 to 20)
#    0.000    1.500    5.000    0.750    5.250    0.000 
#    0.000    0.000    0.000    0.000    0.000    1.750 
#    0.000    0.000    0.000    0.000    0.000    0.000 
#
# Total GULP energy -178417.394340 kJ/mol
# GULP energy per Si atom -5575.543573 kJ/mol
# Density = 1.593793 g / cm^3
# Si number density = 15.974292 Si / 1000 Ang^3
#
#
#
# Elastic Constant Matrix: (Units=GPa)
#
#
# Indices 1 2 3 4 5 6 
#
# 1 103.9117 36.7960 32.8189 0.0000 0.0000 0.0000
# 2 36.7960 95.4691 31.6351 0.0000 0.0000 0.0000
# 3 32.8189 31.6351 38.0916 0.0000 0.0000 0.0000
# 4 0.0000 0.0000 0.0000 17.7022 0.0000 0.0000
# 5 0.0000 0.0000 0.0000 0.0000 17.4723 0.0000
# 6 0.0000 0.0000 0.0000 0.0000 0.0000 22.8247
#
#
#
# Elastic Compliance Matrix: (Units=1/GPa)
#
#
# Indices 1 2 3 4 5 6 
#
# 1 0.013455 -0.001855 -0.010052 0.000000 0.000000 0.000000
# 2 -0.001855 0.014707 -0.010616 0.000000 0.000000 0.000000
# 3 -0.010052 -0.010616 0.043730 0.000000 0.000000 0.000000
# 4 0.000000 0.000000 0.000000 0.056490 0.000000 0.000000
# 5 0.000000 0.000000 0.000000 0.000000 0.057233 0.000000
# 6 0.000000 0.000000 0.000000 0.000000 0.000000 0.043812
#
#
# Mechanical properties :
#
#
# Convention : Reuss Voigt Hill
#
# Bulk Modulus (GPa) = 37.24975 48.88584 43.06779
# Shear Modulus (GPa) = 17.64140 20.68132 19.16136
#
# Velocity S-wave (km/s) = 3.32680 3.60205 3.46715
# Velocity P-wave (km/s) = 6.17462 6.92596 6.56105
#
# Compressibility (1/GPa) = 0.02684582
#
# Stress axis : x y z
#
# Youngs Moduli (GPa) = 74.32032 67.99280 22.86754
#
# Poissons Ratio (x) = 0.12613 0.22987
# Poissons Ratio (y) = 0.13787 0.24277
# Poissons Ratio (z) = 0.74708 0.72183
#
# Static dielectric constant tensor:
#      x y z
#    x 1.557590 0.000000 0.000000 
#    y 0.000000 1.504820 0.000000 
#    z 0.000000 0.000000 1.547980 
# 
# From -- ./inp_files/6074.got.cif
#   From: 2010.05.17/outbox.cif.g08.bks.cpg/sg36_4_cif.got.tgz:6074.got - 2010.06.03 17:41:39.
