data_PCOD9353938
_publ_section_title
;
Structure prediction by ZEFSAII (Michael W. Deem and Ramdas Pophale) SiO2 
 PCOD9353938
Probable space group: C C C 2
;
_chemical_formula_sum "Si O2"
_cell_formula_units_Z 48
_cell_length_a 15.659977
_cell_length_b 8.305520
_cell_length_c 19.882826
_cell_angle_alpha 90.000000
_cell_angle_beta 90.000000
_cell_angle_gamma 90.000000
_cell_volume 2586.044895
_symmetry_space_group_name_H-M "C C C 2"
_symmetry_group_IT_number 37
_symmetry_cell_setting 'orthorhombic'
loop_
_space_group_symop_operation_xyz
x,y,z
-x,-y,z
-x,y,1/2+z
x,-y,1/2+z
1/2+x,1/2+y,z
1/2-x,1/2-y,z
1/2-x,1/2+y,1/2+z
1/2+x,1/2-y,1/2+z
loop_
_atom_site_type_symbol
_atom_site_label
_atom_site_fract_x
_atom_site_fract_y
_atom_site_fract_z
Si Si1 0.597947 0.945565 0.157240
Si Si2 0.830800 0.623280 0.786383
Si Si3 0.258535 0.445130 0.910527
Si Si4 0.750174 0.553014 0.062535
Si Si5 0.906984 0.061511 0.310739
Si Si6 0.902798 0.939882 0.162075
O O1 0.660571 0.995602 0.096542
O O2 0.597354 0.752852 0.161371
O O3 0.500000 0.000000 0.150934
O O4 0.643245 0.020377 0.222804
O O5 0.750000 0.750000 0.775557
O O6 0.810251 0.517467 0.852275
O O7 0.906380 0.746109 0.803209
O O8 0.250000 0.250000 0.916761
O O9 0.345962 0.483101 0.872168
O O10 0.254003 0.507681 0.985891
O O11 0.750000 0.750000 0.062042
O O12 0.668788 0.503862 0.108447
O O13 0.878752 0.995196 0.237612
O O14 0.000000 0.000000 0.323699
O O15 0.000000 0.000000 0.148724
#
# Coordination Sequence:
#
# PCOD9353938 Si02
#       6
#     8   8   8   8   8   8
#     4  11  21  33  54  78 103 137 173 214 259 305
#     4   9  18  34  55  74 100 137 171 209 258 310
#     4   8  16  31  51  73 100 136 168 201 255 308
#     4   9  18  33  52  75 104 136 170 209 255 307
#     4   9  16  29  51  77 101 126 166 215 251 297
#     4  10  20  34  54  79 105 134 173 216 255 305
#
# _framework density 18.561161999999999
#
# number of rings (size 3 to 8) (size 9 to 14) (size 15 to 20)
#    0.000    3.000    0.000    4.000    0.000    0.667 
#    0.000    0.833    0.000   14.000    0.000    0.000 
#    0.000    0.000    0.000    0.000    0.000    0.000 
#
# Total GULP energy -133635.163774 kJ/mol
# GULP energy per Si atom -5568.131824 kJ/mol
# Density = 1.851892 g / cm^3
# Si number density = 18.561162 Si / 1000 Ang^3
#
#
#
# Elastic Constant Matrix: (Units=GPa)
#
#
# Indices 1 2 3 4 5 6 
#
# 1 123.4131 31.6916 101.5803 0.0000 0.0000 0.0000
# 2 31.6916 31.3050 28.6036 0.0000 0.0000 0.0000
# 3 101.5803 28.6036 206.4857 0.0000 0.0000 0.0000
# 4 0.0000 0.0000 0.0000 16.7054 0.0000 0.0000
# 5 0.0000 0.0000 0.0000 0.0000 1.1307 0.0000
# 6 0.0000 0.0000 0.0000 0.0000 0.0000 19.3670
#
#
#
# Elastic Compliance Matrix: (Units=1/GPa)
#
#
# Indices 1 2 3 4 5 6 
#
# 1 0.016107 -0.010379 -0.006486 0.000000 0.000000 0.000000
# 2 -0.010379 0.043261 -0.000887 0.000000 0.000000 0.000000
# 3 -0.006486 -0.000887 0.008156 0.000000 0.000000 0.000000
# 4 0.000000 0.000000 0.000000 0.059861 0.000000 0.000000
# 5 0.000000 0.000000 0.000000 0.000000 0.884374 0.000000
# 6 0.000000 0.000000 0.000000 0.000000 0.000000 0.051634
#
#
# Mechanical properties :
#
#
# Convention : Reuss Voigt Hill
#
# Bulk Modulus (GPa) = 31.22975 76.10609 53.66792
# Shear Modulus (GPa) = 4.50624 20.72918 12.61771
#
# Velocity S-wave (km/s) = 1.55982 3.34549 2.61011
# Velocity P-wave (km/s) = 4.48396 7.48431 6.16931
#
# Compressibility (1/GPa) = 0.03202075
#
# Stress axis : x y z
#
# Youngs Moduli (GPa) = 62.08618 23.11526 122.60201
#
# Poissons Ratio (x) = 0.23992 0.79518
# Poissons Ratio (y) = 0.64442 0.10871
# Poissons Ratio (z) = 0.40268 0.02050
#
# Static dielectric constant tensor:
#      x y z
#    x 1.679960 0.000000 0.000000 
#    y 0.000000 1.660930 0.000000 
#    z 0.000000 0.000000 1.653200 
# 
# From -- ./inp_files/17063.got.cif
#   From: 2010.05.17/outbox.cif.g08.bks.cpg/sg37_9_cif.got.tgz:17063.got - 2010.06.03 17:53:42.
