data_PCOD9353607
_publ_section_title
;
Structure prediction by ZEFSAII (Michael W. Deem and Ramdas Pophale) SiO2 
 PCOD9353607
Probable space group: C C C 2
;
_chemical_formula_sum "Si O2"
_cell_formula_units_Z 48
_cell_length_a 11.654612
_cell_length_b 10.375809
_cell_length_c 18.627865
_cell_angle_alpha 90.000000
_cell_angle_beta 90.000000
_cell_angle_gamma 90.000000
_cell_volume 2252.593726
_symmetry_space_group_name_H-M "C C C 2"
_symmetry_group_IT_number 37
_symmetry_cell_setting 'orthorhombic'
loop_
_space_group_symop_operation_xyz
x,y,z
-x,-y,z
-x,y,1/2+z
x,-y,1/2+z
1/2+x,1/2+y,z
1/2-x,1/2-y,z
1/2-x,1/2+y,1/2+z
1/2+x,1/2-y,1/2+z
loop_
_atom_site_type_symbol
_atom_site_label
_atom_site_fract_x
_atom_site_fract_y
_atom_site_fract_z
Si Si1 0.924629 0.630935 0.117130
Si Si2 0.614346 0.091325 0.775387
Si Si3 0.218660 0.515536 0.005887
Si Si4 0.288083 0.889238 0.369134
Si Si5 0.540889 0.806286 0.417687
Si Si6 0.057307 0.135119 0.545595
O O1 0.872747 0.647059 0.196446
O O2 0.830064 0.594755 0.057821
O O3 0.000000 0.500000 0.118630
O O4 0.002828 0.751055 0.093481
O O5 0.598421 0.194794 0.839200
O O6 0.500000 0.000000 0.773576
O O7 0.708554 0.992222 0.805512
O O8 0.306902 0.606800 0.047604
O O9 0.277810 0.445905 0.937768
O O10 0.119666 0.603554 0.969284
O O11 0.250000 0.750000 0.344200
O O12 0.416329 0.866040 0.401758
O O13 0.532161 0.677856 0.463505
O O14 0.000000 0.000000 0.564079
#
# Coordination Sequence:
#
# PCOD9353607 Si02
#       6
#     8   8   8   8   8   8
#     4  11  21  41  63  95 132 173 216 275 336 401
#     4   8  19  36  61  89 126 173 217 260 329 397
#     4  11  21  37  67  92 123 172 223 268 336 397
#     4  10  18  35  63  96 129 167 213 279 330 390
#     4  10  19  40  61  91 125 166 216 271 324 389
#     4  12  25  38  64  99 125 167 225 283 329 396
#
# _framework density 21.308769000000002
#
# number of rings (size 3 to 8) (size 9 to 14) (size 15 to 20)
#    0.000    1.667    3.333    3.000    0.000    0.000 
#    9.000    0.833   14.667    0.000    0.000    0.000 
#    0.000    0.000    0.000    0.000    0.000    0.000 
#
# Total GULP energy -133885.192608 kJ/mol
# GULP energy per Si atom -5578.549692 kJ/mol
# Density = 2.126027 g / cm^3
# Si number density = 21.308769 Si / 1000 Ang^3
#
#
#
# Elastic Constant Matrix: (Units=GPa)
#
#
# Indices 1 2 3 4 5 6 
#
# 1 68.6159 31.2517 16.0418 0.0000 0.0000 0.0000
# 2 31.2517 118.5813 45.1717 0.0000 0.0000 0.0000
# 3 16.0418 45.1717 161.2374 0.0000 0.0000 0.0000
# 4 0.0000 0.0000 0.0000 7.1878 0.0000 0.0000
# 5 0.0000 0.0000 0.0000 0.0000 2.9087 0.0000
# 6 0.0000 0.0000 0.0000 0.0000 0.0000 33.4536
#
#
#
# Elastic Compliance Matrix: (Units=1/GPa)
#
#
# Indices 1 2 3 4 5 6 
#
# 1 0.016595 -0.004192 -0.000477 0.000000 0.000000 0.000000
# 2 -0.004192 0.010499 -0.002524 0.000000 0.000000 0.000000
# 3 -0.000477 -0.002524 0.006957 0.000000 0.000000 0.000000
# 4 0.000000 0.000000 0.000000 0.139124 0.000000 0.000000
# 5 0.000000 0.000000 0.000000 0.000000 0.343798 0.000000
# 6 0.000000 0.000000 0.000000 0.000000 0.000000 0.029892
#
#
# Mechanical properties :
#
#
# Convention : Reuss Voigt Hill
#
# Bulk Modulus (GPa) = 50.85232 59.26277 55.05754
# Shear Modulus (GPa) = 8.80584 25.77466 17.29025
#
# Velocity S-wave (km/s) = 2.03506 3.48167 2.85162
# Velocity P-wave (km/s) = 5.42570 6.63585 6.06106
#
# Compressibility (1/GPa) = 0.01966479
#
# Stress axis : x y z
#
# Youngs Moduli (GPa) = 60.26084 95.24333 143.74653
#
# Poissons Ratio (x) = 0.39925 0.06851
# Poissons Ratio (y) = 0.25261 0.36288
# Poissons Ratio (z) = 0.02872 0.24043
#
# Static dielectric constant tensor:
#      x y z
#    x 1.859950 0.000000 0.000000 
#    y 0.000000 1.816710 0.000000 
#    z 0.000000 0.000000 1.782960 
# 
# From -- ./inp_files/16823.got.cif
#   From: 2010.05.17/outbox.cif.g08.bks.cpg/sg37_9_cif.got.tgz:16823.got - 2010.06.03 17:53:42.
