data_PCOD9353623
_publ_section_title
;
Structure prediction by ZEFSAII (Michael W. Deem and Ramdas Pophale) SiO2 
 PCOD9353623
Probable space group: C C C 2
;
_chemical_formula_sum "Si O2"
_cell_formula_units_Z 36
_cell_length_a 9.030037
_cell_length_b 17.020878
_cell_length_c 8.935868
_cell_angle_alpha 90.000000
_cell_angle_beta 90.000000
_cell_angle_gamma 90.000000
_cell_volume 1373.435389
_symmetry_space_group_name_H-M "C C C 2"
_symmetry_group_IT_number 37
_symmetry_cell_setting 'orthorhombic'
loop_
_space_group_symop_operation_xyz
x,y,z
-x,-y,z
-x,y,1/2+z
x,-y,1/2+z
1/2+x,1/2+y,z
1/2-x,1/2-y,z
1/2-x,1/2+y,1/2+z
1/2+x,1/2-y,1/2+z
loop_
_atom_site_type_symbol
_atom_site_label
_atom_site_fract_x
_atom_site_fract_y
_atom_site_fract_z
Si Si1 0.633885 0.061939 0.476780
Si Si2 0.750000 0.250000 0.135621
Si Si3 0.947127 0.699032 0.197262
Si Si4 0.659749 0.496007 0.235994
Si Si5 0.321944 0.344426 0.359949
O O1 0.587293 0.146477 0.550459
O O2 0.719220 0.019921 0.613939
O O3 0.500000 0.000000 0.437984
O O4 0.755335 0.065924 0.342565
O O5 0.621333 0.205449 0.219569
O O6 0.660840 0.306729 0.021385
O O7 0.853131 0.655509 0.325043
O O8 0.889101 0.788452 0.229530
O O9 0.500000 0.500000 0.156900
O O10 0.626287 0.568689 0.347931
#
# Coordination Sequence:
#
# PCOD9353623 Si02
#       5
#     8   4   8   8   8
#     4  11  23  41  65  95 134 176 224 284 350 410
#     4  10  18  36  64  86 120 166 212 268 328 388
#     4   9  20  38  60  85 119 164 210 261 324 395
#     4  11  24  41  65  96 133 177 227 283 342 408
#     4   9  22  40  56  89 128 159 212 275 326 395
#
# _framework density 26.211645000000001
#
# number of rings (size 3 to 8) (size 9 to 14) (size 15 to 20)
#    0.000    2.222    0.000    2.667    0.000   12.444 
#    0.000    8.889    0.000    0.000    0.000    0.000 
#    0.000    0.000    0.000    0.000    0.000    0.000 
#
# Total GULP energy -100324.310442 kJ/mol
# GULP energy per Si atom -5573.572802 kJ/mol
# Density = 2.615199 g / cm^3
# Si number density = 26.211645 Si / 1000 Ang^3
#
#
#
# Elastic Constant Matrix: (Units=GPa)
#
#
# Indices 1 2 3 4 5 6 
#
# 1 161.9689 37.9419 57.8335 0.0000 0.0000 0.0000
# 2 37.9419 112.1141 23.9050 0.0000 0.0000 0.0000
# 3 57.8335 23.9050 98.2259 0.0000 0.0000 0.0000
# 4 0.0000 0.0000 0.0000 19.4339 0.0000 0.0000
# 5 0.0000 0.0000 0.0000 0.0000 42.1633 0.0000
# 6 0.0000 0.0000 0.0000 0.0000 0.0000 13.2789
#
#
#
# Elastic Compliance Matrix: (Units=1/GPa)
#
#
# Indices 1 2 3 4 5 6 
#
# 1 0.008159 -0.001832 -0.004358 0.000000 0.000000 0.000000
# 2 -0.001832 0.009819 -0.001311 0.000000 0.000000 0.000000
# 3 -0.004358 -0.001311 0.013066 0.000000 0.000000 0.000000
# 4 0.000000 0.000000 0.000000 0.051456 0.000000 0.000000
# 5 0.000000 0.000000 0.000000 0.000000 0.023717 0.000000
# 6 0.000000 0.000000 0.000000 0.000000 0.000000 0.075308
#
#
# Mechanical properties :
#
#
# Convention : Reuss Voigt Hill
#
# Bulk Modulus (GPa) = 62.33782 67.96330 65.15056
# Shear Modulus (GPa) = 24.76781 31.81712 28.29246
#
# Velocity S-wave (km/s) = 3.07728 3.48782 3.28896
# Velocity P-wave (km/s) = 6.03824 6.49652 6.27157
#
# Compressibility (1/GPa) = 0.01604163
#
# Stress axis : x y z
#
# Youngs Moduli (GPa) = 122.55875 101.84326 76.53641
#
# Poissons Ratio (x) = 0.18658 0.33356
# Poissons Ratio (y) = 0.22453 0.10034
# Poissons Ratio (z) = 0.53414 0.13351
#
# Static dielectric constant tensor:
#      x y z
#    x 2.496140 0.000000 0.000000 
#    y 0.000000 2.177350 0.000000 
#    z 0.000000 0.000000 2.092720 
# 
# From -- ./inp_files/2123.got.cif
#   From: 2010.05.17/outbox.cif.g08.bks.cpg/sg37_2_cif.got.tgz:2123.got - 2010.06.03 17:53:42.
