data_PCOD9353207
_publ_section_title
;
Structure prediction by ZEFSAII (Michael W. Deem and Ramdas Pophale) SiO2 
 PCOD9353207
Probable space group: C M C 21
;
_chemical_formula_sum "Si O2"
_cell_formula_units_Z 56
_cell_length_a 17.696854
_cell_length_b 13.661986
_cell_length_c 9.685441
_cell_angle_alpha 90.000000
_cell_angle_beta 90.000000
_cell_angle_gamma 90.000000
_cell_volume 2341.689474
_symmetry_space_group_name_H-M "C M C 21"
_symmetry_group_IT_number 36
_symmetry_cell_setting 'orthorhombic'
loop_
_space_group_symop_operation_xyz
x,y,z
-x,-y,1/2+z
x,-y,1/2+z
-x,y,z
1/2+x,1/2+y,z
1/2-x,1/2-y,1/2+z
1/2+x,1/2-y,1/2+z
1/2-x,1/2+y,z
loop_
_atom_site_type_symbol
_atom_site_label
_atom_site_fract_x
_atom_site_fract_y
_atom_site_fract_z
Si Si1 0.786479 0.685153 0.962580
Si Si2 0.379514 0.307961 0.605685
Si Si3 0.909614 0.395725 0.664303
Si Si4 0.339413 0.496511 0.698708
Si Si5 0.232919 0.089753 0.446926
Si Si6 0.846674 0.394631 0.191984
Si Si7 0.417341 0.307085 0.298271
O O1 0.799718 0.800845 0.944402
O O2 0.786333 0.638603 0.809376
O O3 0.709928 0.684175 0.055310
O O4 0.855481 0.629126 0.035350
O O5 0.395268 0.404004 0.695257
O O6 0.394708 0.204875 0.678343
O O7 0.420978 0.310930 0.461602
O O8 0.889282 0.503891 0.720121
O O9 0.889091 0.302180 0.761133
O O10 0.000000 0.393917 0.637103
O O11 0.271520 0.453946 0.794063
O O12 0.317772 0.519300 0.541299
O O13 0.191990 0.593718 0.540445
O O14 0.371120 0.598808 0.751420
O O15 0.500000 0.315664 0.233628
#
# Coordination Sequence:
#
# PCOD9353207 Si02
#       7
#     8   8   8   8   8   8   8
#     4  11  24  45  70 108 143 187 243 303 360 435
#     4  11  25  42  73 107 140 180 241 301 369 426
#     4  11  27  48  70 100 145 201 249 295 365 443
#     4  12  22  45  69 105 142 181 240 300 359 438
#     4  11  24  41  74 109 143 181 237 305 369 423
#     4  11  26  42  71 105 142 185 236 297 364 430
#     4  11  26  47  69  98 145 195 240 297 366 439
#
# _framework density 23.914359000000001
#
# number of rings (size 3 to 8) (size 9 to 14) (size 15 to 20)
#    0.000    0.857    4.286    1.714    6.000    2.857 
#    0.000    0.714    0.000    0.000    0.000    0.000 
#    0.000    0.000    0.000    0.000    0.000    0.000 
#
# Total GULP energy -156351.546431 kJ/mol
# GULP energy per Si atom -5583.983801 kJ/mol
# Density = 2.385993 g / cm^3
# Si number density = 23.914359 Si / 1000 Ang^3
#
#
#
# Elastic Constant Matrix: (Units=GPa)
#
#
# Indices 1 2 3 4 5 6 
#
# 1 74.6960 44.7275 19.0409 0.0000 0.0000 0.0000
# 2 44.7275 251.7121 31.3470 0.0000 0.0000 0.0000
# 3 19.0409 31.3470 82.0227 0.0000 0.0000 0.0000
# 4 0.0000 0.0000 0.0000 28.4561 0.0000 0.0000
# 5 0.0000 0.0000 0.0000 0.0000 16.6921 0.0000
# 6 0.0000 0.0000 0.0000 0.0000 0.0000 24.6636
#
#
#
# Elastic Compliance Matrix: (Units=1/GPa)
#
#
# Indices 1 2 3 4 5 6 
#
# 1 0.015522 -0.002425 -0.002677 0.000000 0.000000 0.000000
# 2 -0.002425 0.004550 -0.001176 0.000000 0.000000 0.000000
# 3 -0.002677 -0.001176 0.013263 0.000000 0.000000 0.000000
# 4 0.000000 0.000000 0.000000 0.035142 0.000000 0.000000
# 5 0.000000 0.000000 0.000000 0.000000 0.059908 0.000000
# 6 0.000000 0.000000 0.000000 0.000000 0.000000 0.040546
#
#
# Mechanical properties :
#
#
# Convention : Reuss Voigt Hill
#
# Bulk Modulus (GPa) = 48.12393 66.51795 57.32094
# Shear Modulus (GPa) = 26.53762 34.85007 30.69384
#
# Velocity S-wave (km/s) = 3.33482 3.82158 3.58647
# Velocity P-wave (km/s) = 5.91567 6.88100 6.41651
#
# Compressibility (1/GPa) = 0.02077968
#
# Stress axis : x y z
#
# Youngs Moduli (GPa) = 64.42535 219.77445 75.40026
#
# Poissons Ratio (x) = 0.53291 0.20181
# Poissons Ratio (y) = 0.15622 0.08867
# Poissons Ratio (z) = 0.17244 0.25846
#
# Static dielectric constant tensor:
#      x y z
#    x 1.982220 0.000000 0.000000 
#    y 0.000000 1.951290 0.000000 
#    z 0.000000 0.000000 1.892490 
# 
# From -- ./inp_files/5215.got.cif
#   From: 2010.05.17/outbox.cif.g08.bks.cpg/sg36_3_cif.got.tgz:5215.got - 2010.06.03 17:41:39.
