data_PCOD9353175
_publ_section_title
;
Structure prediction by ZEFSAII (Michael W. Deem and Ramdas Pophale) SiO2 
 PCOD9353175
Probable space group: C M C 21
;
_chemical_formula_sum "Si O2"
_cell_formula_units_Z 64
_cell_length_a 16.014707
_cell_length_b 17.245709
_cell_length_c 11.249481
_cell_angle_alpha 90.000000
_cell_angle_beta 90.000000
_cell_angle_gamma 90.000000
_cell_volume 3106.937647
_symmetry_space_group_name_H-M "C M C 21"
_symmetry_group_IT_number 36
_symmetry_cell_setting 'orthorhombic'
loop_
_space_group_symop_operation_xyz
x,y,z
-x,-y,1/2+z
x,-y,1/2+z
-x,y,z
1/2+x,1/2+y,z
1/2-x,1/2-y,1/2+z
1/2+x,1/2-y,1/2+z
1/2-x,1/2+y,z
loop_
_atom_site_type_symbol
_atom_site_label
_atom_site_fract_x
_atom_site_fract_y
_atom_site_fract_z
Si Si1 0.595760 0.228948 0.023790
Si Si2 0.094096 0.597285 0.435088
Si Si3 0.188825 0.116766 0.849349
Si Si4 0.404240 0.728946 0.031352
Si Si5 0.249999 0.493538 0.027570
Si Si6 0.405904 0.597282 0.620054
Si Si7 0.188824 0.616767 0.205792
Si Si8 0.191747 0.750001 0.777571
O O1 0.500000 0.203063 0.011421
O O2 0.595971 0.311292 0.090890
O O3 0.647756 0.168194 0.101536
O O4 0.637128 0.242237 0.895895
O O5 0.095971 0.688711 0.464251
O O6 0.166441 0.556141 0.510138
O O7 0.119094 0.587904 0.297359
O O8 0.000000 0.568946 0.459144
O O9 0.119095 0.087902 0.757782
O O10 0.250098 0.173768 0.776588
O O11 0.147756 0.168192 0.953607
O O12 0.237866 0.047849 0.912756
O O13 0.500000 0.703061 0.043721
O O14 0.362872 0.742236 0.159247
O O15 0.333559 0.443862 0.045003
O O16 0.237863 0.547849 0.142384
O O17 0.500000 0.568943 0.596000
O O18 0.250098 0.673767 0.278554
#
# Coordination Sequence:
#
# PCOD9353175 Si02
#       8
#     8   8   8   8   8   8   8   8
#     4  11  23  41  67  98 130 173 229 280 329 390
#     4  11  25  44  68  98 137 178 221 278 338 403
#     4  12  23  43  71  98 130 179 231 275 334 402
#     4  11  23  41  67  98 130 173 229 280 329 390
#     4  12  26  44  66 102 138 182 216 276 350 412
#     4  11  25  44  68  98 137 178 221 278 338 403
#     4  12  23  43  71  98 130 179 231 275 334 402
#     4  12  21  40  67  98 130 170 224 284 328 388
#
# _framework density 20.599060999999999
#
# number of rings (size 3 to 8) (size 9 to 14) (size 15 to 20)
#    0.000    0.500    5.000    3.375    0.000    4.000 
#    0.000    2.500    0.000    0.000    0.000    0.000 
#    0.000    0.000    0.000    0.000    0.000    0.000 
#
# Total GULP energy -179081.386542 kJ/mol
# GULP energy per Si atom -5596.293329 kJ/mol
# Density = 2.055218 g / cm^3
# Si number density = 20.599061 Si / 1000 Ang^3
#
#
#
# Elastic Constant Matrix: (Units=GPa)
#
#
# Indices 1 2 3 4 5 6 
#
# 1 129.9673 23.8919 23.9546 0.0000 0.0000 0.0000
# 2 23.8919 39.6226 -6.6694 0.0000 0.0000 0.0000
# 3 23.9546 -6.6694 78.8200 0.0000 0.0000 0.0000
# 4 0.0000 0.0000 0.0000 34.8130 0.0000 0.0000
# 5 0.0000 0.0000 0.0000 0.0000 -193.6633 0.0000
# 6 0.0000 0.0000 0.0000 0.0000 0.0000 20.8641
#
#
#
# Elastic Compliance Matrix: (Units=1/GPa)
#
#
# Indices 1 2 3 4 5 6 
#
# 1 0.009480 -0.006291 -0.003413 0.000000 0.000000 0.000000
# 2 -0.006291 0.029777 0.004431 0.000000 0.000000 0.000000
# 3 -0.003413 0.004431 0.014099 0.000000 0.000000 0.000000
# 4 0.000000 0.000000 0.000000 0.028725 0.000000 0.000000
# 5 0.000000 0.000000 0.000000 0.000000 -0.005164 0.000000
# 6 0.000000 0.000000 0.000000 0.000000 0.000000 0.047929
#
#
# Mechanical properties :
#
#
# Convention : Reuss Voigt Hill
#
# Bulk Modulus (GPa) = 23.35831 36.75158 30.05495
# Shear Modulus (GPa) = 33.40843 -13.78174 9.81335
#
# Velocity S-wave (km/s) = 4.03158 -2.58940 2.18502
# Velocity P-wave (km/s) = 5.74766 2.99001 4.58125
#
# Compressibility (1/GPa) = 0.04281132
#
# Stress axis : x y z
#
# Youngs Moduli (GPa) = 105.48747 33.58266 70.92460
#
# Poissons Ratio (x) = 0.21126 0.24209
# Poissons Ratio (y) = 0.66360 -0.31430
# Poissons Ratio (z) = 0.36007 -0.14882
#
# Static dielectric constant tensor:
#      x y z
#    x 1.734510 0.000000 0.000000 
#    y 0.000000 1.716300 0.000000 
#    z 0.000000 0.000000 1.726210 
# 
# From -- ./inp_files/8629.got.cif
#   From: 2010.05.17/outbox.cif.g08.bks.cpg/sg36_5_cif.got.tgz:8629.got - 2010.06.03 17:41:39.
