data_PCOD9353106
_publ_section_title
;
Structure prediction by ZEFSAII (Michael W. Deem and Ramdas Pophale) SiO2 
 PCOD9353106
Probable space group: C M C 21
;
_chemical_formula_sum "Si O2"
_cell_formula_units_Z 64
_cell_length_a 24.565646
_cell_length_b 9.220876
_cell_length_c 13.431956
_cell_angle_alpha 90.000000
_cell_angle_beta 90.000000
_cell_angle_gamma 90.000000
_cell_volume 3042.563363
_symmetry_space_group_name_H-M "C M C 21"
_symmetry_group_IT_number 36
_symmetry_cell_setting 'orthorhombic'
loop_
_space_group_symop_operation_xyz
x,y,z
-x,-y,1/2+z
x,-y,1/2+z
-x,y,z
1/2+x,1/2+y,z
1/2-x,1/2-y,1/2+z
1/2+x,1/2-y,1/2+z
1/2-x,1/2+y,z
loop_
_atom_site_type_symbol
_atom_site_label
_atom_site_fract_x
_atom_site_fract_y
_atom_site_fract_z
Si Si1 0.755680 0.415351 0.603320
Si Si2 0.726144 0.321631 0.959891
Si Si3 0.645735 0.757443 0.137606
Si Si4 0.617270 0.557535 0.415286
Si Si5 0.849095 0.717596 0.417554
Si Si6 0.563373 0.261925 0.097057
Si Si7 0.363772 0.951101 0.721375
Si Si8 0.439978 0.452951 0.712104
O O1 0.732693 0.558625 0.548764
O O2 0.785612 0.328152 0.515221
O O3 0.705361 0.315899 0.639454
O O4 0.800528 0.437111 0.687262
O O5 0.676398 0.372795 0.893288
O O6 0.783558 0.295003 0.906616
O O7 0.603727 0.627825 0.145460
O O8 0.629787 0.875909 0.219326
O O9 0.641009 0.835628 0.030262
O O10 0.630870 0.384931 0.421701
O O11 0.592732 0.647150 0.508456
O O12 0.575811 0.573298 0.325259
O O13 0.873083 0.625196 0.327434
O O14 0.500000 0.227741 0.072083
O O15 0.597922 0.127969 0.139959
O O16 0.562318 0.377824 0.187231
O O17 0.500000 0.399168 0.688084
#
# Coordination Sequence:
#
# PCOD9353106 Si02
#       8
#     8   8   8   8   8   8   8   8
#     4  11  21  39  63  98 135 179 221 269 341 409
#     4  11  21  38  64  96 140 173 221 269 338 413
#     4  11  25  45  64  98 142 178 223 284 351 408
#     4  12  22  42  69  98 138 173 232 288 336 409
#     4  11  24  40  63 102 134 181 220 277 343 413
#     4  11  24  43  69  97 129 177 233 293 337 393
#     4  12  25  41  68  97 142 178 229 279 346 416
#     4  11  25  44  70  98 126 177 238 287 342 409
#
# _framework density 21.034894000000001
#
# number of rings (size 3 to 8) (size 9 to 14) (size 15 to 20)
#    0.000    0.750    8.750    0.375    1.750    3.500 
#    0.000    0.625    0.000    0.000    0.000    0.000 
#    0.000    0.000    0.000    0.000    0.000    0.000 
#
# Total GULP energy -178592.124099 kJ/mol
# GULP energy per Si atom -5581.003878 kJ/mol
# Density = 2.098702 g / cm^3
# Si number density = 21.034894 Si / 1000 Ang^3
#
#
#
# Elastic Constant Matrix: (Units=GPa)
#
#
# Indices 1 2 3 4 5 6 
#
# 1 85.7028 34.8268 -2.7979 0.0000 0.0000 0.0000
# 2 34.8268 68.6279 -6.1956 0.0000 0.0000 0.0000
# 3 -2.7979 -6.1956 31.6132 0.0000 0.0000 0.0000
# 4 0.0000 0.0000 0.0000 24.8306 0.0000 0.0000
# 5 0.0000 0.0000 0.0000 0.0000 26.2597 0.0000
# 6 0.0000 0.0000 0.0000 0.0000 0.0000 22.7662
#
#
#
# Elastic Compliance Matrix: (Units=1/GPa)
#
#
# Indices 1 2 3 4 5 6 
#
# 1 0.014700 -0.007475 -0.000164 0.000000 0.000000 0.000000
# 2 -0.007475 0.018635 0.002990 0.000000 0.000000 0.000000
# 3 -0.000164 0.002990 0.032204 0.000000 0.000000 0.000000
# 4 0.000000 0.000000 0.000000 0.040273 0.000000 0.000000
# 5 0.000000 0.000000 0.000000 0.000000 0.038081 0.000000
# 6 0.000000 0.000000 0.000000 0.000000 0.000000 0.043925
#
#
# Mechanical properties :
#
#
# Convention : Reuss Voigt Hill
#
# Bulk Modulus (GPa) = 17.78017 26.40115 22.09066
# Shear Modulus (GPa) = 23.16297 25.44533 24.30415
#
# Velocity S-wave (km/s) = 3.32199 3.48181 3.40284
# Velocity P-wave (km/s) = 4.81510 5.36119 5.09546
#
# Compressibility (1/GPa) = 0.05624244
#
# Stress axis : x y z
#
# Youngs Moduli (GPa) = 68.02533 53.66367 31.05211
#
# Poissons Ratio (x) = 0.40113 0.00509
# Poissons Ratio (y) = 0.50848 -0.09286
# Poissons Ratio (z) = 0.01115 -0.16048
#
# Static dielectric constant tensor:
#      x y z
#    x 1.749990 0.000000 0.000000 
#    y 0.000000 1.757980 0.000000 
#    z 0.000000 0.000000 1.803970 
# 
# From -- ./inp_files/12966.got.cif
#   From: 2010.05.17/outbox.cif.g08.bks.cpg/sg36_7_cif.got.tgz:12966.got - 2010.06.03 17:41:39.
