data_PCOD9353560
_publ_section_title
;
Structure prediction by ZEFSAII (Michael W. Deem and Ramdas Pophale) SiO2 
 PCOD9353560
Probable space group: C C C 2
;
_chemical_formula_sum "Si O2"
_cell_formula_units_Z 60
_cell_length_a 15.230486
_cell_length_b 28.699290
_cell_length_c 5.673519
_cell_angle_alpha 90.000000
_cell_angle_beta 90.000000
_cell_angle_gamma 90.000000
_cell_volume 2479.918612
_symmetry_space_group_name_H-M "C C C 2"
_symmetry_group_IT_number 37
_symmetry_cell_setting 'orthorhombic'
loop_
_space_group_symop_operation_xyz
x,y,z
-x,-y,z
-x,y,1/2+z
x,-y,1/2+z
1/2+x,1/2+y,z
1/2-x,1/2-y,z
1/2-x,1/2+y,1/2+z
1/2+x,1/2-y,1/2+z
loop_
_atom_site_type_symbol
_atom_site_label
_atom_site_fract_x
_atom_site_fract_y
_atom_site_fract_z
Si Si1 0.750000 0.250000 0.855440
Si Si2 0.328459 0.476676 0.592567
Si Si3 0.296507 0.163857 0.080056
Si Si4 0.385142 0.023354 0.593231
Si Si5 0.594243 0.782954 0.689372
Si Si6 0.462453 0.315353 0.741819
Si Si7 0.800772 0.875895 0.700310
Si Si8 0.106785 0.625794 0.974356
O O1 0.763201 0.201962 0.713107
O O2 0.663885 0.237612 0.003161
O O3 0.356000 0.497340 0.337006
O O4 0.221581 0.476031 0.592092
O O5 0.350487 0.422094 0.621712
O O6 0.373826 0.134708 0.203390
O O7 0.347394 0.198347 0.903524
O O8 0.234656 0.124456 0.967380
O O9 0.421855 0.075472 0.556925
O O10 0.408018 0.004437 0.853124
O O11 0.531715 0.740795 0.755544
O O12 0.556038 0.829980 0.576257
O O13 0.512508 0.332003 0.505262
O O14 0.363513 0.331854 0.692219
O O15 0.709420 0.869968 0.561989
#
# Coordination Sequence:
#
# PCOD9353560 Si02
#       8
#     4   8   8   8   8   8   8   8
#     4  10  18  32  56  80 108 138 184 234 282 330
#     4   9  19  32  54  82 110 147 182 229 284 335
#     4  10  19  31  59  79 109 144 187 232 284 330
#     4   9  18  29  47  81 128 152 174 208 272 347
#     4  10  21  37  52  82 109 144 192 229 280 351
#     4  12  29  43  59  79 111 154 191 243 294 334
#     4  10  22  37  57  84 113 145 199 232 283 345
#     4   9  20  32  60  86 112 155 182 233 279 333
#
# _framework density 24.194344999999998
#
# number of rings (size 3 to 8) (size 9 to 14) (size 15 to 20)
#    0.000    2.133    0.000    3.600   18.667    0.000 
#    0.000    0.000    0.000    2.400    0.000    0.000 
#    0.000    3.200    0.000    0.000    0.000    0.000 
#
# Total GULP energy -167430.098638 kJ/mol
# GULP energy per Si atom -5581.003288 kJ/mol
# Density = 2.413928 g / cm^3
# Si number density = 24.194345 Si / 1000 Ang^3
#
#
#
# Elastic Constant Matrix: (Units=GPa)
#
#
# Indices 1 2 3 4 5 6 
#
# 1 43.0208 4.3411 15.1439 0.0000 0.0000 0.0000
# 2 4.3411 129.9682 45.1254 0.0000 0.0000 0.0000
# 3 15.1439 45.1254 120.7655 0.0000 0.0000 0.0000
# 4 0.0000 0.0000 0.0000 22.0083 0.0000 0.0000
# 5 0.0000 0.0000 0.0000 0.0000 27.6399 0.0000
# 6 0.0000 0.0000 0.0000 0.0000 0.0000 11.6593
#
#
#
# Elastic Compliance Matrix: (Units=1/GPa)
#
#
# Indices 1 2 3 4 5 6 
#
# 1 0.024327 0.000283 -0.003156 0.000000 0.000000 0.000000
# 2 0.000283 0.008845 -0.003340 0.000000 0.000000 0.000000
# 3 -0.003156 -0.003340 0.009925 0.000000 0.000000 0.000000
# 4 0.000000 0.000000 0.000000 0.045437 0.000000 0.000000
# 5 0.000000 0.000000 0.000000 0.000000 0.036180 0.000000
# 6 0.000000 0.000000 0.000000 0.000000 0.000000 0.085768
#
#
# Mechanical properties :
#
#
# Convention : Reuss Voigt Hill
#
# Bulk Modulus (GPa) = 32.60604 46.99724 39.80164
# Shear Modulus (GPa) = 21.44712 27.53776 24.49244
#
# Velocity S-wave (km/s) = 2.98056 3.37737 3.18515
# Velocity P-wave (km/s) = 5.03498 5.88862 5.47845
#
# Compressibility (1/GPa) = 0.03066917
#
# Stress axis : x y z
#
# Youngs Moduli (GPa) = 41.10639 113.06429 100.76060
#
# Poissons Ratio (x) = -0.03204 0.31805
# Poissons Ratio (y) = -0.01165 0.33658
# Poissons Ratio (z) = 0.12975 0.37768
#
# Static dielectric constant tensor:
#      x y z
#    x 1.873780 0.000000 0.000000 
#    y 0.000000 1.923470 0.000000 
#    z 0.000000 0.000000 2.189240 
# 
# From -- ./inp_files/852.got.cif
#   From: 2010.05.17/outbox.cif.g08.bks.cpg/sg37_1_cif.got.tgz:852.got - 2010.06.03 17:53:42.
