data_PCOD9353091
_publ_section_title
;
Structure prediction by ZEFSAII (Michael W. Deem and Ramdas Pophale) SiO2 
 PCOD9353091
Probable space group: C M C 21
;
_chemical_formula_sum "Si O2"
_cell_formula_units_Z 64
_cell_length_a 20.792164
_cell_length_b 9.730284
_cell_length_c 16.172230
_cell_angle_alpha 90.000000
_cell_angle_beta 90.000000
_cell_angle_gamma 90.000000
_cell_volume 3271.863053
_symmetry_space_group_name_H-M "C M C 21"
_symmetry_group_IT_number 36
_symmetry_cell_setting 'orthorhombic'
loop_
_space_group_symop_operation_xyz
x,y,z
-x,-y,1/2+z
x,-y,1/2+z
-x,y,z
1/2+x,1/2+y,z
1/2-x,1/2-y,1/2+z
1/2+x,1/2-y,1/2+z
1/2-x,1/2+y,z
loop_
_atom_site_type_symbol
_atom_site_label
_atom_site_fract_x
_atom_site_fract_y
_atom_site_fract_z
Si Si1 0.572667 0.242644 0.736130
Si Si2 0.792587 0.727990 0.664371
Si Si3 0.068985 0.559968 0.174674
Si Si4 0.197567 0.572973 0.426539
Si Si5 0.927333 0.257356 0.427842
Si Si6 0.707413 0.772009 0.499600
Si Si7 0.302433 0.072974 0.237432
Si Si8 0.568985 0.059968 0.489298
O O1 0.500000 0.290861 0.713324
O O2 0.632363 0.273546 0.674500
O O3 0.585579 0.281906 0.831986
O O4 0.569012 0.076412 0.731170
O O5 0.750000 0.750000 0.581986
O O6 0.754922 0.820651 0.729953
O O7 0.790413 0.566691 0.686493
O O8 0.132683 0.639379 0.199538
O O9 0.000000 0.631182 0.182431
O O10 0.074020 0.500000 0.081986
O O11 0.254922 0.679348 0.434019
O O12 0.209587 0.433309 0.477479
O O13 0.187252 0.534881 0.331986
O O14 0.132683 0.639378 0.464434
O O15 0.867637 0.226453 0.489471
O O16 0.930988 0.423588 0.432802
O O17 0.000000 0.209139 0.450647
O O18 0.500000 0.131181 0.481541
#
# Coordination Sequence:
#
# PCOD9353091 Si02
#       8
#     8   8   8   8   8   8   8   8
#     4   9  17  31  51  73  97 131 179 223 251 292
#     4  11  21  35  54  79 108 137 171 215 267 317
#     4   9  16  27  45  71 101 132 168 210 256 305
#     4  11  21  34  53  77 105 138 175 215 261 311
#     4   9  17  31  51  73  97 131 179 223 251 292
#     4  11  21  35  54  79 108 137 171 215 267 317
#     4  11  21  34  53  77 105 138 175 215 261 311
#     4   9  16  27  45  71 101 132 168 210 256 305
#
# _framework density 19.560721999999998
#
# number of rings (size 3 to 8) (size 9 to 14) (size 15 to 20)
#    0.000    2.000    0.000    8.250    0.000    1.500 
#    0.000    0.000    0.000    4.500    0.000    0.000 
#    0.000    0.000    0.000    0.000    0.000    0.000 
#
# Total GULP energy -178146.650863 kJ/mol
# GULP energy per Si atom -5567.082839 kJ/mol
# Density = 1.951620 g / cm^3
# Si number density = 19.560722 Si / 1000 Ang^3
#
#
#
# Elastic Constant Matrix: (Units=GPa)
#
#
# Indices 1 2 3 4 5 6 
#
# 1 190.2940 22.0846 44.0561 0.0000 0.0000 0.0000
# 2 22.0846 22.6325 4.1554 0.0000 0.0000 0.0000
# 3 44.0561 4.1554 106.6502 0.0000 0.0000 0.0000
# 4 0.0000 0.0000 0.0000 21.5440 0.0000 0.0000
# 5 0.0000 0.0000 0.0000 0.0000 30.9502 0.0000
# 6 0.0000 0.0000 0.0000 0.0000 0.0000 19.9094
#
#
#
# Elastic Compliance Matrix: (Units=1/GPa)
#
#
# Indices 1 2 3 4 5 6 
#
# 1 0.006509 -0.005900 -0.002459 0.000000 0.000000 0.000000
# 2 -0.005900 0.049850 0.000495 0.000000 0.000000 0.000000
# 3 -0.002459 0.000495 0.010373 0.000000 0.000000 0.000000
# 4 0.000000 0.000000 0.000000 0.046417 0.000000 0.000000
# 5 0.000000 0.000000 0.000000 0.000000 0.032310 0.000000
# 6 0.000000 0.000000 0.000000 0.000000 0.000000 0.050228
#
#
# Mechanical properties :
#
#
# Convention : Reuss Voigt Hill
#
# Bulk Modulus (GPa) = 19.60614 51.12987 35.36800
# Shear Modulus (GPa) = 21.88988 31.09943 26.49465
#
# Velocity S-wave (km/s) = 3.34888 3.99167 3.68432
# Velocity P-wave (km/s) = 4.99983 6.88770 6.01825
#
# Compressibility (1/GPa) = 0.05100443
#
# Stress axis : x y z
#
# Youngs Moduli (GPa) = 153.63263 20.06000 96.40476
#
# Poissons Ratio (x) = 0.11835 0.23705
# Poissons Ratio (y) = 0.90643 -0.04771
# Poissons Ratio (z) = 0.37777 -0.00993
#
# Static dielectric constant tensor:
#      x y z
#    x 1.789820 0.000000 0.000000 
#    y 0.000000 1.645020 0.000000 
#    z 0.000000 0.000000 1.751440 
# 
# From -- ./inp_files/14939.got.cif
#   From: 2010.05.17/outbox.cif.g08.bks.cpg/sg36_8_cif.got.tgz:14939.got - 2010.06.03 17:41:39.
