data_PCOD9353824
_publ_section_title
;
Structure prediction by ZEFSAII (Michael W. Deem and Ramdas Pophale) SiO2 
 PCOD9353824
Probable space group: C C C 2
;
_chemical_formula_sum "Si O2"
_cell_formula_units_Z 48
_cell_length_a 14.521174
_cell_length_b 13.045296
_cell_length_c 10.721453
_cell_angle_alpha 90.000000
_cell_angle_beta 90.000000
_cell_angle_gamma 90.000000
_cell_volume 2030.997147
_symmetry_space_group_name_H-M "C C C 2"
_symmetry_group_IT_number 37
_symmetry_cell_setting 'orthorhombic'
loop_
_space_group_symop_operation_xyz
x,y,z
-x,-y,z
-x,y,1/2+z
x,-y,1/2+z
1/2+x,1/2+y,z
1/2-x,1/2-y,z
1/2-x,1/2+y,1/2+z
1/2+x,1/2-y,1/2+z
loop_
_atom_site_type_symbol
_atom_site_label
_atom_site_fract_x
_atom_site_fract_y
_atom_site_fract_z
Si Si1 0.733192 0.038460 0.800560
Si Si2 0.158559 0.180157 0.479151
Si Si3 0.439103 0.091156 0.885557
Si Si4 0.857659 0.778857 0.010679
Si Si5 0.674796 0.344153 0.243330
Si Si6 0.914805 0.710125 0.249302
O O1 0.800732 0.081440 0.907363
O O2 0.673221 0.131652 0.743500
O O3 0.656318 0.961880 0.853478
O O4 0.786055 0.957654 0.714501
O O5 0.250000 0.250000 0.491548
O O6 0.117495 0.175206 0.617786
O O7 0.092320 0.236556 0.383876
O O8 0.492972 0.141355 0.767085
O O9 0.500000 0.000000 0.938352
O O10 0.415343 0.176375 0.984239
O O11 0.750000 0.750000 0.019551
O O12 0.895348 0.799919 0.148873
O O13 0.867628 0.843587 0.882691
O O14 0.750000 0.250000 0.250599
#
# Coordination Sequence:
#
# PCOD9353824 Si02
#       6
#     8   8   8   8   8   8
#     4  10  19  37  61  96 125 173 218 273 323 402
#     4   9  20  37  57  89 130 174 216 266 325 399
#     4  10  22  38  59 100 136 168 210 286 349 390
#     4  11  21  39  63  92 130 185 223 266 327 420
#     4  10  20  34  61  88 124 169 228 263 315 387
#     4  10  23  39  59  93 142 171 212 275 348 392
#
# _framework density 23.633713
#
# number of rings (size 3 to 8) (size 9 to 14) (size 15 to 20)
#    0.000    2.000    3.333    1.500    2.333    4.667 
#    3.000    0.000    0.000    1.000    0.000    4.667 
#    0.000    0.000    0.000    0.000    0.000    0.000 
#
# Total GULP energy -133681.018656 kJ/mol
# GULP energy per Si atom -5570.042444 kJ/mol
# Density = 2.357992 g / cm^3
# Si number density = 23.633713 Si / 1000 Ang^3
#
#
#
# Elastic Constant Matrix: (Units=GPa)
#
#
# Indices 1 2 3 4 5 6 
#
# 1 56.9780 22.1679 2.1626 0.0000 0.0000 0.0000
# 2 22.1679 75.0496 27.2371 0.0000 0.0000 0.0000
# 3 2.1626 27.2371 95.7614 0.0000 0.0000 0.0000
# 4 0.0000 0.0000 0.0000 9.6538 0.0000 0.0000
# 5 0.0000 0.0000 0.0000 0.0000 -0.1788 0.0000
# 6 0.0000 0.0000 0.0000 0.0000 0.0000 32.6137
#
#
#
# Elastic Compliance Matrix: (Units=1/GPa)
#
#
# Indices 1 2 3 4 5 6 
#
# 1 0.019989 -0.006401 0.001369 0.000000 0.000000 0.000000
# 2 -0.006401 0.016908 -0.004665 0.000000 0.000000 0.000000
# 3 0.001369 -0.004665 0.011738 0.000000 0.000000 0.000000
# 4 0.000000 0.000000 0.000000 0.103586 0.000000 0.000000
# 5 0.000000 0.000000 0.000000 0.000000 -5.593565 0.000000
# 6 0.000000 0.000000 0.000000 0.000000 0.000000 0.030662
#
#
# Mechanical properties :
#
#
# Convention : Reuss Voigt Hill
#
# Bulk Modulus (GPa) = 34.19665 36.76933 35.48299
# Shear Modulus (GPa) = -0.92910 20.16586 9.61838
#
# Velocity S-wave (km/s) = -0.62768 2.92424 2.01956
# Velocity P-wave (km/s) = 3.73839 5.19551 4.52598
#
# Compressibility (1/GPa) = 0.02924263
#
# Stress axis : x y z
#
# Youngs Moduli (GPa) = 50.02719 59.14307 85.19031
#
# Poissons Ratio (x) = 0.37859 -0.11665
# Poissons Ratio (y) = 0.32024 0.39738
# Poissons Ratio (z) = -0.06850 0.27588
#
# Static dielectric constant tensor:
#      x y z
#    x 2.019150 0.000000 0.000000 
#    y 0.000000 2.076270 0.000000 
#    z 0.000000 0.000000 2.000900 
# 
# From -- ./inp_files/8235.got.cif
#   From: 2010.05.17/outbox.cif.g08.bks.cpg/sg37_5_cif.got.tgz:8235.got - 2010.06.03 17:53:42.
