data_PCOD9353002
_publ_section_title
;
Structure prediction by ZEFSAII (Michael W. Deem and Ramdas Pophale) SiO2 
 PCOD9353002
Probable space group: C M C 21
;
_chemical_formula_sum "Si O2"
_cell_formula_units_Z 60
_cell_length_a 18.631532
_cell_length_b 16.677085
_cell_length_c 8.182101
_cell_angle_alpha 90.000000
_cell_angle_beta 90.000000
_cell_angle_gamma 90.000000
_cell_volume 2542.339500
_symmetry_space_group_name_H-M "C M C 21"
_symmetry_group_IT_number 36
_symmetry_cell_setting 'orthorhombic'
loop_
_space_group_symop_operation_xyz
x,y,z
-x,-y,1/2+z
x,-y,1/2+z
-x,y,z
1/2+x,1/2+y,z
1/2-x,1/2-y,1/2+z
1/2+x,1/2-y,1/2+z
1/2-x,1/2+y,z
loop_
_atom_site_type_symbol
_atom_site_label
_atom_site_fract_x
_atom_site_fract_y
_atom_site_fract_z
Si Si1 0.000000 0.483762 0.537660
Si Si2 0.916119 0.109299 0.609411
Si Si3 0.360410 0.544736 0.946667
Si Si4 0.801480 0.690363 0.471979
Si Si5 0.582938 0.310424 0.612670
Si Si6 0.293940 0.903402 0.314119
Si Si7 0.855396 0.251022 0.441291
Si Si8 0.113826 0.440579 0.791821
O O1 0.061697 0.435184 0.639445
O O2 0.062101 0.536559 0.443212
O O3 0.905226 0.074397 0.790158
O O4 0.885194 0.199545 0.592563
O O5 0.000000 0.107719 0.566108
O O6 0.872139 0.047897 0.492591
O O7 0.279136 0.570171 0.903479
O O8 0.391531 0.598091 0.094982
O O9 0.859637 0.759141 0.509591
O O10 0.785198 0.644404 0.643065
O O11 0.725818 0.721678 0.409288
O O12 0.837500 0.633167 0.340447
O O13 0.500000 0.301475 0.561848
O O14 0.592927 0.276777 0.794701
O O15 0.342978 0.845835 0.427330
O O16 0.335319 0.983339 0.268070
#
# Coordination Sequence:
#
# PCOD9353002 Si02
#       8
#     4   8   8   8   8   8   8   8
#     4  10  24  42  66 100 138 170 228 280 332 418
#     4  12  25  44  70 102 138 179 227 284 343 409
#     4  12  25  46  70  99 138 174 233 282 342 408
#     4  11  23  45  70 101 138 178 230 282 340 409
#     4  11  25  44  71 101 140 185 222 284 354 409
#     4  11  24  44  69  99 133 180 226 283 338 405
#     4  11  24  46  70  99 136 178 234 279 339 410
#     4  11  23  44  68  99 133 182 224 277 346 402
#
# _framework density 23.600308999999999
#
# number of rings (size 3 to 8) (size 9 to 14) (size 15 to 20)
#    0.000    0.800    4.000    3.200    1.867    1.067 
#    6.000    0.000    0.000    0.000    0.000    0.000 
#    0.000    0.000    0.000    0.000    0.000    0.000 
#
# Total GULP energy -167353.588174 kJ/mol
# GULP energy per Si atom -5578.452939 kJ/mol
# Density = 2.354659 g / cm^3
# Si number density = 23.600309 Si / 1000 Ang^3
#
#
#
# Elastic Constant Matrix: (Units=GPa)
#
#
# Indices 1 2 3 4 5 6 
#
# 1 131.7428 33.7910 14.1265 0.0000 0.0000 0.0000
# 2 33.7910 73.9874 13.0735 0.0000 0.0000 0.0000
# 3 14.1265 13.0735 9.6248 0.0000 0.0000 0.0000
# 4 0.0000 0.0000 0.0000 22.6462 0.0000 0.0000
# 5 0.0000 0.0000 0.0000 0.0000 29.1738 0.0000
# 6 0.0000 0.0000 0.0000 0.0000 0.0000 1.0964
#
#
#
# Elastic Compliance Matrix: (Units=1/GPa)
#
#
# Indices 1 2 3 4 5 6 
#
# 1 0.009327 -0.002422 -0.010399 0.000000 0.000000 0.000000
# 2 -0.002422 0.018413 -0.021456 0.000000 0.000000 0.000000
# 3 -0.010399 -0.021456 0.148306 0.000000 0.000000 0.000000
# 4 0.000000 0.000000 0.000000 0.044157 0.000000 0.000000
# 5 0.000000 0.000000 0.000000 0.000000 0.034277 0.000000
# 6 0.000000 0.000000 0.000000 0.000000 0.000000 0.912034
#
#
# Mechanical properties :
#
#
# Convention : Reuss Voigt Hill
#
# Bulk Modulus (GPa) = 9.30308 37.48189 23.39249
# Shear Modulus (GPa) = 3.93422 20.87423 12.40422
#
# Velocity S-wave (km/s) = 1.29253 2.97726 2.29507
# Velocity P-wave (km/s) = 2.48556 5.26642 4.11784
#
# Compressibility (1/GPa) = 0.10749123
#
# Stress axis : x y z
#
# Youngs Moduli (GPa) = 107.21656 54.30856 6.74282
#
# Poissons Ratio (x) = 0.13155 0.07012
# Poissons Ratio (y) = 0.25970 0.14467
# Poissons Ratio (z) = 1.11497 1.16524
#
# Static dielectric constant tensor:
#      x y z
#    x 1.814680 0.000000 0.000000 
#    y 0.000000 1.880100 0.000000 
#    z 0.000000 0.000000 1.952300 
# 
# From -- ./inp_files/4813.got.cif
#   From: 2010.05.17/outbox.cif.g08.bks.cpg/sg36_3_cif.got.tgz:4813.got - 2010.06.03 17:41:39.
