data_PCOD9353400
_publ_section_title
;
Structure prediction by ZEFSAII (Michael W. Deem and Ramdas Pophale) SiO2 
 PCOD9353400
Probable space group: C M C 21
;
_chemical_formula_sum "Si O2"
_cell_formula_units_Z 24
_cell_length_a 18.000000
_cell_length_b 15.000000
_cell_length_c 9.000000
_cell_angle_alpha 90.000000
_cell_angle_beta 90.000000
_cell_angle_gamma 90.000000
_cell_volume 2430.000000
_symmetry_space_group_name_H-M "C M C 21"
_symmetry_group_IT_number 36
_symmetry_cell_setting 'orthorhombic'
loop_
_space_group_symop_operation_xyz
x,y,z
-x,-y,1/2+z
x,-y,1/2+z
-x,y,z
1/2+x,1/2+y,z
1/2-x,1/2-y,1/2+z
1/2+x,1/2-y,1/2+z
1/2-x,1/2+y,z
loop_
_atom_site_type_symbol
_atom_site_label
_atom_site_fract_x
_atom_site_fract_y
_atom_site_fract_z
Si Si1 0.170001 0.696871 0.279210
Si Si2 0.582660 0.230688 0.744289
Si Si3 0.412112 0.908536 0.009951
Si Si4 0.305470 0.598511 0.888594
Si Si5 0.821677 0.903878 0.748211
Si Si6 0.357603 0.108444 0.975198
O O1 0.105393 0.636941 0.352623
O O2 0.170334 0.802124 0.326788
O O3 0.246080 0.641561 0.313030
O O4 0.161810 0.678344 0.104781
O O5 0.500000 0.251550 0.692121
O O6 0.620211 0.169387 0.616989
O O7 0.619882 0.324772 0.781928
O O8 0.582341 0.160389 0.878577
O O9 0.500000 0.916948 0.036507
O O10 0.379236 0.008231 0.024805
O O11 0.332474 0.505110 0.811200
O O12 0.320070 0.591939 0.066943
O O13 0.216336 0.597654 0.876491
#
# Coordination Sequence:
#
# PCOD9353400 Si02
#       6
#     8   8   8   8   8   8
#     4  11  23  41  65  95 132 164 207 262 316 377
#     4  11  24  42  62  90 131 169 208 260 319 377
#     4  11  23  42  65  94 132 168 211 259 322 385
#     4  11  24  39  67  98 122 161 216 266 310 368
#     4  11  24  41  67  93 126 164 214 261 310 371
#     4  11  23  37  66  98 128 162 206 264 318 380
#
# _framework density 9.8765429999999999
#
# number of rings (size 3 to 8) (size 9 to 14) (size 15 to 20)
#    0.000    1.000    5.000    1.500    4.667    2.667 
#    0.000    1.667    0.000    0.000    0.000    0.000 
#    0.000    0.000    0.000    0.000    0.000    0.000 
#
# Total GULP energy -133635.787522 kJ/mol
# GULP energy per Si atom -5568.157813 kJ/mol
# Density = 0.985406 g / cm^3
# Si number density = 9.876543 Si / 1000 Ang^3
#
#
#
# Elastic Constant Matrix: (Units=GPa)
#
#
# Indices 1 2 3 4 5 6 
#
# 1 36.2858 21.9858 2.4886 0.0000 0.0000 0.0000
# 2 21.9858 206.4917 40.7307 0.0000 0.0000 0.0000
# 3 2.4886 40.7307 44.8849 0.0000 0.0000 0.0000
# 4 0.0000 0.0000 0.0000 44.3392 0.0000 0.0000
# 5 0.0000 0.0000 0.0000 0.0000 12.7657 0.0000
# 6 0.0000 0.0000 0.0000 0.0000 0.0000 11.1528
#
#
#
# Elastic Compliance Matrix: (Units=1/GPa)
#
#
# Indices 1 2 3 4 5 6 
#
# 1 0.029540 -0.003437 0.001481 0.000000 0.000000 0.000000
# 2 -0.003437 0.006299 -0.005525 0.000000 0.000000 0.000000
# 3 0.001481 -0.005525 0.027211 0.000000 0.000000 0.000000
# 4 0.000000 0.000000 0.000000 0.022553 0.000000 0.000000
# 5 0.000000 0.000000 0.000000 0.000000 0.078335 0.000000
# 6 0.000000 0.000000 0.000000 0.000000 0.000000 0.089664
#
#
# Mechanical properties :
#
#
# Convention : Reuss Voigt Hill
#
# Bulk Modulus (GPa) = 20.79547 46.45252 33.62399
# Shear Modulus (GPa) = 17.56895 28.48203 23.02549
#
# Velocity S-wave (km/s) = 2.98556 3.80136 3.41789
# Velocity P-wave (km/s) = 4.73660 6.54483 5.71271
#
# Compressibility (1/GPa) = 0.04808741
#
# Stress axis : x y z
#
# Youngs Moduli (GPa) = 33.85226 158.76461 36.75008
#
# Poissons Ratio (x) = 0.54574 -0.05444
# Poissons Ratio (y) = 0.11637 0.20305
# Poissons Ratio (z) = -0.05015 0.87719
#
# Static dielectric constant tensor:
#      x y z
#    x 1.742640 0.000000 0.000000 
#    y 0.000000 1.652770 0.000000 
#    z 0.000000 0.000000 1.776790 
# 
# From -- ./inp_files/4630.got.cif
#   From: 2010.05.17/outbox.ucp.g08.bks.cvg/sg36_3_cif.got.tgz:4630.got - 2010.06.11 10:37:26.
