data_PCOD9353697
_publ_section_title
;
Structure prediction by ZEFSAII (Michael W. Deem and Ramdas Pophale) SiO2 
 PCOD9353697
Probable space group: C C C 2
;
_chemical_formula_sum "Si O2"
_cell_formula_units_Z 60
_cell_length_a 21.652020
_cell_length_b 13.930739
_cell_length_c 10.593981
_cell_angle_alpha 90.000000
_cell_angle_beta 90.000000
_cell_angle_gamma 90.000000
_cell_volume 3195.448075
_symmetry_space_group_name_H-M "C C C 2"
_symmetry_group_IT_number 37
_symmetry_cell_setting 'orthorhombic'
loop_
_space_group_symop_operation_xyz
x,y,z
-x,-y,z
-x,y,1/2+z
x,-y,1/2+z
1/2+x,1/2+y,z
1/2-x,1/2-y,z
1/2-x,1/2+y,1/2+z
1/2+x,1/2-y,1/2+z
loop_
_atom_site_type_symbol
_atom_site_label
_atom_site_fract_x
_atom_site_fract_y
_atom_site_fract_z
Si Si1 0.500000 0.500000 0.354910
Si Si2 0.212167 0.654682 0.528054
Si Si3 0.112803 0.879825 0.957968
Si Si4 0.900873 0.856671 0.746190
Si Si5 0.816362 0.697778 0.479320
Si Si6 0.859898 0.342260 0.262140
Si Si7 0.325508 0.956161 0.762940
Si Si8 0.706034 0.533742 0.867121
O O1 0.452113 0.430605 0.427801
O O2 0.542285 0.424843 0.279560
O O3 0.250000 0.750000 0.563423
O O4 0.176465 0.671243 0.395166
O O5 0.172020 0.614928 0.644025
O O6 0.260055 0.570685 0.491849
O O7 0.128739 0.769011 0.932943
O O8 0.165087 0.940561 0.888512
O O9 0.120245 0.885273 0.107247
O O10 0.911040 0.742454 0.758859
O O11 0.842018 0.883920 0.830380
O O12 0.750000 0.750000 0.459953
O O13 0.824182 0.677592 0.629177
O O14 0.823153 0.603832 0.392888
O O15 0.874032 0.456169 0.259861
O O16 0.259073 0.010800 0.766324
#
# Coordination Sequence:
#
# PCOD9353697 Si02
#       8
#     4   8   8   8   8   8   8   8
#     4  10  22  40  58  86 104 138 194 256 292 330
#     4  11  20  31  47  79 120 155 193 230 275 337
#     4  10  21  36  58  79 113 150 191 237 293 348
#     4  10  20  36  57  78 107 147 193 235 290 344
#     4  11  21  36  55  83 118 160 192 230 291 361
#     4  10  21  35  54  77 113 159 195 228 282 352
#     4  11  22  32  51  82 121 154 191 232 279 341
#     4  10  19  32  50  80 112 157 184 230 281 347
#
# _framework density 18.776709
#
# number of rings (size 3 to 8) (size 9 to 14) (size 15 to 20)
#    0.000    1.600    2.667    3.600    5.600    0.000 
#    0.000    1.333    0.000    0.800    0.000    3.733 
#    0.000    0.000    0.000    0.000    0.000    0.000 
#
# Total GULP energy -167007.857097 kJ/mol
# GULP energy per Si atom -5566.928570 kJ/mol
# Density = 1.873397 g / cm^3
# Si number density = 18.776709 Si / 1000 Ang^3
#
#
#
# Elastic Constant Matrix: (Units=GPa)
#
#
# Indices 1 2 3 4 5 6 
#
# 1 38.9610 23.6230 9.5004 0.0000 0.0000 0.0000
# 2 23.6230 129.9579 41.3274 0.0000 0.0000 0.0000
# 3 9.5004 41.3274 68.3363 0.0000 0.0000 0.0000
# 4 0.0000 0.0000 0.0000 27.0620 0.0000 0.0000
# 5 0.0000 0.0000 0.0000 0.0000 6.8924 0.0000
# 6 0.0000 0.0000 0.0000 0.0000 0.0000 21.1434
#
#
#
# Elastic Compliance Matrix: (Units=1/GPa)
#
#
# Indices 1 2 3 4 5 6 
#
# 1 0.028906 -0.004923 -0.001041 0.000000 0.000000 0.000000
# 2 -0.004923 0.010366 -0.005584 0.000000 0.000000 0.000000
# 3 -0.001041 -0.005584 0.018155 0.000000 0.000000 0.000000
# 4 0.000000 0.000000 0.000000 0.036952 0.000000 0.000000
# 5 0.000000 0.000000 0.000000 0.000000 0.145087 0.000000
# 6 0.000000 0.000000 0.000000 0.000000 0.000000 0.047296
#
#
# Mechanical properties :
#
#
# Convention : Reuss Voigt Hill
#
# Bulk Modulus (GPa) = 29.12969 42.90632 36.01801
# Shear Modulus (GPa) = 15.56166 21.87317 18.71742
#
# Velocity S-wave (km/s) = 2.88197 3.41678 3.16071
# Velocity P-wave (km/s) = 5.15963 6.20212 5.70474
#
# Compressibility (1/GPa) = 0.03432923
#
# Stress axis : x y z
#
# Youngs Moduli (GPa) = 34.59534 96.47350 55.07996
#
# Poissons Ratio (x) = 0.47496 0.05735
# Poissons Ratio (y) = 0.17032 0.30758
# Poissons Ratio (z) = 0.03602 0.53873
#
# Static dielectric constant tensor:
#      x y z
#    x 1.675490 0.000000 0.000000 
#    y 0.000000 1.724720 0.000000 
#    z 0.000000 0.000000 1.653260 
# 
# From -- ./inp_files/8645.got.cif
#   From: 2010.05.17/outbox.cif.g08.bks.cpg/sg37_5_cif.got.tgz:8645.got - 2010.06.03 17:53:42.
