data_PCOD9353308
_publ_section_title
;
Structure prediction by ZEFSAII (Michael W. Deem and Ramdas Pophale) SiO2 
 PCOD9353308
Probable space group: C M C 21
;
_chemical_formula_sum "Si O2"
_cell_formula_units_Z 32
_cell_length_a 9.000000
_cell_length_b 24.000000
_cell_length_c 15.000000
_cell_angle_alpha 90.000000
_cell_angle_beta 90.000000
_cell_angle_gamma 90.000000
_cell_volume 3240.000000
_symmetry_space_group_name_H-M "C M C 21"
_symmetry_group_IT_number 36
_symmetry_cell_setting 'orthorhombic'
loop_
_space_group_symop_operation_xyz
x,y,z
-x,-y,1/2+z
x,-y,1/2+z
-x,y,z
1/2+x,1/2+y,z
1/2-x,1/2-y,1/2+z
1/2+x,1/2-y,1/2+z
1/2-x,1/2+y,z
loop_
_atom_site_type_symbol
_atom_site_label
_atom_site_fract_x
_atom_site_fract_y
_atom_site_fract_z
Si Si1 0.679171 0.038307 0.054580
Si Si2 0.823640 0.842560 0.218268
Si Si3 0.332249 0.805124 0.977935
Si Si4 0.172945 0.869821 0.666526
Si Si5 0.670123 0.885540 0.386192
Si Si6 0.175711 0.411918 0.060951
Si Si7 0.666853 0.205393 0.029967
Si Si8 0.171765 0.279828 0.775177
O O1 0.500000 0.040378 0.061499
O O2 0.746361 0.073780 0.135750
O O3 0.732366 0.974637 0.053400
O O4 0.714547 0.069900 0.961836
O O5 0.779652 0.878653 0.304752
O O6 0.747836 0.874889 0.137712
O O7 0.770909 0.778662 0.235085
O O8 0.000000 0.840527 0.207487
O O9 0.500000 0.797005 0.015224
O O10 0.329675 0.778511 0.881060
O O11 0.305406 0.871147 0.976331
O O12 0.208350 0.769750 0.028520
O O13 0.211082 0.826681 0.587011
O O14 0.240125 0.834960 0.747597
O O15 0.000000 0.879444 0.676630
O O16 0.500000 0.897869 0.357244
O O17 0.667893 0.825954 0.435876
O O18 0.000000 0.416967 0.078120
O O19 0.500000 0.196041 0.063986
O O20 0.000000 0.285876 0.748309
#
# Coordination Sequence:
#
# PCOD9353308 Si02
#       8
#     8   8   8   8   8   8   8   8
#     4   9  20  41  62  82 111 150 197 242 289 343
#     4  11  22  36  58  87 121 154 189 234 293 348
#     4  10  20  36  58  85 117 151 189 237 290 344
#     4  11  22  35  57  85 113 148 191 237 285 341
#     4   9  18  34  58  84 110 144 192 240 283 339
#     4  10  22  40  61  84 114 154 199 242 287 344
#     4  10  19  33  56  84 115 149 187 231 287 345
#     4  10  21  37  56  85 123 154 186 233 292 352
#
# _framework density 9.8765429999999999
#
# number of rings (size 3 to 8) (size 9 to 14) (size 15 to 20)
#    0.000    2.000    1.250    3.375    0.000    6.500 
#    2.250    0.000    0.000    0.000    0.000    0.000 
#    0.000    0.000    0.000    0.000    0.000    0.000 
#
# Total GULP energy -178262.577841 kJ/mol
# GULP energy per Si atom -5570.705558 kJ/mol
# Density = 0.985406 g / cm^3
# Si number density = 9.876543 Si / 1000 Ang^3
#
#
#
# Elastic Constant Matrix: (Units=GPa)
#
#
# Indices 1 2 3 4 5 6 
#
# 1 24.3461 34.1063 19.6218 0.0000 0.0000 0.0000
# 2 34.1063 160.2866 27.9200 0.0000 0.0000 0.0000
# 3 19.6218 27.9200 49.3118 0.0000 0.0000 0.0000
# 4 0.0000 0.0000 0.0000 19.5958 0.0000 0.0000
# 5 0.0000 0.0000 0.0000 0.0000 21.9972 0.0000
# 6 0.0000 0.0000 0.0000 0.0000 0.0000 26.6407
#
#
#
# Elastic Compliance Matrix: (Units=1/GPa)
#
#
# Indices 1 2 3 4 5 6 
#
# 1 0.077652 -0.012360 -0.023901 0.000000 0.000000 0.000000
# 2 -0.012360 0.008889 -0.000115 0.000000 0.000000 0.000000
# 3 -0.023901 -0.000115 0.029854 0.000000 0.000000 0.000000
# 4 0.000000 0.000000 0.000000 0.051031 0.000000 0.000000
# 5 0.000000 0.000000 0.000000 0.000000 0.045460 0.000000
# 6 0.000000 0.000000 0.000000 0.000000 0.000000 0.037537
#
#
# Mechanical properties :
#
#
# Convention : Reuss Voigt Hill
#
# Bulk Modulus (GPa) = 22.91223 44.13786 33.52505
# Shear Modulus (GPa) = 14.80512 23.79986 19.30249
#
# Velocity S-wave (km/s) = 2.74069 3.47489 3.12939
# Velocity P-wave (km/s) = 4.65184 6.20428 5.48328
#
# Compressibility (1/GPa) = 0.04364482
#
# Stress axis : x y z
#
# Youngs Moduli (GPa) = 12.87802 112.50190 33.49594
#
# Poissons Ratio (x) = 1.39050 0.80057
# Poissons Ratio (y) = 0.15917 0.00384
# Poissons Ratio (z) = 0.30779 0.01290
#
# Static dielectric constant tensor:
#      x y z
#    x 1.675660 0.000000 0.000000 
#    y 0.000000 1.698200 0.000000 
#    z 0.000000 0.000000 1.811060 
# 
# From -- ./inp_files/10903.got.cif
#   From: 2010.05.17/outbox.ucp.g08.bks.cvg/sg36_6_cif.got.tgz:10903.got - 2010.06.11 10:37:26.
