data_PCOD9353061
_publ_section_title
;
Structure prediction by ZEFSAII (Michael W. Deem and Ramdas Pophale) SiO2 
 PCOD9353061
Probable space group: C M C 21
;
_chemical_formula_sum "Si O2"
_cell_formula_units_Z 40
_cell_length_a 8.748964
_cell_length_b 9.767006
_cell_length_c 19.960043
_cell_angle_alpha 90.000000
_cell_angle_beta 90.000000
_cell_angle_gamma 90.000000
_cell_volume 1705.609305
_symmetry_space_group_name_H-M "C M C 21"
_symmetry_group_IT_number 36
_symmetry_cell_setting 'orthorhombic'
loop_
_space_group_symop_operation_xyz
x,y,z
-x,-y,1/2+z
x,-y,1/2+z
-x,y,z
1/2+x,1/2+y,z
1/2-x,1/2-y,1/2+z
1/2+x,1/2-y,1/2+z
1/2-x,1/2+y,z
loop_
_atom_site_type_symbol
_atom_site_label
_atom_site_fract_x
_atom_site_fract_y
_atom_site_fract_z
Si Si1 0.500000 0.813079 0.696780
Si Si2 0.327314 0.451040 0.870987
Si Si3 0.166109 0.342564 0.992826
Si Si4 0.500000 0.518503 0.657714
Si Si5 0.769531 0.589101 0.083004
Si Si6 0.500000 0.013011 0.816985
Si Si7 0.000000 0.201906 0.264378
O O1 0.500000 0.649261 0.704775
O O2 0.638629 0.859018 0.647962
O O3 0.500000 0.881094 0.769228
O O4 0.500000 0.518005 0.877916
O O5 0.356588 0.354261 0.806887
O O6 0.162202 0.523146 0.857277
O O7 0.295390 0.361626 0.936882
O O8 0.153113 0.488598 0.029805
O O9 0.203463 0.219343 0.043484
O O10 0.000000 0.312821 0.961282
O O11 0.355666 0.515160 0.610984
O O12 0.500000 0.374049 0.695000
O O13 0.500000 0.137384 0.764095
#
# Coordination Sequence:
#
# PCOD9353061 Si02
#       7
#     4   8   8   4   8   4   4
#     4  12  28  46  77 104 151 192 247 302 379 441
#     4  10  27  49  74 112 151 193 249 314 370 445
#     4  12  26  47  75 108 149 195 245 307 374 446
#     4  12  26  50  72 108 147 192 244 304 369 451
#     4  12  27  44  74 112 144 189 245 306 371 445
#     4  12  26  52  80 110 145 206 248 316 375 437
#     4  10  28  48  75 110 149 192 265 304 361 457
#
# _framework density 23.452027000000001
#
# number of rings (size 3 to 8) (size 9 to 14) (size 15 to 20)
#    0.600    0.000    5.000    1.200    8.400    4.800 
#    1.800    0.000    0.000    0.000    0.000    0.000 
#    0.000    0.000    0.000    0.000    0.000    0.000 
#
# Total GULP energy -111558.265876 kJ/mol
# GULP energy per Si atom -5577.913294 kJ/mol
# Density = 2.339865 g / cm^3
# Si number density = 23.452027 Si / 1000 Ang^3
#
#
#
# Elastic Constant Matrix: (Units=GPa)
#
#
# Indices 1 2 3 4 5 6 
#
# 1 159.0936 16.9976 20.4468 0.0000 0.0000 0.0000
# 2 16.9976 92.6648 -12.4447 0.0000 0.0000 0.0000
# 3 20.4468 -12.4447 50.4037 0.0000 0.0000 0.0000
# 4 0.0000 0.0000 0.0000 29.4821 0.0000 0.0000
# 5 0.0000 0.0000 0.0000 0.0000 24.1193 0.0000
# 6 0.0000 0.0000 0.0000 0.0000 0.0000 -9.4844
#
#
#
# Elastic Compliance Matrix: (Units=1/GPa)
#
#
# Indices 1 2 3 4 5 6 
#
# 1 0.006879 -0.001693 -0.003208 0.000000 0.000000 0.000000
# 2 -0.001693 0.011578 0.003545 0.000000 0.000000 0.000000
# 3 -0.003208 0.003545 0.022017 0.000000 0.000000 0.000000
# 4 0.000000 0.000000 0.000000 0.033919 0.000000 0.000000
# 5 0.000000 0.000000 0.000000 0.000000 0.041461 0.000000
# 6 0.000000 0.000000 0.000000 0.000000 0.000000 -0.105436
#
#
# Mechanical properties :
#
#
# Convention : Reuss Voigt Hill
#
# Bulk Modulus (GPa) = 26.48149 39.12903 32.80526
# Shear Modulus (GPa) = 194.43246 27.30089 110.86667
#
# Velocity S-wave (km/s) = 9.11518 3.41562 6.88305
# Velocity P-wave (km/s) = 11.04981 5.68121 8.78562
#
# Compressibility (1/GPa) = 0.03776223
#
# Stress axis : x y z
#
# Youngs Moduli (GPa) = 145.37433 86.36925 45.42011
#
# Poissons Ratio (x) = 0.14619 0.14572
# Poissons Ratio (y) = 0.24607 -0.16103
# Poissons Ratio (z) = 0.46641 -0.30621
#
# Static dielectric constant tensor:
#      x y z
#    x 2.191910 0.000000 0.000000 
#    y 0.000000 1.833410 0.000000 
#    z 0.000000 0.000000 1.839510 
# 
# From -- ./inp_files/16421.got.cif
#   From: 2010.05.17/outbox.cif.g08.bks.cpg/sg36_9_cif.got.tgz:16421.got - 2010.06.03 17:41:39.
