data_PCOD9353756
_publ_section_title
;
Structure prediction by ZEFSAII (Michael W. Deem and Ramdas Pophale) SiO2 
 PCOD9353756
Probable space group: C C C 2
;
_chemical_formula_sum "Si O2"
_cell_formula_units_Z 64
_cell_length_a 14.771946
_cell_length_b 8.406931
_cell_length_c 25.161395
_cell_angle_alpha 90.000000
_cell_angle_beta 90.000000
_cell_angle_gamma 90.000000
_cell_volume 3124.711386
_symmetry_space_group_name_H-M "C C C 2"
_symmetry_group_IT_number 37
_symmetry_cell_setting 'orthorhombic'
loop_
_space_group_symop_operation_xyz
x,y,z
-x,-y,z
-x,y,1/2+z
x,-y,1/2+z
1/2+x,1/2+y,z
1/2-x,1/2-y,z
1/2-x,1/2+y,1/2+z
1/2+x,1/2-y,1/2+z
loop_
_atom_site_type_symbol
_atom_site_label
_atom_site_fract_x
_atom_site_fract_y
_atom_site_fract_z
Si Si1 0.903017 0.420723 0.250000
Si Si2 0.897370 0.439264 0.640116
Si Si3 0.169855 0.887203 0.251599
Si Si4 0.397422 0.437726 0.354023
Si Si5 0.756955 0.058369 0.063767
Si Si6 0.755981 0.942906 0.441765
Si Si7 0.396923 0.056021 0.360140
Si Si8 0.896814 0.060583 0.648782
O O1 0.862083 0.477692 0.194411
O O2 0.915415 0.232978 0.250919
O O3 0.861020 0.479992 0.305110
O O4 0.000000 0.500000 0.249999
O O5 0.830777 0.487650 0.593031
O O6 0.896815 0.250995 0.648555
O O7 0.000000 0.500000 0.630761
O O8 0.250000 0.750000 0.251032
O O9 0.157135 0.991891 0.303855
O O10 0.158018 0.992918 0.199483
O O11 0.500000 0.500000 0.353596
O O12 0.343546 0.488063 0.407151
O O13 0.396181 0.246137 0.352961
O O14 0.750000 0.250000 0.065791
O O15 0.844277 0.002849 0.096907
O O16 0.760059 0.004542 0.002550
O O17 0.750000 0.750000 0.442763
O O18 0.667664 0.993946 0.408465
O O19 0.500000 0.000000 0.368600
O O20 0.000000 0.000000 0.650084
#
# Coordination Sequence:
#
# PCOD9353756 Si02
#       8
#     8   8   8   8   8   8   8   8
#     4  10  19  35  58  87 120 155 192 239 298 362
#     4  11  23  41  64  93 125 164 206 256 315 376
#     4  12  24  39  62  93 127 163 201 253 312 368
#     4  11  22  39  62  92 124 160 204 253 306 367
#     4  11  23  43  64  89 123 162 209 262 311 368
#     4   9  22  41  62  86 120 162 207 254 307 365
#     4  10  20  39  63  91 124 163 203 251 310 373
#     4  12  24  41  64  93 125 163 207 256 311 373
#
# _framework density 20.481891999999998
#
# number of rings (size 3 to 8) (size 9 to 14) (size 15 to 20)
#    0.000    1.250    0.000    7.875    0.000    1.000 
#    0.000   12.500    0.000    0.000    0.000    0.000 
#    0.000    0.000    0.000    0.000    0.000    0.000 
#
# Total GULP energy -178805.594264 kJ/mol
# GULP energy per Si atom -5587.674821 kJ/mol
# Density = 2.043527 g / cm^3
# Si number density = 20.481892 Si / 1000 Ang^3
#
#
#
# Elastic Constant Matrix: (Units=GPa)
#
#
# Indices 1 2 3 4 5 6 
#
# 1 149.0889 31.2433 78.0213 0.0000 0.0000 0.0000
# 2 31.2433 115.6495 46.4196 0.0000 0.0000 0.0000
# 3 78.0213 46.4196 212.1095 0.0000 0.0000 0.0000
# 4 0.0000 0.0000 0.0000 28.0648 0.0000 0.0000
# 5 0.0000 0.0000 0.0000 0.0000 25.9719 0.0000
# 6 0.0000 0.0000 0.0000 0.0000 0.0000 -9.4456
#
#
#
# Elastic Compliance Matrix: (Units=1/GPa)
#
#
# Indices 1 2 3 4 5 6 
#
# 1 0.008440 -0.001134 -0.002856 0.000000 0.000000 0.000000
# 2 -0.001134 0.009632 -0.001691 0.000000 0.000000 0.000000
# 3 -0.002856 -0.001691 0.006135 0.000000 0.000000 0.000000
# 4 0.000000 0.000000 0.000000 0.035632 0.000000 0.000000
# 5 0.000000 0.000000 0.000000 0.000000 0.038503 0.000000
# 6 0.000000 0.000000 0.000000 0.000000 0.000000 -0.105869
#
#
# Mechanical properties :
#
#
# Convention : Reuss Voigt Hill
#
# Bulk Modulus (GPa) = 77.85067 87.57960 82.71513
# Shear Modulus (GPa) = 616.08661 30.32913 323.20787
#
# Velocity S-wave (km/s) = 17.36228 3.85226 12.57555
# Velocity P-wave (km/s) = 20.97674 7.91448 15.85343
#
# Compressibility (1/GPa) = 0.01284510
#
# Stress axis : x y z
#
# Youngs Moduli (GPa) = 118.48694 103.82320 162.99202
#
# Poissons Ratio (x) = 0.11769 0.46556
# Poissons Ratio (y) = 0.13431 0.27561
# Poissons Ratio (z) = 0.33844 0.17556
#
# Static dielectric constant tensor:
#      x y z
#    x 1.836380 0.000000 0.000000 
#    y 0.000000 1.740920 0.000000 
#    z 0.000000 0.000000 1.725540 
# 
# From -- ./inp_files/18892.got.cif
#   From: 2010.05.17/outbox.cif.g08.bks.cpg/sg37_10_cif.got.tgz:18892.got - 2010.06.03 17:53:42.
