data_PCOD9353759
_publ_section_title
;
Structure prediction by ZEFSAII (Michael W. Deem and Ramdas Pophale) SiO2 
 PCOD9353759
Probable space group: C C C 2
;
_chemical_formula_sum "Si O2"
_cell_formula_units_Z 48
_cell_length_a 9.050529
_cell_length_b 17.034434
_cell_length_c 16.406432
_cell_angle_alpha 90.000000
_cell_angle_beta 90.000000
_cell_angle_gamma 90.000000
_cell_volume 2529.390104
_symmetry_space_group_name_H-M "C C C 2"
_symmetry_group_IT_number 37
_symmetry_cell_setting 'orthorhombic'
loop_
_space_group_symop_operation_xyz
x,y,z
-x,-y,z
-x,y,1/2+z
x,-y,1/2+z
1/2+x,1/2+y,z
1/2-x,1/2-y,z
1/2-x,1/2+y,1/2+z
1/2+x,1/2-y,1/2+z
loop_
_atom_site_type_symbol
_atom_site_label
_atom_site_fract_x
_atom_site_fract_y
_atom_site_fract_z
Si Si1 0.342918 0.332021 0.909510
Si Si2 0.458016 0.915210 0.982682
Si Si3 0.203113 0.339816 0.073128
Si Si4 0.664608 0.096524 0.745316
Si Si5 0.193932 0.163944 0.405248
Si Si6 0.870269 0.580763 0.807666
O O1 0.250000 0.250000 0.909390
O O2 0.518235 0.331200 0.908515
O O3 0.280475 0.377363 0.831214
O O4 0.298327 0.369904 0.996300
O O5 0.536264 0.850094 0.038688
O O6 0.500000 0.000000 0.019627
O O7 0.287800 0.896556 0.961997
O O8 0.541476 0.916899 0.894580
O O9 0.250000 0.250000 0.088565
O O10 0.221559 0.388213 0.155337
O O11 0.755058 0.143369 0.813368
O O12 0.490697 0.121074 0.749302
O O13 0.662154 0.005602 0.773387
O O14 0.250000 0.250000 0.427248
#
# Coordination Sequence:
#
# PCOD9353759 Si02
#       6
#     8   8   8   8   8   8
#     4  10  21  38  61  88 121 155 199 253 294 352
#     4  10  19  38  61  87 113 155 210 240 291 366
#     4  10  21  36  58  88 124 152 191 253 301 348
#     4  10  19  35  59  87 117 156 195 237 305 352
#     4  11  20  36  65  87 114 160 204 244 297 362
#     4   9  18  36  57  85 116 151 201 242 285 353
#
# _framework density 18.976907000000001
#
# number of rings (size 3 to 8) (size 9 to 14) (size 15 to 20)
#    0.000    2.000    3.333    4.500    2.333    0.667 
#    0.000    1.667    3.667    6.000    0.000    0.000 
#    0.000    0.000    0.000    0.000    0.000    0.000 
#
# Total GULP energy -133627.790157 kJ/mol
# GULP energy per Si atom -5567.824590 kJ/mol
# Density = 1.893371 g / cm^3
# Si number density = 18.976907 Si / 1000 Ang^3
#
#
#
# Elastic Constant Matrix: (Units=GPa)
#
#
# Indices 1 2 3 4 5 6 
#
# 1 170.8421 49.0133 31.8435 0.0000 0.0000 0.0000
# 2 49.0133 71.0189 39.7612 0.0000 0.0000 0.0000
# 3 31.8435 39.7612 81.4078 0.0000 0.0000 0.0000
# 4 0.0000 0.0000 0.0000 20.2942 0.0000 0.0000
# 5 0.0000 0.0000 0.0000 0.0000 15.4390 0.0000
# 6 0.0000 0.0000 0.0000 0.0000 0.0000 25.3904
#
#
#
# Elastic Compliance Matrix: (Units=1/GPa)
#
#
# Indices 1 2 3 4 5 6 
#
# 1 0.007316 -0.004744 -0.000545 0.000000 0.000000 0.000000
# 2 -0.004744 0.022457 -0.009113 0.000000 0.000000 0.000000
# 3 -0.000545 -0.009113 0.016948 0.000000 0.000000 0.000000
# 4 0.000000 0.000000 0.000000 0.049275 0.000000 0.000000
# 5 0.000000 0.000000 0.000000 0.000000 0.064771 0.000000
# 6 0.000000 0.000000 0.000000 0.000000 0.000000 0.039385
#
#
# Mechanical properties :
#
#
# Convention : Reuss Voigt Hill
#
# Bulk Modulus (GPa) = 55.81083 62.72274 59.26679
# Shear Modulus (GPa) = 21.28322 25.73476 23.50899
#
# Velocity S-wave (km/s) = 3.35256 3.68653 3.52351
# Velocity P-wave (km/s) = 6.66783 7.15853 6.91753
#
# Compressibility (1/GPa) = 0.01791767
#
# Stress axis : x y z
#
# Youngs Moduli (GPa) = 136.68818 44.53004 59.00531
#
# Poissons Ratio (x) = 0.21126 0.03213
# Poissons Ratio (y) = 0.64847 0.53769
# Poissons Ratio (z) = 0.07444 0.40578
#
# Static dielectric constant tensor:
#      x y z
#    x 1.706220 0.000000 0.000000 
#    y 0.000000 1.740440 0.000000 
#    z 0.000000 0.000000 1.666910 
# 
# From -- ./inp_files/10573.got.cif
#   From: 2010.05.17/outbox.cif.g08.bks.cpg/sg37_6_cif.got.tgz:10573.got - 2010.06.03 17:53:42.
