data_PCOD9353363
_publ_section_title
;
Structure prediction by ZEFSAII (Michael W. Deem and Ramdas Pophale) SiO2 
 PCOD9353363
Probable space group: C M C 21
;
_chemical_formula_sum "Si O2"
_cell_formula_units_Z 32
_cell_length_a 18.000000
_cell_length_b 12.000000
_cell_length_c 15.000000
_cell_angle_alpha 90.000000
_cell_angle_beta 90.000000
_cell_angle_gamma 90.000000
_cell_volume 3240.000000
_symmetry_space_group_name_H-M "C M C 21"
_symmetry_group_IT_number 36
_symmetry_cell_setting 'orthorhombic'
loop_
_space_group_symop_operation_xyz
x,y,z
-x,-y,1/2+z
x,-y,1/2+z
-x,y,z
1/2+x,1/2+y,z
1/2-x,1/2-y,1/2+z
1/2+x,1/2-y,1/2+z
1/2-x,1/2+y,z
loop_
_atom_site_type_symbol
_atom_site_label
_atom_site_fract_x
_atom_site_fract_y
_atom_site_fract_z
Si Si1 0.411339 0.947031 0.194340
Si Si2 0.910906 0.064330 0.437566
Si Si3 0.088780 0.734235 0.824007
Si Si4 0.328357 0.706160 0.587175
Si Si5 0.320491 0.887385 0.037227
Si Si6 0.911678 0.310372 0.750688
Si Si7 0.691915 0.108155 0.945519
Si Si8 0.348456 0.316804 0.416957
O O1 0.500000 0.946416 0.197053
O O2 0.385293 0.828744 0.235279
O O3 0.382569 0.948315 0.094482
O O4 0.387102 0.059751 0.244781
O O5 0.885808 0.142596 0.353599
O O6 0.879540 0.131924 0.522024
O O7 0.000000 0.062882 0.439573
O O8 0.882564 0.938104 0.435180
O O9 0.116913 0.646807 0.898090
O O10 0.000000 0.738789 0.822530
O O11 0.252538 0.636853 0.595515
O O12 0.370567 0.739684 0.675265
O O13 0.308027 0.821911 0.537298
O O14 0.347187 0.769743 0.998870
O O15 0.299795 0.977021 0.961001
O O16 0.891807 0.249976 0.841804
O O17 0.000000 0.308319 0.735739
O O18 0.762363 0.158283 0.892740
#
# Coordination Sequence:
#
# PCOD9353363 Si02
#       8
#     8   8   8   8   8   8   8   8
#     4  10  22  40  63  93 123 159 207 255 309 365
#     4  10  20  40  63  84 123 165 202 245 302 374
#     4   9  20  38  62  90 117 157 206 251 301 364
#     4  10  21  39  62  90 117 159 208 247 302 370
#     4  11  22  40  63  89 128 160 204 256 305 369
#     4  11  23  41  63  91 124 158 207 260 309 362
#     4  10  20  39  62  89 122 159 207 248 308 362
#     4  11  24  39  60  94 126 161 205 254 308 372
#
# _framework density 9.8765429999999999
#
# number of rings (size 3 to 8) (size 9 to 14) (size 15 to 20)
#    0.000    1.750    2.500    1.500    1.750    2.000 
#    2.250    0.000    0.000    0.000    0.000    0.000 
#    0.000    0.000    0.000    0.000    0.000    0.000 
#
# Total GULP energy -178308.290373 kJ/mol
# GULP energy per Si atom -5572.134074 kJ/mol
# Density = 0.985406 g / cm^3
# Si number density = 9.876543 Si / 1000 Ang^3
#
#
#
# Elastic Constant Matrix: (Units=GPa)
#
#
# Indices 1 2 3 4 5 6 
#
# 1 5.8764 34.4116 22.0037 0.0000 0.0000 0.0000
# 2 34.4116 142.8422 16.1036 0.0000 0.0000 0.0000
# 3 22.0037 16.1036 26.5420 0.0000 0.0000 0.0000
# 4 0.0000 0.0000 0.0000 23.8415 0.0000 0.0000
# 5 0.0000 0.0000 0.0000 0.0000 28.1691 0.0000
# 6 0.0000 0.0000 0.0000 0.0000 0.0000 28.3264
#
#
#
# Elastic Compliance Matrix: (Units=1/GPa)
#
#
# Indices 1 2 3 4 5 6 
#
# 1 -0.063700 0.010082 0.046692 0.000000 0.000000 0.000000
# 2 0.010082 0.005919 -0.011949 0.000000 0.000000 0.000000
# 3 0.046692 -0.011949 0.006218 0.000000 0.000000 0.000000
# 4 0.000000 0.000000 0.000000 0.041944 0.000000 0.000000
# 5 0.000000 0.000000 0.000000 0.000000 0.035500 0.000000
# 6 0.000000 0.000000 0.000000 0.000000 0.000000 0.035303
#
#
# Mechanical properties :
#
#
# Convention : Reuss Voigt Hill
#
# Bulk Modulus (GPa) = 26.25688 35.58873 30.92280
# Shear Modulus (GPa) = -317.03953 22.91686 -147.06133
#
# Velocity S-wave (km/s) = -12.68265 3.40982 -8.63779
# Velocity P-wave (km/s) = 14.18255 5.79296 9.15387
#
# Compressibility (1/GPa) = 0.03808526
#
# Stress axis : x y z
#
# Youngs Moduli (GPa) = -15.69849 168.94608 160.82678
#
# Poissons Ratio (x) = -1.70331 -7.50928
# Poissons Ratio (y) = 0.15827 1.92177
# Poissons Ratio (z) = 0.73299 2.01879
#
# Static dielectric constant tensor:
#      x y z
#    x 1.706040 0.000000 0.000000 
#    y 0.000000 1.687070 0.000000 
#    z 0.000000 0.000000 1.749250 
# 
# From -- ./inp_files/12620.got.cif
#   From: 2010.05.17/outbox.ucp.g08.bks.cvg/sg36_7_cif.got.tgz:12620.got - 2010.06.11 10:37:26.
