data_PCOD9353302
_publ_section_title
;
Structure prediction by ZEFSAII (Michael W. Deem and Ramdas Pophale) SiO2 
 PCOD9353302
Probable space group: C M C 21
;
_chemical_formula_sum "Si O2"
_cell_formula_units_Z 32
_cell_length_a 18.000000
_cell_length_b 12.000000
_cell_length_c 15.000000
_cell_angle_alpha 90.000000
_cell_angle_beta 90.000000
_cell_angle_gamma 90.000000
_cell_volume 3240.000000
_symmetry_space_group_name_H-M "C M C 21"
_symmetry_group_IT_number 36
_symmetry_cell_setting 'orthorhombic'
loop_
_space_group_symop_operation_xyz
x,y,z
-x,-y,1/2+z
x,-y,1/2+z
-x,y,z
1/2+x,1/2+y,z
1/2-x,1/2-y,1/2+z
1/2+x,1/2-y,1/2+z
1/2-x,1/2+y,z
loop_
_atom_site_type_symbol
_atom_site_label
_atom_site_fract_x
_atom_site_fract_y
_atom_site_fract_z
Si Si1 0.915965 0.799497 0.514930
Si Si2 0.584770 0.046075 0.824347
Si Si3 0.639027 0.454521 0.029789
Si Si4 0.298789 0.288443 0.175380
Si Si5 0.137714 0.388903 0.142033
Si Si6 0.659501 0.262333 0.902969
Si Si7 0.325825 0.184013 0.356417
Si Si8 0.290876 0.083324 0.048699
O O1 0.897029 0.721961 0.599902
O O2 0.859911 0.752790 0.439406
O O3 0.000000 0.776859 0.485830
O O4 0.908842 0.932134 0.535036
O O5 0.500000 0.027242 0.855253
O O6 0.590111 0.052996 0.717973
O O7 0.610619 0.173677 0.847832
O O8 0.637911 0.940775 0.852423
O O9 0.620534 0.368948 0.949418
O O10 0.650350 0.370078 0.113894
O O11 0.719708 0.512726 0.018957
O O12 0.219744 0.353988 0.179934
O O13 0.338911 0.256805 0.267154
O O14 0.280066 0.166104 0.133098
O O15 0.150394 0.486438 0.069548
O O16 0.735575 0.313177 0.862056
O O17 0.686991 0.174945 0.977414
#
# Coordination Sequence:
#
# PCOD9353302 Si02
#       8
#     8   8   8   8   8   8   8   8
#     4  12  25  43  63  90 134 177 214 268 333 400
#     4  12  26  42  64  99 136 168 218 278 335 391
#     4  10  21  39  63  93 127 162 218 261 320 391
#     4  10  20  37  69  97 121 161 219 280 312 381
#     4  11  21  41  66  91 129 168 218 265 335 389
#     4  11  22  39  69  95 126 168 216 269 323 389
#     4  12  23  42  67  99 127 170 224 271 328 391
#     4  10  18  39  65  96 118 160 215 276 312 376
#
# _framework density 9.8765429999999999
#
# number of rings (size 3 to 8) (size 9 to 14) (size 15 to 20)
#    0.000    1.000    5.000    3.750    0.000    0.500 
#    2.250    1.875    0.000    0.000    0.000    0.000 
#    0.000    0.000    0.000    0.000    0.000    0.000 
#
# Total GULP energy -178295.239577 kJ/mol
# GULP energy per Si atom -5571.726237 kJ/mol
# Density = 0.985406 g / cm^3
# Si number density = 9.876543 Si / 1000 Ang^3
#
#
#
# Elastic Constant Matrix: (Units=GPa)
#
#
# Indices 1 2 3 4 5 6 
#
# 1 60.0477 17.0007 0.2309 0.0000 0.0000 0.0000
# 2 17.0007 155.6052 17.7290 0.0000 0.0000 0.0000
# 3 0.2309 17.7290 45.2667 0.0000 0.0000 0.0000
# 4 0.0000 0.0000 0.0000 30.9076 0.0000 0.0000
# 5 0.0000 0.0000 0.0000 0.0000 13.8474 0.0000
# 6 0.0000 0.0000 0.0000 0.0000 0.0000 18.0286
#
#
#
# Elastic Compliance Matrix: (Units=1/GPa)
#
#
# Indices 1 2 3 4 5 6 
#
# 1 0.017205 -0.001957 0.000679 0.000000 0.000000 0.000000
# 2 -0.001957 0.006949 -0.002712 0.000000 0.000000 0.000000
# 3 0.000679 -0.002712 0.023150 0.000000 0.000000 0.000000
# 4 0.000000 0.000000 0.000000 0.032355 0.000000 0.000000
# 5 0.000000 0.000000 0.000000 0.000000 0.072216 0.000000
# 6 0.000000 0.000000 0.000000 0.000000 0.000000 0.055467
#
#
# Mechanical properties :
#
#
# Convention : Reuss Voigt Hill
#
# Bulk Modulus (GPa) = 25.42981 36.76008 31.09494
# Shear Modulus (GPa) = 21.88855 27.62065 24.75460
#
# Velocity S-wave (km/s) = 3.33244 3.74344 3.54390
# Velocity P-wave (km/s) = 5.26390 6.11020 5.70277
#
# Compressibility (1/GPa) = 0.03932393
#
# Stress axis : x y z
#
# Youngs Moduli (GPa) = 58.12293 143.89926 43.19675
#
# Poissons Ratio (x) = 0.28162 -0.02932
# Poissons Ratio (y) = 0.11375 0.11714
# Poissons Ratio (z) = -0.03945 0.39022
#
# Static dielectric constant tensor:
#      x y z
#    x 1.741510 0.000000 0.000000 
#    y 0.000000 1.682810 0.000000 
#    z 0.000000 0.000000 1.824810 
# 
# From -- ./inp_files/12626.got.cif
#   From: 2010.05.17/outbox.ucp.g08.bks.cvg/sg36_7_cif.got.tgz:12626.got - 2010.06.11 10:37:26.
