data_PCOD9353357
_publ_section_title
;
Structure prediction by ZEFSAII (Michael W. Deem and Ramdas Pophale) SiO2 
 PCOD9353357
Probable space group: C M C 21
;
_chemical_formula_sum "Si O2"
_cell_formula_units_Z 32
_cell_length_a 9.000000
_cell_length_b 18.000000
_cell_length_c 21.000000
_cell_angle_alpha 90.000000
_cell_angle_beta 90.000000
_cell_angle_gamma 90.000000
_cell_volume 3402.000000
_symmetry_space_group_name_H-M "C M C 21"
_symmetry_group_IT_number 36
_symmetry_cell_setting 'orthorhombic'
loop_
_space_group_symop_operation_xyz
x,y,z
-x,-y,1/2+z
x,-y,1/2+z
-x,y,z
1/2+x,1/2+y,z
1/2-x,1/2-y,1/2+z
1/2+x,1/2-y,1/2+z
1/2-x,1/2+y,z
loop_
_atom_site_type_symbol
_atom_site_label
_atom_site_fract_x
_atom_site_fract_y
_atom_site_fract_z
Si Si1 0.678447 0.584184 0.813960
Si Si2 0.322337 0.833643 0.193833
Si Si3 0.176269 0.089009 0.572168
Si Si4 0.324226 0.924728 0.818491
Si Si5 0.180162 0.165655 0.943717
Si Si6 0.822469 0.087788 0.074959
Si Si7 0.178284 0.662296 0.449370
Si Si8 0.676720 0.172134 0.192372
O O1 0.500000 0.590248 0.808056
O O2 0.755189 0.623760 0.754410
O O3 0.727780 0.498843 0.816133
O O4 0.727050 0.624098 0.879506
O O5 0.500000 0.835242 0.195035
O O6 0.261763 0.873030 0.130352
O O7 0.262276 0.749782 0.194467
O O8 0.237541 0.122120 0.506494
O O9 0.000000 0.103013 0.578034
O O10 0.199940 0.000475 0.573656
O O11 0.500000 0.944451 0.818063
O O12 0.294219 0.878765 0.882666
O O13 0.296183 0.873886 0.756963
O O14 0.225086 0.251641 0.944982
O O15 0.000000 0.164479 0.943066
O O16 0.226203 0.123598 0.007903
O O17 0.735227 0.125110 0.132685
O O18 0.000000 0.101645 0.082737
O O19 0.000000 0.660342 0.461268
O O20 0.500000 0.185465 0.187223
#
# Coordination Sequence:
#
# PCOD9353357 Si02
#       8
#     8   8   8   8   8   8   8   8
#     4  11  22  39  63  88 117 156 202 249 296 348
#     4  12  25  41  61  86 118 155 196 244 300 359
#     4  11  23  39  60  89 122 156 199 246 293 351
#     4  10  22  39  59  87 123 160 198 241 295 356
#     4   9  19  37  60  85 115 154 196 239 291 346
#     4  10  21  38  60  87 120 157 195 238 291 350
#     4  10  20  37  61  86 117 159 202 245 296 351
#     4  11  23  40  62  88 118 153 196 244 292 349
#
# _framework density 9.4062319999999993
#
# number of rings (size 3 to 8) (size 9 to 14) (size 15 to 20)
#    0.000    1.500    0.000    5.250    0.000    8.500 
#    0.000    3.750    0.000    0.000    0.000    0.000 
#    0.000    0.000    0.000    0.000    0.000    0.000 
#
# Total GULP energy -178946.474359 kJ/mol
# GULP energy per Si atom -5592.077324 kJ/mol
# Density = 0.938482 g / cm^3
# Si number density = 9.406232 Si / 1000 Ang^3
#
#
#
# Elastic Constant Matrix: (Units=GPa)
#
#
# Indices 1 2 3 4 5 6 
#
# 1 102.2581 89.5149 88.4113 0.0000 0.0000 0.0000
# 2 89.5149 146.6566 89.5936 0.0000 0.0000 0.0000
# 3 88.4113 89.5936 187.1479 0.0000 0.0000 0.0000
# 4 0.0000 0.0000 0.0000 37.6646 0.0000 0.0000
# 5 0.0000 0.0000 0.0000 0.0000 23.7212 0.0000
# 6 0.0000 0.0000 0.0000 0.0000 0.0000 -39.0462
#
#
#
# Elastic Compliance Matrix: (Units=1/GPa)
#
#
# Indices 1 2 3 4 5 6 
#
# 1 0.025621 -0.011652 -0.006526 0.000000 0.000000 0.000000
# 2 -0.011652 0.014936 -0.001646 0.000000 0.000000 0.000000
# 3 -0.006526 -0.001646 0.009214 0.000000 0.000000 0.000000
# 4 0.000000 0.000000 0.000000 0.026550 0.000000 0.000000
# 5 0.000000 0.000000 0.000000 0.000000 0.042156 0.000000
# 6 0.000000 0.000000 0.000000 0.000000 0.000000 -0.025611
#
#
# Mechanical properties :
#
#
# Convention : Reuss Voigt Hill
#
# Bulk Modulus (GPa) = 98.77003 107.90022 103.33512
# Shear Modulus (GPa) = 36.79507 15.70412 26.24959
#
# Velocity S-wave (km/s) = 4.42734 2.89238 3.73946
# Velocity P-wave (km/s) = 8.87421 8.28460 8.58447
#
# Compressibility (1/GPa) = 0.01012453
#
# Stress axis : x y z
#
# Youngs Moduli (GPa) = 39.03086 66.95249 108.52916
#
# Poissons Ratio (x) = 0.78010 0.70822
# Poissons Ratio (y) = 0.45477 0.17863
# Poissons Ratio (z) = 0.25470 0.11020
#
# Static dielectric constant tensor:
#      x y z
#    x 1.631870 0.000000 0.000000 
#    y 0.000000 1.622410 0.000000 
#    z 0.000000 0.000000 1.618950 
# 
# From -- ./inp_files/15647.got.cif
#   From: 2010.05.17/outbox.ucp.g08.bks.cvg/sg36_8_cif.got.tgz:15647.got - 2010.06.11 10:37:26.
