data_PCOD9353306
_publ_section_title
;
Structure prediction by ZEFSAII (Michael W. Deem and Ramdas Pophale) SiO2 
 PCOD9353306
Probable space group: C M C 21
;
_chemical_formula_sum "Si O2"
_cell_formula_units_Z 32
_cell_length_a 9.000000
_cell_length_b 18.000000
_cell_length_c 21.000000
_cell_angle_alpha 90.000000
_cell_angle_beta 90.000000
_cell_angle_gamma 90.000000
_cell_volume 3402.000000
_symmetry_space_group_name_H-M "C M C 21"
_symmetry_group_IT_number 36
_symmetry_cell_setting 'orthorhombic'
loop_
_space_group_symop_operation_xyz
x,y,z
-x,-y,1/2+z
x,-y,1/2+z
-x,y,z
1/2+x,1/2+y,z
1/2-x,1/2-y,1/2+z
1/2+x,1/2-y,1/2+z
1/2-x,1/2+y,z
loop_
_atom_site_type_symbol
_atom_site_label
_atom_site_fract_x
_atom_site_fract_y
_atom_site_fract_z
Si Si1 0.171272 0.840667 0.679500
Si Si2 0.824132 0.335391 0.809073
Si Si3 0.169682 0.340482 0.178948
Si Si4 0.321780 0.174235 0.816467
Si Si5 0.676507 0.336057 0.051186
Si Si6 0.676628 0.839492 0.549901
Si Si7 0.829982 0.090984 0.929442
Si Si8 0.827717 0.085506 0.423026
O O1 0.247605 0.864228 0.744691
O O2 0.172771 0.750037 0.680016
O O3 0.265598 0.864191 0.618726
O O4 0.000000 0.863952 0.675333
O O5 0.756298 0.253915 0.822351
O O6 0.775453 0.386645 0.866857
O O7 0.000000 0.330419 0.801178
O O8 0.225428 0.361558 0.248898
O O9 0.258176 0.364601 0.117314
O O10 0.000000 0.364368 0.172214
O O11 0.500000 0.184754 0.814405
O O12 0.272152 0.124388 0.874545
O O13 0.500000 0.342805 0.054777
O O14 0.710712 0.248629 0.043747
O O15 0.726953 0.379861 0.989257
O O16 0.500000 0.849031 0.543624
O O17 0.765498 0.881697 0.495962
O O18 0.000000 0.116944 0.921070
O O19 0.828464 0.002574 0.927046
O O20 0.000000 0.110718 0.412307
#
# Coordination Sequence:
#
# PCOD9353306 Si02
#       8
#     8   8   8   8   8   8   8   8
#     4   9  17  32  54  80 111 141 172 218 273 323
#     4  11  21  34  57  86 110 137 180 227 272 326
#     4   8  16  30  51  79 106 132 165 212 267 318
#     4  10  20  36  57  80 109 143 178 222 276 327
#     4   9  18  33  55  79 103 135 173 215 264 319
#     4  10  19  33  56  83 109 139 178 225 275 326
#     4  11  23  37  54  77 107 146 189 229 270 322
#     4  10  22  39  54  74 109 149 185 222 271 325
#
# _framework density 9.4062319999999993
#
# number of rings (size 3 to 8) (size 9 to 14) (size 15 to 20)
#    0.000    2.250    0.000    4.125    0.000    6.500 
#    0.000    1.250    0.000    4.500    0.000    0.000 
#    0.000    0.000    0.000    0.000    0.000    0.000 
#
# Total GULP energy -178535.940466 kJ/mol
# GULP energy per Si atom -5579.248140 kJ/mol
# Density = 0.938482 g / cm^3
# Si number density = 9.406232 Si / 1000 Ang^3
#
#
#
# Elastic Constant Matrix: (Units=GPa)
#
#
# Indices 1 2 3 4 5 6 
#
# 1 35.3051 15.9116 3.2790 0.0000 0.0000 0.0000
# 2 15.9116 10.2903 25.5489 0.0000 0.0000 0.0000
# 3 3.2790 25.5489 101.3153 0.0000 0.0000 0.0000
# 4 0.0000 0.0000 0.0000 -95.2272 0.0000 0.0000
# 5 0.0000 0.0000 0.0000 0.0000 38.0013 0.0000
# 6 0.0000 0.0000 0.0000 0.0000 0.0000 1.1930
#
#
#
# Elastic Compliance Matrix: (Units=1/GPa)
#
#
# Indices 1 2 3 4 5 6 
#
# 1 -0.041766 0.163750 -0.039942 0.000000 0.000000 0.000000
# 2 0.163750 -0.382097 0.091055 0.000000 0.000000 0.000000
# 3 -0.039942 0.091055 -0.011799 0.000000 0.000000 0.000000
# 4 0.000000 0.000000 0.000000 -0.010501 0.000000 0.000000
# 5 0.000000 0.000000 0.000000 0.000000 0.026315 0.000000
# 6 0.000000 0.000000 0.000000 0.000000 0.000000 0.838230
#
#
# Mechanical properties :
#
#
# Convention : Reuss Voigt Hill
#
# Bulk Modulus (GPa) = -168.47939 26.26553 -71.10693
# Shear Modulus (GPa) = -375.27884 -4.39518 -189.83701
#
# Velocity S-wave (km/s) = -14.13921 -1.53016 -10.05631
# Velocity P-wave (km/s) = 18.87612 3.29700 13.14226
#
# Compressibility (1/GPa) = -0.00593544
#
# Stress axis : x y z
#
# Youngs Moduli (GPa) = -23.94281 -2.61714 -84.75567
#
# Poissons Ratio (x) = 0.42856 -3.38527
# Poissons Ratio (y) = 3.92064 7.71740
# Poissons Ratio (z) = -0.95631 0.23830
#
# Static dielectric constant tensor:
#      x y z
#    x 1.630970 0.000000 0.000000 
#    y 0.000000 1.641810 0.000000 
#    z 0.000000 0.000000 1.664730 
# 
# From -- ./inp_files/15738.got.cif
#   From: 2010.05.17/outbox.ucp.g08.bks.cvg/sg36_8_cif.got.tgz:15738.got - 2010.06.11 10:37:26.
