data_PCOD9353484
_publ_section_title
;
Structure prediction by ZEFSAII (Michael W. Deem and Ramdas Pophale) SiO2 
 PCOD9353484
Probable space group: C C C 2
;
_chemical_formula_sum "Si O2"
_cell_formula_units_Z 64
_cell_length_a 8.182730
_cell_length_b 15.656812
_cell_length_c 22.327162
_cell_angle_alpha 90.000000
_cell_angle_beta 90.000000
_cell_angle_gamma 90.000000
_cell_volume 2860.454747
_symmetry_space_group_name_H-M "C C C 2"
_symmetry_group_IT_number 37
_symmetry_cell_setting 'orthorhombic'
loop_
_space_group_symop_operation_xyz
x,y,z
-x,-y,z
-x,y,1/2+z
x,-y,1/2+z
1/2+x,1/2+y,z
1/2-x,1/2-y,z
1/2-x,1/2+y,1/2+z
1/2+x,1/2-y,1/2+z
loop_
_atom_site_type_symbol
_atom_site_label
_atom_site_fract_x
_atom_site_fract_y
_atom_site_fract_z
Si Si1 0.694772 0.480389 0.757290
Si Si2 0.696960 0.505114 0.994902
Si Si3 0.368737 0.421560 0.379719
Si Si4 0.163342 0.163309 0.175734
Si Si5 0.007621 0.225204 0.059259
Si Si6 0.185382 0.383482 0.588105
Si Si7 0.707216 0.653448 0.721033
Si Si8 0.864759 0.182224 0.432960
O O1 0.500000 0.500000 0.749823
O O2 0.722718 0.426478 0.817329
O O3 0.746440 0.422998 0.700404
O O4 0.757436 0.577077 0.765103
O O5 0.500000 0.500000 0.009759
O O6 0.798546 0.472508 0.052194
O O7 0.729077 0.438159 0.940721
O O8 0.716830 0.596775 0.962316
O O9 0.500000 0.500000 0.377355
O O10 0.486134 0.342295 0.390266
O O11 0.250000 0.250000 0.195543
O O12 0.128355 0.175893 0.104986
O O13 0.984794 0.160126 0.205782
O O14 0.969632 0.322033 0.078596
O O15 0.841061 0.170477 0.062947
O O16 0.067412 0.227019 0.992248
O O17 0.214197 0.380658 0.658910
O O18 0.750000 0.750000 0.736119
O O19 0.750000 0.250000 0.401664
#
# Coordination Sequence:
#
# PCOD9353484 Si02
#       8
#     8   8   8   8   8   8   8   8
#     4   9  19  34  56  79 108 148 198 232 278 335
#     4   9  17  30  53  76 101 142 182 223 274 331
#     4   8  16  34  51  79 107 135 191 240 271 325
#     4  10  20  35  53  80 118 149 186 235 276 342
#     4  10  18  31  50  80 116 142 182 222 283 334
#     4  10  17  31  53  79 114 145 180 232 268 337
#     4  10  19  34  57  84 114 150 196 235 286 340
#     4  10  19  32  54  80 110 144 181 231 286 346
#
# _framework density 22.374065000000002
#
# number of rings (size 3 to 8) (size 9 to 14) (size 15 to 20)
#    0.000    2.750    5.000    0.375    1.750    0.500 
#    0.000   12.500    0.000    0.000    0.000    7.000 
#    0.000    0.000    0.000    0.000    0.000    0.000 
#
# Total GULP energy -178232.992205 kJ/mol
# GULP energy per Si atom -5569.781006 kJ/mol
# Density = 2.232314 g / cm^3
# Si number density = 22.374065 Si / 1000 Ang^3
#
#
#
# Elastic Constant Matrix: (Units=GPa)
#
#
# Indices 1 2 3 4 5 6 
#
# 1 15.6962 17.6597 16.3604 0.0000 0.0000 0.0000
# 2 17.6597 129.8634 41.8193 0.0000 0.0000 0.0000
# 3 16.3604 41.8193 78.0248 0.0000 0.0000 0.0000
# 4 0.0000 0.0000 0.0000 27.5994 0.0000 0.0000
# 5 0.0000 0.0000 0.0000 0.0000 -17.4962 0.0000
# 6 0.0000 0.0000 0.0000 0.0000 0.0000 23.3204
#
#
#
# Elastic Compliance Matrix: (Units=1/GPa)
#
#
# Indices 1 2 3 4 5 6 
#
# 1 0.086730 -0.007177 -0.014339 0.000000 0.000000 0.000000
# 2 -0.007177 0.009901 -0.003802 0.000000 0.000000 0.000000
# 3 -0.014339 -0.003802 0.017861 0.000000 0.000000 0.000000
# 4 0.000000 0.000000 0.000000 0.036233 0.000000 0.000000
# 5 0.000000 0.000000 0.000000 0.000000 -0.057155 0.000000
# 6 0.000000 0.000000 0.000000 0.000000 0.000000 0.042881
#
#
# Mechanical properties :
#
#
# Convention : Reuss Voigt Hill
#
# Bulk Modulus (GPa) = 15.66015 41.69592 28.67803
# Shear Modulus (GPa) = 23.99577 16.53438 20.26507
#
# Velocity S-wave (km/s) = 3.27843 2.72140 3.01282
# Velocity P-wave (km/s) = 4.62009 5.34331 4.99481
#
# Compressibility (1/GPa) = 0.06385635
#
# Stress axis : x y z
#
# Youngs Moduli (GPa) = 11.53003 101.00464 55.98872
#
# Poissons Ratio (x) = 0.72486 0.80284
# Poissons Ratio (y) = 0.08275 0.21285
# Poissons Ratio (z) = 0.16533 0.38398
#
# Static dielectric constant tensor:
#      x y z
#    x 1.974730 0.000000 0.000000 
#    y 0.000000 1.917570 0.000000 
#    z 0.000000 0.000000 1.883430 
# 
# From -- ./inp_files/18472.got.cif
#   From: 2010.05.17/outbox.cif.g08.bks.cpg/sg37_10_cif.got.tgz:18472.got - 2010.06.03 17:53:42.
