data_PCOD9353839
_publ_section_title
;
Structure prediction by ZEFSAII (Michael W. Deem and Ramdas Pophale) SiO2 
 PCOD9353839
Probable space group: C C C 2
;
_chemical_formula_sum "Si O2"
_cell_formula_units_Z 64
_cell_length_a 15.443060
_cell_length_b 9.005730
_cell_length_c 22.513823
_cell_angle_alpha 90.000000
_cell_angle_beta 90.000000
_cell_angle_gamma 90.000000
_cell_volume 3131.133094
_symmetry_space_group_name_H-M "C C C 2"
_symmetry_group_IT_number 37
_symmetry_cell_setting 'orthorhombic'
loop_
_space_group_symop_operation_xyz
x,y,z
-x,-y,z
-x,y,1/2+z
x,-y,1/2+z
1/2+x,1/2+y,z
1/2-x,1/2-y,z
1/2-x,1/2+y,1/2+z
1/2+x,1/2-y,1/2+z
loop_
_atom_site_type_symbol
_atom_site_label
_atom_site_fract_x
_atom_site_fract_y
_atom_site_fract_z
Si Si1 0.307881 0.483267 0.514920
Si Si2 0.840552 0.661531 0.236448
Si Si3 0.514321 0.324521 0.814196
Si Si4 0.827164 0.415812 0.426221
Si Si5 0.932050 0.240136 0.510324
Si Si6 0.598597 0.756381 0.442543
Si Si7 0.186470 0.390832 0.098577
Si Si8 0.670576 0.157760 0.295891
O O1 0.249225 0.585842 0.473004
O O2 0.394564 0.578780 0.527028
O O3 0.327744 0.347666 0.470957
O O4 0.246222 0.473444 0.573509
O O5 0.750000 0.750000 0.247638
O O6 0.917929 0.757200 0.265958
O O7 0.842886 0.624511 0.166239
O O8 0.843926 0.499179 0.265003
O O9 0.500000 0.500000 0.806051
O O10 0.557278 0.300815 0.880171
O O11 0.420961 0.243395 0.804700
O O12 0.893925 0.291288 0.446840
O O13 0.872160 0.576225 0.430638
O O14 0.795779 0.388168 0.360808
O O15 0.895720 0.359646 0.556834
O O16 0.031967 0.249934 0.497463
O O17 0.250000 0.250000 0.089655
O O18 0.750000 0.250000 0.267337
#
# Coordination Sequence:
#
# PCOD9353839 Si02
#       8
#     8   8   8   8   8   8   8   8
#     4  10  21  38  61  93 124 171 213 270 329 415
#     4  11  24  45  71  97 131 186 239 291 348 412
#     4  12  26  43  64 100 144 175 232 291 352 426
#     4  11  22  36  57  87 132 167 210 261 340 406
#     4  10  19  38  62  89 124 171 209 263 331 404
#     4  12  23  35  59  99 136 164 213 277 349 404
#     4   8  19  42  67  90 128 173 228 275 336 410
#     4  12  25  43  66  95 133 187 232 286 349 415
#
# _framework density 20.439885
#
# number of rings (size 3 to 8) (size 9 to 14) (size 15 to 20)
#    0.000    1.250    2.500    4.875    3.500    0.000 
#    0.000   12.500    0.000    0.000    0.000    0.000 
#    0.000    0.000    0.000    0.000    0.000    0.000 
#
# Total GULP energy -178374.891788 kJ/mol
# GULP energy per Si atom -5574.215368 kJ/mol
# Density = 2.039336 g / cm^3
# Si number density = 20.439885 Si / 1000 Ang^3
#
#
#
# Elastic Constant Matrix: (Units=GPa)
#
#
# Indices 1 2 3 4 5 6 
#
# 1 101.4955 50.4409 42.9755 0.0000 0.0000 0.0000
# 2 50.4409 117.0879 43.1054 0.0000 0.0000 0.0000
# 3 42.9755 43.1054 120.6400 0.0000 0.0000 0.0000
# 4 0.0000 0.0000 0.0000 17.8719 0.0000 0.0000
# 5 0.0000 0.0000 0.0000 0.0000 27.5689 0.0000
# 6 0.0000 0.0000 0.0000 0.0000 0.0000 36.2883
#
#
#
# Elastic Compliance Matrix: (Units=1/GPa)
#
#
# Indices 1 2 3 4 5 6 
#
# 1 0.013499 -0.004658 -0.003144 0.000000 0.000000 0.000000
# 2 -0.004658 0.011441 -0.002429 0.000000 0.000000 0.000000
# 3 -0.003144 -0.002429 0.010277 0.000000 0.000000 0.000000
# 4 0.000000 0.000000 0.000000 0.055954 0.000000 0.000000
# 5 0.000000 0.000000 0.000000 0.000000 0.036273 0.000000
# 6 0.000000 0.000000 0.000000 0.000000 0.000000 0.027557
#
#
# Mechanical properties :
#
#
# Convention : Reuss Voigt Hill
#
# Bulk Modulus (GPa) = 67.77221 68.02966 67.90094
# Shear Modulus (GPa) = 27.71907 29.85925 28.78916
#
# Velocity S-wave (km/s) = 3.68656 3.82623 3.75704
# Velocity P-wave (km/s) = 7.16588 7.27153 7.21889
#
# Compressibility (1/GPa) = 0.01475531
#
# Stress axis : x y z
#
# Youngs Moduli (GPa) = 74.08058 87.40317 97.30353
#
# Poissons Ratio (x) = 0.40709 0.30597
# Poissons Ratio (y) = 0.34504 0.23634
# Poissons Ratio (z) = 0.23295 0.21229
#
# Static dielectric constant tensor:
#      x y z
#    x 1.788460 0.000000 0.000000 
#    y 0.000000 1.782340 0.000000 
#    z 0.000000 0.000000 1.734390 
# 
# From -- ./inp_files/18451.got.cif
#   From: 2010.05.17/outbox.cif.g08.bks.cpg/sg37_10_cif.got.tgz:18451.got - 2010.06.03 17:53:42.
