data_PCOD9353033
_publ_section_title
;
Structure prediction by ZEFSAII (Michael W. Deem and Ramdas Pophale) SiO2 
 PCOD9353033
Probable space group: C M C 21
;
_chemical_formula_sum "Si O2"
_cell_formula_units_Z 40
_cell_length_a 19.434943
_cell_length_b 9.212082
_cell_length_c 10.389085
_cell_angle_alpha 90.000000
_cell_angle_beta 90.000000
_cell_angle_gamma 90.000000
_cell_volume 1860.023220
_symmetry_space_group_name_H-M "C M C 21"
_symmetry_group_IT_number 36
_symmetry_cell_setting 'orthorhombic'
loop_
_space_group_symop_operation_xyz
x,y,z
-x,-y,1/2+z
x,-y,1/2+z
-x,y,z
1/2+x,1/2+y,z
1/2-x,1/2-y,1/2+z
1/2+x,1/2-y,1/2+z
1/2-x,1/2+y,z
loop_
_atom_site_type_symbol
_atom_site_label
_atom_site_fract_x
_atom_site_fract_y
_atom_site_fract_z
Si Si1 0.194035 0.622880 0.218830
Si Si2 0.580150 0.356119 0.156097
Si Si3 0.150805 0.171071 0.155215
Si Si4 0.646528 0.076356 0.485561
Si Si5 0.574425 0.806771 0.385913
O O1 0.133547 0.743722 0.221786
O O2 0.266650 0.670889 0.160957
O O3 0.201095 0.576568 0.368120
O O4 0.170970 0.500707 0.117073
O O5 0.500000 0.357670 0.202800
O O6 0.615356 0.513766 0.158342
O O7 0.577354 0.295322 0.010365
O O8 0.128635 0.253475 0.283958
O O9 0.127650 0.262919 0.030873
O O10 0.587598 0.971046 0.431184
O O11 0.500000 0.795529 0.323212
#
# Coordination Sequence:
#
# PCOD9353033 Si02
#       5
#     8   8   8   8   8
#     4  11  26  44  73 104 142 183 232 289 346 417
#     4  10  25  46  69 103 144 181 227 291 357 415
#     4  12  25  42  73 102 139 181 237 283 352 410
#     4  11  25  46  68 102 135 188 231 282 342 412
#     4  10  24  46  67  99 141 181 233 287 344 416
#
# _framework density 21.505106999999999
#
# number of rings (size 3 to 8) (size 9 to 14) (size 15 to 20)
#    0.000    1.200    2.000    1.800   11.200    2.400 
#    0.000    0.000    0.000    0.000    0.000    0.000 
#    0.000    0.000    0.000    0.000    0.000    0.000 
#
# Total GULP energy -111635.237101 kJ/mol
# GULP energy per Si atom -5581.761855 kJ/mol
# Density = 2.145616 g / cm^3
# Si number density = 21.505107 Si / 1000 Ang^3
#
#
#
# Elastic Constant Matrix: (Units=GPa)
#
#
# Indices 1 2 3 4 5 6 
#
# 1 113.9030 52.3333 2.2831 0.0000 0.0000 0.0000
# 2 52.3333 120.7066 37.5399 0.0000 0.0000 0.0000
# 3 2.2831 37.5399 73.3437 0.0000 0.0000 0.0000
# 4 0.0000 0.0000 0.0000 13.4283 0.0000 0.0000
# 5 0.0000 0.0000 0.0000 0.0000 -86.9778 0.0000
# 6 0.0000 0.0000 0.0000 0.0000 0.0000 10.4009
#
#
#
# Elastic Compliance Matrix: (Units=1/GPa)
#
#
# Indices 1 2 3 4 5 6 
#
# 1 0.011359 -0.005726 0.002577 0.000000 0.000000 0.000000
# 2 -0.005726 0.012740 -0.006342 0.000000 0.000000 0.000000
# 3 0.002577 -0.006342 0.016800 0.000000 0.000000 0.000000
# 4 0.000000 0.000000 0.000000 0.074470 0.000000 0.000000
# 5 0.000000 0.000000 0.000000 0.000000 -0.011497 0.000000
# 6 0.000000 0.000000 0.000000 0.000000 0.000000 0.096146
#
#
# Mechanical properties :
#
#
# Convention : Reuss Voigt Hill
#
# Bulk Modulus (GPa) = 45.62822 54.69621 50.16222
# Shear Modulus (GPa) = 22.09405 1.75674 11.92539
#
# Velocity S-wave (km/s) = 3.20876 0.90480 2.35742
# Velocity P-wave (km/s) = 5.91538 5.15566 5.54854
#
# Compressibility (1/GPa) = 0.02191626
#
# Stress axis : x y z
#
# Youngs Moduli (GPa) = 88.03855 78.49500 59.52222
#
# Poissons Ratio (x) = 0.44948 -0.15341
# Poissons Ratio (y) = 0.50412 0.37751
# Poissons Ratio (z) = -0.22690 0.49784
#
# Static dielectric constant tensor:
#      x y z
#    x 1.877250 0.000000 0.000000 
#    y 0.000000 1.812890 0.000000 
#    z 0.000000 0.000000 1.762730 
# 
# From -- ./inp_files/8772.got.cif
#   From: 2010.05.17/outbox.cif.g08.bks.cpg/sg36_5_cif.got.tgz:8772.got - 2010.06.03 17:41:39.
