data_PCOD9353150
_publ_section_title
;
Structure prediction by ZEFSAII (Michael W. Deem and Ramdas Pophale) SiO2 
 PCOD9353150
Probable space group: C M C 21
;
_chemical_formula_sum "Si O2"
_cell_formula_units_Z 60
_cell_length_a 17.086467
_cell_length_b 9.374973
_cell_length_c 16.830164
_cell_angle_alpha 90.000000
_cell_angle_beta 90.000000
_cell_angle_gamma 90.000000
_cell_volume 2695.942627
_symmetry_space_group_name_H-M "C M C 21"
_symmetry_group_IT_number 36
_symmetry_cell_setting 'orthorhombic'
loop_
_space_group_symop_operation_xyz
x,y,z
-x,-y,1/2+z
x,-y,1/2+z
-x,y,z
1/2+x,1/2+y,z
1/2-x,1/2-y,1/2+z
1/2+x,1/2-y,1/2+z
1/2-x,1/2+y,z
loop_
_atom_site_type_symbol
_atom_site_label
_atom_site_fract_x
_atom_site_fract_y
_atom_site_fract_z
Si Si1 0.087562 0.575792 0.599970
Si Si2 0.692395 0.690506 0.146175
Si Si3 0.132024 0.928129 0.399720
Si Si4 0.712681 0.096931 0.001019
Si Si5 0.776090 0.069988 0.747430
Si Si6 0.414429 0.752479 0.393231
Si Si7 0.111228 0.499010 0.780040
Si Si8 0.000000 0.704646 0.386869
O O1 0.111816 0.737120 0.620167
O O2 0.154295 0.518715 0.540575
O O3 0.091960 0.492872 0.685503
O O4 0.000000 0.563928 0.566324
O O5 0.732709 0.798472 0.207425
O O6 0.685685 0.534295 0.183017
O O7 0.752859 0.684833 0.074070
O O8 0.208433 0.948004 0.455102
O O9 0.163741 0.884169 0.313299
O O10 0.069347 0.809486 0.424015
O O11 0.094007 0.083563 0.386841
O O12 0.656955 0.188338 0.944637
O O13 0.704556 0.982456 0.787186
O O14 0.500000 0.785744 0.429072
O O15 0.409556 0.841711 0.311565
O O16 0.066621 0.392407 0.838193
#
# Coordination Sequence:
#
# PCOD9353150 Si02
#       8
#     8   8   8   8   8   8   8   4
#     4  11  23  45  72 107 137 181 243 297 352 430
#     4  11  23  45  71 104 138 185 243 293 351 427
#     4  12  27  46  71 109 144 186 240 303 362 429
#     4  12  26  45  74  97 145 197 236 285 363 442
#     4  11  23  44  74 100 138 186 242 294 358 431
#     4  12  25  47  68 106 143 185 235 298 362 427
#     4  11  22  44  77 103 135 186 240 296 354 433
#     4  12  26  44  70 110 146 178 240 306 360 426
#
# _framework density 22.255666000000002
#
# number of rings (size 3 to 8) (size 9 to 14) (size 15 to 20)
#    0.000    0.533    6.000    3.600    1.867    1.067 
#    4.800    0.000    0.000    0.000    0.000    0.000 
#    0.000    0.000    0.000    0.000    0.000    0.000 
#
# Total GULP energy -167152.435128 kJ/mol
# GULP energy per Si atom -5571.747838 kJ/mol
# Density = 2.220501 g / cm^3
# Si number density = 22.255666 Si / 1000 Ang^3
#
#
#
# Elastic Constant Matrix: (Units=GPa)
#
#
# Indices 1 2 3 4 5 6 
#
# 1 139.9094 30.6686 32.7851 0.0000 0.0000 0.0000
# 2 30.6686 71.4061 9.9830 0.0000 0.0000 0.0000
# 3 32.7851 9.9830 58.4560 0.0000 0.0000 0.0000
# 4 0.0000 0.0000 0.0000 20.2270 0.0000 0.0000
# 5 0.0000 0.0000 0.0000 0.0000 15.9312 0.0000
# 6 0.0000 0.0000 0.0000 0.0000 0.0000 41.3017
#
#
#
# Elastic Compliance Matrix: (Units=1/GPa)
#
#
# Indices 1 2 3 4 5 6 
#
# 1 0.008888 -0.003197 -0.004439 0.000000 0.000000 0.000000
# 2 -0.003197 0.015497 -0.000854 0.000000 0.000000 0.000000
# 3 -0.004439 -0.000854 0.019742 0.000000 0.000000 0.000000
# 4 0.000000 0.000000 0.000000 0.049439 0.000000 0.000000
# 5 0.000000 0.000000 0.000000 0.000000 0.062770 0.000000
# 6 0.000000 0.000000 0.000000 0.000000 0.000000 0.024212
#
#
# Mechanical properties :
#
#
# Convention : Reuss Voigt Hill
#
# Bulk Modulus (GPa) = 36.83454 46.29389 41.56422
# Shear Modulus (GPa) = 24.20403 28.58096 26.39250
#
# Velocity S-wave (km/s) = 3.30137 3.58748 3.44739
# Velocity P-wave (km/s) = 5.57841 6.16491 5.87898
#
# Compressibility (1/GPa) = 0.02714843
#
# Stress axis : x y z
#
# Youngs Moduli (GPa) = 112.50500 64.52946 50.65251
#
# Poissons Ratio (x) = 0.20630 0.22485
# Poissons Ratio (y) = 0.35967 0.04323
# Poissons Ratio (z) = 0.49943 0.05508
#
# Static dielectric constant tensor:
#      x y z
#    x 1.823100 0.000000 0.000000 
#    y 0.000000 1.838230 0.000000 
#    z 0.000000 0.000000 1.889050 
# 
# From -- ./inp_files/14889.got.cif
#   From: 2010.05.17/outbox.cif.g08.bks.cpg/sg36_8_cif.got.tgz:14889.got - 2010.06.03 17:41:39.
