data_PCOD9353995
_publ_section_title
;
Structure prediction by ZEFSAII (Michael W. Deem and Ramdas Pophale) SiO2 
 PCOD9353995
Probable space group: C C C 2
;
_chemical_formula_sum "Si O2"
_cell_formula_units_Z 48
_cell_length_a 11.797111
_cell_length_b 9.971943
_cell_length_c 19.532481
_cell_angle_alpha 90.000000
_cell_angle_beta 90.000000
_cell_angle_gamma 90.000000
_cell_volume 2297.803379
_symmetry_space_group_name_H-M "C C C 2"
_symmetry_group_IT_number 37
_symmetry_cell_setting 'orthorhombic'
loop_
_space_group_symop_operation_xyz
x,y,z
-x,-y,z
-x,y,1/2+z
x,-y,1/2+z
1/2+x,1/2+y,z
1/2-x,1/2-y,z
1/2-x,1/2+y,1/2+z
1/2+x,1/2-y,1/2+z
loop_
_atom_site_type_symbol
_atom_site_label
_atom_site_fract_x
_atom_site_fract_y
_atom_site_fract_z
Si Si1 0.693039 0.531661 0.212330
Si Si2 0.936032 0.771624 0.874249
Si Si3 0.090406 0.379820 0.466269
Si Si4 0.494028 0.290056 0.721063
Si Si5 0.243149 0.475175 0.864611
Si Si6 0.843587 0.632595 0.623822
O O1 0.600303 0.409454 0.215245
O O2 0.616475 0.659948 0.198339
O O3 0.750590 0.530243 0.287194
O O4 0.782505 0.498056 0.153778
O O5 0.999607 0.763575 0.801790
O O6 0.844746 0.650020 0.868721
O O7 0.865047 0.908601 0.880312
O O8 0.023853 0.746446 0.935012
O O9 0.197740 0.418237 0.419238
O O10 0.120641 0.371902 0.545468
O O11 0.000000 0.500000 0.458645
O O12 0.445164 0.172228 0.674675
O O13 0.750000 0.750000 0.629587
#
# Coordination Sequence:
#
# PCOD9353995 Si02
#       6
#     8   8   8   8   8   8
#     4   9  17  32  56  81 105 143 190 230 278 334
#     4   9  17  34  57  77 106 147 187 232 282 329
#     4  10  22  36  52  82 112 147 184 224 279 342
#     4   9  17  32  56  81 105 143 190 230 278 334
#     4   9  17  34  57  77 106 147 187 232 282 329
#     4  10  20  36  54  76 112 147 178 228 285 334
#
# _framework density 20.889516
#
# number of rings (size 3 to 8) (size 9 to 14) (size 15 to 20)
#    0.000    2.667    1.667    0.000    0.000    2.667 
#    3.000    0.000    0.000    0.000    0.000    0.000 
#    0.000    0.000    0.000    0.000    0.000    0.000 
#
# Total GULP energy -134002.761829 kJ/mol
# GULP energy per Si atom -5583.448410 kJ/mol
# Density = 2.084197 g / cm^3
# Si number density = 20.889516 Si / 1000 Ang^3
#
#
#
# Elastic Constant Matrix: (Units=GPa)
#
#
# Indices 1 2 3 4 5 6 
#
# 1 101.9060 36.6407 80.2070 0.0000 0.0000 0.0000
# 2 36.6407 25.6647 21.1498 0.0000 0.0000 0.0000
# 3 80.2070 21.1498 152.5711 0.0000 0.0000 0.0000
# 4 0.0000 0.0000 0.0000 -54.1480 0.0000 0.0000
# 5 0.0000 0.0000 0.0000 0.0000 43.8009 0.0000
# 6 0.0000 0.0000 0.0000 0.0000 0.0000 20.3098
#
#
#
# Elastic Compliance Matrix: (Units=1/GPa)
#
#
# Indices 1 2 3 4 5 6 
#
# 1 0.032168 -0.036115 -0.011904 0.000000 0.000000 0.000000
# 2 -0.036115 0.084535 0.007267 0.000000 0.000000 0.000000
# 3 -0.011904 0.007267 0.011805 0.000000 0.000000 0.000000
# 4 0.000000 0.000000 0.000000 -0.018468 0.000000 0.000000
# 5 0.000000 0.000000 0.000000 0.000000 0.022831 0.000000
# 6 0.000000 0.000000 0.000000 0.000000 0.000000 0.049237
#
#
# Mechanical properties :
#
#
# Convention : Reuss Voigt Hill
#
# Bulk Modulus (GPa) = 21.27474 61.79298 41.53386
# Shear Modulus (GPa) = 17.90324 11.46883 14.68604
#
# Velocity S-wave (km/s) = 2.93071 2.34567 2.65436
# Velocity P-wave (km/s) = 4.65388 6.08122 5.41479
#
# Compressibility (1/GPa) = 0.04700410
#
# Stress axis : x y z
#
# Youngs Moduli (GPa) = 31.08726 11.82941 84.70960
#
# Poissons Ratio (x) = 0.42721 1.00840
# Poissons Ratio (y) = 1.12270 -0.61559
# Poissons Ratio (z) = 0.37007 -0.08596
#
# Static dielectric constant tensor:
#      x y z
#    x 1.767030 0.000000 0.000000 
#    y 0.000000 1.794630 0.000000 
#    z 0.000000 0.000000 1.690490 
# 
# From -- ./inp_files/14994.got.cif
#   From: 2010.05.17/outbox.cif.g08.bks.cpg/sg37_8_cif.got.tgz:14994.got - 2010.06.03 17:53:42.
