data_PCOD9353251
_publ_section_title
;
Structure prediction by ZEFSAII (Michael W. Deem and Ramdas Pophale) SiO2 
 PCOD9353251
Probable space group: C M C 21
;
_chemical_formula_sum "Si O2"
_cell_formula_units_Z 20
_cell_length_a 8.745118
_cell_length_b 10.251840
_cell_length_c 7.960079
_cell_angle_alpha 90.000000
_cell_angle_beta 90.000000
_cell_angle_gamma 90.000000
_cell_volume 713.649345
_symmetry_space_group_name_H-M "C M C 21"
_symmetry_group_IT_number 36
_symmetry_cell_setting 'orthorhombic'
loop_
_space_group_symop_operation_xyz
x,y,z
-x,-y,1/2+z
x,-y,1/2+z
-x,y,z
1/2+x,1/2+y,z
1/2-x,1/2-y,1/2+z
1/2+x,1/2-y,1/2+z
1/2-x,1/2+y,z
loop_
_atom_site_type_symbol
_atom_site_label
_atom_site_fract_x
_atom_site_fract_y
_atom_site_fract_z
Si Si1 0.834277 0.516334 0.397140
Si Si2 0.000000 0.279882 0.324490
Si Si3 0.000000 0.732945 0.221444
Si Si4 0.500000 0.511856 0.397489
O O1 0.857500 0.378144 0.301063
O O2 0.669390 0.520495 0.478498
O O3 0.000000 0.522461 0.493497
O O4 0.857534 0.641430 0.278111
O O5 0.000000 0.248866 0.523835
O O6 0.000000 0.132898 0.259765
O O7 0.000000 0.869589 0.313880
#
# Coordination Sequence:
#
# PCOD9353251 Si02
#       4
#     8   4   4   4
#     4   8  22  38  60  80 118 148 190 238 282 332
#     4   9  21  39  56  86 118 147 193 235 280 340
#     4   9  21  39  56  86 118 147 193 235 280 340
#     4  12  18  38  64  86 112 156 186 236 284 340
#
# _framework density 28.02497
#
# number of rings (size 3 to 8) (size 9 to 14) (size 15 to 20)
#    2.400    0.000    0.000    2.400    0.000    3.200 
#    0.000    8.000    0.000    0.000    0.000    0.000 
#    0.000    0.000    0.000    0.000    0.000    0.000 
#
# Total GULP energy -55691.204929 kJ/mol
# GULP energy per Si atom -5569.120493 kJ/mol
# Density = 2.796118 g / cm^3
# Si number density = 28.024970 Si / 1000 Ang^3
#
#
#
# Elastic Constant Matrix: (Units=GPa)
#
#
# Indices 1 2 3 4 5 6 
#
# 1 298.1164 64.1133 44.9548 0.0000 0.0000 0.0000
# 2 64.1133 243.2816 15.5060 0.0000 0.0000 0.0000
# 3 44.9548 15.5060 71.8001 0.0000 0.0000 0.0000
# 4 0.0000 0.0000 0.0000 32.6428 0.0000 0.0000
# 5 0.0000 0.0000 0.0000 0.0000 29.6252 0.0000
# 6 0.0000 0.0000 0.0000 0.0000 0.0000 55.6032
#
#
#
# Elastic Compliance Matrix: (Units=1/GPa)
#
#
# Indices 1 2 3 4 5 6 
#
# 1 0.003881 -0.000880 -0.002240 0.000000 0.000000 0.000000
# 2 -0.000880 0.004367 -0.000392 0.000000 0.000000 0.000000
# 3 -0.002240 -0.000392 0.015415 0.000000 0.000000 0.000000
# 4 0.000000 0.000000 0.000000 0.030635 0.000000 0.000000
# 5 0.000000 0.000000 0.000000 0.000000 0.033755 0.000000
# 6 0.000000 0.000000 0.000000 0.000000 0.000000 0.017985
#
#
# Mechanical properties :
#
#
# Convention : Reuss Voigt Hill
#
# Bulk Modulus (GPa) = 60.10020 95.81623 77.95822
# Shear Modulus (GPa) = 42.15529 56.14918 49.15223
#
# Velocity S-wave (km/s) = 3.88262 4.48095 4.19247
# Velocity P-wave (km/s) = 6.44914 7.81253 7.16335
#
# Compressibility (1/GPa) = 0.01663888
#
# Stress axis : x y z
#
# Youngs Moduli (GPa) = 257.63341 228.96912 64.87256
#
# Poissons Ratio (x) = 0.20152 0.14533
# Poissons Ratio (y) = 0.22675 0.02544
# Poissons Ratio (z) = 0.57714 0.08979
#
# Static dielectric constant tensor:
#      x y z
#    x 2.097490 0.000000 0.000000 
#    y 0.000000 2.391070 0.000000 
#    z 0.000000 0.000000 2.116590 
# 
# From -- ./inp_files/2124.got.cif
#   From: 2010.05.17/outbox.cif.g08.bks.cpg/sg36_2_cif.got.tgz:2124.got - 2010.06.03 17:41:39.
