data_PCOD9353075
_publ_section_title
;
Structure prediction by ZEFSAII (Michael W. Deem and Ramdas Pophale) SiO2 
 PCOD9353075
Probable space group: C M C 21
;
_chemical_formula_sum "Si O2"
_cell_formula_units_Z 64
_cell_length_a 8.758391
_cell_length_b 20.836467
_cell_length_c 19.810458
_cell_angle_alpha 90.000000
_cell_angle_beta 90.000000
_cell_angle_gamma 90.000000
_cell_volume 3615.288237
_symmetry_space_group_name_H-M "C M C 21"
_symmetry_group_IT_number 36
_symmetry_cell_setting 'orthorhombic'
loop_
_space_group_symop_operation_xyz
x,y,z
-x,-y,1/2+z
x,-y,1/2+z
-x,y,z
1/2+x,1/2+y,z
1/2-x,1/2-y,1/2+z
1/2+x,1/2-y,1/2+z
1/2-x,1/2+y,z
loop_
_atom_site_type_symbol
_atom_site_label
_atom_site_fract_x
_atom_site_fract_y
_atom_site_fract_z
Si Si1 0.318676 0.190948 0.271160
Si Si2 0.181641 0.446463 0.269808
Si Si3 0.683551 0.488064 0.404873
Si Si4 0.685316 0.490048 0.556858
Si Si5 0.182901 0.931117 0.694638
Si Si6 0.315496 0.638493 0.560336
Si Si7 0.682310 0.813286 0.195721
Si Si8 0.182948 0.140388 0.406297
O O1 0.500000 0.192936 0.270101
O O2 0.259675 0.129656 0.229094
O O3 0.251884 0.254195 0.236416
O O4 0.261524 0.180676 0.347755
O O5 0.231232 0.448572 0.347700
O O6 0.270200 0.504810 0.234544
O O7 0.221248 0.379715 0.233914
O O8 0.000000 0.456757 0.263602
O O9 0.500000 0.480164 0.398594
O O10 0.731164 0.471308 0.481261
O O11 0.715562 0.564337 0.395969
O O12 0.500000 0.491525 0.556767
O O13 0.732559 0.443892 0.617381
O O14 0.733255 0.563834 0.570022
O O15 0.000000 0.923498 0.697335
O O16 0.500000 0.640376 0.564677
O O17 0.245186 0.680460 0.619707
O O18 0.273232 0.656644 0.483462
O O19 0.500000 0.807072 0.194021
O O20 0.000000 0.147525 0.400606
#
# Coordination Sequence:
#
# PCOD9353075 Si02
#       8
#     8   8   8   8   8   8   8   8
#     4  12  25  39  57  83 116 152 197 241 281 338
#     4  11  22  35  54  85 116 144 184 234 279 330
#     4   9  17  32  56  84 113 148 186 228 280 338
#     4   8  16  31  55  86 113 143 186 229 277 338
#     4  11  20  35  60  84 112 148 184 229 285 340
#     4   9  17  34  59  86 113 144 188 233 280 339
#     4  11  24  40  57  81 117 155 194 237 288 340
#     4   9  18  34  58  85 114 148 185 231 284 339
#
# _framework density 17.7026
#
# number of rings (size 3 to 8) (size 9 to 14) (size 15 to 20)
#    0.000    2.000    2.500    3.750    0.000    2.000 
#    0.000    4.375    0.000    3.000    0.000    0.000 
#    0.000    0.000    0.000    0.000    0.000    0.000 
#
# Total GULP energy -178618.104832 kJ/mol
# GULP energy per Si atom -5581.815776 kJ/mol
# Density = 1.766231 g / cm^3
# Si number density = 17.702600 Si / 1000 Ang^3
#
#
#
# Elastic Constant Matrix: (Units=GPa)
#
#
# Indices 1 2 3 4 5 6 
#
# 1 48.1127 43.6580 49.6566 0.0000 0.0000 0.0000
# 2 43.6580 87.4654 67.8033 0.0000 0.0000 0.0000
# 3 49.6566 67.8033 165.6040 0.0000 0.0000 0.0000
# 4 0.0000 0.0000 0.0000 27.7396 0.0000 0.0000
# 5 0.0000 0.0000 0.0000 0.0000 26.5486 0.0000
# 6 0.0000 0.0000 0.0000 0.0000 0.0000 23.2245
#
#
#
# Elastic Compliance Matrix: (Units=1/GPa)
#
#
# Indices 1 2 3 4 5 6 
#
# 1 0.041478 -0.016206 -0.005802 0.000000 0.000000 0.000000
# 2 -0.016206 0.023081 -0.004591 0.000000 0.000000 0.000000
# 3 -0.005802 -0.004591 0.009658 0.000000 0.000000 0.000000
# 4 0.000000 0.000000 0.000000 0.036049 0.000000 0.000000
# 5 0.000000 0.000000 0.000000 0.000000 0.037667 0.000000
# 6 0.000000 0.000000 0.000000 0.000000 0.000000 0.043058
#
#
# Mechanical properties :
#
#
# Convention : Reuss Voigt Hill
#
# Bulk Modulus (GPa) = 47.57463 69.26865 58.42164
# Shear Modulus (GPa) = 19.90488 24.84016 22.37252
#
# Velocity S-wave (km/s) = 3.35685 3.74999 3.55885
# Velocity P-wave (km/s) = 6.47745 7.61340 7.06828
#
# Compressibility (1/GPa) = 0.02101961
#
# Stress axis : x y z
#
# Youngs Moduli (GPa) = 24.10911 43.32601 103.54287
#
# Poissons Ratio (x) = 0.70213 0.60077
# Poissons Ratio (y) = 0.39071 0.47533
# Poissons Ratio (z) = 0.13988 0.19890
#
# Static dielectric constant tensor:
#      x y z
#    x 1.592200 0.000000 0.000000 
#    y 0.000000 1.572200 0.000000 
#    z 0.000000 0.000000 1.626290 
# 
# From -- ./inp_files/14058.got.cif
#   From: 2010.05.17/outbox.cif.g08.bks.cpg/sg36_8_cif.got.tgz:14058.got - 2010.06.03 17:41:39.
