data_PCOD9353370
_publ_section_title
;
Structure prediction by ZEFSAII (Michael W. Deem and Ramdas Pophale) SiO2 
 PCOD9353370
Probable space group: C M C 21
;
_chemical_formula_sum "Si O2"
_cell_formula_units_Z 32
_cell_length_a 9.000000
_cell_length_b 30.000000
_cell_length_c 12.000000
_cell_angle_alpha 90.000000
_cell_angle_beta 90.000000
_cell_angle_gamma 90.000000
_cell_volume 3240.000000
_symmetry_space_group_name_H-M "C M C 21"
_symmetry_group_IT_number 36
_symmetry_cell_setting 'orthorhombic'
loop_
_space_group_symop_operation_xyz
x,y,z
-x,-y,1/2+z
x,-y,1/2+z
-x,y,z
1/2+x,1/2+y,z
1/2-x,1/2-y,1/2+z
1/2+x,1/2-y,1/2+z
1/2-x,1/2+y,z
loop_
_atom_site_type_symbol
_atom_site_label
_atom_site_fract_x
_atom_site_fract_y
_atom_site_fract_z
Si Si1 0.677122 0.412910 0.326830
Si Si2 0.671908 0.917560 0.954372
Si Si3 0.179076 0.976726 0.127821
Si Si4 0.675492 0.278779 0.855373
Si Si5 0.664848 0.822174 0.049296
Si Si6 0.670727 0.817768 0.308516
Si Si7 0.322330 0.860392 0.738141
Si Si8 0.177303 0.073784 0.080307
O O1 0.500000 0.409134 0.311840
O O2 0.732911 0.445491 0.229078
O O3 0.743660 0.363506 0.325345
O O4 0.704987 0.432175 0.449296
O O5 0.500000 0.931310 0.943672
O O6 0.720255 0.895041 0.838098
O O7 0.766448 0.956004 0.011110
O O8 0.678871 0.875350 0.038414
O O9 0.000000 0.976710 0.127747
O O10 0.227102 0.027987 0.139069
O O11 0.500000 0.277553 0.831990
O O12 0.732351 0.228047 0.858373
O O13 0.753663 0.312525 0.768992
O O14 0.710564 0.299931 0.974968
O O15 0.500000 0.811248 0.002224
O O16 0.669750 0.808801 0.176318
O O17 0.500000 0.823919 0.346108
O O18 0.500000 0.857208 0.736423
O O19 0.259475 0.883119 0.627864
O O20 0.000000 0.079479 0.096805
#
# Coordination Sequence:
#
# PCOD9353370 Si02
#       8
#     8   8   8   8   8   8   8   8
#     4  10  22  39  58  88 121 151 195 244 294 350
#     4   9  18  34  57  81 108 144 188 240 289 340
#     4  10  21  36  59  87 115 150 193 241 290 346
#     4  10  21  36  58  87 116 152 199 243 295 353
#     4   9  18  35  55  78 112 150 190 241 294 343
#     4  10  21  38  59  84 116 155 196 242 295 352
#     4  10  22  40  59  84 118 154 197 243 294 350
#     4  10  23  40  59  85 122 160 196 242 297 352
#
# _framework density 9.8765429999999999
#
# number of rings (size 3 to 8) (size 9 to 14) (size 15 to 20)
#    0.000    2.250    1.250    1.500    1.750    6.000 
#    0.000    3.750    0.000    0.000    0.000    0.000 
#    0.000    0.000    0.000    0.000    0.000    0.000 
#
# Total GULP energy -178454.549052 kJ/mol
# GULP energy per Si atom -5576.704658 kJ/mol
# Density = 0.985406 g / cm^3
# Si number density = 9.876543 Si / 1000 Ang^3
#
#
#
# Elastic Constant Matrix: (Units=GPa)
#
#
# Indices 1 2 3 4 5 6 
#
# 1 22.6168 32.8029 23.0131 0.0000 0.0000 0.0000
# 2 32.8029 113.8143 24.2211 0.0000 0.0000 0.0000
# 3 23.0131 24.2211 25.8442 0.0000 0.0000 0.0000
# 4 0.0000 0.0000 0.0000 18.3424 0.0000 0.0000
# 5 0.0000 0.0000 0.0000 0.0000 24.5702 0.0000
# 6 0.0000 0.0000 0.0000 0.0000 0.0000 21.3006
#
#
#
# Elastic Compliance Matrix: (Units=1/GPa)
#
#
# Indices 1 2 3 4 5 6 
#
# 1 1.352596 -0.166786 -1.048114 0.000000 0.000000 0.000000
# 2 -0.166786 0.031541 0.118955 0.000000 0.000000 0.000000
# 3 -1.048114 0.118955 0.860506 0.000000 0.000000 0.000000
# 4 0.000000 0.000000 0.000000 0.054518 0.000000 0.000000
# 5 0.000000 0.000000 0.000000 0.000000 0.040700 0.000000
# 6 0.000000 0.000000 0.000000 0.000000 0.000000 0.046947
#
#
# Mechanical properties :
#
#
# Convention : Reuss Voigt Hill
#
# Bulk Modulus (GPa) = 18.95579 35.81661 27.38620
# Shear Modulus (GPa) = 1.08784 18.32520 9.70652
#
# Velocity S-wave (km/s) = 0.74291 3.04914 2.21914
# Velocity P-wave (km/s) = 3.21762 5.52882 4.52333
#
# Compressibility (1/GPa) = 0.05275434
#
# Stress axis : x y z
#
# Youngs Moduli (GPa) = 0.73932 31.70449 1.16211
#
# Poissons Ratio (x) = 5.28787 1.21802
# Poissons Ratio (y) = 0.12331 -0.13824
# Poissons Ratio (z) = 0.77489 -3.77141
#
# Static dielectric constant tensor:
#      x y z
#    x 1.685000 0.000000 0.000000 
#    y 0.000000 1.683100 0.000000 
#    z 0.000000 0.000000 1.718420 
# 
# From -- ./inp_files/7232.got.cif
#   From: 2010.05.17/outbox.ucp.g08.bks.cvg/sg36_4_cif.got.tgz:7232.got - 2010.06.11 10:37:26.
