data_PCOD9353170
_publ_section_title
;
Structure prediction by ZEFSAII (Michael W. Deem and Ramdas Pophale) SiO2 
 PCOD9353170
Probable space group: C M C 21
;
_chemical_formula_sum "Si O2"
_cell_formula_units_Z 48
_cell_length_a 8.618241
_cell_length_b 20.355096
_cell_length_c 14.183629
_cell_angle_alpha 90.000000
_cell_angle_beta 90.000000
_cell_angle_gamma 90.000000
_cell_volume 2488.164861
_symmetry_space_group_name_H-M "C M C 21"
_symmetry_group_IT_number 36
_symmetry_cell_setting 'orthorhombic'
loop_
_space_group_symop_operation_xyz
x,y,z
-x,-y,1/2+z
x,-y,1/2+z
-x,y,z
1/2+x,1/2+y,z
1/2-x,1/2-y,1/2+z
1/2+x,1/2-y,1/2+z
1/2-x,1/2+y,z
loop_
_atom_site_type_symbol
_atom_site_label
_atom_site_fract_x
_atom_site_fract_y
_atom_site_fract_z
Si Si1 0.182513 0.239779 0.920190
Si Si2 0.686152 0.386077 0.942868
Si Si3 0.680393 0.186508 0.102984
Si Si4 0.316337 0.057892 0.634524
Si Si5 0.685116 0.428797 0.731543
Si Si6 0.319235 0.200058 0.722730
O O1 0.237245 0.313773 0.944723
O O2 0.277153 0.215035 0.830083
O O3 0.000000 0.240386 0.899675
O O4 0.220388 0.193223 0.008252
O O5 0.500000 0.378785 0.948618
O O6 0.725207 0.418670 0.841814
O O7 0.745940 0.428045 0.031313
O O8 0.500000 0.180004 0.079388
O O9 0.734590 0.127904 0.170192
O O10 0.712080 0.253413 0.159879
O O11 0.500000 0.045258 0.625396
O O12 0.295778 0.124912 0.693729
O O13 0.237434 0.998015 0.688933
O O14 0.500000 0.421556 0.723521
O O15 0.500000 0.217056 0.704458
#
# Coordination Sequence:
#
# PCOD9353170 Si02
#       6
#     8   8   8   8   8   8
#     4  12  24  39  65  98 132 172 220 271 326 385
#     4  11  23  41  67  94 128 172 218 268 329 390
#     4  12  24  40  66  96 129 169 217 269 324 383
#     4  11  25  43  67  96 133 173 217 269 327 393
#     4  11  25  44  67  95 133 173 217 269 326 392
#     4  11  23  41  64  95 131 169 217 268 322 383
#
# _framework density 19.291325000000001
#
# number of rings (size 3 to 8) (size 9 to 14) (size 15 to 20)
#    0.000    0.667    3.333    5.000    0.000    5.333 
#    0.000    3.333    0.000    0.000    0.000    0.000 
#    0.000    0.000    0.000    0.000    0.000    0.000 
#
# Total GULP energy -134290.221958 kJ/mol
# GULP energy per Si atom -5595.425915 kJ/mol
# Density = 1.924742 g / cm^3
# Si number density = 19.291325 Si / 1000 Ang^3
#
#
#
# Elastic Constant Matrix: (Units=GPa)
#
#
# Indices 1 2 3 4 5 6 
#
# 1 63.2004 30.7977 -2.2156 0.0000 0.0000 0.0000
# 2 30.7977 71.8879 20.6533 0.0000 0.0000 0.0000
# 3 -2.2156 20.6533 80.7477 0.0000 0.0000 0.0000
# 4 0.0000 0.0000 0.0000 32.4605 0.0000 0.0000
# 5 0.0000 0.0000 0.0000 0.0000 32.7963 0.0000
# 6 0.0000 0.0000 0.0000 0.0000 0.0000 31.1665
#
#
#
# Elastic Compliance Matrix: (Units=1/GPa)
#
#
# Indices 1 2 3 4 5 6 
#
# 1 0.020674 -0.009735 0.003057 0.000000 0.000000 0.000000
# 2 -0.009735 0.019598 -0.005280 0.000000 0.000000 0.000000
# 3 0.003057 -0.005280 0.013819 0.000000 0.000000 0.000000
# 4 0.000000 0.000000 0.000000 0.030807 0.000000 0.000000
# 5 0.000000 0.000000 0.000000 0.000000 0.030491 0.000000
# 6 0.000000 0.000000 0.000000 0.000000 0.000000 0.032086
#
#
# Mechanical properties :
#
#
# Convention : Reuss Voigt Hill
#
# Bulk Modulus (GPa) = 33.14005 34.92297 34.03151
# Shear Modulus (GPa) = 27.55603 30.39136 28.97369
#
# Velocity S-wave (km/s) = 3.78354 3.97342 3.87964
# Velocity P-wave (km/s) = 6.02519 6.26043 6.14394
#
# Compressibility (1/GPa) = 0.03017497
#
# Stress axis : x y z
#
# Youngs Moduli (GPa) = 48.37010 51.02508 72.36613
#
# Poissons Ratio (x) = 0.49675 -0.22125
# Poissons Ratio (y) = 0.47090 0.38208
# Poissons Ratio (z) = -0.14788 0.26941
#
# Static dielectric constant tensor:
#      x y z
#    x 1.645520 0.000000 0.000000 
#    y 0.000000 1.638070 0.000000 
#    z 0.000000 0.000000 1.668600 
# 
# From -- ./inp_files/10400.got.cif
#   From: 2010.05.17/outbox.cif.g08.bks.cpg/sg36_6_cif.got.tgz:10400.got - 2010.06.03 17:41:39.
