data_PCOD9353315
_publ_section_title
;
Structure prediction by ZEFSAII (Michael W. Deem and Ramdas Pophale) SiO2 
 PCOD9353315
Probable space group: C M C 21
;
_chemical_formula_sum "Si O2"
_cell_formula_units_Z 32
_cell_length_a 9.000000
_cell_length_b 15.000000
_cell_length_c 24.000000
_cell_angle_alpha 90.000000
_cell_angle_beta 90.000000
_cell_angle_gamma 90.000000
_cell_volume 3240.000000
_symmetry_space_group_name_H-M "C M C 21"
_symmetry_group_IT_number 36
_symmetry_cell_setting 'orthorhombic'
loop_
_space_group_symop_operation_xyz
x,y,z
-x,-y,1/2+z
x,-y,1/2+z
-x,y,z
1/2+x,1/2+y,z
1/2-x,1/2-y,1/2+z
1/2+x,1/2-y,1/2+z
1/2-x,1/2+y,z
loop_
_atom_site_type_symbol
_atom_site_label
_atom_site_fract_x
_atom_site_fract_y
_atom_site_fract_z
Si Si1 0.677694 0.245690 0.278530
Si Si2 0.178174 0.536705 0.574180
Si Si3 0.822247 0.332563 0.551409
Si Si4 0.328028 0.509834 0.688290
Si Si5 0.321219 0.901466 0.866180
Si Si6 0.677534 0.561427 0.811949
Si Si7 0.171605 0.202692 0.166001
Si Si8 0.320591 0.184580 0.483549
O O1 0.500000 0.240728 0.269111
O O2 0.725480 0.159880 0.313893
O O3 0.706569 0.333554 0.315101
O O4 0.756809 0.250712 0.219006
O O5 0.221780 0.437094 0.553749
O O6 0.242656 0.550415 0.635824
O O7 0.223403 0.611489 0.530089
O O8 0.000000 0.537642 0.577827
O O9 0.760600 0.289051 0.608571
O O10 0.752299 0.277675 0.500796
O O11 0.000000 0.327581 0.550196
O O12 0.500000 0.538565 0.685666
O O13 0.270982 0.533826 0.749576
O O14 0.322798 0.402928 0.680864
O O15 0.500000 0.906557 0.865974
O O16 0.276830 0.853680 0.923414
O O17 0.254858 0.998868 0.856747
O O18 0.500000 0.547027 0.814639
O O19 0.000000 0.228601 0.157845
O O20 0.500000 0.193547 0.484510
#
# Coordination Sequence:
#
# PCOD9353315 Si02
#       8
#     8   8   8   8   8   8   8   8
#     4  10  21  36  56  84 115 150 188 233 285 337
#     4   9  20  37  56  80 112 148 186 231 279 335
#     4  10  21  37  57  84 113 146 187 234 284 337
#     4   9  18  33  54  81 114 145 178 229 284 334
#     4  10  22  40  59  81 115 154 193 236 283 336
#     4  10  21  37  56  82 114 147 187 236 282 334
#     4  10  19  34  57  84 115 149 183 229 284 339
#     4  10  22  40  59  82 114 153 194 236 281 336
#
# _framework density 9.8765429999999999
#
# number of rings (size 3 to 8) (size 9 to 14) (size 15 to 20)
#    0.000    2.250    1.250    0.750    1.750    4.000 
#    0.000    0.000    0.000    0.000    0.000    0.000 
#    0.000    0.000    0.000    0.000    0.000    0.000 
#
# Total GULP energy -178720.309185 kJ/mol
# GULP energy per Si atom -5585.009662 kJ/mol
# Density = 0.985406 g / cm^3
# Si number density = 9.876543 Si / 1000 Ang^3
#
#
#
# Elastic Constant Matrix: (Units=GPa)
#
#
# Indices 1 2 3 4 5 6 
#
# 1 16.9721 11.6197 4.9036 0.0000 0.0000 0.0000
# 2 11.6197 43.9677 -4.8074 0.0000 0.0000 0.0000
# 3 4.9036 -4.8074 32.0100 0.0000 0.0000 0.0000
# 4 0.0000 0.0000 0.0000 27.7947 0.0000 0.0000
# 5 0.0000 0.0000 0.0000 0.0000 29.7735 0.0000
# 6 0.0000 0.0000 0.0000 0.0000 0.0000 20.6221
#
#
#
# Elastic Compliance Matrix: (Units=1/GPa)
#
#
# Indices 1 2 3 4 5 6 
#
# 1 0.078799 -0.022515 -0.015453 0.000000 0.000000 0.000000
# 2 -0.022515 0.029557 0.007888 0.000000 0.000000 0.000000
# 3 -0.015453 0.007888 0.034792 0.000000 0.000000 0.000000
# 4 0.000000 0.000000 0.000000 0.035978 0.000000 0.000000
# 5 0.000000 0.000000 0.000000 0.000000 0.033587 0.000000
# 6 0.000000 0.000000 0.000000 0.000000 0.000000 0.048492
#
#
# Mechanical properties :
#
#
# Convention : Reuss Voigt Hill
#
# Bulk Modulus (GPa) = 12.04973 12.93130 12.49052
# Shear Modulus (GPa) = 14.32558 21.05364 17.68961
#
# Velocity S-wave (km/s) = 2.69594 3.26826 2.99580
# Velocity P-wave (km/s) = 3.97545 4.56100 4.27825
#
# Compressibility (1/GPa) = 0.08298939
#
# Stress axis : x y z
#
# Youngs Moduli (GPa) = 12.69049 33.83346 28.74220
#
# Poissons Ratio (x) = 0.76174 0.44414
# Poissons Ratio (y) = 0.28572 -0.22672
# Poissons Ratio (z) = 0.19610 -0.26688
#
# Static dielectric constant tensor:
#      x y z
#    x 1.667540 0.000000 0.000000 
#    y 0.000000 1.718450 0.000000 
#    z 0.000000 0.000000 1.672440 
# 
# From -- ./inp_files/16533.got.cif
#   From: 2010.05.17/outbox.ucp.g08.bks.cvg/sg36_9_cif.got.tgz:16533.got - 2010.06.11 10:37:26.
