data_PCOD9353885
_publ_section_title
;
Structure prediction by ZEFSAII (Michael W. Deem and Ramdas Pophale) SiO2 
 PCOD9353885
Probable space group: C C C 2
;
_chemical_formula_sum "Si O2"
_cell_formula_units_Z 64
_cell_length_a 23.436590
_cell_length_b 14.848142
_cell_length_c 8.528960
_cell_angle_alpha 90.000000
_cell_angle_beta 90.000000
_cell_angle_gamma 90.000000
_cell_volume 2967.991224
_symmetry_space_group_name_H-M "C C C 2"
_symmetry_group_IT_number 37
_symmetry_cell_setting 'orthorhombic'
loop_
_space_group_symop_operation_xyz
x,y,z
-x,-y,z
-x,y,1/2+z
x,-y,1/2+z
1/2+x,1/2+y,z
1/2-x,1/2-y,z
1/2-x,1/2+y,1/2+z
1/2+x,1/2-y,1/2+z
loop_
_atom_site_type_symbol
_atom_site_label
_atom_site_fract_x
_atom_site_fract_y
_atom_site_fract_z
Si Si1 0.828854 0.672080 0.282260
Si Si2 0.709535 0.553240 0.928401
Si Si3 0.412043 0.750830 0.980538
Si Si4 0.835568 0.600638 0.928846
Si Si5 0.684672 0.275764 0.217602
Si Si6 0.202386 0.123246 0.281939
Si Si7 0.543090 0.923192 0.960051
Si Si8 0.486340 0.792551 0.714089
O O1 0.879764 0.660486 0.407620
O O2 0.828777 0.781283 0.261790
O O3 0.765999 0.647246 0.341683
O O4 0.831415 0.627002 0.112128
O O5 0.777386 0.548989 0.888516
O O6 0.686659 0.635543 0.824361
O O7 0.680882 0.458225 0.889557
O O8 0.704828 0.580369 0.108755
O O9 0.358164 0.708691 0.073370
O O10 0.459979 0.757103 0.115365
O O11 0.450733 0.725802 0.826936
O O12 0.836422 0.690960 0.822690
O O13 0.894404 0.548009 0.904834
O O14 0.750000 0.250000 0.173029
O O15 0.552102 0.844751 0.088460
O O16 0.500000 0.000000 0.017002
O O17 0.510917 0.871118 0.823112
#
# Coordination Sequence:
#
# PCOD9353885 Si02
#       8
#     8   8   8   8   8   8   8   8
#     4  10  21  39  64  85 129 179 218 268 330 408
#     4  10  22  37  60  94 135 166 216 270 343 399
#     4  11  22  38  64  89 122 166 225 273 323 394
#     4  10  19  41  59  82 129 184 219 269 329 392
#     4  10  21  38  64  95 128 172 219 278 337 405
#     4  10  22  38  59  96 133 170 213 269 338 411
#     4  11  21  38  55  80 121 170 226 271 316 371
#     4  10  23  38  55  85 118 161 225 273 313 381
#
# _framework density 21.563407000000002
#
# number of rings (size 3 to 8) (size 9 to 14) (size 15 to 20)
#    0.000    1.750    3.750    0.375    3.500    3.000 
#    4.500    0.000    0.000    0.000    0.000    2.625 
#    0.000    0.000    0.000    0.000    0.000    0.000 
#
# Total GULP energy -178337.765482 kJ/mol
# GULP energy per Si atom -5573.055171 kJ/mol
# Density = 2.151433 g / cm^3
# Si number density = 21.563407 Si / 1000 Ang^3
#
#
#
# Elastic Constant Matrix: (Units=GPa)
#
#
# Indices 1 2 3 4 5 6 
#
# 1 102.4598 16.7159 25.6317 0.0000 0.0000 0.0000
# 2 16.7159 96.3145 14.4507 0.0000 0.0000 0.0000
# 3 25.6317 14.4507 88.9921 0.0000 0.0000 0.0000
# 4 0.0000 0.0000 0.0000 17.9313 0.0000 0.0000
# 5 0.0000 0.0000 0.0000 0.0000 42.2542 0.0000
# 6 0.0000 0.0000 0.0000 0.0000 0.0000 10.0021
#
#
#
# Elastic Compliance Matrix: (Units=1/GPa)
#
#
# Indices 1 2 3 4 5 6 
#
# 1 0.010707 -0.001430 -0.002851 0.000000 0.000000 0.000000
# 2 -0.001430 0.010833 -0.001347 0.000000 0.000000 0.000000
# 3 -0.002851 -0.001347 0.012277 0.000000 0.000000 0.000000
# 4 0.000000 0.000000 0.000000 0.055768 0.000000 0.000000
# 5 0.000000 0.000000 0.000000 0.000000 0.023666 0.000000
# 6 0.000000 0.000000 0.000000 0.000000 0.000000 0.099979
#
#
# Mechanical properties :
#
#
# Convention : Reuss Voigt Hill
#
# Bulk Modulus (GPa) = 44.32877 44.59590 44.46233
# Shear Modulus (GPa) = 21.55099 29.43539 25.49319
#
# Velocity S-wave (km/s) = 3.16480 3.69868 3.44211
# Velocity P-wave (km/s) = 5.82723 6.24232 6.03834
#
# Compressibility (1/GPa) = 0.02255871
#
# Stress axis : x y z
#
# Youngs Moduli (GPa) = 93.40016 92.31044 81.45316
#
# Poissons Ratio (x) = 0.13204 0.23226
# Poissons Ratio (y) = 0.13360 0.10973
# Poissons Ratio (z) = 0.26633 0.12435
#
# Static dielectric constant tensor:
#      x y z
#    x 1.877380 0.000000 0.000000 
#    y 0.000000 1.785300 0.000000 
#    z 0.000000 0.000000 1.839660 
# 
# From -- ./inp_files/4657.got.cif
#   From: 2010.05.17/outbox.cif.g08.bks.cpg/sg37_3_cif.got.tgz:4657.got - 2010.06.03 17:53:42.
