data_PCOD9353555
_publ_section_title
;
Structure prediction by ZEFSAII (Michael W. Deem and Ramdas Pophale) SiO2 
 PCOD9353555
Probable space group: C C C 2
;
_chemical_formula_sum "Si O2"
_cell_formula_units_Z 64
_cell_length_a 27.048952
_cell_length_b 11.866831
_cell_length_c 10.279663
_cell_angle_alpha 90.000000
_cell_angle_beta 90.000000
_cell_angle_gamma 90.000000
_cell_volume 3299.621145
_symmetry_space_group_name_H-M "C C C 2"
_symmetry_group_IT_number 37
_symmetry_cell_setting 'orthorhombic'
loop_
_space_group_symop_operation_xyz
x,y,z
-x,-y,z
-x,y,1/2+z
x,-y,1/2+z
1/2+x,1/2+y,z
1/2-x,1/2-y,z
1/2-x,1/2+y,1/2+z
1/2+x,1/2-y,1/2+z
loop_
_atom_site_type_symbol
_atom_site_label
_atom_site_fract_x
_atom_site_fract_y
_atom_site_fract_z
Si Si1 0.114233 0.489514 0.183690
Si Si2 0.280424 0.490419 0.660532
Si Si3 0.694375 0.846911 0.771769
Si Si4 0.952738 0.299527 0.097141
Si Si5 0.198278 0.792801 0.815802
Si Si6 0.305596 0.858314 0.556275
Si Si7 0.356581 0.319999 0.568369
Si Si8 0.024770 0.624024 0.814892
O O1 0.157367 0.544949 0.271022
O O2 0.080390 0.589048 0.126896
O O3 0.144251 0.429087 0.069694
O O4 0.079256 0.403983 0.260700
O O5 0.246808 0.392675 0.723389
O O6 0.296297 0.578626 0.770938
O O7 0.241923 0.559593 0.569539
O O8 0.328122 0.437672 0.591021
O O9 0.670539 0.763880 0.668230
O O10 0.695952 0.799802 0.917208
O O11 0.914565 0.195141 0.097036
O O12 0.994210 0.305099 0.208314
O O13 0.974703 0.316546 0.954003
O O14 0.250000 0.750000 0.877686
O O15 0.193583 0.721645 0.682748
O O16 0.155876 0.780611 0.922028
O O17 0.000000 0.500000 0.829855
#
# Coordination Sequence:
#
# PCOD9353555 Si02
#       8
#     8   8   8   8   8   8   8   8
#     4   9  18  31  52  80 115 148 176 211 268 337
#     4  10  21  34  53  75 108 149 189 225 260 311
#     4  10  20  32  52  79 111 148 184 221 261 318
#     4  10  21  33  53  80 106 139 179 224 280 334
#     4  10  21  35  53  78 110 147 184 222 266 318
#     4  10  20  34  53  82 113 146 184 221 263 319
#     4  11  22  37  54  79 110 145 183 221 273 332
#     4  10  18  32  52  79 112 142 174 223 280 333
#
# _framework density 19.396166000000001
#
# number of rings (size 3 to 8) (size 9 to 14) (size 15 to 20)
#    0.000    2.000    0.000    4.500    0.000   13.000 
#    0.000    0.000    0.000    0.000    0.000    7.000 
#    0.000    0.000    0.000    0.000    0.000    0.000 
#
# Total GULP energy -178628.962872 kJ/mol
# GULP energy per Si atom -5582.155090 kJ/mol
# Density = 1.935202 g / cm^3
# Si number density = 19.396166 Si / 1000 Ang^3
#
#
#
# Elastic Constant Matrix: (Units=GPa)
#
#
# Indices 1 2 3 4 5 6 
#
# 1 94.7544 21.1446 35.9264 0.0000 0.0000 0.0000
# 2 21.1446 35.7947 15.0212 0.0000 0.0000 0.0000
# 3 35.9264 15.0212 117.2372 0.0000 0.0000 0.0000
# 4 0.0000 0.0000 0.0000 9.7111 0.0000 0.0000
# 5 0.0000 0.0000 0.0000 0.0000 13.6437 0.0000
# 6 0.0000 0.0000 0.0000 0.0000 0.0000 22.3095
#
#
#
# Elastic Compliance Matrix: (Units=1/GPa)
#
#
# Indices 1 2 3 4 5 6 
#
# 1 0.013216 -0.006454 -0.003223 0.000000 0.000000 0.000000
# 2 -0.006454 0.032677 -0.002209 0.000000 0.000000 0.000000
# 3 -0.003223 -0.002209 0.009800 0.000000 0.000000 0.000000
# 4 0.000000 0.000000 0.000000 0.102975 0.000000 0.000000
# 5 0.000000 0.000000 0.000000 0.000000 0.073294 0.000000
# 6 0.000000 0.000000 0.000000 0.000000 0.000000 0.044824
#
#
# Mechanical properties :
#
#
# Convention : Reuss Voigt Hill
#
# Bulk Modulus (GPa) = 31.32767 43.55230 37.43998
# Shear Modulus (GPa) = 16.06695 20.84582 18.45639
#
# Velocity S-wave (km/s) = 2.88124 3.28188 3.08806
# Velocity P-wave (km/s) = 5.22066 6.07156 5.66211
#
# Compressibility (1/GPa) = 0.03192067
#
# Stress axis : x y z
#
# Youngs Moduli (GPa) = 75.66652 30.60283 102.03694
#
# Poissons Ratio (x) = 0.19752 0.32886
# Poissons Ratio (y) = 0.48838 0.22539
# Poissons Ratio (z) = 0.24387 0.06760
#
# Static dielectric constant tensor:
#      x y z
#    x 1.695480 0.000000 0.000000 
#    y 0.000000 1.709030 0.000000 
#    z 0.000000 0.000000 1.686020 
# 
# From -- ./inp_files/9104.got.cif
#   From: 2010.05.17/outbox.cif.g08.bks.cpg/sg37_5_cif.got.tgz:9104.got - 2010.06.03 17:53:42.
