data_PCOD9353429
_publ_section_title
;
Structure prediction by ZEFSAII (Michael W. Deem and Ramdas Pophale) SiO2 
 PCOD9353429
Probable space group: C C C 2
;
_chemical_formula_sum "Si O2"
_cell_formula_units_Z 48
_cell_length_a 13.142579
_cell_length_b 9.231259
_cell_length_c 15.515200
_cell_angle_alpha 90.000000
_cell_angle_beta 90.000000
_cell_angle_gamma 90.000000
_cell_volume 1882.343638
_symmetry_space_group_name_H-M "C C C 2"
_symmetry_group_IT_number 37
_symmetry_cell_setting 'orthorhombic'
loop_
_space_group_symop_operation_xyz
x,y,z
-x,-y,z
-x,y,1/2+z
x,-y,1/2+z
1/2+x,1/2+y,z
1/2-x,1/2-y,z
1/2-x,1/2+y,1/2+z
1/2+x,1/2-y,1/2+z
loop_
_atom_site_type_symbol
_atom_site_label
_atom_site_fract_x
_atom_site_fract_y
_atom_site_fract_z
Si Si1 0.216602 0.917642 0.480740
Si Si2 0.960270 0.829409 0.626049
Si Si3 0.668312 0.884343 0.827462
Si Si4 0.492117 0.280265 0.938968
Si Si5 0.257093 0.465939 0.668667
Si Si6 0.417791 0.633357 0.777482
O O1 0.250000 0.750000 0.490803
O O2 0.274006 0.982126 0.398382
O O3 0.096699 0.901940 0.458254
O O4 0.251480 0.984572 0.570601
O O5 0.972052 0.748524 0.535634
O O6 0.027675 0.769750 0.704183
O O7 0.844234 0.842871 0.656011
O O8 0.000000 0.000000 0.614496
O O9 0.750000 0.750000 0.819009
O O10 0.570349 0.832240 0.879397
O O11 0.661444 0.939944 0.730505
O O12 0.584774 0.311211 0.874292
O O13 0.318012 0.580090 0.729427
O O14 0.500000 0.500000 0.786369
#
# Coordination Sequence:
#
# PCOD9353429 Si02
#       6
#     8   8   8   8   8   8
#     4   9  17  30  47  70 102 137 170 214 271 328
#     4   9  15  23  41  69 102 132 168 208 256 311
#     4   9  19  30  46  69 112 145 169 205 280 332
#     4  10  16  28  43  69 109 139 167 207 269 330
#     4  10  18  29  45  78 106 138 174 217 267 320
#     4   9  16  23  42  70 102 131 165 206 256 309
#
# _framework density 25.500126000000002
#
# number of rings (size 3 to 8) (size 9 to 14) (size 15 to 20)
#    0.000    3.333    3.333    4.500    2.333    0.000 
#    0.000    0.000    0.000    1.000    0.000    1.167 
#   10.000    0.000    0.000    0.000    0.000    0.000 
#
# Total GULP energy -133636.452957 kJ/mol
# GULP energy per Si atom -5568.185540 kJ/mol
# Density = 2.544209 g / cm^3
# Si number density = 25.500126 Si / 1000 Ang^3
#
#
#
# Elastic Constant Matrix: (Units=GPa)
#
#
# Indices 1 2 3 4 5 6 
#
# 1 52.4889 23.5404 34.2979 0.0000 0.0000 0.0000
# 2 23.5404 18.3090 34.2845 0.0000 0.0000 0.0000
# 3 34.2979 34.2845 286.8157 0.0000 0.0000 0.0000
# 4 0.0000 0.0000 0.0000 10.2072 0.0000 0.0000
# 5 0.0000 0.0000 0.0000 0.0000 19.9326 0.0000
# 6 0.0000 0.0000 0.0000 0.0000 0.0000 20.1390
#
#
#
# Elastic Compliance Matrix: (Units=1/GPa)
#
#
# Indices 1 2 3 4 5 6 
#
# 1 0.045887 -0.062775 0.002016 0.000000 0.000000 0.000000
# 2 -0.062775 0.156245 -0.011170 0.000000 0.000000 0.000000
# 3 0.002016 -0.011170 0.004581 0.000000 0.000000 0.000000
# 4 0.000000 0.000000 0.000000 0.097970 0.000000 0.000000
# 5 0.000000 0.000000 0.000000 0.000000 0.050169 0.000000
# 6 0.000000 0.000000 0.000000 0.000000 0.000000 0.049655
#
#
# Mechanical properties :
#
#
# Convention : Reuss Voigt Hill
#
# Bulk Modulus (GPa) = 15.90913 60.20660 38.05787
# Shear Modulus (GPa) = 8.78246 27.75514 18.26880
#
# Velocity S-wave (km/s) = 1.85784 3.30272 2.67951
# Velocity P-wave (km/s) = 3.29461 6.18106 4.95278
#
# Compressibility (1/GPa) = 0.06285698
#
# Stress axis : x y z
#
# Youngs Moduli (GPa) = 21.79248 6.40019 218.31007
#
# Poissons Ratio (x) = 0.40177 -0.44021
# Poissons Ratio (y) = 1.36801 2.43854
# Poissons Ratio (z) = -0.04394 0.07149
#
# Static dielectric constant tensor:
#      x y z
#    x 1.549800 0.000000 0.000000 
#    y 0.000000 2.305890 0.000000 
#    z 0.000000 0.000000 2.040930 
# 
# From -- ./inp_files/12189.got.cif
#   From: 2010.05.17/outbox.cif.g08.bks.cpg/sg37_7_cif.got.tgz:12189.got - 2010.06.03 17:53:42.
