data_PCOD9353340
_publ_section_title
;
Structure prediction by ZEFSAII (Michael W. Deem and Ramdas Pophale) SiO2 
 PCOD9353340
Probable space group: C M C 21
;
_chemical_formula_sum "Si O2"
_cell_formula_units_Z 32
_cell_length_a 9.000000
_cell_length_b 15.000000
_cell_length_c 24.000000
_cell_angle_alpha 90.000000
_cell_angle_beta 90.000000
_cell_angle_gamma 90.000000
_cell_volume 3240.000000
_symmetry_space_group_name_H-M "C M C 21"
_symmetry_group_IT_number 36
_symmetry_cell_setting 'orthorhombic'
loop_
_space_group_symop_operation_xyz
x,y,z
-x,-y,1/2+z
x,-y,1/2+z
-x,y,z
1/2+x,1/2+y,z
1/2-x,1/2-y,1/2+z
1/2+x,1/2-y,1/2+z
1/2-x,1/2+y,z
loop_
_atom_site_type_symbol
_atom_site_label
_atom_site_fract_x
_atom_site_fract_y
_atom_site_fract_z
Si Si1 0.679785 0.938359 0.099350
Si Si2 0.326868 0.051248 0.919818
Si Si3 0.671623 0.262775 0.895219
Si Si4 0.320817 0.323709 0.771139
Si Si5 0.319396 0.850983 0.215237
Si Si6 0.822535 0.911568 0.533711
Si Si7 0.821845 0.708857 0.508816
Si Si8 0.320910 0.000282 0.800530
O O1 0.500000 0.945389 0.099297
O O2 0.728530 0.898034 0.158508
O O3 0.724481 0.867475 0.051628
O O4 0.749528 0.032859 0.083374
O O5 0.500000 0.028071 0.931210
O O6 0.322468 0.155592 0.902162
O O7 0.271601 0.999591 0.865054
O O8 0.233048 0.044280 0.975820
O O9 0.500000 0.289611 0.901415
O O10 0.719145 0.288420 0.833140
O O11 0.762662 0.303329 0.946342
O O12 0.500000 0.332076 0.768795
O O13 0.272350 0.250238 0.726222
O O14 0.243861 0.418319 0.766444
O O15 0.500000 0.849656 0.214028
O O16 0.276475 0.910068 0.268516
O O17 0.775723 0.807592 0.530067
O O18 0.000000 0.915030 0.537384
O O19 0.000000 0.708860 0.506851
O O20 0.500000 0.997295 0.801716
#
# Coordination Sequence:
#
# PCOD9353340 Si02
#       8
#     8   8   8   8   8   8   8   8
#     4  10  21  38  60  80 104 148 194 223 262 327
#     4   9  17  33  56  79 110 147 182 219 267 330
#     4   9  17  32  55  80 109 143 179 219 266 323
#     4  10  20  35  56  83 110 143 183 223 274 328
#     4   9  19  39  60  77 107 149 189 224 263 326
#     4  10  21  36  54  81 115 143 176 228 280 321
#     4   9  20  36  53  78 110 143 179 221 272 323
#     4  10  20  35  56  82 109 142 182 227 272 320
#
# _framework density 9.8765429999999999
#
# number of rings (size 3 to 8) (size 9 to 14) (size 15 to 20)
#    0.000    2.500    1.250    0.375    1.750    3.000 
#    0.000    3.125    0.000    0.000    0.000    0.000 
#    0.000    0.000    0.000    0.000    0.000    0.000 
#
# Total GULP energy -178585.012192 kJ/mol
# GULP energy per Si atom -5580.781631 kJ/mol
# Density = 0.985406 g / cm^3
# Si number density = 9.876543 Si / 1000 Ang^3
#
#
#
# Elastic Constant Matrix: (Units=GPa)
#
#
# Indices 1 2 3 4 5 6 
#
# 1 5.4114 6.1643 3.7983 0.0000 0.0000 0.0000
# 2 6.1643 48.0356 -9.4321 0.0000 0.0000 0.0000
# 3 3.7983 -9.4321 28.6985 0.0000 0.0000 0.0000
# 4 0.0000 0.0000 0.0000 26.0070 0.0000 0.0000
# 5 0.0000 0.0000 0.0000 0.0000 19.6705 0.0000
# 6 0.0000 0.0000 0.0000 0.0000 0.0000 18.8951
#
#
#
# Elastic Compliance Matrix: (Units=1/GPa)
#
#
# Indices 1 2 3 4 5 6 
#
# 1 0.271304 -0.044754 -0.050616 0.000000 0.000000 0.000000
# 2 -0.044754 0.029637 0.015664 0.000000 0.000000 0.000000
# 3 -0.050616 0.015664 0.046692 0.000000 0.000000 0.000000
# 4 0.000000 0.000000 0.000000 0.038451 0.000000 0.000000
# 5 0.000000 0.000000 0.000000 0.000000 0.050837 0.000000
# 6 0.000000 0.000000 0.000000 0.000000 0.000000 0.052924
#
#
# Mechanical properties :
#
#
# Convention : Reuss Voigt Hill
#
# Bulk Modulus (GPa) = 5.31296 9.24515 7.27906
# Shear Modulus (GPa) = 7.02249 18.35554 12.68901
#
# Velocity S-wave (km/s) = 1.88755 3.05167 2.53727
# Velocity P-wave (km/s) = 2.72874 4.13611 3.50381
#
# Compressibility (1/GPa) = 0.18821906
#
# Stress axis : x y z
#
# Youngs Moduli (GPa) = 3.68591 33.74193 21.41692
#
# Poissons Ratio (x) = 1.51010 1.08404
# Poissons Ratio (y) = 0.16496 -0.33547
# Poissons Ratio (z) = 0.18657 -0.52852
#
# Static dielectric constant tensor:
#      x y z
#    x 1.661980 0.000000 0.000000 
#    y 0.000000 1.720310 0.000000 
#    z 0.000000 0.000000 1.693510 
# 
# From -- ./inp_files/16546.got.cif
#   From: 2010.05.17/outbox.ucp.g08.bks.cvg/sg36_9_cif.got.tgz:16546.got - 2010.06.11 10:37:26.
