data_PCOD9353636
_publ_section_title
;
Structure prediction by ZEFSAII (Michael W. Deem and Ramdas Pophale) SiO2 
 PCOD9353636
Probable space group: C C C 2
;
_chemical_formula_sum "Si O2"
_cell_formula_units_Z 48
_cell_length_a 19.863780
_cell_length_b 13.424570
_cell_length_c 8.674175
_cell_angle_alpha 90.000000
_cell_angle_beta 90.000000
_cell_angle_gamma 90.000000
_cell_volume 2313.078970
_symmetry_space_group_name_H-M "C C C 2"
_symmetry_group_IT_number 37
_symmetry_cell_setting 'orthorhombic'
loop_
_space_group_symop_operation_xyz
x,y,z
-x,-y,z
-x,y,1/2+z
x,-y,1/2+z
1/2+x,1/2+y,z
1/2-x,1/2-y,z
1/2-x,1/2+y,1/2+z
1/2+x,1/2-y,1/2+z
loop_
_atom_site_type_symbol
_atom_site_label
_atom_site_fract_x
_atom_site_fract_y
_atom_site_fract_z
Si Si1 0.650478 0.049197 0.912990
Si Si2 0.548282 0.700544 0.075038
Si Si3 0.336048 0.420226 0.930861
Si Si4 0.946256 0.916862 0.379423
Si Si5 0.440958 0.079072 0.143143
Si Si6 0.248173 0.457118 0.657067
O O1 0.597116 0.103773 0.803661
O O2 0.696944 0.995346 0.786982
O O3 0.703337 0.100805 0.030131
O O4 0.609065 0.972518 0.020064
O O5 0.565701 0.659769 0.243364
O O6 0.534535 0.817026 0.074439
O O7 0.612803 0.667716 0.973869
O O8 0.483396 0.640392 0.016343
O O9 0.380621 0.521191 0.922565
O O10 0.303425 0.403350 0.763116
O O11 0.282235 0.449971 0.063947
O O12 0.000000 0.000000 0.324281
O O13 0.500000 0.000000 0.173649
#
# Coordination Sequence:
#
# PCOD9353636 Si02
#       6
#     8   8   8   8   8   8
#     4   9  21  41  62  87 120 165 215 262 304 360
#     4  11  24  36  62  95 129 162 210 260 310 379
#     4  10  18  37  66  94 125 165 197 246 334 384
#     4  10  21  37  59  98 132 156 195 258 320 390
#     4  11  24  42  66  87 126 169 215 263 315 359
#     4   9  18  37  67  85 119 173 196 252 323 373
#
# _framework density 20.751562
#
# number of rings (size 3 to 8) (size 9 to 14) (size 15 to 20)
#    0.000    2.000    1.667    2.000    7.000    0.000 
#    0.000    7.500    3.667    0.000    0.000    0.000 
#    0.000    0.000    0.000    0.000    0.000    0.000 
#
# Total GULP energy -133798.109629 kJ/mol
# GULP energy per Si atom -5574.921235 kJ/mol
# Density = 2.070433 g / cm^3
# Si number density = 20.751562 Si / 1000 Ang^3
#
#
#
# Elastic Constant Matrix: (Units=GPa)
#
#
# Indices 1 2 3 4 5 6 
#
# 1 90.3310 25.6766 42.5390 0.0000 0.0000 0.0000
# 2 25.6766 78.6621 16.9868 0.0000 0.0000 0.0000
# 3 42.5390 16.9868 113.3635 0.0000 0.0000 0.0000
# 4 0.0000 0.0000 0.0000 245.9738 0.0000 0.0000
# 5 0.0000 0.0000 0.0000 0.0000 47.2360 0.0000
# 6 0.0000 0.0000 0.0000 0.0000 0.0000 5.5265
#
#
#
# Elastic Compliance Matrix: (Units=1/GPa)
#
#
# Indices 1 2 3 4 5 6 
#
# 1 0.014394 -0.003650 -0.004854 0.000000 0.000000 0.000000
# 2 -0.003650 0.014063 -0.000738 0.000000 0.000000 0.000000
# 3 -0.004854 -0.000738 0.010753 0.000000 0.000000 0.000000
# 4 0.000000 0.000000 0.000000 0.004065 0.000000 0.000000
# 5 0.000000 0.000000 0.000000 0.000000 0.021170 0.000000
# 6 0.000000 0.000000 0.000000 0.000000 0.000000 0.180947
#
#
# Mechanical properties :
#
#
# Convention : Reuss Voigt Hill
#
# Bulk Modulus (GPa) = 48.24753 50.30683 49.27718
# Shear Modulus (GPa) = 18.46477 72.89087 45.67782
#
# Velocity S-wave (km/s) = 2.98619 5.93311 4.69676
# Velocity P-wave (km/s) = 5.93214 8.43983 7.29455
#
# Compressibility (1/GPa) = 0.02072645
#
# Stress axis : x y z
#
# Youngs Moduli (GPa) = 69.47363 71.10672 92.99515
#
# Poissons Ratio (x) = 0.25955 0.45143
# Poissons Ratio (y) = 0.25359 0.06859
# Poissons Ratio (z) = 0.33725 0.05245
#
# Static dielectric constant tensor:
#      x y z
#    x 1.827700 0.000000 0.000000 
#    y 0.000000 1.518600 0.000000 
#    z 0.000000 0.000000 1.792370 
# 
# From -- ./inp_files/3559.got.cif
#   From: 2010.05.17/outbox.cif.g08.bks.cpg/sg37_2_cif.got.tgz:3559.got - 2010.06.03 17:53:42.
