data_PCOD9353355
_publ_section_title
;
Structure prediction by ZEFSAII (Michael W. Deem and Ramdas Pophale) SiO2 
 PCOD9353355
Probable space group: C M C 21
;
_chemical_formula_sum "Si O2"
_cell_formula_units_Z 32
_cell_length_a 9.000000
_cell_length_b 30.000000
_cell_length_c 12.000000
_cell_angle_alpha 90.000000
_cell_angle_beta 90.000000
_cell_angle_gamma 90.000000
_cell_volume 3240.000000
_symmetry_space_group_name_H-M "C M C 21"
_symmetry_group_IT_number 36
_symmetry_cell_setting 'orthorhombic'
loop_
_space_group_symop_operation_xyz
x,y,z
-x,-y,1/2+z
x,-y,1/2+z
-x,y,z
1/2+x,1/2+y,z
1/2-x,1/2-y,1/2+z
1/2+x,1/2-y,1/2+z
1/2-x,1/2+y,z
loop_
_atom_site_type_symbol
_atom_site_label
_atom_site_fract_x
_atom_site_fract_y
_atom_site_fract_z
Si Si1 0.670680 0.473341 0.796650
Si Si2 0.319175 0.835647 0.303404
Si Si3 0.177103 0.314722 0.056790
Si Si4 0.326299 0.064086 0.844008
Si Si5 0.828535 0.833710 0.685393
Si Si6 0.824006 0.387536 0.884214
Si Si7 0.335780 0.425732 0.559552
Si Si8 0.322213 0.225885 0.010131
O O1 0.500000 0.475710 0.832982
O O2 0.743475 0.521576 0.795897
O O3 0.754267 0.436404 0.871270
O O4 0.674421 0.453681 0.672249
O O5 0.500000 0.836942 0.306287
O O6 0.275393 0.815529 0.185143
O O7 0.269052 0.886975 0.309929
O O8 0.272705 0.805609 0.407692
O O9 0.000000 0.305861 0.050550
O O10 0.202012 0.362812 0.001013
O O11 0.263317 0.275692 0.994268
O O12 0.500000 0.061281 0.818533
O O13 0.294035 0.062527 0.975795
O O14 0.747686 0.854679 0.792087
O O15 0.827405 0.874517 0.597232
O O16 0.746485 0.793504 0.624279
O O17 0.000000 0.822672 0.711228
O O18 0.000000 0.390546 0.864457
O O19 0.500000 0.433454 0.508896
O O20 0.500000 0.224844 0.015923
#
# Coordination Sequence:
#
# PCOD9353355 Si02
#       8
#     8   8   8   8   8   8   8   8
#     4  10  22  39  59  87 123 162 205 249 305 367
#     4   9  21  41  61  86 122 159 197 249 308 361
#     4  10  23  42  61  87 125 164 200 248 308 366
#     4  11  21  36  61  89 118 157 202 251 305 361
#     4  10  20  36  60  85 115 154 196 250 309 356
#     4  10  21  38  61  89 121 158 207 255 301 361
#     4   9  19  36  56  81 113 152 195 247 303 356
#     4  11  22  38  61  90 119 154 204 251 299 364
#
# _framework density 9.8765429999999999
#
# number of rings (size 3 to 8) (size 9 to 14) (size 15 to 20)
#    0.000    2.000    1.250    2.625    1.750    4.500 
#    0.000    3.125    0.000    0.000    0.000    0.000 
#    0.000    0.000    0.000    0.000    0.000    0.000 
#
# Total GULP energy -178595.661679 kJ/mol
# GULP energy per Si atom -5581.114427 kJ/mol
# Density = 0.985406 g / cm^3
# Si number density = 9.876543 Si / 1000 Ang^3
#
#
#
# Elastic Constant Matrix: (Units=GPa)
#
#
# Indices 1 2 3 4 5 6 
#
# 1 66.8913 44.1264 20.8764 0.0000 0.0000 0.0000
# 2 44.1264 125.7839 27.7424 0.0000 0.0000 0.0000
# 3 20.8764 27.7424 47.0188 0.0000 0.0000 0.0000
# 4 0.0000 0.0000 0.0000 13.3147 0.0000 0.0000
# 5 0.0000 0.0000 0.0000 0.0000 5.8918 0.0000
# 6 0.0000 0.0000 0.0000 0.0000 0.0000 33.9440
#
#
#
# Elastic Compliance Matrix: (Units=1/GPa)
#
#
# Indices 1 2 3 4 5 6 
#
# 1 0.020672 -0.006010 -0.005632 0.000000 0.000000 0.000000
# 2 -0.006010 0.010887 -0.003755 0.000000 0.000000 0.000000
# 3 -0.005632 -0.003755 0.025985 0.000000 0.000000 0.000000
# 4 0.000000 0.000000 0.000000 0.075105 0.000000 0.000000
# 5 0.000000 0.000000 0.000000 0.000000 0.169726 0.000000
# 6 0.000000 0.000000 0.000000 0.000000 0.000000 0.029460
#
#
# Mechanical properties :
#
#
# Convention : Reuss Voigt Hill
#
# Bulk Modulus (GPa) = 37.38518 47.24269 42.31393
# Shear Modulus (GPa) = 13.45731 20.42670 16.94200
#
# Velocity S-wave (km/s) = 2.61296 3.21923 2.93181
# Velocity P-wave (km/s) = 5.29818 6.14707 5.73835
#
# Compressibility (1/GPa) = 0.02674857
#
# Stress axis : x y z
#
# Youngs Moduli (GPa) = 48.37490 91.85606 38.48444
#
# Poissons Ratio (x) = 0.55202 0.21676
# Poissons Ratio (y) = 0.29072 0.14451
# Poissons Ratio (z) = 0.27247 0.34493
#
# Static dielectric constant tensor:
#      x y z
#    x 1.687590 0.000000 0.000000 
#    y 0.000000 1.690550 0.000000 
#    z 0.000000 0.000000 1.698930 
# 
# From -- ./inp_files/7215.got.cif
#   From: 2010.05.17/outbox.ucp.g08.bks.cvg/sg36_4_cif.got.tgz:7215.got - 2010.06.11 10:37:26.
