data_PCOD9353017
_publ_section_title
;
Structure prediction by ZEFSAII (Michael W. Deem and Ramdas Pophale) SiO2 
 PCOD9353017
Probable space group: C M C 21
;
_chemical_formula_sum "Si O2"
_cell_formula_units_Z 36
_cell_length_a 9.854107
_cell_length_b 18.798667
_cell_length_c 7.752589
_cell_angle_alpha 90.000000
_cell_angle_beta 90.000000
_cell_angle_gamma 90.000000
_cell_volume 1436.121186
_symmetry_space_group_name_H-M "C M C 21"
_symmetry_group_IT_number 36
_symmetry_cell_setting 'orthorhombic'
loop_
_space_group_symop_operation_xyz
x,y,z
-x,-y,1/2+z
x,-y,1/2+z
-x,y,z
1/2+x,1/2+y,z
1/2-x,1/2-y,1/2+z
1/2+x,1/2-y,1/2+z
1/2-x,1/2+y,z
loop_
_atom_site_type_symbol
_atom_site_label
_atom_site_fract_x
_atom_site_fract_y
_atom_site_fract_z
Si Si1 0.785487 0.422278 0.745690
Si Si2 0.286086 0.156564 0.890179
Si Si3 0.500000 0.045080 0.729585
Si Si4 0.500000 0.743788 0.253966
Si Si5 0.500000 0.318827 0.215830
Si Si6 0.500000 0.175922 0.392336
Si Si7 0.500000 0.406300 0.859461
O O1 0.773045 0.368672 0.585880
O O2 0.641056 0.445936 0.822799
O O3 0.881529 0.485780 0.683776
O O4 0.872599 0.377661 0.885719
O O5 0.382560 0.100155 0.796739
O O6 0.366378 0.230554 0.858028
O O7 0.138620 0.160363 0.809337
O O8 0.500000 0.660269 0.229321
O O9 0.500000 0.780315 0.067485
O O10 0.500000 0.232077 0.235263
O O11 0.500000 0.363318 0.038811
#
# Coordination Sequence:
#
# PCOD9353017 Si02
#       7
#     8   8   4   4   4   4   4
#     4  11  24  43  67  94 128 168 212 260 312 374
#     4  11  24  43  67  94 128 168 212 260 312 374
#     4  10  24  44  68  90 120 160 208 260 314 372
#     4  11  22  40  66  96 132 169 209 256 315 378
#     4  12  25  41  64  96 131 166 211 262 317 373
#     4  11  22  40  66  96 132 169 209 256 315 378
#     4  12  25  41  64  96 131 166 211 262 317 373
#
# _framework density 25.067520999999999
#
# number of rings (size 3 to 8) (size 9 to 14) (size 15 to 20)
#    0.000    0.889    0.000    8.667    0.000   11.556 
#    0.000    0.000    0.000    0.000    0.000    0.000 
#    0.000    0.000    0.000    0.000    0.000    0.000 
#
# Total GULP energy -100365.247284 kJ/mol
# GULP energy per Si atom -5575.847071 kJ/mol
# Density = 2.501047 g / cm^3
# Si number density = 25.067521 Si / 1000 Ang^3
#
#
#
# Elastic Constant Matrix: (Units=GPa)
#
#
# Indices 1 2 3 4 5 6 
#
# 1 259.0933 28.5964 25.7968 0.0000 0.0000 0.0000
# 2 28.5964 40.3344 -12.8852 0.0000 0.0000 0.0000
# 3 25.7968 -12.8852 65.7383 0.0000 0.0000 0.0000
# 4 0.0000 0.0000 0.0000 7.0039 0.0000 0.0000
# 5 0.0000 0.0000 0.0000 0.0000 26.2696 0.0000
# 6 0.0000 0.0000 0.0000 0.0000 0.0000 -28.9869
#
#
#
# Elastic Compliance Matrix: (Units=1/GPa)
#
#
# Indices 1 2 3 4 5 6 
#
# 1 0.004566 -0.004064 -0.002588 0.000000 0.000000 0.000000
# 2 -0.004064 0.030066 0.007488 0.000000 0.000000 0.000000
# 3 -0.002588 0.007488 0.017695 0.000000 0.000000 0.000000
# 4 0.000000 0.000000 0.000000 0.142777 0.000000 0.000000
# 5 0.000000 0.000000 0.000000 0.000000 0.038067 0.000000
# 6 0.000000 0.000000 0.000000 0.000000 0.000000 -0.034498
#
#
# Mechanical properties :
#
#
# Convention : Reuss Voigt Hill
#
# Bulk Modulus (GPa) = 18.51900 49.79799 34.15850
# Shear Modulus (GPa) = 23.25572 22.43454 22.84513
#
# Velocity S-wave (km/s) = 3.04916 2.99484 3.02212
# Velocity P-wave (km/s) = 4.44974 5.64512 5.08270
#
# Compressibility (1/GPa) = 0.05399859
#
# Stress axis : x y z
#
# Youngs Moduli (GPa) = 219.01663 33.26004 56.51246
#
# Poissons Ratio (x) = 0.13517 0.14627
# Poissons Ratio (y) = 0.89008 -0.42316
# Poissons Ratio (z) = 0.56688 -0.24905
#
# Static dielectric constant tensor:
#      x y z
#    x 1.954330 0.000000 0.000000 
#    y 0.000000 2.030130 0.000000 
#    z 0.000000 0.000000 2.068100 
# 
# From -- ./inp_files/2381.got.cif
#   From: 2010.05.17/outbox.cif.g08.bks.cpg/sg36_2_cif.got.tgz:2381.got - 2010.06.03 17:41:39.
