data_PCOD9353991
_publ_section_title
;
Structure prediction by ZEFSAII (Michael W. Deem and Ramdas Pophale) SiO2 
 PCOD9353991
Probable space group: C C C 2
;
_chemical_formula_sum "Si O2"
_cell_formula_units_Z 48
_cell_length_a 12.916224
_cell_length_b 6.547714
_cell_length_c 24.603476
_cell_angle_alpha 90.000000
_cell_angle_beta 90.000000
_cell_angle_gamma 90.000000
_cell_volume 2080.758793
_symmetry_space_group_name_H-M "C C C 2"
_symmetry_group_IT_number 37
_symmetry_cell_setting 'orthorhombic'
loop_
_space_group_symop_operation_xyz
x,y,z
-x,-y,z
-x,y,1/2+z
x,-y,1/2+z
1/2+x,1/2+y,z
1/2-x,1/2-y,z
1/2-x,1/2+y,1/2+z
1/2+x,1/2-y,1/2+z
loop_
_atom_site_type_symbol
_atom_site_label
_atom_site_fract_x
_atom_site_fract_y
_atom_site_fract_z
Si Si1 0.111748 0.415825 0.191820
Si Si2 0.608066 0.379426 0.510472
Si Si3 0.860103 0.135222 0.790272
Si Si4 0.750000 0.750000 0.755663
Si Si5 0.750000 0.250000 0.412977
Si Si6 0.750000 0.250000 0.596456
Si Si7 0.641280 0.147999 0.893528
Si Si8 0.000000 0.500000 0.486129
O O1 0.097148 0.227610 0.234521
O O2 0.183036 0.588360 0.220731
O O3 0.167995 0.345392 0.137803
O O4 0.000000 0.500000 0.179726
O O5 0.500000 0.500000 0.511904
O O6 0.670218 0.369473 0.453369
O O7 0.691099 0.414170 0.557957
O O8 0.574018 0.144102 0.519422
O O9 0.750000 0.250000 0.795483
O O10 0.912274 0.226617 0.844504
O O11 0.832494 0.897182 0.786785
O O12 0.821041 0.414591 0.381581
O O13 0.750000 0.250000 0.907732
O O14 0.568084 0.136464 0.945273
#
# Coordination Sequence:
#
# PCOD9353991 Si02
#       8
#     8   8   8   4   4   4   8   4
#     4  11  24  43  68  95 137 172 226 283 330 407
#     4  10  22  42  66  94 135 170 225 281 337 407
#     4   9  20  39  62  95 133 174 224 274 321 408
#     4  10  20  45  68  89 144 179 220 277 338 386
#     4   9  20  39  62  94 132 178 214 280 330 396
#     4  11  24  46  64 103 134 169 232 283 342 406
#     4  10  20  35  64  91 131 172 224 264 334 395
#     4  10  22  40  64  96 132 172 220 284 332 408
#
# _framework density 23.06851
#
# number of rings (size 3 to 8) (size 9 to 14) (size 15 to 20)
#    0.000    2.000    2.500    1.000    2.333    8.000 
#    0.000    0.000   22.000    0.000    0.000    0.000 
#    0.000    0.000    0.000    0.000    0.000    0.000 
#
# Total GULP energy -133944.037066 kJ/mol
# GULP energy per Si atom -5581.001544 kJ/mol
# Density = 2.301600 g / cm^3
# Si number density = 23.068510 Si / 1000 Ang^3
#
#
#
# Elastic Constant Matrix: (Units=GPa)
#
#
# Indices 1 2 3 4 5 6 
#
# 1 115.7222 24.0007 42.0559 0.0000 0.0000 0.0000
# 2 24.0007 110.8554 57.3829 0.0000 0.0000 0.0000
# 3 42.0559 57.3829 103.2363 0.0000 0.0000 0.0000
# 4 0.0000 0.0000 0.0000 25.8826 0.0000 0.0000
# 5 0.0000 0.0000 0.0000 0.0000 10.6231 0.0000
# 6 0.0000 0.0000 0.0000 0.0000 0.0000 45.6112
#
#
#
# Elastic Compliance Matrix: (Units=1/GPa)
#
#
# Indices 1 2 3 4 5 6 
#
# 1 0.010144 -0.000080 -0.004088 0.000000 0.000000 0.000000
# 2 -0.000080 0.012665 -0.007007 0.000000 0.000000 0.000000
# 3 -0.004088 -0.007007 0.015247 0.000000 0.000000 0.000000
# 4 0.000000 0.000000 0.000000 0.038636 0.000000 0.000000
# 5 0.000000 0.000000 0.000000 0.000000 0.094135 0.000000
# 6 0.000000 0.000000 0.000000 0.000000 0.000000 0.021924
#
#
# Mechanical properties :
#
#
# Convention : Reuss Voigt Hill
#
# Bulk Modulus (GPa) = 63.67262 64.07700 63.87481
# Shear Modulus (GPa) = 22.69263 30.18169 26.43716
#
# Velocity S-wave (km/s) = 3.13981 3.62104 3.38898
# Velocity P-wave (km/s) = 6.38796 6.73199 6.56223
#
# Compressibility (1/GPa) = 0.01570534
#
# Stress axis : x y z
#
# Youngs Moduli (GPa) = 98.58468 78.95583 65.58836
#
# Poissons Ratio (x) = 0.00633 0.26810
# Poissons Ratio (y) = 0.00791 0.45959
# Poissons Ratio (z) = 0.40298 0.55326
#
# Static dielectric constant tensor:
#      x y z
#    x 1.851490 0.000000 0.000000 
#    y 0.000000 1.901580 0.000000 
#    z 0.000000 0.000000 1.940390 
# 
# From -- ./inp_files/19939.got.cif
#   From: 2010.05.17/outbox.cif.g08.bks.cpg/sg37_10_cif.got.tgz:19939.got - 2010.06.03 17:53:42.
