data_PCOD9353069
_publ_section_title
;
Structure prediction by ZEFSAII (Michael W. Deem and Ramdas Pophale) SiO2 
 PCOD9353069
Probable space group: C M C 21
;
_chemical_formula_sum "Si O2"
_cell_formula_units_Z 40
_cell_length_a 14.247227
_cell_length_b 34.482258
_cell_length_c 4.975508
_cell_angle_alpha 90.000000
_cell_angle_beta 90.000000
_cell_angle_gamma 90.000000
_cell_volume 2444.350441
_symmetry_space_group_name_H-M "C M C 21"
_symmetry_group_IT_number 36
_symmetry_cell_setting 'orthorhombic'
loop_
_space_group_symop_operation_xyz
x,y,z
-x,-y,1/2+z
x,-y,1/2+z
-x,y,z
1/2+x,1/2+y,z
1/2-x,1/2-y,1/2+z
1/2+x,1/2-y,1/2+z
1/2-x,1/2+y,z
loop_
_atom_site_type_symbol
_atom_site_label
_atom_site_fract_x
_atom_site_fract_y
_atom_site_fract_z
Si Si1 0.113878 0.476827 0.202550
Si Si2 0.386359 0.892903 0.973985
Si Si3 0.208791 0.773625 0.554153
Si Si4 0.330713 0.153908 0.992584
Si Si5 0.000000 0.705880 0.203859
Si Si6 0.500000 0.745445 0.203211
O O1 0.144011 0.489322 0.498132
O O2 0.140368 0.434953 0.090029
O O3 0.000000 0.476300 0.207890
O O4 0.500000 0.892476 0.928383
O O5 0.359134 0.861741 0.201525
O O6 0.332829 0.881786 0.701115
O O7 0.235046 0.745886 0.303264
O O8 0.242741 0.817221 0.492074
O O9 0.098676 0.773608 0.624639
O O10 0.411330 0.181350 0.113561
O O11 0.000000 0.715789 0.517042
O O12 0.000000 0.744129 0.017646
#
# Coordination Sequence:
#
# PCOD9353069 Si02
#       6
#     8   8   8   8   4   4
#     4   9  17  29  43  62  89 123 157 183 219 278
#     4  11  20  30  47  68  94 125 157 196 236 273
#     4  12  23  35  52  70  93 128 165 206 252 288
#     4  12  21  31  46  71  92 121 162 206 238 276
#     4  12  20  32  54  66  92 127 166 207 250 280
#     4  12  22  38  50  70  92 125 168 211 248 292
#
# _framework density 16.364267000000002
#
# number of rings (size 3 to 8) (size 9 to 14) (size 15 to 20)
#    0.000    0.800    6.000    3.600    0.000    3.200 
#    0.000    0.000    0.000    0.000    0.000    0.000 
#    0.000    0.000    0.000   18.000    0.000    0.000 
#
# Total GULP energy -111631.168077 kJ/mol
# GULP energy per Si atom -5581.558404 kJ/mol
# Density = 1.632702 g / cm^3
# Si number density = 16.364267 Si / 1000 Ang^3
#
#
#
# Elastic Constant Matrix: (Units=GPa)
#
#
# Indices 1 2 3 4 5 6 
#
# 1 50.9263 17.7527 -12.7758 0.0000 0.0000 0.0000
# 2 17.7527 51.3376 -5.1092 0.0000 0.0000 0.0000
# 3 -12.7758 -5.1092 60.4290 0.0000 0.0000 0.0000
# 4 0.0000 0.0000 0.0000 27.0806 0.0000 0.0000
# 5 0.0000 0.0000 0.0000 0.0000 11.5533 0.0000
# 6 0.0000 0.0000 0.0000 0.0000 0.0000 11.7893
#
#
#
# Elastic Compliance Matrix: (Units=1/GPa)
#
#
# Indices 1 2 3 4 5 6 
#
# 1 0.023384 -0.007659 0.004296 0.000000 0.000000 0.000000
# 2 -0.007659 0.022153 0.000254 0.000000 0.000000 0.000000
# 3 0.004296 0.000254 0.017478 0.000000 0.000000 0.000000
# 4 0.000000 0.000000 0.000000 0.036927 0.000000 0.000000
# 5 0.000000 0.000000 0.000000 0.000000 0.086555 0.000000
# 6 0.000000 0.000000 0.000000 0.000000 0.000000 0.084823
#
#
# Mechanical properties :
#
#
# Convention : Reuss Voigt Hill
#
# Bulk Modulus (GPa) = 17.60649 18.04759 17.82704
# Shear Modulus (GPa) = 16.86516 20.93964 18.90240
#
# Velocity S-wave (km/s) = 3.21379 3.58102 3.40237
# Velocity P-wave (km/s) = 4.95517 5.30574 5.13345
#
# Compressibility (1/GPa) = 0.05679722
#
# Stress axis : x y z
#
# Youngs Moduli (GPa) = 42.76469 45.14157 57.21449
#
# Poissons Ratio (x) = 0.34572 -0.24581
# Poissons Ratio (y) = 0.32752 -0.01452
# Poissons Ratio (z) = -0.18373 -0.01146
#
# Static dielectric constant tensor:
#      x y z
#    x 1.540230 0.000000 0.000000 
#    y 0.000000 1.591870 0.000000 
#    z 0.000000 0.000000 1.589650 
# 
# From -- ./inp_files/788.got.cif
#   From: 2010.05.17/outbox.cif.g08.bks.cpg/sg36_1_cif.got.tgz:788.got - 2010.06.03 17:41:39.
