data_PCOD9353031
_publ_section_title
;
Structure prediction by ZEFSAII (Michael W. Deem and Ramdas Pophale) SiO2 
 PCOD9353031
Probable space group: C M C 21
;
_chemical_formula_sum "Si O2"
_cell_formula_units_Z 48
_cell_length_a 23.093269
_cell_length_b 11.096099
_cell_length_c 8.691199
_cell_angle_alpha 90.000000
_cell_angle_beta 90.000000
_cell_angle_gamma 90.000000
_cell_volume 2227.078018
_symmetry_space_group_name_H-M "C M C 21"
_symmetry_group_IT_number 36
_symmetry_cell_setting 'orthorhombic'
loop_
_space_group_symop_operation_xyz
x,y,z
-x,-y,1/2+z
x,-y,1/2+z
-x,y,z
1/2+x,1/2+y,z
1/2-x,1/2-y,1/2+z
1/2+x,1/2-y,1/2+z
1/2-x,1/2+y,z
loop_
_atom_site_type_symbol
_atom_site_label
_atom_site_fract_x
_atom_site_fract_y
_atom_site_fract_z
Si Si1 0.000000 0.851293 0.686151
Si Si2 0.808013 0.354214 0.545445
Si Si3 0.500000 0.617194 0.554003
Si Si4 0.672535 0.628505 0.997691
Si Si5 0.094859 0.329249 0.071141
Si Si6 0.625245 0.021723 0.305901
Si Si7 0.369422 0.621391 0.644628
O O1 0.946753 0.774061 0.626881
O O2 0.000000 0.866349 0.869937
O O3 0.000000 0.978147 0.602694
O O4 0.741587 0.376100 0.505621
O O5 0.825274 0.408396 0.711680
O O6 0.845705 0.430002 0.424931
O O7 0.829096 0.216162 0.552605
O O8 0.436910 0.659087 0.617522
O O9 0.647640 0.625918 0.824163
O O10 0.655910 0.758896 0.069296
O O11 0.644383 0.513430 0.083994
O O12 0.090831 0.440317 0.186444
O O13 0.087313 0.383941 0.901801
#
# Coordination Sequence:
#
# PCOD9353031 Si02
#       7
#     4   8   4   8   8   8   8
#     4  12  26  46  74 107 149 195 247 315 357 456
#     4  11  25  44  71 103 146 189 248 301 375 441
#     4  12  26  48  74 111 153 193 253 307 377 442
#     4  12  27  42  70 109 145 192 247 308 375 439
#     4  11  25  45  69 102 142 189 249 298 371 433
#     4  10  24  46  67 100 140 193 235 304 361 444
#     4  12  27  46  73 111 146 202 245 312 375 440
#
# _framework density 21.552904000000002
#
# number of rings (size 3 to 8) (size 9 to 14) (size 15 to 20)
#    0.000    0.667    3.333    3.000    9.333    0.667 
#    0.000    3.333    0.000    0.000    0.000    0.000 
#    0.000    0.000    0.000    0.000    0.000    0.000 
#
# Total GULP energy -134141.841035 kJ/mol
# GULP energy per Si atom -5589.243376 kJ/mol
# Density = 2.150385 g / cm^3
# Si number density = 21.552904 Si / 1000 Ang^3
#
#
#
# Elastic Constant Matrix: (Units=GPa)
#
#
# Indices 1 2 3 4 5 6 
#
# 1 89.9497 1.9905 40.7939 0.0000 0.0000 0.0000
# 2 1.9905 88.5857 38.9583 0.0000 0.0000 0.0000
# 3 40.7939 38.9583 133.4741 0.0000 0.0000 0.0000
# 4 0.0000 0.0000 0.0000 -720.8929 0.0000 0.0000
# 5 0.0000 0.0000 0.0000 0.0000 25.9751 0.0000
# 6 0.0000 0.0000 0.0000 0.0000 0.0000 19.0562
#
#
#
# Elastic Compliance Matrix: (Units=1/GPa)
#
#
# Indices 1 2 3 4 5 6 
#
# 1 0.013122 0.001685 -0.004502 0.000000 0.000000 0.000000
# 2 0.001685 0.013167 -0.004358 0.000000 0.000000 0.000000
# 3 -0.004502 -0.004358 0.010140 0.000000 0.000000 0.000000
# 4 0.000000 0.000000 0.000000 -0.001387 0.000000 0.000000
# 5 0.000000 0.000000 0.000000 0.000000 0.038498 0.000000
# 6 0.000000 0.000000 0.000000 0.000000 0.000000 0.052476
#
#
# Mechanical properties :
#
#
# Convention : Reuss Voigt Hill
#
# Bulk Modulus (GPa) = 45.29274 52.83276 49.06275
# Shear Modulus (GPa) = 33.84610 -119.82119 -42.98755
#
# Velocity S-wave (km/s) = 3.96709 -7.46423 -4.47084
# Velocity P-wave (km/s) = 6.48414 7.05124 1.95907
#
# Compressibility (1/GPa) = 0.02207859
#
# Stress axis : x y z
#
# Youngs Moduli (GPa) = 76.20829 75.94546 98.61687
#
# Poissons Ratio (x) = -0.12798 0.44401
# Poissons Ratio (y) = -0.12843 0.42980
# Poissons Ratio (z) = 0.34312 0.33100
#
# Static dielectric constant tensor:
#      x y z
#    x 1.949710 0.000000 0.000000 
#    y 0.000000 3.195960 0.000000 
#    z 0.000000 0.000000 1.788640 
# 
# From -- ./inp_files/5568.got.cif
#   From: 2010.05.17/outbox.cif.g08.bks.cpg/sg36_3_cif.got.tgz:5568.got - 2010.06.03 17:41:39.
