data_PCOD9353741
_publ_section_title
;
Structure prediction by ZEFSAII (Michael W. Deem and Ramdas Pophale) SiO2 
 PCOD9353741
Probable space group: C C C 2
;
_chemical_formula_sum "Si O2"
_cell_formula_units_Z 64
_cell_length_a 8.812817
_cell_length_b 16.159533
_cell_length_c 22.009017
_cell_angle_alpha 90.000000
_cell_angle_beta 90.000000
_cell_angle_gamma 90.000000
_cell_volume 3134.326277
_symmetry_space_group_name_H-M "C C C 2"
_symmetry_group_IT_number 37
_symmetry_cell_setting 'orthorhombic'
loop_
_space_group_symop_operation_xyz
x,y,z
-x,-y,z
-x,y,1/2+z
x,-y,1/2+z
1/2+x,1/2+y,z
1/2-x,1/2-y,z
1/2-x,1/2+y,1/2+z
1/2+x,1/2-y,1/2+z
loop_
_atom_site_type_symbol
_atom_site_label
_atom_site_fract_x
_atom_site_fract_y
_atom_site_fract_z
Si Si1 0.583962 0.584904 0.904070
Si Si2 0.828737 0.666888 0.163817
Si Si3 0.591293 0.248937 0.909666
Si Si4 0.404968 0.129511 0.297167
Si Si5 0.822285 0.009144 0.145590
Si Si6 0.057600 0.590649 0.091562
Si Si7 0.229303 0.549597 0.284897
Si Si8 0.336400 0.166326 0.989356
O O1 0.500000 0.500000 0.919968
O O2 0.462354 0.658097 0.900677
O O3 0.654479 0.578663 0.836372
O O4 0.713064 0.609692 0.953955
O O5 0.750000 0.750000 0.143771
O O6 0.834375 0.663262 0.235688
O O7 0.741113 0.584958 0.141299
O O8 0.000345 0.657521 0.139949
O O9 0.750000 0.250000 0.945654
O O10 0.618430 0.194676 0.849960
O O11 0.452218 0.203548 0.941028
O O12 0.582351 0.108646 0.286721
O O13 0.326401 0.040818 0.307278
O O14 0.736695 0.071669 0.098446
O O15 0.788217 0.039491 0.215371
O O16 0.000000 0.000000 0.135159
O O17 0.000000 0.500000 0.112235
O O18 0.952173 0.616424 0.034045
O O19 0.250000 0.250000 0.013412
#
# Coordination Sequence:
#
# PCOD9353741 Si02
#       8
#     8   8   8   8   8   8   8   8
#     4  11  23  40  63  94 127 162 206 258 318 379
#     4  10  20  37  60  87 120 161 205 249 304 370
#     4  11  23  40  60  90 128 165 204 253 308 375
#     4  10  19  34  60  91 124 165 205 245 305 378
#     4  10  21  39  61  91 126 161 202 254 309 372
#     4  10  21  40  64  86 116 161 209 256 313 367
#     4  10  19  35  61  93 129 163 202 249 310 383
#     4  10  23  43  64  88 119 161 209 268 316 367
#
# _framework density 20.419062
#
# number of rings (size 3 to 8) (size 9 to 14) (size 15 to 20)
#    0.000    1.750    2.500    1.875    0.000    5.000 
#    0.000    9.375    0.000    1.500    0.000    0.000 
#    0.000    0.000    0.000    0.000    0.000    0.000 
#
# Total GULP energy -178317.772954 kJ/mol
# GULP energy per Si atom -5572.430405 kJ/mol
# Density = 2.037259 g / cm^3
# Si number density = 20.419062 Si / 1000 Ang^3
#
#
#
# Elastic Constant Matrix: (Units=GPa)
#
#
# Indices 1 2 3 4 5 6 
#
# 1 147.8289 65.7410 25.5584 0.0000 0.0000 0.0000
# 2 65.7410 112.9459 39.3238 0.0000 0.0000 0.0000
# 3 25.5584 39.3238 53.2476 0.0000 0.0000 0.0000
# 4 0.0000 0.0000 0.0000 -470.7548 0.0000 0.0000
# 5 0.0000 0.0000 0.0000 0.0000 -3.8831 0.0000
# 6 0.0000 0.0000 0.0000 0.0000 0.0000 35.3010
#
#
#
# Elastic Compliance Matrix: (Units=1/GPa)
#
#
# Indices 1 2 3 4 5 6 
#
# 1 0.009142 -0.005106 -0.000617 0.000000 0.000000 0.000000
# 2 -0.005106 0.014770 -0.008457 0.000000 0.000000 0.000000
# 3 -0.000617 -0.008457 0.025322 0.000000 0.000000 0.000000
# 4 0.000000 0.000000 0.000000 -0.002124 0.000000 0.000000
# 5 0.000000 0.000000 0.000000 0.000000 -0.257524 0.000000
# 6 0.000000 0.000000 0.000000 0.000000 0.000000 0.028328
#
#
# Mechanical properties :
#
#
# Convention : Reuss Voigt Hill
#
# Bulk Modulus (GPa) = 47.90748 63.91875 55.91311
# Shear Modulus (GPa) = -34.06771 -75.64077 -54.85424
#
# Velocity S-wave (km/s) = -4.08907 -6.09300 -5.18869
# Velocity P-wave (km/s) = 1.10412 4.25771 2.90766
#
# Compressibility (1/GPa) = 0.02087357
#
# Stress axis : x y z
#
# Youngs Moduli (GPa) = 109.38368 67.70252 39.49134
#
# Poissons Ratio (x) = 0.34572 0.02437
# Poissons Ratio (y) = 0.55856 0.33398
# Poissons Ratio (z) = 0.06749 0.57257
#
# Static dielectric constant tensor:
#      x y z
#    x 1.816550 0.000000 0.000000 
#    y 0.000000 1.806900 0.000000 
#    z 0.000000 0.000000 1.754970 
# 
# From -- ./inp_files/18512.got.cif
#   From: 2010.05.17/outbox.cif.g08.bks.cpg/sg37_10_cif.got.tgz:18512.got - 2010.06.03 17:53:42.
