data_PCOD9353537
_publ_section_title
;
Structure prediction by ZEFSAII (Michael W. Deem and Ramdas Pophale) SiO2 
 PCOD9353537
Probable space group: C C C 2
;
_chemical_formula_sum "Si O2"
_cell_formula_units_Z 48
_cell_length_a 16.212782
_cell_length_b 19.798697
_cell_length_c 7.466552
_cell_angle_alpha 90.000000
_cell_angle_beta 90.000000
_cell_angle_gamma 90.000000
_cell_volume 2396.703149
_symmetry_space_group_name_H-M "C C C 2"
_symmetry_group_IT_number 37
_symmetry_cell_setting 'orthorhombic'
loop_
_space_group_symop_operation_xyz
x,y,z
-x,-y,z
-x,y,1/2+z
x,-y,1/2+z
1/2+x,1/2+y,z
1/2-x,1/2-y,z
1/2-x,1/2+y,1/2+z
1/2+x,1/2-y,1/2+z
loop_
_atom_site_type_symbol
_atom_site_label
_atom_site_fract_x
_atom_site_fract_y
_atom_site_fract_z
Si Si1 0.799339 0.179013 0.575680
Si Si2 0.383215 0.128127 0.461237
Si Si3 0.045449 0.570497 0.603760
Si Si4 0.577710 0.269601 0.301812
Si Si5 0.664258 0.121024 0.330289
Si Si6 0.112412 0.219552 0.401404
O O1 0.750000 0.250000 0.571633
O O2 0.881528 0.188197 0.459576
O O3 0.741442 0.129045 0.462995
O O4 0.831122 0.172023 0.778847
O O5 0.473850 0.125408 0.558924
O O6 0.401345 0.089228 0.277546
O O7 0.324504 0.102366 0.621533
O O8 0.355678 0.202931 0.405588
O O9 0.102852 0.570627 0.430084
O O10 0.000000 0.500000 0.623950
O O11 0.618661 0.194829 0.321849
O O12 0.479588 0.271492 0.321144
O O13 0.604691 0.298326 0.109441
#
# Coordination Sequence:
#
# PCOD9353537 Si02
#       6
#     8   8   8   8   8   8
#     4  10  21  32  47  74 102 136 187 230 282 329
#     4  11  20  33  52  73 106 145 192 236 272 329
#     4  12  22  33  53  78 105 149 204 233 274 327
#     4  10  18  30  51  73  96 142 183 227 265 338
#     4  10  22  35  49  72 111 142 188 240 286 328
#     4  11  18  31  53  71 101 140 189 228 272 332
#
# _framework density 20.027512999999999
#
# number of rings (size 3 to 8) (size 9 to 14) (size 15 to 20)
#    0.000    1.333    5.000    3.500    0.000    5.333 
#    0.000    0.000    0.000    0.000    0.000    0.000 
#    0.000    0.000    0.000    4.500    1.667    0.333 
#
# Total GULP energy -133896.037840 kJ/mol
# GULP energy per Si atom -5579.001577 kJ/mol
# Density = 1.998193 g / cm^3
# Si number density = 20.027513 Si / 1000 Ang^3
#
#
#
# Elastic Constant Matrix: (Units=GPa)
#
#
# Indices 1 2 3 4 5 6 
#
# 1 57.6834 -0.1053 35.9836 0.0000 0.0000 0.0000
# 2 -0.1053 16.3198 19.5027 0.0000 0.0000 0.0000
# 3 35.9836 19.5027 167.9489 0.0000 0.0000 0.0000
# 4 0.0000 0.0000 0.0000 17.0807 0.0000 0.0000
# 5 0.0000 0.0000 0.0000 0.0000 32.3643 0.0000
# 6 0.0000 0.0000 0.0000 0.0000 0.0000 8.3716
#
#
#
# Elastic Compliance Matrix: (Units=1/GPa)
#
#
# Indices 1 2 3 4 5 6 
#
# 1 0.020547 0.006263 -0.005130 0.000000 0.000000 0.000000
# 2 0.006263 0.073057 -0.009825 0.000000 0.000000 0.000000
# 3 -0.005130 -0.009825 0.008194 0.000000 0.000000 0.000000
# 4 0.000000 0.000000 0.000000 0.058546 0.000000 0.000000
# 5 0.000000 0.000000 0.000000 0.000000 0.030898 0.000000
# 6 0.000000 0.000000 0.000000 0.000000 0.000000 0.119452
#
#
# Mechanical properties :
#
#
# Convention : Reuss Voigt Hill
#
# Bulk Modulus (GPa) = 11.84634 39.19044 25.51839
# Shear Modulus (GPa) = 14.03637 24.00139 19.01888
#
# Velocity S-wave (km/s) = 2.65024 3.46558 3.08496
# Velocity P-wave (km/s) = 3.91061 5.96862 5.04566
#
# Compressibility (1/GPa) = 0.08441423
#
# Stress axis : x y z
#
# Youngs Moduli (GPa) = 48.66816 13.68785 122.03805
#
# Poissons Ratio (x) = -0.08572 0.62600
# Poissons Ratio (y) = -0.30479 1.19907
# Poissons Ratio (z) = 0.24965 0.13449
#
# Static dielectric constant tensor:
#      x y z
#    x 1.757160 0.000000 0.000000 
#    y 0.000000 1.705290 0.000000 
#    z 0.000000 0.000000 1.784740 
# 
# From -- ./inp_files/4108.got.cif
#   From: 2010.05.17/outbox.cif.g08.bks.cpg/sg37_3_cif.got.tgz:4108.got - 2010.06.03 17:53:42.
