data_PCOD9353101
_publ_section_title
;
Structure prediction by ZEFSAII (Michael W. Deem and Ramdas Pophale) SiO2 
 PCOD9353101
Probable space group: C M C 21
;
_chemical_formula_sum "Si O2"
_cell_formula_units_Z 64
_cell_length_a 22.285868
_cell_length_b 17.331279
_cell_length_c 9.496931
_cell_angle_alpha 90.000000
_cell_angle_beta 90.000000
_cell_angle_gamma 90.000000
_cell_volume 3668.119284
_symmetry_space_group_name_H-M "C M C 21"
_symmetry_group_IT_number 36
_symmetry_cell_setting 'orthorhombic'
loop_
_space_group_symop_operation_xyz
x,y,z
-x,-y,1/2+z
x,-y,1/2+z
-x,y,z
1/2+x,1/2+y,z
1/2-x,1/2-y,1/2+z
1/2+x,1/2-y,1/2+z
1/2-x,1/2+y,z
loop_
_atom_site_type_symbol
_atom_site_label
_atom_site_fract_x
_atom_site_fract_y
_atom_site_fract_z
Si Si1 0.155547 0.180058 0.274760
Si Si2 0.277968 0.102597 0.168744
Si Si3 0.630252 0.563170 0.504228
Si Si4 0.737377 0.183539 0.877605
Si Si5 0.429117 0.567044 0.810583
Si Si6 0.429443 0.288297 0.513551
Si Si7 0.331901 0.818722 0.924427
Si Si8 0.759249 0.569948 0.627615
O O1 0.211323 0.126838 0.223154
O O2 0.128557 0.141729 0.414479
O O3 0.185386 0.262161 0.312820
O O4 0.106561 0.185240 0.152523
O O5 0.324027 0.146396 0.269928
O O6 0.285473 0.011141 0.177750
O O7 0.283191 0.134356 0.011111
O O8 0.604316 0.496733 0.404561
O O9 0.595858 0.567202 0.652247
O O10 0.699894 0.549423 0.539870
O O11 0.789018 0.242742 0.927816
O O12 0.758879 0.125279 0.756824
O O13 0.500000 0.549512 0.807692
O O14 0.420931 0.648160 0.890905
O O15 0.500000 0.280971 0.540927
O O16 0.397434 0.209863 0.464511
O O17 0.304175 0.880982 0.031058
#
# Coordination Sequence:
#
# PCOD9353101 Si02
#       8
#     8   8   8   8   8   8   8   8
#     4  11  23  39  56  92 122 167 200 252 307 375
#     4  11  22  35  59  90 127 154 193 259 319 372
#     4  12  24  37  61  90 125 166 209 248 309 363
#     4  11  21  36  59  85 130 156 197 253 319 368
#     4  11  25  41  61  86 125 171 213 253 295 370
#     4  11  23  42  64  85 120 169 213 254 302 378
#     4  11  21  38  59  88 119 158 203 252 318 364
#     4  12  22  36  57  94 123 157 198 253 317 378
#
# _framework density 17.447633
#
# number of rings (size 3 to 8) (size 9 to 14) (size 15 to 20)
#    0.000    0.750    5.000    4.875    3.500    2.000 
#    0.000    0.000    0.000    0.750    0.000    0.000 
#    0.000    0.000    0.000    0.000    0.000    0.000 
#
# Total GULP energy -178896.659863 kJ/mol
# GULP energy per Si atom -5590.520621 kJ/mol
# Density = 1.740792 g / cm^3
# Si number density = 17.447633 Si / 1000 Ang^3
#
#
#
# Elastic Constant Matrix: (Units=GPa)
#
#
# Indices 1 2 3 4 5 6 
#
# 1 61.7613 15.2165 31.3664 0.0000 0.0000 0.0000
# 2 15.2165 76.3178 21.5685 0.0000 0.0000 0.0000
# 3 31.3664 21.5685 108.1273 0.0000 0.0000 0.0000
# 4 0.0000 0.0000 0.0000 34.8523 0.0000 0.0000
# 5 0.0000 0.0000 0.0000 0.0000 23.4634 0.0000
# 6 0.0000 0.0000 0.0000 0.0000 0.0000 22.0257
#
#
#
# Elastic Compliance Matrix: (Units=1/GPa)
#
#
# Indices 1 2 3 4 5 6 
#
# 1 0.019400 -0.002414 -0.005146 0.000000 0.000000 0.000000
# 2 -0.002414 0.014186 -0.002130 0.000000 0.000000 0.000000
# 3 -0.005146 -0.002130 0.011166 0.000000 0.000000 0.000000
# 4 0.000000 0.000000 0.000000 0.028693 0.000000 0.000000
# 5 0.000000 0.000000 0.000000 0.000000 0.042620 0.000000
# 6 0.000000 0.000000 0.000000 0.000000 0.000000 0.045402
#
#
# Mechanical properties :
#
#
# Convention : Reuss Voigt Hill
#
# Bulk Modulus (GPa) = 39.41180 42.50100 40.95640
# Shear Modulus (GPa) = 26.41285 27.93859 27.17572
#
# Velocity S-wave (km/s) = 3.89502 4.00594 3.95087
# Velocity P-wave (km/s) = 6.54721 6.76822 6.65863
#
# Compressibility (1/GPa) = 0.02537311
#
# Stress axis : x y z
#
# Youngs Moduli (GPa) = 51.54756 70.49105 89.55769
#
# Poissons Ratio (x) = 0.17013 0.46088
# Poissons Ratio (y) = 0.12441 0.19072
# Poissons Ratio (z) = 0.26527 0.15012
#
# Static dielectric constant tensor:
#      x y z
#    x 1.578420 0.000000 0.000000 
#    y 0.000000 1.597600 0.000000 
#    z 0.000000 0.000000 1.610290 
# 
# From -- ./inp_files/5325.got.cif
#   From: 2010.05.17/outbox.cif.g08.bks.cpg/sg36_3_cif.got.tgz:5325.got - 2010.06.03 17:41:39.
