data_PCOD9353314
_publ_section_title
;
Structure prediction by ZEFSAII (Michael W. Deem and Ramdas Pophale) SiO2 
 PCOD9353314
Probable space group: C M C 21
;
_chemical_formula_sum "Si O2"
_cell_formula_units_Z 32
_cell_length_a 9.000000
_cell_length_b 21.000000
_cell_length_c 18.000000
_cell_angle_alpha 90.000000
_cell_angle_beta 90.000000
_cell_angle_gamma 90.000000
_cell_volume 3402.000000
_symmetry_space_group_name_H-M "C M C 21"
_symmetry_group_IT_number 36
_symmetry_cell_setting 'orthorhombic'
loop_
_space_group_symop_operation_xyz
x,y,z
-x,-y,1/2+z
x,-y,1/2+z
-x,y,z
1/2+x,1/2+y,z
1/2-x,1/2-y,1/2+z
1/2+x,1/2-y,1/2+z
1/2-x,1/2+y,z
loop_
_atom_site_type_symbol
_atom_site_label
_atom_site_fract_x
_atom_site_fract_y
_atom_site_fract_z
Si Si1 0.178703 0.452210 0.494370
Si Si2 0.174693 0.997390 0.247107
Si Si3 0.179157 0.056348 0.402266
Si Si4 0.681158 0.300029 0.856811
Si Si5 0.174843 0.366166 0.219523
Si Si6 0.175371 0.111061 0.133767
Si Si7 0.678879 0.234000 0.196937
Si Si8 0.674734 0.835667 0.394760
O O1 0.246284 0.519709 0.470216
O O2 0.238195 0.429664 0.572984
O O3 0.236595 0.394662 0.440969
O O4 0.000000 0.455752 0.491412
O O5 0.226122 0.014684 0.330245
O O6 0.185824 0.065192 0.205551
O O7 0.000000 0.980095 0.249087
O O8 0.259719 0.937468 0.210909
O O9 0.217851 0.130731 0.390112
O O10 0.000000 0.053355 0.407621
O O11 0.500000 0.298064 0.845708
O O12 0.759961 0.288462 0.777788
O O13 0.725955 0.237483 0.904758
O O14 0.259620 0.305789 0.183065
O O15 0.189753 0.351982 0.307866
O O16 0.000000 0.364612 0.200611
O O17 0.252519 0.179562 0.143996
O O18 0.000000 0.118991 0.117201
O O19 0.500000 0.233839 0.195025
O O20 0.500000 0.834308 0.412777
#
# Coordination Sequence:
#
# PCOD9353314 Si02
#       8
#     8   8   8   8   8   8   8   8
#     4  11  22  37  55  83 116 151 194 242 289 345
#     4  10  20  35  57  85 114 145 193 243 285 338
#     4  10  19  34  57  84 113 148 189 236 288 346
#     4   9  17  34  57  82 111 147 188 231 283 338
#     4  10  19  34  57  84 114 147 183 229 289 342
#     4  11  23  41  59  80 113 158 198 238 291 351
#     4  11  21  34  55  85 115 146 187 237 285 337
#     4   8  16  31  53  79 108 142 182 226 274 331
#
# _framework density 9.4062319999999993
#
# number of rings (size 3 to 8) (size 9 to 14) (size 15 to 20)
#    0.000    2.000    2.500    3.000    0.000    1.500 
#    0.000    1.875    0.000    6.000    0.000    0.000 
#    0.000    0.000    0.000    0.000    0.000    0.000 
#
# Total GULP energy -178390.057705 kJ/mol
# GULP energy per Si atom -5574.689303 kJ/mol
# Density = 0.938482 g / cm^3
# Si number density = 9.406232 Si / 1000 Ang^3
#
#
#
# Elastic Constant Matrix: (Units=GPa)
#
#
# Indices 1 2 3 4 5 6 
#
# 1 56.9239 25.4631 -9.8824 0.0000 0.0000 0.0000
# 2 25.4631 96.2243 -15.7332 0.0000 0.0000 0.0000
# 3 -9.8824 -15.7332 0.0603 0.0000 0.0000 0.0000
# 4 0.0000 0.0000 0.0000 15.3823 0.0000 0.0000
# 5 0.0000 0.0000 0.0000 0.0000 17.7553 0.0000
# 6 0.0000 0.0000 0.0000 0.0000 0.0000 34.9063
#
#
#
# Elastic Compliance Matrix: (Units=1/GPa)
#
#
# Indices 1 2 3 4 5 6 
#
# 1 0.015821 -0.010076 -0.036018 0.000000 0.000000 0.000000
# 2 -0.010076 0.006167 -0.042147 0.000000 0.000000 0.000000
# 3 -0.036018 -0.042147 -0.316065 0.000000 0.000000 0.000000
# 4 0.000000 0.000000 0.000000 0.065010 0.000000 0.000000
# 5 0.000000 0.000000 0.000000 0.000000 0.056321 0.000000
# 6 0.000000 0.000000 0.000000 0.000000 0.000000 0.028648
#
#
# Mechanical properties :
#
#
# Convention : Reuss Voigt Hill
#
# Bulk Modulus (GPa) = -2.12514 16.98928 7.43207
# Shear Modulus (GPa) = -40.17082 23.83284 -8.16899
#
# Velocity S-wave (km/s) = -4.62598 3.56317 -2.08609
# Velocity P-wave (km/s) = 5.44656 5.09693 1.35763
#
# Compressibility (1/GPa) = -0.47055818
#
# Stress axis : x y z
#
# Youngs Moduli (GPa) = 63.20515 162.14284 -3.16390
#
# Poissons Ratio (x) = 1.63372 -0.11396
# Poissons Ratio (y) = 0.63684 -0.13335
# Poissons Ratio (z) = 2.27651 6.83386
#
# Static dielectric constant tensor:
#      x y z
#    x 1.629440 0.000000 0.000000 
#    y 0.000000 1.670220 0.000000 
#    z 0.000000 0.000000 1.680910 
# 
# From -- ./inp_files/13961.got.cif
#   From: 2010.05.17/outbox.ucp.g08.bks.cvg/sg36_7_cif.got.tgz:13961.got - 2010.06.11 10:37:26.
