data_PCOD9353915
_publ_section_title
;
Structure prediction by ZEFSAII (Michael W. Deem and Ramdas Pophale) SiO2 
 PCOD9353915
Probable space group: C C C 2
;
_chemical_formula_sum "Si O2"
_cell_formula_units_Z 40
_cell_length_a 10.423003
_cell_length_b 21.171770
_cell_length_c 8.811025
_cell_angle_alpha 90.000000
_cell_angle_beta 90.000000
_cell_angle_gamma 90.000000
_cell_volume 1944.359040
_symmetry_space_group_name_H-M "C C C 2"
_symmetry_group_IT_number 37
_symmetry_cell_setting 'orthorhombic'
loop_
_space_group_symop_operation_xyz
x,y,z
-x,-y,z
-x,y,1/2+z
x,-y,1/2+z
1/2+x,1/2+y,z
1/2-x,1/2-y,z
1/2-x,1/2+y,1/2+z
1/2+x,1/2-y,1/2+z
loop_
_atom_site_type_symbol
_atom_site_label
_atom_site_fract_x
_atom_site_fract_y
_atom_site_fract_z
Si Si1 0.612999 0.312315 0.852240
Si Si2 0.250000 0.250000 0.074273
Si Si3 0.118598 0.346489 0.852840
Si Si4 0.615248 0.412386 0.363222
Si Si5 0.627699 0.172858 0.996751
Si Si6 0.500000 0.500000 0.115093
O O1 0.667404 0.295699 0.684631
O O2 0.483131 0.352637 0.851296
O O3 0.605159 0.243753 0.931919
O O4 0.728952 0.346030 0.944324
O O5 0.159701 0.290215 0.965607
O O6 0.237786 0.393024 0.865309
O O7 0.111368 0.326422 0.677127
O O8 0.980911 0.368427 0.914204
O O9 0.588464 0.457673 0.221834
O O10 0.578385 0.452090 0.510813
#
# Coordination Sequence:
#
# PCOD9353915 Si02
#       6
#     8   4   8   8   8   4
#     4  10  21  38  61  94 130 160 192 246 308 383
#     4  10  20  32  56  92 126 158 194 228 298 388
#     4  12  22  36  58  86 126 166 197 244 300 363
#     4  11  23  42  67  86 116 160 210 265 310 348
#     4  10  22  36  56  94 132 162 195 229 303 402
#     4  10  24  42  64  92 110 150 226 276 308 352
#
# _framework density 20.572331999999999
#
# number of rings (size 3 to 8) (size 9 to 14) (size 15 to 20)
#    0.000    1.600    0.000    7.200    0.000    4.800 
#    0.000    0.000    0.000   20.400    0.000    0.000 
#    0.000    0.000    0.000    0.000    0.000    0.000 
#
# Total GULP energy -111821.024073 kJ/mol
# GULP energy per Si atom -5591.051204 kJ/mol
# Density = 2.052551 g / cm^3
# Si number density = 20.572332 Si / 1000 Ang^3
#
#
#
# Elastic Constant Matrix: (Units=GPa)
#
#
# Indices 1 2 3 4 5 6 
#
# 1 129.8069 31.2983 31.8377 0.0000 0.0000 0.0000
# 2 31.2983 48.9581 14.3758 0.0000 0.0000 0.0000
# 3 31.8377 14.3758 144.7134 0.0000 0.0000 0.0000
# 4 0.0000 0.0000 0.0000 666.6071 0.0000 0.0000
# 5 0.0000 0.0000 0.0000 0.0000 9.6998 0.0000
# 6 0.0000 0.0000 0.0000 0.0000 0.0000 12.1262
#
#
#
# Elastic Compliance Matrix: (Units=1/GPa)
#
#
# Indices 1 2 3 4 5 6 
#
# 1 0.009421 -0.005577 -0.001519 0.000000 0.000000 0.000000
# 2 -0.005577 0.024341 -0.001191 0.000000 0.000000 0.000000
# 3 -0.001519 -0.001191 0.007363 0.000000 0.000000 0.000000
# 4 0.000000 0.000000 0.000000 0.001500 0.000000 0.000000
# 5 0.000000 0.000000 0.000000 0.000000 0.103095 0.000000
# 6 0.000000 0.000000 0.000000 0.000000 0.000000 0.082466
#
#
# Mechanical properties :
#
#
# Convention : Reuss Voigt Hill
#
# Bulk Modulus (GPa) = 40.73131 53.16687 46.94909
# Shear Modulus (GPa) = 19.76740 154.08438 86.92589
#
# Velocity S-wave (km/s) = 3.10316 8.66380 6.50734
# Velocity P-wave (km/s) = 5.71677 11.22417 8.90683
#
# Compressibility (1/GPa) = 0.02455114
#
# Stress axis : x y z
#
# Youngs Moduli (GPa) = 106.14746 41.08377 135.82079
#
# Poissons Ratio (x) = 0.22911 0.20626
# Poissons Ratio (y) = 0.59195 0.16177
# Poissons Ratio (z) = 0.16120 0.04893
#
# Static dielectric constant tensor:
#      x y z
#    x 1.824340 0.000000 0.000000 
#    y 0.000000 1.648020 0.000000 
#    z 0.000000 0.000000 1.742870 
# 
# From -- ./inp_files/2850.got.cif
#   From: 2010.05.17/outbox.cif.g08.bks.cpg/sg37_2_cif.got.tgz:2850.got - 2010.06.03 17:53:42.
