data_PCOD9353645
_publ_section_title
;
Structure prediction by ZEFSAII (Michael W. Deem and Ramdas Pophale) SiO2 
 PCOD9353645
Probable space group: C C C 2
;
_chemical_formula_sum "Si O2"
_cell_formula_units_Z 56
_cell_length_a 11.403782
_cell_length_b 10.879734
_cell_length_c 20.040250
_cell_angle_alpha 90.000000
_cell_angle_beta 90.000000
_cell_angle_gamma 90.000000
_cell_volume 2486.396117
_symmetry_space_group_name_H-M "C C C 2"
_symmetry_group_IT_number 37
_symmetry_cell_setting 'orthorhombic'
loop_
_space_group_symop_operation_xyz
x,y,z
-x,-y,z
-x,y,1/2+z
x,-y,1/2+z
1/2+x,1/2+y,z
1/2-x,1/2-y,z
1/2-x,1/2+y,1/2+z
1/2+x,1/2-y,1/2+z
loop_
_atom_site_type_symbol
_atom_site_label
_atom_site_fract_x
_atom_site_fract_y
_atom_site_fract_z
Si Si1 0.252059 0.018706 0.924430
Si Si2 0.000000 0.500000 0.479102
Si Si3 0.314982 0.051103 0.279117
Si Si4 0.522696 0.799187 0.075984
Si Si5 0.250000 0.250000 0.996425
Si Si6 0.328002 0.370490 0.550978
Si Si7 0.965495 0.313915 0.230770
Si Si8 0.370460 0.548847 0.190893
O O1 0.197358 0.148819 0.945925
O O2 0.254195 0.964062 0.851123
O O3 0.391411 0.040794 0.935534
O O4 0.199913 0.930703 0.980833
O O5 0.956151 0.604296 0.528953
O O6 0.412468 0.158764 0.271273
O O7 0.381111 0.923186 0.257305
O O8 0.204649 0.051415 0.230250
O O9 0.463519 0.669682 0.058862
O O10 0.503619 0.829883 0.153055
O O11 0.652923 0.802588 0.046911
O O12 0.250000 0.250000 0.557663
O O13 0.306103 0.441335 0.619712
O O14 0.894527 0.182731 0.227461
O O15 0.500000 0.500000 0.180940
#
# Coordination Sequence:
#
# PCOD9353645 Si02
#       8
#     8   4   8   8   4   8   8   8
#     4  11  25  42  67 101 138 184 226 285 355 424
#     4  10  18  38  62  96 132 164 236 272 326 408
#     4  11  24  46  69 101 138 184 236 284 354 435
#     4  10  21  39  67 103 129 174 229 287 342 396
#     4  10  26  40  66 100 140 178 222 294 344 422
#     4  11  23  44  69  97 131 179 228 291 339 408
#     4  10  23  42  75  97 133 184 230 298 343 413
#     4  11  26  44  68 103 139 180 232 293 357 418
#
# _framework density 22.522559000000001
#
# number of rings (size 3 to 8) (size 9 to 14) (size 15 to 20)
#    0.000    1.429    1.429    3.857   10.000    0.571 
#    5.143    0.000    0.000    0.000    0.000    0.000 
#    0.000    0.000    0.000    0.000    0.000    0.000 
#
# Total GULP energy -156124.430491 kJ/mol
# GULP energy per Si atom -5575.872518 kJ/mol
# Density = 2.247130 g / cm^3
# Si number density = 22.522559 Si / 1000 Ang^3
#
#
#
# Elastic Constant Matrix: (Units=GPa)
#
#
# Indices 1 2 3 4 5 6 
#
# 1 50.1203 10.6414 15.6863 0.0000 0.0000 0.0000
# 2 10.6414 27.5062 18.4446 0.0000 0.0000 0.0000
# 3 15.6863 18.4446 140.8182 0.0000 0.0000 0.0000
# 4 0.0000 0.0000 0.0000 21.6152 0.0000 0.0000
# 5 0.0000 0.0000 0.0000 0.0000 27.5648 0.0000
# 6 0.0000 0.0000 0.0000 0.0000 0.0000 24.7585
#
#
#
# Elastic Compliance Matrix: (Units=1/GPa)
#
#
# Indices 1 2 3 4 5 6 
#
# 1 0.022010 -0.007532 -0.001465 0.000000 0.000000 0.000000
# 2 -0.007532 0.042434 -0.004719 0.000000 0.000000 0.000000
# 3 -0.001465 -0.004719 0.007883 0.000000 0.000000 0.000000
# 4 0.000000 0.000000 0.000000 0.046264 0.000000 0.000000
# 5 0.000000 0.000000 0.000000 0.000000 0.036278 0.000000
# 6 0.000000 0.000000 0.000000 0.000000 0.000000 0.040390
#
#
# Mechanical properties :
#
#
# Convention : Reuss Voigt Hill
#
# Bulk Modulus (GPa) = 22.27514 34.22103 28.24808
# Shear Modulus (GPa) = 21.03880 26.36585 23.70233
#
# Velocity S-wave (km/s) = 3.05966 3.42518 3.24756
# Velocity P-wave (km/s) = 4.73219 5.55604 5.16058
#
# Compressibility (1/GPa) = 0.04489310
#
# Stress axis : x y z
#
# Youngs Moduli (GPa) = 45.43427 23.56608 126.86061
#
# Poissons Ratio (x) = 0.17751 0.18587
# Poissons Ratio (y) = 0.34223 0.59865
# Poissons Ratio (z) = 0.06657 0.11121
#
# Static dielectric constant tensor:
#      x y z
#    x 1.903940 0.000000 0.000000 
#    y 0.000000 1.955580 0.000000 
#    z 0.000000 0.000000 1.819100 
# 
# From -- ./inp_files/16918.got.cif
#   From: 2010.05.17/outbox.cif.g08.bks.cpg/sg37_9_cif.got.tgz:16918.got - 2010.06.03 17:53:42.
