data_PCOD9353788
_publ_section_title
;
Structure prediction by ZEFSAII (Michael W. Deem and Ramdas Pophale) SiO2 
 PCOD9353788
Probable space group: C C C 2
;
_chemical_formula_sum "Si O2"
_cell_formula_units_Z 64
_cell_length_a 9.016698
_cell_length_b 22.346485
_cell_length_c 14.716845
_cell_angle_alpha 90.000000
_cell_angle_beta 90.000000
_cell_angle_gamma 90.000000
_cell_volume 2965.319272
_symmetry_space_group_name_H-M "C C C 2"
_symmetry_group_IT_number 37
_symmetry_cell_setting 'orthorhombic'
loop_
_space_group_symop_operation_xyz
x,y,z
-x,-y,z
-x,y,1/2+z
x,-y,1/2+z
1/2+x,1/2+y,z
1/2-x,1/2-y,z
1/2-x,1/2+y,1/2+z
1/2+x,1/2-y,1/2+z
loop_
_atom_site_type_symbol
_atom_site_label
_atom_site_fract_x
_atom_site_fract_y
_atom_site_fract_z
Si Si1 0.907312 0.214455 0.943170
Si Si2 0.462261 0.123196 0.296623
Si Si3 0.737414 0.414180 0.226814
Si Si4 0.322215 0.987554 0.871076
Si Si5 0.111999 0.290362 0.159375
Si Si6 0.515137 0.837879 0.994326
Si Si7 0.102055 0.213632 0.766008
Si Si8 0.293600 0.406965 0.523313
O O1 0.750000 0.250000 0.940326
O O2 0.980940 0.209120 0.844877
O O3 0.897391 0.148624 0.989516
O O4 0.005414 0.265665 0.991406
O O5 0.589863 0.105471 0.226834
O O6 0.347792 0.070348 0.309262
O O7 0.373975 0.178415 0.257593
O O8 0.543386 0.139589 0.392089
O O9 0.743557 0.462170 0.309331
O O10 0.648666 0.353735 0.245668
O O11 0.687200 0.431302 0.125374
O O12 0.500000 0.000000 0.895799
O O13 0.226779 0.963049 0.955153
O O14 0.250000 0.250000 0.140820
O O15 0.113634 0.342874 0.083636
O O16 0.965192 0.250009 0.180146
O O17 0.363643 0.871813 0.017907
O O18 0.250000 0.250000 0.794776
#
# Coordination Sequence:
#
# PCOD9353788 Si02
#       8
#     8   8   8   8   8   8   8   8
#     4  10  21  37  65  96 128 172 217 257 329 408
#     4  10  20  39  61  90 129 171 209 271 321 383
#     4  11  21  41  62  92 125 170 216 268 332 392
#     4   9  22  37  62  93 120 166 228 271 323 375
#     4  12  24  37  63 102 137 172 218 265 333 402
#     4  10  19  36  59  95 131 163 204 260 322 390
#     4  12  22  38  65  96 138 175 210 269 340 397
#     4  10  20  38  67  87 123 168 220 264 325 395
#
# _framework density 21.582836
#
# number of rings (size 3 to 8) (size 9 to 14) (size 15 to 20)
#    0.000    1.500    3.750    1.125    3.500    4.000 
#    2.250    0.625    0.000    1.500    0.000    0.000 
#    0.000    0.000    0.000    0.000    0.000    0.000 
#
# Total GULP energy -178156.424913 kJ/mol
# GULP energy per Si atom -5567.388279 kJ/mol
# Density = 2.153371 g / cm^3
# Si number density = 21.582836 Si / 1000 Ang^3
#
#
#
# Elastic Constant Matrix: (Units=GPa)
#
#
# Indices 1 2 3 4 5 6 
#
# 1 22.5611 6.5710 7.2222 0.0000 0.0000 0.0000
# 2 6.5710 107.5544 45.5511 0.0000 0.0000 0.0000
# 3 7.2222 45.5511 104.4556 0.0000 0.0000 0.0000
# 4 0.0000 0.0000 0.0000 9.4718 0.0000 0.0000
# 5 0.0000 0.0000 0.0000 0.0000 6.6208 0.0000
# 6 0.0000 0.0000 0.0000 0.0000 0.0000 12.1966
#
#
#
# Elastic Compliance Matrix: (Units=1/GPa)
#
#
# Indices 1 2 3 4 5 6 
#
# 1 0.045603 -0.001779 -0.002377 0.000000 0.000000 0.000000
# 2 -0.001779 0.011473 -0.004880 0.000000 0.000000 0.000000
# 3 -0.002377 -0.004880 0.011866 0.000000 0.000000 0.000000
# 4 0.000000 0.000000 0.000000 0.105576 0.000000 0.000000
# 5 0.000000 0.000000 0.000000 0.000000 0.151040 0.000000
# 6 0.000000 0.000000 0.000000 0.000000 0.000000 0.081990
#
#
# Mechanical properties :
#
#
# Convention : Reuss Voigt Hill
#
# Bulk Modulus (GPa) = 19.65829 39.25107 29.45468
# Shear Modulus (GPa) = 11.29742 17.33962 14.31852
#
# Velocity S-wave (km/s) = 2.29037 2.83750 2.57849
# Velocity P-wave (km/s) = 4.01528 5.38154 4.74781
#
# Compressibility (1/GPa) = 0.05086912
#
# Stress axis : x y z
#
# Youngs Moduli (GPa) = 21.92821 87.15983 84.27464
#
# Poissons Ratio (x) = 0.15509 0.20033
# Poissons Ratio (y) = 0.03902 0.41128
# Poissons Ratio (z) = 0.05213 0.42536
#
# Static dielectric constant tensor:
#      x y z
#    x 1.800940 0.000000 0.000000 
#    y 0.000000 1.819680 0.000000 
#    z 0.000000 0.000000 1.981090 
# 
# From -- ./inp_files/10974.got.cif
#   From: 2010.05.17/outbox.cif.g08.bks.cpg/sg37_6_cif.got.tgz:10974.got - 2010.06.03 17:53:42.
