data_PCOD9353765
_publ_section_title
;
Structure prediction by ZEFSAII (Michael W. Deem and Ramdas Pophale) SiO2 
 PCOD9353765
Probable space group: C C C 2
;
_chemical_formula_sum "Si O2"
_cell_formula_units_Z 52
_cell_length_a 11.980433
_cell_length_b 15.751666
_cell_length_c 15.691032
_cell_angle_alpha 90.000000
_cell_angle_beta 90.000000
_cell_angle_gamma 90.000000
_cell_volume 2961.082565
_symmetry_space_group_name_H-M "C C C 2"
_symmetry_group_IT_number 37
_symmetry_cell_setting 'orthorhombic'
loop_
_space_group_symop_operation_xyz
x,y,z
-x,-y,z
-x,y,1/2+z
x,-y,1/2+z
1/2+x,1/2+y,z
1/2-x,1/2-y,z
1/2-x,1/2+y,1/2+z
1/2+x,1/2-y,1/2+z
loop_
_atom_site_type_symbol
_atom_site_label
_atom_site_fract_x
_atom_site_fract_y
_atom_site_fract_z
Si Si1 0.134480 0.602839 0.948030
Si Si2 0.132892 0.409208 0.967112
Si Si3 0.266904 0.124843 0.636425
Si Si4 0.877788 0.542625 0.157741
Si Si5 0.405989 0.726667 0.225680
Si Si6 0.360427 0.798322 0.776500
Si Si7 0.750000 0.250000 0.378727
O O1 0.161073 0.502890 0.928424
O O2 0.154983 0.671664 0.874456
O O3 0.000318 0.603800 0.959101
O O4 0.198115 0.624002 0.036737
O O5 0.197431 0.328969 0.929169
O O6 0.153757 0.416706 0.067562
O O7 0.353268 0.187755 0.684446
O O8 0.142916 0.156793 0.660132
O O9 0.290915 0.032428 0.673474
O O10 0.878875 0.613149 0.228677
O O11 0.000000 0.500000 0.148918
O O12 0.533918 0.741070 0.249088
O O13 0.344104 0.713575 0.315414
O O14 0.250000 0.750000 0.748575
#
# Coordination Sequence:
#
# PCOD9353765 Si02
#       7
#     8   8   8   8   8   8   4
#     4  10  20  36  59  92 119 157 206 256 300 358
#     4  10  19  35  62  93 120 155 206 256 311 350
#     4   9  19  37  65  85 113 159 210 244 296 380
#     4  11  20  38  61  89 116 160 207 257 304 367
#     4  10  21  37  61  89 118 163 204 238 318 364
#     4  12  26  37  57  94 129 155 203 265 317 353
#     4  10  20  32  60  96 122 152 200 258 300 366
#
# _framework density 17.561145
#
# number of rings (size 3 to 8) (size 9 to 14) (size 15 to 20)
#    0.000    1.846    6.154    0.000    9.692    0.000 
#    0.000    0.769    0.000    0.000    0.000    0.000 
#    0.000    0.000    0.000    0.000    0.000    0.000 
#
# Total GULP energy -144829.165204 kJ/mol
# GULP energy per Si atom -5570.352508 kJ/mol
# Density = 1.752118 g / cm^3
# Si number density = 17.561145 Si / 1000 Ang^3
#
#
#
# Elastic Constant Matrix: (Units=GPa)
#
#
# Indices 1 2 3 4 5 6 
#
# 1 111.2136 55.9944 44.8085 0.0000 0.0000 0.0000
# 2 55.9944 90.9940 45.4275 0.0000 0.0000 0.0000
# 3 44.8085 45.4275 65.0331 0.0000 0.0000 0.0000
# 4 0.0000 0.0000 0.0000 13.7762 0.0000 0.0000
# 5 0.0000 0.0000 0.0000 0.0000 15.1639 0.0000
# 6 0.0000 0.0000 0.0000 0.0000 0.0000 26.1156
#
#
#
# Elastic Compliance Matrix: (Units=1/GPa)
#
#
# Indices 1 2 3 4 5 6 
#
# 1 0.014276 -0.005949 -0.005681 0.000000 0.000000 0.000000
# 2 -0.005949 0.019353 -0.009420 0.000000 0.000000 0.000000
# 3 -0.005681 -0.009420 0.025871 0.000000 0.000000 0.000000
# 4 0.000000 0.000000 0.000000 0.072589 0.000000 0.000000
# 5 0.000000 0.000000 0.000000 0.000000 0.065946 0.000000
# 6 0.000000 0.000000 0.000000 0.000000 0.000000 0.038291
#
#
# Mechanical properties :
#
#
# Convention : Reuss Voigt Hill
#
# Bulk Modulus (GPa) = 57.46823 62.18905 59.82864
# Shear Modulus (GPa) = 17.59169 19.07850 18.33510
#
# Velocity S-wave (km/s) = 3.16846 3.29964 3.23472
# Velocity P-wave (km/s) = 6.79568 7.07153 6.93498
#
# Compressibility (1/GPa) = 0.01740092
#
# Stress axis : x y z
#
# Youngs Moduli (GPa) = 70.04992 51.67120 38.65333
#
# Poissons Ratio (x) = 0.30737 0.21958
# Poissons Ratio (y) = 0.41670 0.36412
# Poissons Ratio (z) = 0.39793 0.48675
#
# Static dielectric constant tensor:
#      x y z
#    x 1.784030 0.000000 0.000000 
#    y 0.000000 1.636220 0.000000 
#    z 0.000000 0.000000 1.627370 
# 
# From -- ./inp_files/11611.got.cif
#   From: 2010.05.17/outbox.cif.g08.bks.cpg/sg37_6_cif.got.tgz:11611.got - 2010.06.03 17:53:42.
