data_PCOD9353415
_publ_section_title
;
Structure prediction by ZEFSAII (Michael W. Deem and Ramdas Pophale) SiO2 
 PCOD9353415
Probable space group: C C C 2
;
_chemical_formula_sum "Si O2"
_cell_formula_units_Z 24
_cell_length_a 11.805888
_cell_length_b 8.228067
_cell_length_c 10.010963
_cell_angle_alpha 90.000000
_cell_angle_beta 90.000000
_cell_angle_gamma 90.000000
_cell_volume 972.461316
_symmetry_space_group_name_H-M "C C C 2"
_symmetry_group_IT_number 37
_symmetry_cell_setting 'orthorhombic'
loop_
_space_group_symop_operation_xyz
x,y,z
-x,-y,z
-x,y,1/2+z
x,-y,1/2+z
1/2+x,1/2+y,z
1/2-x,1/2-y,z
1/2-x,1/2+y,1/2+z
1/2+x,1/2-y,1/2+z
loop_
_atom_site_type_symbol
_atom_site_label
_atom_site_fract_x
_atom_site_fract_y
_atom_site_fract_z
Si Si1 0.082610 0.655241 0.955370
Si Si2 0.749018 0.421138 0.374258
Si Si3 0.936265 0.774658 0.731034
O O1 0.207154 0.577243 0.949248
O O2 0.000000 0.500000 0.982740
O O3 0.046101 0.726839 0.813379
O O4 0.056530 0.779931 0.073512
O O5 0.750000 0.250000 0.457591
O O6 0.846097 0.372522 0.265257
O O7 0.630031 0.423878 0.299068
#
# Coordination Sequence:
#
# PCOD9353415 Si02
#       3
#     8   8   8
#     4  10  14  27  50  74 100 138 170 221 275 318
#     4   7  16  28  39  78 109 129 177 226 256 338
#     4   8  17  26  48  77 101 131 180 219 267 327
#
# _framework density 24.679645000000001
#
# number of rings (size 3 to 8) (size 9 to 14) (size 15 to 20)
#    2.000    1.333    0.000    3.000    0.000    0.000 
#    0.000    0.000    0.000   36.000    0.000   42.000 
#    0.000    0.000    0.000    0.000    0.000    0.000 
#
# Total GULP energy -66837.379540 kJ/mol
# GULP energy per Si atom -5569.781628 kJ/mol
# Density = 2.462347 g / cm^3
# Si number density = 24.679645 Si / 1000 Ang^3
#
#
#
# Elastic Constant Matrix: (Units=GPa)
#
#
# Indices 1 2 3 4 5 6 
#
# 1 62.2188 44.0857 28.6516 0.0000 0.0000 0.0000
# 2 44.0857 101.3543 33.2900 0.0000 0.0000 0.0000
# 3 28.6516 33.2900 107.7310 0.0000 0.0000 0.0000
# 4 0.0000 0.0000 0.0000 -11.4585 0.0000 0.0000
# 5 0.0000 0.0000 0.0000 0.0000 16.4098 0.0000
# 6 0.0000 0.0000 0.0000 0.0000 0.0000 36.8554
#
#
#
# Elastic Compliance Matrix: (Units=1/GPa)
#
#
# Indices 1 2 3 4 5 6 
#
# 1 0.024409 -0.009443 -0.003574 0.000000 0.000000 0.000000
# 2 -0.009443 0.014634 -0.002011 0.000000 0.000000 0.000000
# 3 -0.003574 -0.002011 0.010854 0.000000 0.000000 0.000000
# 4 0.000000 0.000000 0.000000 -0.087271 0.000000 0.000000
# 5 0.000000 0.000000 0.000000 0.000000 0.060939 0.000000
# 6 0.000000 0.000000 0.000000 0.000000 0.000000 0.027133
#
#
# Mechanical properties :
#
#
# Convention : Reuss Voigt Hill
#
# Bulk Modulus (GPa) = 50.39746 53.70653 52.05200
# Shear Modulus (GPa) = 57.22900 19.37978 38.30439
#
# Velocity S-wave (km/s) = 4.82069 2.80528 3.94390
# Velocity P-wave (km/s) = 7.17290 5.68344 6.47116
#
# Compressibility (1/GPa) = 0.01984227
#
# Stress axis : x y z
#
# Youngs Moduli (GPa) = 40.96822 68.33243 92.13091
#
# Poissons Ratio (x) = 0.64529 0.32924
# Poissons Ratio (y) = 0.38688 0.18524
# Poissons Ratio (z) = 0.14641 0.13739
#
# Static dielectric constant tensor:
#      x y z
#    x 2.341770 0.000000 0.000000 
#    y 0.000000 2.091550 0.000000 
#    z 0.000000 0.000000 1.905670 
# 
# From -- ./inp_files/2511.got.cif
#   From: 2010.05.17/outbox.cif.g08.bks.cpg/sg37_2_cif.got.tgz:2511.got - 2010.06.03 17:53:42.
