data_PCOD9353907
_publ_section_title
;
Structure prediction by ZEFSAII (Michael W. Deem and Ramdas Pophale) SiO2 
 PCOD9353907
Probable space group: C C C 2
;
_chemical_formula_sum "Si O2"
_cell_formula_units_Z 48
_cell_length_a 16.230857
_cell_length_b 9.514810
_cell_length_c 15.481374
_cell_angle_alpha 90.000000
_cell_angle_beta 90.000000
_cell_angle_gamma 90.000000
_cell_volume 2390.843089
_symmetry_space_group_name_H-M "C C C 2"
_symmetry_group_IT_number 37
_symmetry_cell_setting 'orthorhombic'
loop_
_space_group_symop_operation_xyz
x,y,z
-x,-y,z
-x,y,1/2+z
x,-y,1/2+z
1/2+x,1/2+y,z
1/2-x,1/2-y,z
1/2-x,1/2+y,1/2+z
1/2+x,1/2-y,1/2+z
loop_
_atom_site_type_symbol
_atom_site_label
_atom_site_fract_x
_atom_site_fract_y
_atom_site_fract_z
Si Si1 0.912766 0.050289 0.258430
Si Si2 0.745119 0.095108 0.708295
Si Si3 0.245119 0.404892 0.005854
Si Si4 0.839092 0.326293 0.005267
Si Si5 0.839092 0.326292 0.208882
Si Si6 0.087234 0.949711 0.955719
O O1 0.901456 0.218155 0.252579
O O2 0.834812 0.976410 0.213617
O O3 0.908997 1.000000 0.357075
O O4 0.000000 0.000000 0.221744
O O5 0.750000 0.250000 0.748945
O O6 0.723779 0.111295 0.607075
O O7 0.679070 0.982618 0.743922
O O8 0.250000 0.250000 0.965204
O O9 0.179070 0.517382 0.970227
O O10 0.334812 0.476410 0.000532
O O11 0.750000 0.250000 0.000029
O O12 0.860415 0.334712 0.107075
O O13 0.901456 0.218155 0.961570
O O14 0.750000 0.250000 0.214120
O O15 0.000000 0.000000 0.992405
#
# Coordination Sequence:
#
# PCOD9353907 Si02
#       6
#     8   8   8   8   8   8
#     4  10  20  32  47  71 101 132 167 203 243 296
#     4   9  18  33  53  76  98 123 163 211 253 298
#     4   9  18  33  53  76  98 123 163 211 253 298
#     4   8  15  30  51  71  93 125 163 200 243 296
#     4   8  15  30  51  71  93 125 163 200 243 296
#     4  10  20  32  47  71 101 132 167 203 243 296
#
# _framework density 20.076598000000001
#
# number of rings (size 3 to 8) (size 9 to 14) (size 15 to 20)
#    0.000    3.000    0.000    3.000    0.000    6.667 
#    0.000    1.667    0.000   10.000    0.000    0.000 
#    0.000    0.000    0.000    0.000    0.000    0.000 
#
# Total GULP energy -133655.840100 kJ/mol
# GULP energy per Si atom -5568.993337 kJ/mol
# Density = 2.003090 g / cm^3
# Si number density = 20.076598 Si / 1000 Ang^3
#
#
#
# Elastic Constant Matrix: (Units=GPa)
#
#
# Indices 1 2 3 4 5 6 
#
# 1 68.8679 57.8007 -5.4809 0.0000 0.0000 0.0000
# 2 57.8007 213.6716 21.0284 0.0000 0.0000 0.0000
# 3 -5.4809 21.0284 31.5646 0.0000 0.0000 0.0000
# 4 0.0000 0.0000 0.0000 -16.1869 0.0000 0.0000
# 5 0.0000 0.0000 0.0000 0.0000 8.4973 0.0000
# 6 0.0000 0.0000 0.0000 0.0000 0.0000 24.8025
#
#
#
# Elastic Compliance Matrix: (Units=1/GPa)
#
#
# Indices 1 2 3 4 5 6 
#
# 1 0.020407 -0.006281 0.007728 0.000000 0.000000 0.000000
# 2 -0.006281 0.006942 -0.005715 0.000000 0.000000 0.000000
# 3 0.007728 -0.005715 0.036830 0.000000 0.000000 0.000000
# 4 0.000000 0.000000 0.000000 -0.061778 0.000000 0.000000
# 5 0.000000 0.000000 0.000000 0.000000 0.117684 0.000000
# 6 0.000000 0.000000 0.000000 0.000000 0.000000 0.040318
#
#
# Mechanical properties :
#
#
# Convention : Reuss Voigt Hill
#
# Bulk Modulus (GPa) = 17.97180 51.20005 34.58593
# Shear Modulus (GPa) = 26.66853 19.47299 23.07076
#
# Velocity S-wave (km/s) = 3.64859 3.11776 3.39357
# Velocity P-wave (km/s) = 5.16921 6.20631 5.71135
#
# Compressibility (1/GPa) = 0.05564273
#
# Stress axis : x y z
#
# Youngs Moduli (GPa) = 49.00244 144.05919 27.15153
#
# Poissons Ratio (x) = 0.90482 -0.20982
# Poissons Ratio (y) = 0.30778 0.15517
# Poissons Ratio (z) = -0.37868 0.82332
#
# Static dielectric constant tensor:
#      x y z
#    x 1.703840 0.000000 0.000000 
#    y 0.000000 1.792410 0.000000 
#    z 0.000000 0.000000 1.741400 
# 
# From -- ./inp_files/17081.got.cif
#   From: 2010.05.17/outbox.cif.g08.bks.cpg/sg37_9_cif.got.tgz:17081.got - 2010.06.03 17:53:42.
