data_PCOD9353500
_publ_section_title
;
Structure prediction by ZEFSAII (Michael W. Deem and Ramdas Pophale) SiO2 
 PCOD9353500
Probable space group: C C C 2
;
_chemical_formula_sum "Si O2"
_cell_formula_units_Z 40
_cell_length_a 21.118452
_cell_length_b 11.642368
_cell_length_c 9.007083
_cell_angle_alpha 90.000000
_cell_angle_beta 90.000000
_cell_angle_gamma 90.000000
_cell_volume 2214.560597
_symmetry_space_group_name_H-M "C C C 2"
_symmetry_group_IT_number 37
_symmetry_cell_setting 'orthorhombic'
loop_
_space_group_symop_operation_xyz
x,y,z
-x,-y,z
-x,y,1/2+z
x,-y,1/2+z
1/2+x,1/2+y,z
1/2-x,1/2-y,z
1/2-x,1/2+y,1/2+z
1/2+x,1/2-y,1/2+z
loop_
_atom_site_type_symbol
_atom_site_label
_atom_site_fract_x
_atom_site_fract_y
_atom_site_fract_z
Si Si1 0.295304 0.645226 0.295420
Si Si2 0.524057 0.869817 0.105693
Si Si3 0.146233 0.554863 0.763877
Si Si4 0.412096 0.198055 0.802233
Si Si5 0.234706 0.526825 0.018474
O O1 0.250000 0.750000 0.341208
O O2 0.365631 0.694590 0.296624
O O3 0.272875 0.605411 0.132445
O O4 0.280616 0.542774 0.409292
O O5 0.581069 0.882475 0.224926
O O6 0.465056 0.804017 0.175218
O O7 0.500000 0.000000 0.072020
O O8 0.552444 0.814922 0.958638
O O9 0.128526 0.419805 0.783491
O O10 0.193110 0.557887 0.623068
O O11 0.183805 0.590161 0.911668
#
# Coordination Sequence:
#
# PCOD9353500 Si02
#       5
#     8   8   8   8   8
#     4  11  21  39  59  84 122 160 195 247 296 359
#     4  10  20  32  57  91 117 150 192 251 309 356
#     4  10  17  34  56  87 118 144 186 248 309 356
#     4  11  21  34  57  81 122 152 187 241 304 357
#     4  10  20  34  61  87 117 155 195 239 301 356
#
# _framework density 18.062273000000001
#
# number of rings (size 3 to 8) (size 9 to 14) (size 15 to 20)
#    0.000    1.600    6.000    1.800    2.800    0.000 
#    0.000   12.000    0.000    3.600    0.000    0.000 
#    0.000    0.000    0.000    0.000    0.000    0.000 
#
# Total GULP energy -111642.509673 kJ/mol
# GULP energy per Si atom -5582.125484 kJ/mol
# Density = 1.802116 g / cm^3
# Si number density = 18.062273 Si / 1000 Ang^3
#
#
#
# Elastic Constant Matrix: (Units=GPa)
#
#
# Indices 1 2 3 4 5 6 
#
# 1 127.3687 32.2192 53.4440 0.0000 0.0000 0.0000
# 2 32.2192 25.5968 15.4126 0.0000 0.0000 0.0000
# 3 53.4440 15.4126 107.5440 0.0000 0.0000 0.0000
# 4 0.0000 0.0000 0.0000 20.3192 0.0000 0.0000
# 5 0.0000 0.0000 0.0000 0.0000 28.6198 0.0000
# 6 0.0000 0.0000 0.0000 0.0000 0.0000 34.2646
#
#
#
# Elastic Compliance Matrix: (Units=1/GPa)
#
#
# Indices 1 2 3 4 5 6 
#
# 1 0.013330 -0.013998 -0.004618 0.000000 0.000000 0.000000
# 2 -0.013998 0.057457 -0.001278 0.000000 0.000000 0.000000
# 3 -0.004618 -0.001278 0.011777 0.000000 0.000000 0.000000
# 4 0.000000 0.000000 0.000000 0.049215 0.000000 0.000000
# 5 0.000000 0.000000 0.000000 0.000000 0.034941 0.000000
# 6 0.000000 0.000000 0.000000 0.000000 0.000000 0.029185
#
#
# Mechanical properties :
#
#
# Convention : Reuss Voigt Hill
#
# Bulk Modulus (GPa) = 23.37829 51.40680 37.39255
# Shear Modulus (GPa) = 20.00401 27.26964 23.63682
#
# Velocity S-wave (km/s) = 3.33153 3.88977 3.62142
# Velocity P-wave (km/s) = 5.26973 6.97828 6.18330
#
# Compressibility (1/GPa) = 0.04277472
#
# Stress axis : x y z
#
# Youngs Moduli (GPa) = 75.01897 17.40445 84.91341
#
# Poissons Ratio (x) = 0.24363 0.39215
# Poissons Ratio (y) = 1.05011 0.10853
# Poissons Ratio (z) = 0.34645 0.02224
#
# Static dielectric constant tensor:
#      x y z
#    x 1.637830 0.000000 0.000000 
#    y 0.000000 1.602820 0.000000 
#    z 0.000000 0.000000 1.644290 
# 
# From -- ./inp_files/2204.got.cif
#   From: 2010.05.17/outbox.cif.g08.bks.cpg/sg37_2_cif.got.tgz:2204.got - 2010.06.03 17:53:42.
