data_PCOD9353418
_publ_section_title
;
Structure prediction by ZEFSAII (Michael W. Deem and Ramdas Pophale) SiO2 
 PCOD9353418
Probable space group: C C C 2
;
_chemical_formula_sum "Si O2"
_cell_formula_units_Z 64
_cell_length_a 18.971986
_cell_length_b 7.263979
_cell_length_c 21.234168
_cell_angle_alpha 90.000000
_cell_angle_beta 90.000000
_cell_angle_gamma 90.000000
_cell_volume 2926.325451
_symmetry_space_group_name_H-M "C C C 2"
_symmetry_group_IT_number 37
_symmetry_cell_setting 'orthorhombic'
loop_
_space_group_symop_operation_xyz
x,y,z
-x,-y,z
-x,y,1/2+z
x,-y,1/2+z
1/2+x,1/2+y,z
1/2-x,1/2-y,z
1/2-x,1/2+y,1/2+z
1/2+x,1/2-y,1/2+z
loop_
_atom_site_type_symbol
_atom_site_label
_atom_site_fract_x
_atom_site_fract_y
_atom_site_fract_z
Si Si1 0.205225 0.064533 0.924400
Si Si2 0.778687 0.958703 0.059645
Si Si3 0.970262 0.788988 0.820121
Si Si4 0.222467 0.533291 0.689364
Si Si5 0.546052 0.314252 0.455196
Si Si6 0.438574 0.350016 0.089459
Si Si7 0.667505 0.520034 0.789679
Si Si8 0.917075 0.314108 0.724697
O O1 0.250000 0.250000 0.913863
O O2 0.125758 0.125494 0.940847
O O3 0.200457 0.964808 0.857250
O O4 0.229451 0.964447 0.988783
O O5 0.750000 0.750000 0.051876
O O6 0.734317 0.036625 0.118218
O O7 0.861026 0.943201 0.080160
O O8 0.978171 0.714676 0.891397
O O9 0.888663 0.818227 0.802374
O O10 0.014355 0.681363 0.768332
O O11 0.000000 0.000000 0.822436
O O12 0.250000 0.750000 0.686750
O O13 0.272991 0.438687 0.739273
O O14 0.357302 0.967294 0.714020
O O15 0.500000 0.500000 0.460324
O O16 0.546987 0.233659 0.525532
O O17 0.500000 0.500000 0.095310
O O18 0.437717 0.239478 0.153911
O O19 0.624986 0.352075 0.758795
#
# Coordination Sequence:
#
# PCOD9353418 Si02
#       8
#     8   8   8   8   8   8   8   8
#     4   9  17  25  40  59  85 121 146 177 222 271
#     4   9  14  25  35  53  86 115 146 180 222 258
#     4   8  14  23  35  52  81 112 135 166 211 256
#     4   9  15  24  37  57  84 114 142 183 219 257
#     4   8  15  25  36  55  86 114 142 175 214 260
#     4  10  15  20  34  57  82 114 144 171 214 268
#     4   9  15  25  37  57  84 113 147 173 216 265
#     4  10  16  23  38  58  86 117 142 179 221 263
#
# _framework density 21.870431
#
# number of rings (size 3 to 8) (size 9 to 14) (size 15 to 20)
#    0.000    3.000    3.750    1.875    0.000    0.000 
#    0.000    0.000    0.000    0.000    0.000    6.125 
#    0.000    0.000    0.000    0.000    0.000    0.000 
#
# Total GULP energy -178215.019825 kJ/mol
# GULP energy per Si atom -5569.219370 kJ/mol
# Density = 2.182065 g / cm^3
# Si number density = 21.870431 Si / 1000 Ang^3
#
#
#
# Elastic Constant Matrix: (Units=GPa)
#
#
# Indices 1 2 3 4 5 6 
#
# 1 97.2400 20.3182 46.6838 0.0000 0.0000 0.0000
# 2 20.3182 48.6414 24.2165 0.0000 0.0000 0.0000
# 3 46.6838 24.2165 260.2687 0.0000 0.0000 0.0000
# 4 0.0000 0.0000 0.0000 -23.9840 0.0000 0.0000
# 5 0.0000 0.0000 0.0000 0.0000 -33.8661 0.0000
# 6 0.0000 0.0000 0.0000 0.0000 0.0000 7.8176
#
#
#
# Elastic Compliance Matrix: (Units=1/GPa)
#
#
# Indices 1 2 3 4 5 6 
#
# 1 0.011995 -0.004131 -0.001767 0.000000 0.000000 0.000000
# 2 -0.004131 0.022980 -0.001397 0.000000 0.000000 0.000000
# 3 -0.001767 -0.001397 0.004289 0.000000 0.000000 0.000000
# 4 0.000000 0.000000 0.000000 -0.041694 0.000000 0.000000
# 5 0.000000 0.000000 0.000000 0.000000 -0.029528 0.000000
# 6 0.000000 0.000000 0.000000 0.000000 0.000000 0.127916
#
#
# Mechanical properties :
#
#
# Convention : Reuss Voigt Hill
#
# Bulk Modulus (GPa) = 40.52885 65.39858 52.96372
# Shear Modulus (GPa) = 42.09719 10.98893 26.54306
#
# Velocity S-wave (km/s) = 4.39207 2.24398 3.48753
# Velocity P-wave (km/s) = 6.65522 6.05653 6.36292
#
# Compressibility (1/GPa) = 0.02467378
#
# Stress axis : x y z
#
# Youngs Moduli (GPa) = 83.36530 43.51666 233.14531
#
# Poissons Ratio (x) = 0.17976 0.41202
# Poissons Ratio (y) = 0.34437 0.32575
# Poissons Ratio (z) = 0.14733 0.06080
#
# Static dielectric constant tensor:
#      x y z
#    x 1.815230 0.000000 0.000000 
#    y 0.000000 1.799040 0.000000 
#    z 0.000000 0.000000 1.870560 
# 
# From -- ./inp_files/17517.got.cif
#   From: 2010.05.17/outbox.cif.g08.bks.cpg/sg37_9_cif.got.tgz:17517.got - 2010.06.03 17:53:42.
