data_PCOD9353269
_publ_section_title
;
Structure prediction by ZEFSAII (Michael W. Deem and Ramdas Pophale) SiO2 
 PCOD9353269
Probable space group: C M C 21
;
_chemical_formula_sum "Si O2"
_cell_formula_units_Z 48
_cell_length_a 17.676253
_cell_length_b 12.542074
_cell_length_c 9.819997
_cell_angle_alpha 90.000000
_cell_angle_beta 90.000000
_cell_angle_gamma 90.000000
_cell_volume 2177.062629
_symmetry_space_group_name_H-M "C M C 21"
_symmetry_group_IT_number 36
_symmetry_cell_setting 'orthorhombic'
loop_
_space_group_symop_operation_xyz
x,y,z
-x,-y,1/2+z
x,-y,1/2+z
-x,y,z
1/2+x,1/2+y,z
1/2-x,1/2-y,1/2+z
1/2+x,1/2-y,1/2+z
1/2-x,1/2+y,z
loop_
_atom_site_type_symbol
_atom_site_label
_atom_site_fract_x
_atom_site_fract_y
_atom_site_fract_z
Si Si1 0.911776 0.670611 0.155840
Si Si2 0.330424 0.537641 0.055785
Si Si3 0.585932 0.574464 0.316207
Si Si4 0.668000 0.772053 0.927004
Si Si5 0.334806 0.225035 0.874760
Si Si6 0.831412 0.548847 0.652735
O O1 0.887108 0.723948 0.297846
O O2 0.891962 0.545155 0.165740
O O3 0.000000 0.688153 0.128144
O O4 0.861248 0.711570 0.030026
O O5 0.356982 0.467848 0.929589
O O6 0.331366 0.659629 0.005319
O O7 0.391485 0.522441 0.174292
O O8 0.249249 0.503742 0.114515
O O9 0.500000 0.553193 0.353786
O O10 0.603078 0.700101 0.304577
O O11 0.753238 0.781198 0.869000
O O12 0.651622 0.866862 0.032592
O O13 0.327245 0.114506 0.793597
#
# Coordination Sequence:
#
# PCOD9353269 Si02
#       6
#     8   8   8   8   8   8
#     4  12  29  47  73 114 154 192 244 316 384 445
#     4  12  26  48  75 107 144 195 260 307 368 455
#     4  12  27  45  70 105 150 194 242 315 387 446
#     4  12  25  48  77 107 145 194 251 306 370 451
#     4  12  24  48  74 105 146 195 251 307 371 455
#     4  12  25  48  77 104 143 196 256 309 366 450
#
# _framework density 22.048057
#
# number of rings (size 3 to 8) (size 9 to 14) (size 15 to 20)
#    0.000    0.000    5.000    5.000    2.333    4.667 
#    0.000    0.000    0.000    0.000    0.000    0.000 
#    0.000    0.000    0.000    0.000    0.000    0.000 
#
# Total GULP energy -134446.588366 kJ/mol
# GULP energy per Si atom -5601.941182 kJ/mol
# Density = 2.199787 g / cm^3
# Si number density = 22.048057 Si / 1000 Ang^3
#
#
#
# Elastic Constant Matrix: (Units=GPa)
#
#
# Indices 1 2 3 4 5 6 
#
# 1 84.4017 1.6848 12.8704 0.0000 0.0000 0.0000
# 2 1.6848 69.2821 20.6199 0.0000 0.0000 0.0000
# 3 12.8704 20.6199 101.5636 0.0000 0.0000 0.0000
# 4 0.0000 0.0000 0.0000 50.3429 0.0000 0.0000
# 5 0.0000 0.0000 0.0000 0.0000 29.3084 0.0000
# 6 0.0000 0.0000 0.0000 0.0000 0.0000 11.8055
#
#
#
# Elastic Compliance Matrix: (Units=1/GPa)
#
#
# Indices 1 2 3 4 5 6 
#
# 1 0.012084 0.000172 -0.001566 0.000000 0.000000 0.000000
# 2 0.000172 0.015364 -0.003141 0.000000 0.000000 0.000000
# 3 -0.001566 -0.003141 0.010682 0.000000 0.000000 0.000000
# 4 0.000000 0.000000 0.000000 0.019864 0.000000 0.000000
# 5 0.000000 0.000000 0.000000 0.000000 0.034120 0.000000
# 6 0.000000 0.000000 0.000000 0.000000 0.000000 0.084707
#
#
# Mechanical properties :
#
#
# Convention : Reuss Voigt Hill
#
# Bulk Modulus (GPa) = 34.41161 36.17751 35.29456
# Shear Modulus (GPa) = 25.56533 32.96283 29.26408
#
# Velocity S-wave (km/s) = 3.40888 3.87078 3.64715
# Velocity P-wave (km/s) = 5.57991 6.03501 5.81191
#
# Compressibility (1/GPa) = 0.02905996
#
# Stress axis : x y z
#
# Youngs Moduli (GPa) = 82.75744 65.08534 93.61309
#
# Poissons Ratio (x) = -0.01121 0.14662
# Poissons Ratio (y) = -0.01426 0.29406
# Poissons Ratio (z) = 0.12962 0.20445
#
# Static dielectric constant tensor:
#      x y z
#    x 1.751560 0.000000 0.000000 
#    y 0.000000 1.841190 0.000000 
#    z 0.000000 0.000000 1.791200 
# 
# From -- ./inp_files/4650.got.cif
#   From: 2010.05.17/outbox.cif.g08.bks.cpg/sg36_3_cif.got.tgz:4650.got - 2010.06.03 17:41:39.
