data_PCOD9353959
_publ_section_title
;
Structure prediction by ZEFSAII (Michael W. Deem and Ramdas Pophale) SiO2 
 PCOD9353959
Probable space group: C C C 2
;
_chemical_formula_sum "Si O2"
_cell_formula_units_Z 64
_cell_length_a 8.197098
_cell_length_b 13.917953
_cell_length_c 23.439821
_cell_angle_alpha 90.000000
_cell_angle_beta 90.000000
_cell_angle_gamma 90.000000
_cell_volume 2674.174749
_symmetry_space_group_name_H-M "C C C 2"
_symmetry_group_IT_number 37
_symmetry_cell_setting 'orthorhombic'
loop_
_space_group_symop_operation_xyz
x,y,z
-x,-y,z
-x,y,1/2+z
x,-y,1/2+z
1/2+x,1/2+y,z
1/2-x,1/2-y,z
1/2-x,1/2+y,1/2+z
1/2+x,1/2-y,1/2+z
loop_
_atom_site_type_symbol
_atom_site_label
_atom_site_fract_x
_atom_site_fract_y
_atom_site_fract_z
Si Si1 0.577629 0.133943 0.611410
Si Si2 0.497814 0.109426 0.359186
Si Si3 0.135104 0.893827 0.367487
Si Si4 0.931962 0.867633 0.119853
Si Si5 0.317072 0.607131 0.918170
Si Si6 0.051755 0.634546 0.231305
Si Si7 0.248552 0.132775 0.548496
Si Si8 0.924152 0.134337 0.237254
O O1 0.758305 0.102060 0.594124
O O2 0.571485 0.250885 0.614379
O O3 0.549530 0.104677 0.676755
O O4 0.423249 0.103400 0.574092
O O5 0.681503 0.149489 0.366601
O O6 0.340087 0.154742 0.388423
O O7 0.474665 0.104794 0.291099
O O8 0.500000 0.000000 0.381602
O O9 0.059636 0.892073 0.303606
O O10 0.996526 0.848598 0.407592
O O11 0.164366 0.002469 0.388882
O O12 0.095457 0.897573 0.087324
O O13 0.954472 0.895427 0.186531
O O14 0.280047 0.598525 0.984538
O O15 0.064222 0.750134 0.234673
O O16 0.239085 0.602846 0.223613
O O17 0.250000 0.250000 0.547429
#
# Coordination Sequence:
#
# PCOD9353959 Si02
#       8
#     8   8   8   8   8   8   8   8
#     4   9  17  30  50  81 114 143 173 223 281 337
#     4   9  19  35  53  75 107 148 181 223 274 326
#     4   9  20  37  54  76 104 144 184 226 276 327
#     4   9  17  30  51  81 113 143 172 220 291 334
#     4  10  21  36  55  74 103 153 190 220 269 330
#     4   9  16  29  53  83 115 140 176 223 280 337
#     4  10  20  35  53  79 114 145 184 232 277 330
#     4   9  16  30  54  83 114 141 170 229 285 330
#
# _framework density 23.932618000000002
#
# number of rings (size 3 to 8) (size 9 to 14) (size 15 to 20)
#    0.000    2.750    1.250    0.000    1.750    2.000 
#    0.000    0.000    0.000    8.250    0.000    0.000 
#    0.000    0.000    0.000    0.000    0.000    0.000 
#
# Total GULP energy -178748.309136 kJ/mol
# GULP energy per Si atom -5585.884660 kJ/mol
# Density = 2.387815 g / cm^3
# Si number density = 23.932618 Si / 1000 Ang^3
#
#
#
# Elastic Constant Matrix: (Units=GPa)
#
#
# Indices 1 2 3 4 5 6 
#
# 1 206.0431 22.1315 107.7040 0.0000 0.0000 0.0000
# 2 22.1315 81.3389 0.7490 0.0000 0.0000 0.0000
# 3 107.7040 0.7490 152.0574 0.0000 0.0000 0.0000
# 4 0.0000 0.0000 0.0000 13.8473 0.0000 0.0000
# 5 0.0000 0.0000 0.0000 0.0000 23.1237 0.0000
# 6 0.0000 0.0000 0.0000 0.0000 0.0000 26.1737
#
#
#
# Elastic Compliance Matrix: (Units=1/GPa)
#
#
# Indices 1 2 3 4 5 6 
#
# 1 0.008063 -0.002141 -0.005701 0.000000 0.000000 0.000000
# 2 -0.002141 0.012864 0.001453 0.000000 0.000000 0.000000
# 3 -0.005701 0.001453 0.010607 0.000000 0.000000 0.000000
# 4 0.000000 0.000000 0.000000 0.072216 0.000000 0.000000
# 5 0.000000 0.000000 0.000000 0.000000 0.043246 0.000000
# 6 0.000000 0.000000 0.000000 0.000000 0.000000 0.038206
#
#
# Mechanical properties :
#
#
# Convention : Reuss Voigt Hill
#
# Bulk Modulus (GPa) = 53.31488 77.84538 65.58013
# Shear Modulus (GPa) = 24.48196 33.21927 28.85062
#
# Velocity S-wave (km/s) = 3.20183 3.72967 3.47579
# Velocity P-wave (km/s) = 5.99954 7.15156 6.60073
#
# Compressibility (1/GPa) = 0.01875649
#
# Stress axis : x y z
#
# Youngs Moduli (GPa) = 124.01839 77.73921 94.27525
#
# Poissons Ratio (x) = 0.16647 0.53744
# Poissons Ratio (y) = 0.26558 -0.13702
# Poissons Ratio (z) = 0.70700 -0.11299
#
# Static dielectric constant tensor:
#      x y z
#    x 1.959090 0.000000 0.000000 
#    y 0.000000 1.988390 0.000000 
#    z 0.000000 0.000000 1.838470 
# 
# From -- ./inp_files/16600.got.cif
#   From: 2010.05.17/outbox.cif.g08.bks.cpg/sg37_9_cif.got.tgz:16600.got - 2010.06.03 17:53:42.
