data_PCOD9353720
_publ_section_title
;
Structure prediction by ZEFSAII (Michael W. Deem and Ramdas Pophale) SiO2 
 PCOD9353720
Probable space group: C C C 2
;
_chemical_formula_sum "Si O2"
_cell_formula_units_Z 40
_cell_length_a 7.122307
_cell_length_b 12.235982
_cell_length_c 19.106668
_cell_angle_alpha 90.000000
_cell_angle_beta 90.000000
_cell_angle_gamma 90.000000
_cell_volume 1665.115932
_symmetry_space_group_name_H-M "C C C 2"
_symmetry_group_IT_number 37
_symmetry_cell_setting 'orthorhombic'
loop_
_space_group_symop_operation_xyz
x,y,z
-x,-y,z
-x,y,1/2+z
x,-y,1/2+z
1/2+x,1/2+y,z
1/2-x,1/2-y,z
1/2-x,1/2+y,1/2+z
1/2+x,1/2-y,1/2+z
loop_
_atom_site_type_symbol
_atom_site_label
_atom_site_fract_x
_atom_site_fract_y
_atom_site_fract_z
Si Si1 0.700916 0.452021 0.320590
Si Si2 0.628903 0.906003 0.425235
Si Si3 0.531257 0.332626 0.451858
Si Si4 0.870103 0.604060 0.679252
Si Si5 0.566305 0.308002 0.094047
O O1 0.500000 0.500000 0.297421
O O2 0.826659 0.554265 0.346228
O O3 0.659410 0.380759 0.390487
O O4 0.802121 0.388405 0.258961
O O5 0.530059 0.789632 0.430140
O O6 0.839564 0.902781 0.454132
O O7 0.500000 0.000000 0.458560
O O8 0.583720 0.331371 0.534050
O O9 0.675733 0.596586 0.634483
O O10 0.974665 0.713250 0.650996
O O11 0.000000 0.500000 0.669591
O O12 0.750000 0.250000 0.056954
#
# Coordination Sequence:
#
# PCOD9353720 Si02
#       5
#     8   8   8   8   8
#     4  10  22  35  55  90 127 162 205 257 318 371
#     4  10  19  33  58  85 118 161 200 245 312 362
#     4  10  20  40  57  88 129 156 206 269 306 364
#     4   9  18  35  59  86 118 161 213 252 305 385
#     4   8  19  35  62  81 116 170 205 251 316 360
#
# _framework density 24.022352999999999
#
# number of rings (size 3 to 8) (size 9 to 14) (size 15 to 20)
#    1.200    1.200    2.000    0.600    0.000   10.400 
#    0.000    5.000    0.000    4.800    0.000    0.000 
#    0.000    1.600    0.000    0.000    0.000    0.000 
#
# Total GULP energy -111418.275280 kJ/mol
# GULP energy per Si atom -5570.913764 kJ/mol
# Density = 2.396768 g / cm^3
# Si number density = 24.022353 Si / 1000 Ang^3
#
#
#
# Elastic Constant Matrix: (Units=GPa)
#
#
# Indices 1 2 3 4 5 6 
#
# 1 78.0452 46.9903 39.0827 0.0000 0.0000 0.0000
# 2 46.9903 128.2171 62.3852 0.0000 0.0000 0.0000
# 3 39.0827 62.3852 181.0521 0.0000 0.0000 0.0000
# 4 0.0000 0.0000 0.0000 23.9427 0.0000 0.0000
# 5 0.0000 0.0000 0.0000 0.0000 -6.5734 0.0000
# 6 0.0000 0.0000 0.0000 0.0000 0.0000 40.7377
#
#
#
# Elastic Compliance Matrix: (Units=1/GPa)
#
#
# Indices 1 2 3 4 5 6 
#
# 1 0.016927 -0.005317 -0.001822 0.000000 0.000000 0.000000
# 2 -0.005317 0.011040 -0.002656 0.000000 0.000000 0.000000
# 3 -0.001822 -0.002656 0.006832 0.000000 0.000000 0.000000
# 4 0.000000 0.000000 0.000000 0.041766 0.000000 0.000000
# 5 0.000000 0.000000 0.000000 0.000000 -0.152129 0.000000
# 6 0.000000 0.000000 0.000000 0.000000 0.000000 0.024547
#
#
# Mechanical properties :
#
#
# Convention : Reuss Voigt Hill
#
# Bulk Modulus (GPa) = 65.75292 76.02564 70.88928
# Shear Modulus (GPa) = -189.70614 27.54516 -81.08049
#
# Velocity S-wave (km/s) = -8.89619 3.38989 -5.81596
# Velocity P-wave (km/s) = 8.83696 6.85845 3.94040
#
# Compressibility (1/GPa) = 0.01520845
#
# Stress axis : x y z
#
# Youngs Moduli (GPa) = 59.07810 90.57598 146.37311
#
# Poissons Ratio (x) = 0.48160 0.26666
# Poissons Ratio (y) = 0.31412 0.38883
# Poissons Ratio (z) = 0.10763 0.24061
#
# Static dielectric constant tensor:
#      x y z
#    x 2.024440 0.000000 0.000000 
#    y 0.000000 2.005990 0.000000 
#    z 0.000000 0.000000 1.975400 
# 
# From -- ./inp_files/14232.got.cif
#   From: 2010.05.17/outbox.cif.g08.bks.cpg/sg37_8_cif.got.tgz:14232.got - 2010.06.03 17:53:42.
