data_PCOD9353261
_publ_section_title
;
Structure prediction by ZEFSAII (Michael W. Deem and Ramdas Pophale) SiO2 
 PCOD9353261
Probable space group: C M C 21
;
_chemical_formula_sum "Si O2"
_cell_formula_units_Z 48
_cell_length_a 13.716733
_cell_length_b 20.128728
_cell_length_c 8.662103
_cell_angle_alpha 90.000000
_cell_angle_beta 90.000000
_cell_angle_gamma 90.000000
_cell_volume 2391.609996
_symmetry_space_group_name_H-M "C M C 21"
_symmetry_group_IT_number 36
_symmetry_cell_setting 'orthorhombic'
loop_
_space_group_symop_operation_xyz
x,y,z
-x,-y,1/2+z
x,-y,1/2+z
-x,y,z
1/2+x,1/2+y,z
1/2-x,1/2-y,1/2+z
1/2+x,1/2-y,1/2+z
1/2-x,1/2+y,z
loop_
_atom_site_type_symbol
_atom_site_label
_atom_site_fract_x
_atom_site_fract_y
_atom_site_fract_z
Si Si1 0.200052 0.320993 0.348860
Si Si2 0.304190 0.683067 0.173502
Si Si3 0.293772 0.561812 0.660683
Si Si4 0.000000 0.599650 0.867469
Si Si5 0.000000 0.900992 0.657291
Si Si6 0.500000 0.537973 0.502678
Si Si7 0.294530 0.061303 0.335873
Si Si8 0.500000 0.975660 0.688769
O O1 0.248914 0.307309 0.512924
O O2 0.184513 0.253198 0.256770
O O3 0.268386 0.372854 0.257047
O O4 0.096931 0.357062 0.372962
O O5 0.405715 0.645322 0.145795
O O6 0.242755 0.632319 0.278824
O O7 0.401641 0.562500 0.587888
O O8 0.274130 0.496647 0.763942
O O9 0.218388 0.556544 0.518472
O O10 0.000000 0.554647 0.714276
O O11 0.000000 0.550349 0.014421
O O12 0.000000 0.937338 0.825725
O O13 0.000000 0.958267 0.527005
O O14 0.402551 0.049801 0.273074
#
# Coordination Sequence:
#
# PCOD9353261 Si02
#       8
#     8   8   8   4   4   4   8   4
#     4  12  28  48  72 100 146 191 242 293 358 424
#     4  12  26  49  69 101 143 192 238 293 355 423
#     4  12  24  43  71 107 143 186 235 298 353 420
#     4  12  25  46  72 109 143 183 235 301 355 424
#     4  12  27  44  76 105 146 180 240 298 355 424
#     4  12  24  42  73 110 139 178 235 297 356 416
#     4  12  23  43  71 106 141 185 235 294 353 419
#     4  12  24  42  75 110 140 179 232 294 354 424
#
# _framework density 20.070162
#
# number of rings (size 3 to 8) (size 9 to 14) (size 15 to 20)
#    0.000    0.000    6.667    3.500    2.333    0.000 
#    0.000    4.167    0.000    0.000    0.000    0.000 
#    0.000    0.000    0.000    0.000    0.000    0.000 
#
# Total GULP energy -134435.574973 kJ/mol
# GULP energy per Si atom -5601.482291 kJ/mol
# Density = 2.002448 g / cm^3
# Si number density = 20.070162 Si / 1000 Ang^3
#
#
#
# Elastic Constant Matrix: (Units=GPa)
#
#
# Indices 1 2 3 4 5 6 
#
# 1 131.8228 55.5039 18.1540 0.0000 0.0000 0.0000
# 2 55.5039 140.3822 68.4802 0.0000 0.0000 0.0000
# 3 18.1540 68.4802 98.4949 0.0000 0.0000 0.0000
# 4 0.0000 0.0000 0.0000 40.9218 0.0000 0.0000
# 5 0.0000 0.0000 0.0000 0.0000 16.8192 0.0000
# 6 0.0000 0.0000 0.0000 0.0000 0.0000 6.3340
#
#
#
# Elastic Compliance Matrix: (Units=1/GPa)
#
#
# Indices 1 2 3 4 5 6 
#
# 1 0.009203 -0.004254 0.001261 0.000000 0.000000 0.000000
# 2 -0.004254 0.012746 -0.008078 0.000000 0.000000 0.000000
# 3 0.001261 -0.008078 0.015536 0.000000 0.000000 0.000000
# 4 0.000000 0.000000 0.000000 0.024437 0.000000 0.000000
# 5 0.000000 0.000000 0.000000 0.000000 0.059456 0.000000
# 6 0.000000 0.000000 0.000000 0.000000 0.000000 0.157878
#
#
# Mechanical properties :
#
#
# Convention : Reuss Voigt Hill
#
# Bulk Modulus (GPa) = 65.16793 72.77510 68.97152
# Shear Modulus (GPa) = 16.31257 28.05245 22.18251
#
# Velocity S-wave (km/s) = 2.85402 3.74266 3.32813
# Velocity P-wave (km/s) = 6.58795 7.41726 7.01487
#
# Compressibility (1/GPa) = 0.01534497
#
# Stress axis : x y z
#
# Youngs Moduli (GPa) = 108.65498 78.45737 64.36500
#
# Poissons Ratio (x) = 0.33377 -0.08119
# Poissons Ratio (y) = 0.46224 0.51991
# Poissons Ratio (z) = -0.13707 0.63375
#
# Static dielectric constant tensor:
#      x y z
#    x 1.708030 0.000000 0.000000 
#    y 0.000000 1.665440 0.000000 
#    z 0.000000 0.000000 1.700920 
# 
# From -- ./inp_files/4024.got.cif
#   From: 2010.05.17/outbox.cif.g08.bks.cpg/sg36_3_cif.got.tgz:4024.got - 2010.06.03 17:41:39.
