data_PCOD9353309
_publ_section_title
;
Structure prediction by ZEFSAII (Michael W. Deem and Ramdas Pophale) SiO2 
 PCOD9353309
Probable space group: C M C 21
;
_chemical_formula_sum "Si O2"
_cell_formula_units_Z 32
_cell_length_a 9.000000
_cell_length_b 21.000000
_cell_length_c 18.000000
_cell_angle_alpha 90.000000
_cell_angle_beta 90.000000
_cell_angle_gamma 90.000000
_cell_volume 3402.000000
_symmetry_space_group_name_H-M "C M C 21"
_symmetry_group_IT_number 36
_symmetry_cell_setting 'orthorhombic'
loop_
_space_group_symop_operation_xyz
x,y,z
-x,-y,1/2+z
x,-y,1/2+z
-x,y,z
1/2+x,1/2+y,z
1/2-x,1/2-y,1/2+z
1/2+x,1/2-y,1/2+z
1/2-x,1/2+y,z
loop_
_atom_site_type_symbol
_atom_site_label
_atom_site_fract_x
_atom_site_fract_y
_atom_site_fract_z
Si Si1 0.672538 0.145073 0.520770
Si Si2 0.177954 0.799046 0.165492
Si Si3 0.827951 0.033662 0.430809
Si Si4 0.821359 0.839040 0.631034
Si Si5 0.326640 0.830849 0.318563
Si Si6 0.675524 0.612464 0.965945
Si Si7 0.176460 0.901335 0.784149
Si Si8 0.170280 0.710550 0.368383
O O1 0.500000 0.139078 0.542420
O O2 0.769053 0.163647 0.591802
O O3 0.728074 0.082535 0.477276
O O4 0.681318 0.198979 0.456476
O O5 0.244251 0.727055 0.156670
O O6 0.242903 0.833999 0.239091
O O7 0.000000 0.795946 0.169996
O O8 0.804678 0.038212 0.340569
O O9 0.000000 0.052927 0.442410
O O10 0.808908 0.963638 0.463410
O O11 0.776378 0.859839 0.546858
O O12 0.794149 0.892864 0.695580
O O13 0.000000 0.828431 0.628935
O O14 0.500000 0.845515 0.309796
O O15 0.258244 0.865331 0.390983
O O16 0.295577 0.758243 0.341544
O O17 0.500000 0.628368 0.957933
O O18 0.288949 0.852932 0.824030
O O19 0.000000 0.884418 0.791558
O O20 0.000000 0.730664 0.351666
#
# Coordination Sequence:
#
# PCOD9353309 Si02
#       8
#     8   8   8   8   8   8   8   8
#     4  10  21  37  59  86 118 152 189 238 293 347
#     4  12  24  38  59  88 119 150 193 243 297 360
#     4   9  19  38  60  85 117 156 205 245 284 343
#     4  10  20  36  59  87 120 155 193 244 301 352
#     4  12  24  38  57  82 118 156 192 239 299 355
#     4  10  22  40  59  85 122 161 202 246 293 348
#     4   9  17  32  57  84 113 153 195 240 288 341
#     4  10  19  33  56  85 115 149 187 231 287 348
#
# _framework density 9.4062319999999993
#
# number of rings (size 3 to 8) (size 9 to 14) (size 15 to 20)
#    0.000    1.750    1.250    3.750    0.000    5.500 
#    2.250    0.000    0.000    0.000    0.000    0.000 
#    0.000    0.000    0.000    0.000    0.000    0.000 
#
# Total GULP energy -178314.008930 kJ/mol
# GULP energy per Si atom -5572.312779 kJ/mol
# Density = 0.938482 g / cm^3
# Si number density = 9.406232 Si / 1000 Ang^3
#
#
#
# Elastic Constant Matrix: (Units=GPa)
#
#
# Indices 1 2 3 4 5 6 
#
# 1 77.6750 15.2514 58.5886 0.0000 0.0000 0.0000
# 2 15.2514 24.2346 29.0655 0.0000 0.0000 0.0000
# 3 58.5886 29.0655 173.1686 0.0000 0.0000 0.0000
# 4 0.0000 0.0000 0.0000 25.3747 0.0000 0.0000
# 5 0.0000 0.0000 0.0000 0.0000 31.3841 0.0000
# 6 0.0000 0.0000 0.0000 0.0000 0.0000 20.8879
#
#
#
# Elastic Compliance Matrix: (Units=1/GPa)
#
#
# Indices 1 2 3 4 5 6 
#
# 1 0.017751 -0.004968 -0.005172 0.000000 0.000000 0.000000
# 2 -0.004968 0.053054 -0.007224 0.000000 0.000000 0.000000
# 3 -0.005172 -0.007224 0.008737 0.000000 0.000000 0.000000
# 4 0.000000 0.000000 0.000000 0.039409 0.000000 0.000000
# 5 0.000000 0.000000 0.000000 0.000000 0.031863 0.000000
# 6 0.000000 0.000000 0.000000 0.000000 0.000000 0.047875
#
#
# Mechanical properties :
#
#
# Convention : Reuss Voigt Hill
#
# Bulk Modulus (GPa) = 22.31463 53.43214 37.87338
# Shear Modulus (GPa) = 20.13254 27.00752 23.57003
#
# Velocity S-wave (km/s) = 3.27490 3.79307 3.54347
# Velocity P-wave (km/s) = 5.11735 6.90270 6.07596
#
# Compressibility (1/GPa) = 0.04481365
#
# Stress axis : x y z
#
# Youngs Moduli (GPa) = 56.33621 18.84879 114.45607
#
# Poissons Ratio (x) = 0.09365 0.59193
# Poissons Ratio (y) = 0.27989 0.82682
# Poissons Ratio (z) = 0.29135 0.13616
#
# Static dielectric constant tensor:
#      x y z
#    x 1.633620 0.000000 0.000000 
#    y 0.000000 1.690940 0.000000 
#    z 0.000000 0.000000 1.669930 
# 
# From -- ./inp_files/13905.got.cif
#   From: 2010.05.17/outbox.ucp.g08.bks.cvg/sg36_7_cif.got.tgz:13905.got - 2010.06.11 10:37:26.
