data_PCOD9353609
_publ_section_title
;
Structure prediction by ZEFSAII (Michael W. Deem and Ramdas Pophale) SiO2 
 PCOD9353609
Probable space group: C C C 2
;
_chemical_formula_sum "Si O2"
_cell_formula_units_Z 44
_cell_length_a 17.808573
_cell_length_b 12.079861
_cell_length_c 8.133896
_cell_angle_alpha 90.000000
_cell_angle_beta 90.000000
_cell_angle_gamma 90.000000
_cell_volume 1749.805080
_symmetry_space_group_name_H-M "C C C 2"
_symmetry_group_IT_number 37
_symmetry_cell_setting 'orthorhombic'
loop_
_space_group_symop_operation_xyz
x,y,z
-x,-y,z
-x,y,1/2+z
x,-y,1/2+z
1/2+x,1/2+y,z
1/2-x,1/2-y,z
1/2-x,1/2+y,1/2+z
1/2+x,1/2-y,1/2+z
loop_
_atom_site_type_symbol
_atom_site_label
_atom_site_fract_x
_atom_site_fract_y
_atom_site_fract_z
Si Si1 0.119619 0.326229 0.652390
Si Si2 0.000000 0.000000 0.236492
Si Si3 0.540568 0.733104 0.120264
Si Si4 0.675545 0.824229 0.310785
Si Si5 0.134417 0.881753 0.342364
Si Si6 0.213119 0.623564 0.456942
O O1 0.157547 0.373683 0.488242
O O2 0.146765 0.197224 0.683190
O O3 0.151967 0.387693 0.813380
O O4 0.029030 0.318459 0.627283
O O5 0.922661 0.017087 0.329565
O O6 0.004181 0.113792 0.141979
O O7 0.599398 0.757025 0.264858
O O8 0.591529 0.708471 0.960428
O O9 0.750000 0.750000 0.324318
O O10 0.686408 0.893003 0.142270
O O11 0.210206 0.936228 0.408864
O O12 0.250000 0.750000 0.453088
#
# Coordination Sequence:
#
# PCOD9353609 Si02
#       6
#     8   4   8   8   8   8
#     4  10  19  30  50  72  98 139 183 229 276 322
#     4  10  22  30  54  78 108 160 188 208 274 344
#     4  11  20  34  49  76 113 144 184 228 267 336
#     4  11  19  31  51  72  98 143 182 229 279 324
#     4  10  18  36  48  71 111 149 188 229 269 329
#     4   9  17  33  49  68  98 138 181 230 277 316
#
# _framework density 25.145658000000001
#
# number of rings (size 3 to 8) (size 9 to 14) (size 15 to 20)
#    0.000    1.818    5.455    4.364    0.000    1.455 
#    0.000    0.000    0.000    0.000    0.000    0.000 
#    0.000    1.455    1.455    0.000    0.000    0.000 
#
# Total GULP energy -122698.620369 kJ/mol
# GULP energy per Si atom -5577.210017 kJ/mol
# Density = 2.508843 g / cm^3
# Si number density = 25.145658 Si / 1000 Ang^3
#
#
#
# Elastic Constant Matrix: (Units=GPa)
#
#
# Indices 1 2 3 4 5 6 
#
# 1 187.8744 19.7452 77.0860 0.0000 0.0000 0.0000
# 2 19.7452 43.3469 28.6879 0.0000 0.0000 0.0000
# 3 77.0860 28.6879 164.9836 0.0000 0.0000 0.0000
# 4 0.0000 0.0000 0.0000 16.3579 0.0000 0.0000
# 5 0.0000 0.0000 0.0000 0.0000 36.8343 0.0000
# 6 0.0000 0.0000 0.0000 0.0000 0.0000 22.5230
#
#
#
# Elastic Compliance Matrix: (Units=1/GPa)
#
#
# Indices 1 2 3 4 5 6 
#
# 1 0.006631 -0.001096 -0.002908 0.000000 0.000000 0.000000
# 2 -0.001096 0.026251 -0.004052 0.000000 0.000000 0.000000
# 3 -0.002908 -0.004052 0.008124 0.000000 0.000000 0.000000
# 4 0.000000 0.000000 0.000000 0.061133 0.000000 0.000000
# 5 0.000000 0.000000 0.000000 0.000000 0.027149 0.000000
# 6 0.000000 0.000000 0.000000 0.000000 0.000000 0.044399
#
#
# Mechanical properties :
#
#
# Convention : Reuss Voigt Hill
#
# Bulk Modulus (GPa) = 40.17045 71.91588 56.04317
# Shear Modulus (GPa) = 25.24015 33.18875 29.21445
#
# Velocity S-wave (km/s) = 3.17165 3.63693 3.41223
# Velocity P-wave (km/s) = 5.42423 6.80427 6.15307
#
# Compressibility (1/GPa) = 0.02489392
#
# Stress axis : x y z
#
# Youngs Moduli (GPa) = 150.80885 38.09374 123.08631
#
# Poissons Ratio (x) = 0.04176 0.35788
# Poissons Ratio (y) = 0.16532 0.49880
# Poissons Ratio (z) = 0.43849 0.15437
#
# Static dielectric constant tensor:
#      x y z
#    x 2.193540 0.000000 0.000000 
#    y 0.000000 2.046250 0.000000 
#    z 0.000000 0.000000 2.136260 
# 
# From -- ./inp_files/3951.got.cif
#   From: 2010.05.17/outbox.cif.g08.bks.cpg/sg37_2_cif.got.tgz:3951.got - 2010.06.03 17:53:42.
