data_PCOD9353896
_publ_section_title
;
Structure prediction by ZEFSAII (Michael W. Deem and Ramdas Pophale) SiO2 
 PCOD9353896
Probable space group: C C C 2
;
_chemical_formula_sum "Si O2"
_cell_formula_units_Z 44
_cell_length_a 5.247443
_cell_length_b 13.809333
_cell_length_c 29.420667
_cell_angle_alpha 90.000000
_cell_angle_beta 90.000000
_cell_angle_gamma 90.000000
_cell_volume 2131.930028
_symmetry_space_group_name_H-M "C C C 2"
_symmetry_group_IT_number 37
_symmetry_cell_setting 'orthorhombic'
loop_
_space_group_symop_operation_xyz
x,y,z
-x,-y,z
-x,y,1/2+z
x,-y,1/2+z
1/2+x,1/2+y,z
1/2-x,1/2-y,z
1/2-x,1/2+y,1/2+z
1/2+x,1/2-y,1/2+z
loop_
_atom_site_type_symbol
_atom_site_label
_atom_site_fract_x
_atom_site_fract_y
_atom_site_fract_z
Si Si1 0.750000 0.250000 0.425980
Si Si2 0.750000 0.250000 0.986309
Si Si3 0.626797 0.356820 0.267704
Si Si4 0.500000 0.500000 0.688753
Si Si5 0.372168 0.099531 0.860502
Si Si6 0.763050 0.560408 0.545240
Si Si7 0.750000 0.250000 0.822615
Si Si8 0.000000 0.500000 0.631806
O O1 0.501071 0.232516 0.456349
O O2 0.807699 0.150170 0.397440
O O3 0.710866 0.343271 0.017886
O O4 0.750000 0.250000 0.262163
O O5 0.602675 0.415943 0.222066
O O6 0.758322 0.412674 0.309798
O O7 0.355805 0.331568 0.289128
O O8 0.247984 0.531665 0.660584
O O9 0.559251 0.190687 0.853470
O O10 0.500000 0.000000 0.874979
O O11 0.500000 0.500000 0.548668
O O12 0.000000 0.500000 0.523475
O O13 0.878242 0.577152 0.596164
#
# Coordination Sequence:
#
# PCOD9353896 Si02
#       8
#     4   4   8   4   8   8   4   4
#     4  12  26  44  66 112 136 167 257 280 310 434
#     4  12  27  46  76 101 134 181 220 296 348 415
#     4  10  23  39  65  93 137 190 227 282 327 399
#     4  12  24  42  66 106 134 176 234 274 340 396
#     4  11  23  42  64  91 140 195 220 283 344 376
#     4  10  22  49  74  99 135 176 212 278 369 414
#     4  10  19  42  60  89 130 188 243 262 324 403
#     4  10  24  46  70 100 138 166 224 296 324 442
#
# _framework density 20.638574999999999
#
# number of rings (size 3 to 8) (size 9 to 14) (size 15 to 20)
#    0.545    0.727    3.636    2.727    6.364    2.182 
#    1.636    3.636    0.000    0.000    0.000    0.000 
#    0.000    0.000    0.000    0.000    0.000    0.000 
#
# Total GULP energy -122565.674817 kJ/mol
# GULP energy per Si atom -5571.167037 kJ/mol
# Density = 2.059160 g / cm^3
# Si number density = 20.638575 Si / 1000 Ang^3
#
#
#
# Elastic Constant Matrix: (Units=GPa)
#
#
# Indices 1 2 3 4 5 6 
#
# 1 105.5757 23.5337 36.2494 0.0000 0.0000 0.0000
# 2 23.5337 96.9873 51.4042 0.0000 0.0000 0.0000
# 3 36.2494 51.4042 102.6462 0.0000 0.0000 0.0000
# 4 0.0000 0.0000 0.0000 77.5932 0.0000 0.0000
# 5 0.0000 0.0000 0.0000 0.0000 40.1912 0.0000
# 6 0.0000 0.0000 0.0000 0.0000 0.0000 27.1290
#
#
#
# Elastic Compliance Matrix: (Units=1/GPa)
#
#
# Indices 1 2 3 4 5 6 
#
# 1 0.010826 -0.000818 -0.003414 0.000000 0.000000 0.000000
# 2 -0.000818 0.014098 -0.006771 0.000000 0.000000 0.000000
# 3 -0.003414 -0.006771 0.014339 0.000000 0.000000 0.000000
# 4 0.000000 0.000000 0.000000 0.012888 0.000000 0.000000
# 5 0.000000 0.000000 0.000000 0.000000 0.024881 0.000000
# 6 0.000000 0.000000 0.000000 0.000000 0.000000 0.036861
#
#
# Mechanical properties :
#
#
# Convention : Reuss Voigt Hill
#
# Bulk Modulus (GPa) = 57.94614 58.62043 58.28329
# Shear Modulus (GPa) = 35.29806 41.91746 38.60776
#
# Velocity S-wave (km/s) = 4.14006 4.51158 4.32981
# Velocity P-wave (km/s) = 7.14080 7.45682 7.30052
#
# Compressibility (1/GPa) = 0.01725740
#
# Stress axis : x y z
#
# Youngs Moduli (GPa) = 92.36798 70.93254 69.74066
#
# Poissons Ratio (x) = 0.05799 0.23808
# Poissons Ratio (y) = 0.07552 0.47224
# Poissons Ratio (z) = 0.31533 0.48031
#
# Static dielectric constant tensor:
#      x y z
#    x 1.834150 0.000000 0.000000 
#    y 0.000000 1.690570 0.000000 
#    z 0.000000 0.000000 1.790030 
# 
# From -- ./inp_files/19302.got.cif
#   From: 2010.05.17/outbox.cif.g08.bks.cpg/sg37_10_cif.got.tgz:19302.got - 2010.06.03 17:53:42.
