data_PCOD9353894
_publ_section_title
;
Structure prediction by ZEFSAII (Michael W. Deem and Ramdas Pophale) SiO2 
 PCOD9353894
Probable space group: C C C 2
;
_chemical_formula_sum "Si O2"
_cell_formula_units_Z 48
_cell_length_a 14.200669
_cell_length_b 16.403324
_cell_length_c 8.744034
_cell_angle_alpha 90.000000
_cell_angle_beta 90.000000
_cell_angle_gamma 90.000000
_cell_volume 2036.819319
_symmetry_space_group_name_H-M "C C C 2"
_symmetry_group_IT_number 37
_symmetry_cell_setting 'orthorhombic'
loop_
_space_group_symop_operation_xyz
x,y,z
-x,-y,z
-x,y,1/2+z
x,-y,1/2+z
1/2+x,1/2+y,z
1/2-x,1/2-y,z
1/2-x,1/2+y,1/2+z
1/2+x,1/2-y,1/2+z
loop_
_atom_site_type_symbol
_atom_site_label
_atom_site_fract_x
_atom_site_fract_y
_atom_site_fract_z
Si Si1 0.410250 0.374165 0.837680
Si Si2 0.601603 0.848886 0.131110
Si Si3 0.047610 0.732149 0.943141
Si Si4 0.755477 0.421583 0.817151
Si Si5 0.750000 0.250000 0.958976
Si Si6 0.139296 0.010815 0.574061
Si Si7 0.250000 0.750000 0.429123
O O1 0.488477 0.314008 0.910348
O O2 0.411858 0.415790 0.667746
O O3 0.315841 0.317287 0.844679
O O4 0.409299 0.451435 0.952429
O O5 0.571941 0.792793 0.271622
O O6 0.647149 0.925981 0.221200
O O7 0.512063 0.841148 0.019707
O O8 0.682803 0.806352 0.032084
O O9 0.146808 0.740360 0.033799
O O10 0.738982 0.327939 0.852991
O O11 0.674693 0.452993 0.708087
O O12 0.733556 0.460576 0.981802
#
# Coordination Sequence:
#
# PCOD9353894 Si02
#       7
#     8   8   8   8   4   8   4
#     4  10  22  41  67 110 143 192 230 296 356 457
#     4  10  20  41  64  99 134 180 240 299 343 411
#     4  10  23  39  69  98 137 183 249 299 349 409
#     4  10  21  41  68  97 139 190 220 294 349 435
#     4  10  23  43  70  94 137 191 246 304 345 413
#     4  10  22  40  66 108 150 182 227 277 386 441
#     4  10  19  41  74  92 143 187 244 290 357 415
#
# _framework density 23.566154999999998
#
# number of rings (size 3 to 8) (size 9 to 14) (size 15 to 20)
#    0.000    2.000    1.667    2.000    7.000    0.667 
#    9.000    5.000    0.000   12.000    0.000    0.000 
#    0.000    0.000    0.000    0.000    0.000    0.000 
#
# Total GULP energy -133617.450436 kJ/mol
# GULP energy per Si atom -5567.393768 kJ/mol
# Density = 2.351252 g / cm^3
# Si number density = 23.566155 Si / 1000 Ang^3
#
#
#
# Elastic Constant Matrix: (Units=GPa)
#
#
# Indices 1 2 3 4 5 6 
#
# 1 119.4608 8.1602 21.0760 0.0000 0.0000 0.0000
# 2 8.1602 61.3713 23.7935 0.0000 0.0000 0.0000
# 3 21.0760 23.7935 104.0265 0.0000 0.0000 0.0000
# 4 0.0000 0.0000 0.0000 -18.8540 0.0000 0.0000
# 5 0.0000 0.0000 0.0000 0.0000 15.4574 0.0000
# 6 0.0000 0.0000 0.0000 0.0000 0.0000 32.4353
#
#
#
# Elastic Compliance Matrix: (Units=1/GPa)
#
#
# Indices 1 2 3 4 5 6 
#
# 1 0.008696 -0.000519 -0.001643 0.000000 0.000000 0.000000
# 2 -0.000519 0.017911 -0.003991 0.000000 0.000000 0.000000
# 3 -0.001643 -0.003991 0.010859 0.000000 0.000000 0.000000
# 4 0.000000 0.000000 0.000000 -0.053039 0.000000 0.000000
# 5 0.000000 0.000000 0.000000 0.000000 0.064694 0.000000
# 6 0.000000 0.000000 0.000000 0.000000 0.000000 0.030831
#
#
# Mechanical properties :
#
#
# Convention : Reuss Voigt Hill
#
# Bulk Modulus (GPa) = 39.74846 43.43532 41.59189
# Shear Modulus (GPa) = 49.67958 21.26300 35.47129
#
# Velocity S-wave (km/s) = 4.59638 3.00704 3.88387
# Velocity P-wave (km/s) = 6.71359 5.52518 6.14817
#
# Compressibility (1/GPa) = 0.02515821
#
# Stress axis : x y z
#
# Youngs Moduli (GPa) = 114.99133 55.83234 92.09136
#
# Poissons Ratio (x) = 0.02899 0.15132
# Poissons Ratio (y) = 0.05971 0.36758
# Poissons Ratio (z) = 0.18894 0.22285
#
# Static dielectric constant tensor:
#      x y z
#    x 2.097740 0.000000 0.000000 
#    y 0.000000 1.992320 0.000000 
#    z 0.000000 0.000000 1.921380 
# 
# From -- ./inp_files/3528.got.cif
#   From: 2010.05.17/outbox.cif.g08.bks.cpg/sg37_2_cif.got.tgz:3528.got - 2010.06.03 17:53:42.
