data_PCOD9353579
_publ_section_title
;
Structure prediction by ZEFSAII (Michael W. Deem and Ramdas Pophale) SiO2 
 PCOD9353579
Probable space group: C C C 2
;
_chemical_formula_sum "Si O2"
_cell_formula_units_Z 60
_cell_length_a 11.170169
_cell_length_b 15.063139
_cell_length_c 18.639777
_cell_angle_alpha 90.000000
_cell_angle_beta 90.000000
_cell_angle_gamma 90.000000
_cell_volume 3136.288025
_symmetry_space_group_name_H-M "C C C 2"
_symmetry_group_IT_number 37
_symmetry_cell_setting 'orthorhombic'
loop_
_space_group_symop_operation_xyz
x,y,z
-x,-y,z
-x,y,1/2+z
x,-y,1/2+z
1/2+x,1/2+y,z
1/2-x,1/2-y,z
1/2-x,1/2+y,1/2+z
1/2+x,1/2-y,1/2+z
loop_
_atom_site_type_symbol
_atom_site_label
_atom_site_fract_x
_atom_site_fract_y
_atom_site_fract_z
Si Si1 0.150594 0.183266 0.077930
Si Si2 0.333438 0.123848 0.700575
Si Si3 0.098506 0.810247 0.141245
Si Si4 0.219955 0.481864 0.005886
Si Si5 0.000000 0.500000 0.607238
Si Si6 0.165428 0.174488 0.480239
Si Si7 0.186593 0.382913 0.864966
Si Si8 0.421639 0.716746 0.421389
O O1 0.250000 0.250000 0.110324
O O2 0.189806 0.088865 0.043157
O O3 0.041257 0.167282 0.132773
O O4 0.114829 0.234674 0.004254
O O5 0.199567 0.119772 0.666289
O O6 0.376600 0.225882 0.691761
O O7 0.323841 0.093645 0.782313
O O8 0.431948 0.070023 0.656867
O O9 0.129071 0.787070 0.058553
O O10 0.104330 0.468492 0.054956
O O11 0.274164 0.580502 0.998943
O O12 0.183433 0.457460 0.925000
O O13 0.250000 0.250000 0.447608
O O14 0.047654 0.167301 0.430593
O O15 0.316423 0.337616 0.881853
O O16 0.083148 0.311265 0.882756
#
# Coordination Sequence:
#
# PCOD9353579 Si02
#       8
#     8   8   8   8   4   8   8   8
#     4  10  18  33  60  96 127 162 218 272 323 369
#     4  11  22  40  64  91 130 174 212 258 335 402
#     4  10  19  35  63  88 126 170 211 261 320 394
#     4  11  23  39  65  96 127 167 220 278 318 383
#     4  12  24  40  60  94 128 160 220 278 308 388
#     4  11  21  36  60  94 128 163 221 272 326 368
#     4  10  21  39  66  91 124 169 213 258 334 388
#     4   9  18  35  60  90 123 161 213 263 304 393
#
# _framework density 19.130897000000001
#
# number of rings (size 3 to 8) (size 9 to 14) (size 15 to 20)
#    0.000    1.600    5.333    2.400    3.733    5.333 
#    0.000    0.000    8.800    3.200    0.000    0.000 
#    0.000    0.000    0.000    0.000    0.000    0.000 
#
# Total GULP energy -167005.431216 kJ/mol
# GULP energy per Si atom -5566.847707 kJ/mol
# Density = 1.908735 g / cm^3
# Si number density = 19.130897 Si / 1000 Ang^3
#
#
#
# Elastic Constant Matrix: (Units=GPa)
#
#
# Indices 1 2 3 4 5 6 
#
# 1 120.7580 43.9396 52.8109 0.0000 0.0000 0.0000
# 2 43.9396 74.6866 23.0632 0.0000 0.0000 0.0000
# 3 52.8109 23.0632 93.0759 0.0000 0.0000 0.0000
# 4 0.0000 0.0000 0.0000 26.9717 0.0000 0.0000
# 5 0.0000 0.0000 0.0000 0.0000 6.2137 0.0000
# 6 0.0000 0.0000 0.0000 0.0000 0.0000 16.9175
#
#
#
# Elastic Compliance Matrix: (Units=1/GPa)
#
#
# Indices 1 2 3 4 5 6 
#
# 1 0.012988 -0.005810 -0.005930 0.000000 0.000000 0.000000
# 2 -0.005810 0.017098 -0.000940 0.000000 0.000000 0.000000
# 3 -0.005930 -0.000940 0.014341 0.000000 0.000000 0.000000
# 4 0.000000 0.000000 0.000000 0.037076 0.000000 0.000000
# 5 0.000000 0.000000 0.000000 0.000000 0.160935 0.000000
# 6 0.000000 0.000000 0.000000 0.000000 0.000000 0.059110
#
#
# Mechanical properties :
#
#
# Convention : Reuss Voigt Hill
#
# Bulk Modulus (GPa) = 52.44510 58.68311 55.56410
# Shear Modulus (GPa) = 15.00309 21.26769 18.13539
#
# Velocity S-wave (km/s) = 2.80345 3.33782 3.08224
# Velocity P-wave (km/s) = 6.16056 6.75247 6.46329
#
# Compressibility (1/GPa) = 0.01906756
#
# Stress axis : x y z
#
# Youngs Moduli (GPa) = 76.99132 58.48703 69.72800
#
# Poissons Ratio (x) = 0.33982 0.41348
# Poissons Ratio (y) = 0.44734 0.06554
# Poissons Ratio (z) = 0.45655 0.05498
#
# Static dielectric constant tensor:
#      x y z
#    x 1.767650 0.000000 0.000000 
#    y 0.000000 1.733320 0.000000 
#    z 0.000000 0.000000 1.634880 
# 
# From -- ./inp_files/15071.got.cif
#   From: 2010.05.17/outbox.cif.g08.bks.cpg/sg37_8_cif.got.tgz:15071.got - 2010.06.03 17:53:42.
