data_PCOD9353080
_publ_section_title
;
Structure prediction by ZEFSAII (Michael W. Deem and Ramdas Pophale) SiO2 
 PCOD9353080
Probable space group: C M C 21
;
_chemical_formula_sum "Si O2"
_cell_formula_units_Z 52
_cell_length_a 20.101228
_cell_length_b 13.830458
_cell_length_c 8.440397
_cell_angle_alpha 90.000000
_cell_angle_beta 90.000000
_cell_angle_gamma 90.000000
_cell_volume 2346.507930
_symmetry_space_group_name_H-M "C M C 21"
_symmetry_group_IT_number 36
_symmetry_cell_setting 'orthorhombic'
loop_
_space_group_symop_operation_xyz
x,y,z
-x,-y,1/2+z
x,-y,1/2+z
-x,y,z
1/2+x,1/2+y,z
1/2-x,1/2-y,1/2+z
1/2+x,1/2-y,1/2+z
1/2-x,1/2+y,z
loop_
_atom_site_type_symbol
_atom_site_label
_atom_site_fract_x
_atom_site_fract_y
_atom_site_fract_z
Si Si1 0.713659 0.382395 0.801800
Si Si2 0.604248 0.023829 0.043488
Si Si3 0.000000 0.573627 0.304213
Si Si4 0.074161 0.149337 0.703126
Si Si5 0.799220 0.428932 0.291832
Si Si6 0.789498 0.230218 0.630859
Si Si7 0.574380 0.453107 0.859474
O O1 0.752461 0.481101 0.839237
O O2 0.752590 0.330845 0.659935
O O3 0.636532 0.405896 0.769545
O O4 0.714681 0.314015 0.955809
O O5 0.656385 0.960921 0.142569
O O6 0.557786 0.079096 0.165872
O O7 0.558079 0.954593 0.936747
O O8 0.646661 0.092091 0.927267
O O9 0.134822 0.222928 0.692602
O O10 0.076851 0.086548 0.539428
O O11 0.000000 0.193527 0.717866
O O12 0.081870 0.068658 0.840045
O O13 0.751948 0.343901 0.239333
O O14 0.500000 0.429651 0.797972
#
# Coordination Sequence:
#
# PCOD9353080 Si02
#       7
#     8   8   4   8   8   8   8
#     4  11  24  38  60  91 127 164 208 260 317 382
#     4   9  18  32  62  80 119 152 208 260 303 368
#     4   8  16  34  56  90 106 162 214 248 302 366
#     4   9  18  35  61  88 118 157 203 254 311 370
#     4  11  20  37  59  92 121 160 206 260 321 378
#     4  11  24  38  60  91 127 164 208 260 317 382
#     4   9  18  35  61  88 118 157 203 254 311 370
#
# _framework density 22.160589999999999
#
# number of rings (size 3 to 8) (size 9 to 14) (size 15 to 20)
#    0.000    2.154    3.077    0.000    2.154    1.231 
#    0.000    0.000   20.308    0.000    0.000    0.000 
#    0.000    0.000    0.000    0.000    0.000    0.000 
#
# Total GULP energy -144752.855108 kJ/mol
# GULP energy per Si atom -5567.417504 kJ/mol
# Density = 2.211015 g / cm^3
# Si number density = 22.160590 Si / 1000 Ang^3
#
#
#
# Elastic Constant Matrix: (Units=GPa)
#
#
# Indices 1 2 3 4 5 6 
#
# 1 177.7223 34.7122 47.5289 0.0000 0.0000 0.0000
# 2 34.7122 47.7927 7.1723 0.0000 0.0000 0.0000
# 3 47.5289 7.1723 68.4791 0.0000 0.0000 0.0000
# 4 0.0000 0.0000 0.0000 18.7344 0.0000 0.0000
# 5 0.0000 0.0000 0.0000 0.0000 47.9650 0.0000
# 6 0.0000 0.0000 0.0000 0.0000 0.0000 26.1217
#
#
#
# Elastic Compliance Matrix: (Units=1/GPa)
#
#
# Indices 1 2 3 4 5 6 
#
# 1 0.007940 -0.005019 -0.004985 0.000000 0.000000 0.000000
# 2 -0.005019 0.024430 0.000925 0.000000 0.000000 0.000000
# 3 -0.004985 0.000925 0.017966 0.000000 0.000000 0.000000
# 4 0.000000 0.000000 0.000000 0.053378 0.000000 0.000000
# 5 0.000000 0.000000 0.000000 0.000000 0.020849 0.000000
# 6 0.000000 0.000000 0.000000 0.000000 0.000000 0.038282
#
#
# Mechanical properties :
#
#
# Convention : Reuss Voigt Hill
#
# Bulk Modulus (GPa) = 31.07751 52.53567 41.80659
# Shear Modulus (GPa) = 26.07823 32.20292 29.14058
#
# Velocity S-wave (km/s) = 3.43415 3.81617 3.63019
# Velocity P-wave (km/s) = 5.45699 6.57083 6.03964
#
# Compressibility (1/GPa) = 0.03217761
#
# Stress axis : x y z
#
# Youngs Moduli (GPa) = 125.93961 40.93285 55.65962
#
# Poissons Ratio (x) = 0.20544 0.27749
# Poissons Ratio (y) = 0.63209 -0.05147
# Poissons Ratio (z) = 0.62786 -0.03785
#
# Static dielectric constant tensor:
#      x y z
#    x 1.801470 0.000000 0.000000 
#    y 0.000000 1.830290 0.000000 
#    z 0.000000 0.000000 1.822150 
# 
# From -- ./inp_files/4777.got.cif
#   From: 2010.05.17/outbox.cif.g08.bks.cpg/sg36_3_cif.got.tgz:4777.got - 2010.06.03 17:41:39.
