data_PCOD9353192
_publ_section_title
;
Structure prediction by ZEFSAII (Michael W. Deem and Ramdas Pophale) SiO2 
 PCOD9353192
Probable space group: C M C 21
;
_chemical_formula_sum "Si O2"
_cell_formula_units_Z 64
_cell_length_a 29.596660
_cell_length_b 8.896332
_cell_length_c 10.635739
_cell_angle_alpha 90.000000
_cell_angle_beta 90.000000
_cell_angle_gamma 90.000000
_cell_volume 2800.408303
_symmetry_space_group_name_H-M "C M C 21"
_symmetry_group_IT_number 36
_symmetry_cell_setting 'orthorhombic'
loop_
_space_group_symop_operation_xyz
x,y,z
-x,-y,1/2+z
x,-y,1/2+z
-x,y,z
1/2+x,1/2+y,z
1/2-x,1/2-y,1/2+z
1/2+x,1/2-y,1/2+z
1/2-x,1/2+y,z
loop_
_atom_site_type_symbol
_atom_site_label
_atom_site_fract_x
_atom_site_fract_y
_atom_site_fract_z
Si Si1 0.276477 0.024020 0.007380
Si Si2 0.322710 0.212098 0.196995
Si Si3 0.682081 0.457072 0.645885
Si Si4 0.586696 0.370512 0.630914
Si Si5 0.947111 0.962716 0.373003
Si Si6 0.053314 0.459781 0.073287
Si Si7 0.235433 0.788512 0.842542
Si Si8 0.911702 0.368335 0.816495
O O1 0.313447 0.065998 0.110921
O O2 0.226364 0.057263 0.061503
O O3 0.287075 0.140867 0.896301
O O4 0.267163 0.863925 0.947878
O O5 0.336713 0.371874 0.136913
O O6 0.272189 0.255921 0.239659
O O7 0.358925 0.170263 0.301507
O O8 0.640290 0.352271 0.610656
O O9 0.700171 0.405915 0.783648
O O10 0.578531 0.439916 0.768274
O O11 0.568726 0.476095 0.517656
O O12 0.561864 0.211870 0.617186
O O13 0.937633 0.788277 0.339537
O O14 0.000000 0.995896 0.363931
O O15 0.072809 0.562749 0.184002
O O16 0.000000 0.486511 0.057978
O O17 0.077133 0.471596 0.936789
#
# Coordination Sequence:
#
# PCOD9353192 Si02
#       8
#     8   8   8   8   8   8   8   8
#     4  11  24  40  67  91 138 180 223 279 337 403
#     4  11  24  42  62 102 130 174 233 276 342 401
#     4  11  24  43  64 100 133 176 229 284 340 400
#     4  11  25  41  73 100 139 180 226 288 350 417
#     4  11  23  44  69 103 137 179 227 284 353 426
#     4  11  25  48  70 103 141 181 228 293 358 417
#     4  11  24  40  68  90 135 183 220 281 337 405
#     4  11  25  44  73  99 137 185 230 289 345 423
#
# _framework density 22.853811
#
# number of rings (size 3 to 8) (size 9 to 14) (size 15 to 20)
#    0.000    1.000    3.750    3.000    7.000    2.000 
#    0.000    2.500    0.000    0.000    0.000    0.000 
#    0.000    0.000    0.000    0.000    0.000    0.000 
#
# Total GULP energy -178784.223552 kJ/mol
# GULP energy per Si atom -5587.006986 kJ/mol
# Density = 2.280179 g / cm^3
# Si number density = 22.853811 Si / 1000 Ang^3
#
#
#
# Elastic Constant Matrix: (Units=GPa)
#
#
# Indices 1 2 3 4 5 6 
#
# 1 83.7749 -6.9274 4.3804 0.0000 0.0000 0.0000
# 2 -6.9274 40.9616 6.9914 0.0000 0.0000 0.0000
# 3 4.3804 6.9914 47.8310 0.0000 0.0000 0.0000
# 4 0.0000 0.0000 0.0000 41.6749 0.0000 0.0000
# 5 0.0000 0.0000 0.0000 0.0000 33.7669 0.0000
# 6 0.0000 0.0000 0.0000 0.0000 0.0000 8.1542
#
#
#
# Elastic Compliance Matrix: (Units=1/GPa)
#
#
# Indices 1 2 3 4 5 6 
#
# 1 0.012204 0.002312 -0.001456 0.000000 0.000000 0.000000
# 2 0.002312 0.025476 -0.003936 0.000000 0.000000 0.000000
# 3 -0.001456 -0.003936 0.021616 0.000000 0.000000 0.000000
# 4 0.000000 0.000000 0.000000 0.023995 0.000000 0.000000
# 5 0.000000 0.000000 0.000000 0.000000 0.029615 0.000000
# 6 0.000000 0.000000 0.000000 0.000000 0.000000 0.122637
#
#
# Mechanical properties :
#
#
# Convention : Reuss Voigt Hill
#
# Bulk Modulus (GPa) = 18.81895 20.16179 19.49037
# Shear Modulus (GPa) = 19.27433 27.92741 23.60087
#
# Velocity S-wave (km/s) = 2.90724 3.49951 3.21703
# Velocity P-wave (km/s) = 4.41835 5.01697 4.72714
#
# Compressibility (1/GPa) = 0.05313793
#
# Stress axis : x y z
#
# Youngs Moduli (GPa) = 81.93986 39.25277 46.26305
#
# Poissons Ratio (x) = -0.09077 0.06734
# Poissons Ratio (y) = -0.18948 0.18207
# Poissons Ratio (z) = 0.11928 0.15448
#
# Static dielectric constant tensor:
#      x y z
#    x 1.803000 0.000000 0.000000 
#    y 0.000000 1.876820 0.000000 
#    z 0.000000 0.000000 1.919500 
# 
# From -- ./inp_files/9737.got.cif
#   From: 2010.05.17/outbox.cif.g08.bks.cpg/sg36_5_cif.got.tgz:9737.got - 2010.06.03 17:41:39.
