data_PCOD9353877
_publ_section_title
;
Structure prediction by ZEFSAII (Michael W. Deem and Ramdas Pophale) SiO2 
 PCOD9353877
Probable space group: C C C 2
;
_chemical_formula_sum "Si O2"
_cell_formula_units_Z 32
_cell_length_a 11.796499
_cell_length_b 8.887221
_cell_length_c 13.708193
_cell_angle_alpha 90.000000
_cell_angle_beta 90.000000
_cell_angle_gamma 90.000000
_cell_volume 1437.140821
_symmetry_space_group_name_H-M "C C C 2"
_symmetry_group_IT_number 37
_symmetry_cell_setting 'orthorhombic'
loop_
_space_group_symop_operation_xyz
x,y,z
-x,-y,z
-x,y,1/2+z
x,-y,1/2+z
1/2+x,1/2+y,z
1/2-x,1/2-y,z
1/2-x,1/2+y,1/2+z
1/2+x,1/2-y,1/2+z
loop_
_atom_site_type_symbol
_atom_site_label
_atom_site_fract_x
_atom_site_fract_y
_atom_site_fract_z
Si Si1 0.098522 0.873669 0.250000
Si Si2 0.126927 0.669047 0.069997
Si Si3 0.746049 0.593053 0.135287
Si Si4 0.062428 0.839174 0.466715
O O1 0.081146 0.743522 0.170549
O O2 0.111080 0.815026 0.359034
O O3 0.205076 0.965972 0.209755
O O4 0.000000 0.000000 0.245333
O O5 0.250000 0.750000 0.048509
O O6 0.150250 0.492053 0.082949
O O7 0.034630 0.718881 0.991536
O O8 0.750000 0.750000 0.191713
O O9 0.656183 0.637427 0.050513
O O10 0.000000 0.000000 0.464998
#
# Coordination Sequence:
#
# PCOD9353877 Si02
#       4
#     8   8   8   8
#     4  10  20  40  65  86 127 171 216 268 336 396
#     4  10  19  40  69  90 121 177 215 262 331 398
#     4  11  23  40  64  98 133 167 225 277 334 399
#     4  11  20  40  67  94 128 173 218 277 336 395
#
# _framework density 22.266434
#
# number of rings (size 3 to 8) (size 9 to 14) (size 15 to 20)
#    0.000    1.500    7.500    0.000    0.000    4.000 
#    9.000    0.000   11.000    0.000    0.000    0.000 
#    0.000    0.000    0.000    0.000    0.000    0.000 
#
# Total GULP energy -89311.904181 kJ/mol
# GULP energy per Si atom -5581.994011 kJ/mol
# Density = 2.221575 g / cm^3
# Si number density = 22.266434 Si / 1000 Ang^3
#
#
#
# Elastic Constant Matrix: (Units=GPa)
#
#
# Indices 1 2 3 4 5 6 
#
# 1 76.7859 29.7992 41.4865 0.0000 0.0000 0.0000
# 2 29.7992 121.0825 11.0842 0.0000 0.0000 0.0000
# 3 41.4865 11.0842 117.9118 0.0000 0.0000 0.0000
# 4 0.0000 0.0000 0.0000 8.9938 0.0000 0.0000
# 5 0.0000 0.0000 0.0000 0.0000 10.2161 0.0000
# 6 0.0000 0.0000 0.0000 0.0000 0.0000 46.9497
#
#
#
# Elastic Compliance Matrix: (Units=1/GPa)
#
#
# Indices 1 2 3 4 5 6 
#
# 1 0.017667 -0.003812 -0.005858 0.000000 0.000000 0.000000
# 2 -0.003812 0.009153 0.000481 0.000000 0.000000 0.000000
# 3 -0.005858 0.000481 0.010497 0.000000 0.000000 0.000000
# 4 0.000000 0.000000 0.000000 0.111187 0.000000 0.000000
# 5 0.000000 0.000000 0.000000 0.000000 0.097885 0.000000
# 6 0.000000 0.000000 0.000000 0.000000 0.000000 0.021299
#
#
# Mechanical properties :
#
#
# Convention : Reuss Voigt Hill
#
# Bulk Modulus (GPa) = 52.80025 53.39110 53.09567
# Shear Modulus (GPa) = 17.10106 28.79262 22.94684
#
# Velocity S-wave (km/s) = 2.77432 3.59986 3.21371
# Velocity P-wave (km/s) = 5.83326 6.42721 6.13742
#
# Compressibility (1/GPa) = 0.01893931
#
# Stress axis : x y z
#
# Youngs Moduli (GPa) = 56.60127 109.25449 95.26741
#
# Poissons Ratio (x) = 0.41646 0.55806
# Poissons Ratio (y) = 0.21575 -0.04580
# Poissons Ratio (z) = 0.33156 -0.05252
#
# Static dielectric constant tensor:
#      x y z
#    x 1.987150 0.000000 0.000000 
#    y 0.000000 1.908510 0.000000 
#    z 0.000000 0.000000 1.816330 
# 
# From -- ./inp_files/5959.got.cif
#   From: 2010.05.17/outbox.cif.g08.bks.cpg/sg37_3_cif.got.tgz:5959.got - 2010.06.03 17:53:42.
