data_PCOD9353434
_publ_section_title
;
Structure prediction by ZEFSAII (Michael W. Deem and Ramdas Pophale) SiO2 
 PCOD9353434
Probable space group: C C C 2
;
_chemical_formula_sum "Si O2"
_cell_formula_units_Z 48
_cell_length_a 27.356952
_cell_length_b 13.039887
_cell_length_c 5.330367
_cell_angle_alpha 90.000000
_cell_angle_beta 90.000000
_cell_angle_gamma 90.000000
_cell_volume 1901.510150
_symmetry_space_group_name_H-M "C C C 2"
_symmetry_group_IT_number 37
_symmetry_cell_setting 'orthorhombic'
loop_
_space_group_symop_operation_xyz
x,y,z
-x,-y,z
-x,y,1/2+z
x,-y,1/2+z
1/2+x,1/2+y,z
1/2-x,1/2-y,z
1/2-x,1/2+y,1/2+z
1/2+x,1/2-y,1/2+z
loop_
_atom_site_type_symbol
_atom_site_label
_atom_site_fract_x
_atom_site_fract_y
_atom_site_fract_z
Si Si1 0.379985 0.431997 0.597950
Si Si2 0.017765 0.857728 0.242182
Si Si3 0.370705 0.888712 0.568574
Si Si4 0.225809 0.932760 0.184832
Si Si5 0.479528 0.871545 0.769150
Si Si6 0.331588 0.125261 0.567326
O O1 0.381649 0.482266 0.321046
O O2 0.427258 0.362627 0.642588
O O3 0.326674 0.381367 0.638127
O O4 0.016042 0.903733 0.522308
O O5 0.994449 0.746899 0.295235
O O6 0.426607 0.888450 0.653056
O O7 0.363667 0.837623 0.299718
O O8 0.348418 0.003964 0.540520
O O9 0.342225 0.832432 0.792595
O O10 0.275091 0.870044 0.140409
O O11 0.227661 0.980003 0.464966
O O12 0.517856 0.908843 0.556388
#
# Coordination Sequence:
#
# PCOD9353434 Si02
#       6
#     8   8   8   8   8   8
#     4  10  21  32  53  85 112 137 171 212 269 321
#     4  10  21  37  55  74 104 147 177 222 257 309
#     4  10  18  30  51  75 103 141 175 218 262 311
#     4  10  16  30  48  75 115 138 161 206 265 327
#     4  10  21  37  52  72 100 144 192 217 254 307
#     4  10  17  30  48  77 110 134 166 222 271 307
#
# _framework density 25.243092999999998
#
# number of rings (size 3 to 8) (size 9 to 14) (size 15 to 20)
#    0.000    2.000    3.333    2.000    0.000    2.000 
#    0.000   10.000    0.000    0.000    0.000   28.000 
#    0.000    0.000    0.000    0.000    0.000    0.000 
#
# Total GULP energy -134071.223142 kJ/mol
# GULP energy per Si atom -5586.300964 kJ/mol
# Density = 2.518564 g / cm^3
# Si number density = 25.243093 Si / 1000 Ang^3
#
#
#
# Elastic Constant Matrix: (Units=GPa)
#
#
# Indices 1 2 3 4 5 6 
#
# 1 144.3789 5.7727 -31.8605 0.0000 0.0000 0.0000
# 2 5.7727 67.6151 -14.7947 0.0000 0.0000 0.0000
# 3 -31.8605 -14.7947 156.0161 0.0000 0.0000 0.0000
# 4 0.0000 0.0000 0.0000 -70.6733 0.0000 0.0000
# 5 0.0000 0.0000 0.0000 0.0000 48.1086 0.0000
# 6 0.0000 0.0000 0.0000 0.0000 0.0000 17.0295
#
#
#
# Elastic Compliance Matrix: (Units=1/GPa)
#
#
# Indices 1 2 3 4 5 6 
#
# 1 0.007259 -0.000302 0.001454 0.000000 0.000000 0.000000
# 2 -0.000302 0.015116 0.001372 0.000000 0.000000 0.000000
# 3 0.001454 0.001372 0.006837 0.000000 0.000000 0.000000
# 4 0.000000 0.000000 0.000000 -0.014150 0.000000 0.000000
# 5 0.000000 0.000000 0.000000 0.000000 0.020786 0.000000
# 6 0.000000 0.000000 0.000000 0.000000 0.000000 0.058722
#
#
# Mechanical properties :
#
#
# Convention : Reuss Voigt Hill
#
# Bulk Modulus (GPa) = 29.18940 31.80499 30.49719
# Shear Modulus (GPa) = 49.53377 26.15248 37.84312
#
# Velocity S-wave (km/s) = 4.43456 3.22223 3.87608
# Velocity P-wave (km/s) = 6.14889 5.14495 5.66918
#
# Compressibility (1/GPa) = 0.03425902
#
# Stress axis : x y z
#
# Youngs Moduli (GPa) = 137.75823 66.15722 146.27230
#
# Poissons Ratio (x) = 0.01996 -0.21265
# Poissons Ratio (y) = 0.04155 -0.20065
# Poissons Ratio (z) = -0.20027 -0.09075
#
# Static dielectric constant tensor:
#      x y z
#    x 1.961340 0.000000 0.000000 
#    y 0.000000 3.253730 0.000000 
#    z 0.000000 0.000000 2.067110 
# 
# From -- ./inp_files/787.got.cif
#   From: 2010.05.17/outbox.cif.g08.bks.cpg/sg37_1_cif.got.tgz:787.got - 2010.06.03 17:53:42.
