data_PCOD9353787
_publ_section_title
;
Structure prediction by ZEFSAII (Michael W. Deem and Ramdas Pophale) SiO2 
 PCOD9353787
Probable space group: C C C 2
;
_chemical_formula_sum "Si O2"
_cell_formula_units_Z 64
_cell_length_a 9.295323
_cell_length_b 14.510451
_cell_length_c 24.000309
_cell_angle_alpha 90.000000
_cell_angle_beta 90.000000
_cell_angle_gamma 90.000000
_cell_volume 3237.145572
_symmetry_space_group_name_H-M "C C C 2"
_symmetry_group_IT_number 37
_symmetry_cell_setting 'orthorhombic'
loop_
_space_group_symop_operation_xyz
x,y,z
-x,-y,z
-x,y,1/2+z
x,-y,1/2+z
1/2+x,1/2+y,z
1/2-x,1/2-y,z
1/2-x,1/2+y,1/2+z
1/2+x,1/2-y,1/2+z
loop_
_atom_site_type_symbol
_atom_site_label
_atom_site_fract_x
_atom_site_fract_y
_atom_site_fract_z
Si Si1 0.814874 0.094531 0.354510
Si Si2 0.404842 0.909617 0.032114
Si Si3 0.420321 0.762703 0.728708
Si Si4 0.129375 0.046422 0.457780
Si Si5 0.408990 0.754744 0.960438
Si Si6 0.974731 0.704491 0.849535
Si Si7 0.391469 0.423256 0.729019
Si Si8 0.403237 0.092250 0.659387
O O1 0.900249 0.193617 0.355097
O O2 0.649650 0.128547 0.356028
O O3 0.850846 0.054601 0.293441
O O4 0.844261 0.018465 0.403019
O O5 0.363261 0.887088 0.095350
O O6 0.500000 0.000000 0.034696
O O7 0.272665 0.939560 0.992751
O O8 0.486942 0.822736 0.003267
O O9 0.250000 0.750000 0.719648
O O10 0.447197 0.802973 0.790680
O O11 0.515083 0.669876 0.727820
O O12 0.494555 0.829339 0.684469
O O13 0.063775 0.148308 0.448367
O O14 0.000000 0.000000 0.491720
O O15 0.250000 0.750000 0.985296
O O16 0.415562 0.803668 0.900683
O O17 0.500000 0.500000 0.706607
O O18 0.242824 0.415009 0.695344
O O19 0.500000 0.000000 0.662222
#
# Coordination Sequence:
#
# PCOD9353787 Si02
#       8
#     8   8   8   8   8   8   8   8
#     4  10  20  35  60  92 132 173 209 271 327 400
#     4  10  24  45  66  87 129 173 222 275 335 397
#     4  11  23  41  67  99 132 173 227 283 339 406
#     4  11  21  38  62  96 130 167 220 274 325 395
#     4  10  21  37  59  92 126 166 210 264 325 395
#     4  10  19  36  59  92 132 170 214 260 336 398
#     4  11  23  40  66  96 134 177 221 272 343 399
#     4  11  24  47  67  95 132 175 230 286 334 403
#
# _framework density 19.770503999999999
#
# number of rings (size 3 to 8) (size 9 to 14) (size 15 to 20)
#    0.000    1.500    2.500    2.625    1.750    3.500 
#    4.500    2.500    0.000    0.000    0.000    0.000 
#    0.000    0.000    0.000    0.000    0.000    0.000 
#
# Total GULP energy -178257.256159 kJ/mol
# GULP energy per Si atom -5570.539255 kJ/mol
# Density = 1.972551 g / cm^3
# Si number density = 19.770504 Si / 1000 Ang^3
#
#
#
# Elastic Constant Matrix: (Units=GPa)
#
#
# Indices 1 2 3 4 5 6 
#
# 1 103.9020 37.2527 50.3375 0.0000 0.0000 0.0000
# 2 37.2527 99.5215 51.5016 0.0000 0.0000 0.0000
# 3 50.3375 51.5016 137.0814 0.0000 0.0000 0.0000
# 4 0.0000 0.0000 0.0000 -12.3117 0.0000 0.0000
# 5 0.0000 0.0000 0.0000 0.0000 5.9179 0.0000
# 6 0.0000 0.0000 0.0000 0.0000 0.0000 27.5229
#
#
#
# Elastic Compliance Matrix: (Units=1/GPa)
#
#
# Indices 1 2 3 4 5 6 
#
# 1 0.012312 -0.002817 -0.003463 0.000000 0.000000 0.000000
# 2 -0.002817 0.013117 -0.003894 0.000000 0.000000 0.000000
# 3 -0.003463 -0.003894 0.010029 0.000000 0.000000 0.000000
# 4 0.000000 0.000000 0.000000 -0.081223 0.000000 0.000000
# 5 0.000000 0.000000 0.000000 0.000000 0.168980 0.000000
# 6 0.000000 0.000000 0.000000 0.000000 0.000000 0.036333
#
#
# Mechanical properties :
#
#
# Convention : Reuss Voigt Hill
#
# Bulk Modulus (GPa) = 66.17217 68.74315 67.45766
# Shear Modulus (GPa) = 27.03684 17.65334 22.34509
#
# Velocity S-wave (km/s) = 3.70203 2.99141 3.36553
# Velocity P-wave (km/s) = 7.19835 6.83940 7.02117
#
# Compressibility (1/GPa) = 0.01511209
#
# Stress axis : x y z
#
# Youngs Moduli (GPa) = 81.22183 76.23411 99.70591
#
# Poissons Ratio (x) = 0.21472 0.34527
# Poissons Ratio (y) = 0.22877 0.38825
# Poissons Ratio (z) = 0.28126 0.29685
#
# Static dielectric constant tensor:
#      x y z
#    x 1.720950 0.000000 0.000000 
#    y 0.000000 1.830110 0.000000 
#    z 0.000000 0.000000 1.682400 
# 
# From -- ./inp_files/18507.got.cif
#   From: 2010.05.17/outbox.cif.g08.bks.cpg/sg37_10_cif.got.tgz:18507.got - 2010.06.03 17:53:42.
