data_PCOD9353724
_publ_section_title
;
Structure prediction by ZEFSAII (Michael W. Deem and Ramdas Pophale) SiO2 
 PCOD9353724
Probable space group: C C C 2
;
_chemical_formula_sum "Si O2"
_cell_formula_units_Z 56
_cell_length_a 15.271482
_cell_length_b 7.444831
_cell_length_c 22.790907
_cell_angle_alpha 90.000000
_cell_angle_beta 90.000000
_cell_angle_gamma 90.000000
_cell_volume 2591.180324
_symmetry_space_group_name_H-M "C C C 2"
_symmetry_group_IT_number 37
_symmetry_cell_setting 'orthorhombic'
loop_
_space_group_symop_operation_xyz
x,y,z
-x,-y,z
-x,y,1/2+z
x,-y,1/2+z
1/2+x,1/2+y,z
1/2-x,1/2-y,z
1/2-x,1/2+y,1/2+z
1/2+x,1/2-y,1/2+z
loop_
_atom_site_type_symbol
_atom_site_label
_atom_site_fract_x
_atom_site_fract_y
_atom_site_fract_z
Si Si1 0.648396 0.777974 0.200960
Si Si2 0.000000 0.000000 0.024105
Si Si3 0.406885 0.709442 0.830547
Si Si4 0.750000 0.250000 0.910227
Si Si5 0.100946 0.209843 0.846342
Si Si6 0.993031 0.282723 0.121773
Si Si7 0.820253 0.121627 0.461557
Si Si8 0.347255 0.199553 0.715640
O O1 0.750000 0.750000 0.190401
O O2 0.615860 0.694897 0.261973
O O3 0.586959 0.723936 0.147571
O O4 0.638054 0.988214 0.212570
O O5 0.027839 0.831281 0.064524
O O6 0.914610 0.928726 0.989433
O O7 0.330000 0.803176 0.866697
O O8 0.502840 0.786804 0.842428
O O9 0.407453 0.504981 0.851516
O O10 0.722576 0.427206 0.946297
O O11 0.155583 0.246268 0.904563
O O12 0.143767 0.247125 0.783531
O O13 0.922645 0.231835 0.172240
O O14 0.000000 0.500000 0.112764
O O15 0.750000 0.250000 0.495142
O O16 0.250000 0.250000 0.695216
#
# Coordination Sequence:
#
# PCOD9353724 Si02
#       8
#     8   4   8   4   8   8   8   8
#     4  11  22  37  61 101 141 174 225 271 347 435
#     4  12  28  52  76  92 138 194 246 304 346 394
#     4  10  19  33  60  97 141 179 211 261 344 431
#     4  10  22  42  66 106 140 172 226 290 344 422
#     4  10  21  38  65  95 144 175 215 276 355 425
#     4  10  26  48  70 100 138 179 240 293 353 416
#     4  11  26  48  71 104 134 186 242 292 352 419
#     4  11  23  38  63 103 136 177 216 280 356 429
#
# _framework density 21.611774
#
# number of rings (size 3 to 8) (size 9 to 14) (size 15 to 20)
#    0.000    1.429    2.143    3.000    8.000    1.714 
#    3.857    1.429    0.000    0.000    0.000    0.000 
#    0.000    0.000    0.000    0.000    0.000    0.000 
#
# Total GULP energy -156317.898066 kJ/mol
# GULP energy per Si atom -5582.782074 kJ/mol
# Density = 2.156259 g / cm^3
# Si number density = 21.611774 Si / 1000 Ang^3
#
#
#
# Elastic Constant Matrix: (Units=GPa)
#
#
# Indices 1 2 3 4 5 6 
#
# 1 166.1021 16.4321 47.6312 0.0000 0.0000 0.0000
# 2 16.4321 66.7527 26.6913 0.0000 0.0000 0.0000
# 3 47.6312 26.6913 78.8964 0.0000 0.0000 0.0000
# 4 0.0000 0.0000 0.0000 20.9509 0.0000 0.0000
# 5 0.0000 0.0000 0.0000 0.0000 5.6409 0.0000
# 6 0.0000 0.0000 0.0000 0.0000 0.0000 31.1163
#
#
#
# Elastic Compliance Matrix: (Units=1/GPa)
#
#
# Indices 1 2 3 4 5 6 
#
# 1 0.007281 -0.000040 -0.004382 0.000000 0.000000 0.000000
# 2 -0.000040 0.017324 -0.005837 0.000000 0.000000 0.000000
# 3 -0.004382 -0.005837 0.017295 0.000000 0.000000 0.000000
# 4 0.000000 0.000000 0.000000 0.047731 0.000000 0.000000
# 5 0.000000 0.000000 0.000000 0.000000 0.177275 0.000000
# 6 0.000000 0.000000 0.000000 0.000000 0.000000 0.032137
#
#
# Mechanical properties :
#
#
# Convention : Reuss Voigt Hill
#
# Bulk Modulus (GPa) = 46.76733 54.80672 50.78703
# Shear Modulus (GPa) = 15.30507 26.27474 20.78990
#
# Velocity S-wave (km/s) = 2.66406 3.49056 3.10493
# Velocity P-wave (km/s) = 5.58119 6.45446 6.03364
#
# Compressibility (1/GPa) = 0.02138245
#
# Stress axis : x y z
#
# Youngs Moduli (GPa) = 137.34450 57.72211 57.82019
#
# Poissons Ratio (x) = 0.00232 0.25337
# Poissons Ratio (y) = 0.00551 0.33748
# Poissons Ratio (z) = 0.60185 0.33691
#
# Static dielectric constant tensor:
#      x y z
#    x 1.861740 0.000000 0.000000 
#    y 0.000000 1.805640 0.000000 
#    z 0.000000 0.000000 1.814930 
# 
# From -- ./inp_files/17215.got.cif
#   From: 2010.05.17/outbox.cif.g08.bks.cpg/sg37_9_cif.got.tgz:17215.got - 2010.06.03 17:53:42.
