data_PCOD9353268
_publ_section_title
;
Structure prediction by ZEFSAII (Michael W. Deem and Ramdas Pophale) SiO2 
 PCOD9353268
Probable space group: C M C 21
;
_chemical_formula_sum "Si O2"
_cell_formula_units_Z 64
_cell_length_a 28.638908
_cell_length_b 11.504446
_cell_length_c 9.262015
_cell_angle_alpha 90.000000
_cell_angle_beta 90.000000
_cell_angle_gamma 90.000000
_cell_volume 3051.600267
_symmetry_space_group_name_H-M "C M C 21"
_symmetry_group_IT_number 36
_symmetry_cell_setting 'orthorhombic'
loop_
_space_group_symop_operation_xyz
x,y,z
-x,-y,1/2+z
x,-y,1/2+z
-x,y,z
1/2+x,1/2+y,z
1/2-x,1/2-y,1/2+z
1/2+x,1/2-y,1/2+z
1/2-x,1/2+y,z
loop_
_atom_site_type_symbol
_atom_site_label
_atom_site_fract_x
_atom_site_fract_y
_atom_site_fract_z
Si Si1 0.821861 0.095832 0.719110
Si Si2 0.448374 0.624443 0.165165
Si Si3 0.554773 0.867103 0.801727
Si Si4 0.145360 0.263860 0.212072
Si Si5 0.423820 0.598753 0.830155
Si Si6 0.892769 0.487944 0.068878
Si Si7 0.818928 0.311602 0.518053
Si Si8 0.214032 0.114677 0.026199
O O1 0.870475 0.064826 0.796108
O O2 0.831135 0.214618 0.635301
O O3 0.802425 0.002534 0.605969
O O4 0.787472 0.106820 0.853606
O O5 0.500000 0.681189 0.173382
O O6 0.404887 0.699631 0.224238
O O7 0.450541 0.502525 0.247757
O O8 0.436030 0.598961 0.998751
O O9 0.500000 0.878406 0.831578
O O10 0.565964 0.730448 0.780431
O O11 0.569399 0.941639 0.662441
O O12 0.584100 0.917514 0.936953
O O13 0.133042 0.394823 0.169947
O O14 0.174799 0.256244 0.359168
O O15 0.176760 0.208508 0.085171
O O16 0.854643 0.581629 0.020175
O O17 0.767058 0.352095 0.558702
#
# Coordination Sequence:
#
# PCOD9353268 Si02
#       8
#     8   8   8   8   8   8   8   8
#     4  12  24  49  72 106 143 188 236 304 367 431
#     4  12  26  45  73 106 145 192 240 299 369 438
#     4  12  25  47  74 102 142 195 245 298 367 442
#     4  12  26  49  71 105 145 189 240 306 363 437
#     4  12  24  47  72 105 148 186 239 299 365 428
#     4  12  26  47  69 102 145 186 236 305 360 433
#     4  12  29  46  73 105 143 190 244 301 368 439
#     4  12  27  46  77 103 143 190 241 302 370 446
#
# _framework density 20.972605000000001
#
# number of rings (size 3 to 8) (size 9 to 14) (size 15 to 20)
#    0.000    0.000    6.250    3.000    5.250    0.500 
#    0.000    0.000    0.000    0.000    0.000    0.000 
#    0.000    0.000    0.000    0.000    0.000    0.000 
#
# Total GULP energy -179020.434807 kJ/mol
# GULP energy per Si atom -5594.388588 kJ/mol
# Density = 2.092487 g / cm^3
# Si number density = 20.972605 Si / 1000 Ang^3
#
#
#
# Elastic Constant Matrix: (Units=GPa)
#
#
# Indices 1 2 3 4 5 6 
#
# 1 94.5517 -7.2010 23.5855 0.0000 0.0000 0.0000
# 2 -7.2010 72.2254 42.7156 0.0000 0.0000 0.0000
# 3 23.5855 42.7156 51.4549 0.0000 0.0000 0.0000
# 4 0.0000 0.0000 0.0000 26.1933 0.0000 0.0000
# 5 0.0000 0.0000 0.0000 0.0000 45.2784 0.0000
# 6 0.0000 0.0000 0.0000 0.0000 0.0000 32.0792
#
#
#
# Elastic Compliance Matrix: (Units=1/GPa)
#
#
# Indices 1 2 3 4 5 6 
#
# 1 0.015568 0.011340 -0.016550 0.000000 0.000000 0.000000
# 2 0.011340 0.035461 -0.034636 0.000000 0.000000 0.000000
# 3 -0.016550 -0.034636 0.055774 0.000000 0.000000 0.000000
# 4 0.000000 0.000000 0.000000 0.038178 0.000000 0.000000
# 5 0.000000 0.000000 0.000000 0.000000 0.022086 0.000000
# 6 0.000000 0.000000 0.000000 0.000000 0.000000 0.031173
#
#
# Mechanical properties :
#
#
# Convention : Reuss Voigt Hill
#
# Bulk Modulus (GPa) = 36.88532 37.38134 37.13333
# Shear Modulus (GPa) = 17.42352 31.31897 24.37124
#
# Velocity S-wave (km/s) = 2.88544 3.86855 3.41259
# Velocity P-wave (km/s) = 5.35972 6.14954 5.76817
#
# Compressibility (1/GPa) = 0.02711105
#
# Stress axis : x y z
#
# Youngs Moduli (GPa) = 64.23290 28.20020 17.92947
#
# Poissons Ratio (x) = -0.31980 0.29674
# Poissons Ratio (y) = -0.72843 0.62101
# Poissons Ratio (z) = 1.06308 0.97674
#
# Static dielectric constant tensor:
#      x y z
#    x 1.753350 0.000000 0.000000 
#    y 0.000000 1.740810 0.000000 
#    z 0.000000 0.000000 1.734360 
# 
# From -- ./inp_files/6071.got.cif
#   From: 2010.05.17/outbox.cif.g08.bks.cpg/sg36_4_cif.got.tgz:6071.got - 2010.06.03 17:41:39.
