data_PCOD9353962
_publ_section_title
;
Structure prediction by ZEFSAII (Michael W. Deem and Ramdas Pophale) SiO2 
 PCOD9353962
Probable space group: C C C 2
;
_chemical_formula_sum "Si O2"
_cell_formula_units_Z 52
_cell_length_a 10.294170
_cell_length_b 10.283730
_cell_length_c 26.587672
_cell_angle_alpha 90.000000
_cell_angle_beta 90.000000
_cell_angle_gamma 90.000000
_cell_volume 2814.636493
_symmetry_space_group_name_H-M "C C C 2"
_symmetry_group_IT_number 37
_symmetry_cell_setting 'orthorhombic'
loop_
_space_group_symop_operation_xyz
x,y,z
-x,-y,z
-x,y,1/2+z
x,-y,1/2+z
1/2+x,1/2+y,z
1/2-x,1/2-y,z
1/2-x,1/2+y,1/2+z
1/2+x,1/2-y,1/2+z
loop_
_atom_site_type_symbol
_atom_site_label
_atom_site_fract_x
_atom_site_fract_y
_atom_site_fract_z
Si Si1 0.149359 0.632405 0.769450
Si Si2 0.905383 0.621720 0.931304
Si Si3 0.969223 0.204953 0.855800
Si Si4 0.500000 0.000000 0.182173
Si Si5 0.712251 0.468781 0.343925
Si Si6 0.646674 0.144697 0.546654
Si Si7 0.639683 0.136704 0.091685
O O1 0.250000 0.750000 0.760565
O O2 0.215388 0.503329 0.792428
O O3 0.061911 0.682806 0.815956
O O4 0.076157 0.596715 0.719008
O O5 0.989818 0.739223 0.909269
O O6 0.800321 0.588793 0.888167
O O7 0.000000 0.500000 0.935604
O O8 0.851607 0.647798 0.986248
O O9 0.848486 0.107507 0.860449
O O10 0.091668 0.125302 0.835313
O O11 0.404057 0.916053 0.146648
O O12 0.750000 0.250000 0.566234
O O13 0.499188 0.174329 0.565658
O O14 0.681059 0.997481 0.563715
O O15 0.750000 0.250000 0.091117
#
# Coordination Sequence:
#
# PCOD9353962 Si02
#       7
#     8   8   8   4   8   8   8
#     4  10  20  35  56  82 116 152 190 236 283 334
#     4  12  20  35  59  84 117 159 192 233 279 332
#     4  10  21  35  53  82 119 157 195 231 272 329
#     4  10  22  38  60  86 110 148 192 240 300 358
#     4  10  21  35  53  82 119 157 195 231 272 329
#     4  10  22  42  64  89 119 154 198 244 296 357
#     4  10  24  44  63  88 118 147 191 252 310 364
#
# _framework density 18.474855999999999
#
# number of rings (size 3 to 8) (size 9 to 14) (size 15 to 20)
#    0.000    1.846    3.077    2.308    0.000    5.538 
#    0.000    0.000    0.000    0.000    0.000    0.000 
#    0.000    0.000    0.000    0.000    0.000    0.000 
#
# Total GULP energy -145026.192693 kJ/mol
# GULP energy per Si atom -5577.930488 kJ/mol
# Density = 1.843281 g / cm^3
# Si number density = 18.474856 Si / 1000 Ang^3
#
#
#
# Elastic Constant Matrix: (Units=GPa)
#
#
# Indices 1 2 3 4 5 6 
#
# 1 82.4568 48.9406 26.4355 0.0000 0.0000 0.0000
# 2 48.9406 87.5365 29.3140 0.0000 0.0000 0.0000
# 3 26.4355 29.3140 106.2258 0.0000 0.0000 0.0000
# 4 0.0000 0.0000 0.0000 64.9013 0.0000 0.0000
# 5 0.0000 0.0000 0.0000 0.0000 5.4080 0.0000
# 6 0.0000 0.0000 0.0000 0.0000 0.0000 43.4981
#
#
#
# Elastic Compliance Matrix: (Units=1/GPa)
#
#
# Indices 1 2 3 4 5 6 
#
# 1 0.018502 -0.009699 -0.001928 0.000000 0.000000 0.000000
# 2 -0.009699 0.017671 -0.002463 0.000000 0.000000 0.000000
# 3 -0.001928 -0.002463 0.010573 0.000000 0.000000 0.000000
# 4 0.000000 0.000000 0.000000 0.015408 0.000000 0.000000
# 5 0.000000 0.000000 0.000000 0.000000 0.184911 0.000000
# 6 0.000000 0.000000 0.000000 0.000000 0.000000 0.022990
#
#
# Mechanical properties :
#
#
# Convention : Reuss Voigt Hill
#
# Bulk Modulus (GPa) = 53.85789 53.95549 53.90669
# Shear Modulus (GPa) = 16.42452 34.19674 25.31063
#
# Velocity S-wave (km/s) = 2.98488 4.30698 3.70537
# Velocity P-wave (km/s) = 6.41051 7.34858 6.89552
#
# Compressibility (1/GPa) = 0.01856738
#
# Stress axis : x y z
#
# Youngs Moduli (GPa) = 54.04779 56.58998 94.57722
#
# Poissons Ratio (x) = 0.54885 0.18235
# Poissons Ratio (y) = 0.52419 0.23293
# Poissons Ratio (z) = 0.10421 0.13937
#
# Static dielectric constant tensor:
#      x y z
#    x 1.671000 0.000000 0.000000 
#    y 0.000000 1.661640 0.000000 
#    z 0.000000 0.000000 1.612730 
# 
# From -- ./inp_files/19743.got.cif
#   From: 2010.05.17/outbox.cif.g08.bks.cpg/sg37_10_cif.got.tgz:19743.got - 2010.06.03 17:53:42.
