data_PCOD9353481
_publ_section_title
;
Structure prediction by ZEFSAII (Michael W. Deem and Ramdas Pophale) SiO2 
 PCOD9353481
Probable space group: C C C 2
;
_chemical_formula_sum "Si O2"
_cell_formula_units_Z 56
_cell_length_a 13.480037
_cell_length_b 13.191899
_cell_length_c 16.864859
_cell_angle_alpha 90.000000
_cell_angle_beta 90.000000
_cell_angle_gamma 90.000000
_cell_volume 2999.032115
_symmetry_space_group_name_H-M "C C C 2"
_symmetry_group_IT_number 37
_symmetry_cell_setting 'orthorhombic'
loop_
_space_group_symop_operation_xyz
x,y,z
-x,-y,z
-x,y,1/2+z
x,-y,1/2+z
1/2+x,1/2+y,z
1/2-x,1/2-y,z
1/2-x,1/2+y,1/2+z
1/2+x,1/2-y,1/2+z
loop_
_atom_site_type_symbol
_atom_site_label
_atom_site_fract_x
_atom_site_fract_y
_atom_site_fract_z
Si Si1 0.694913 0.141127 0.725990
Si Si2 0.189203 0.545035 0.894035
Si Si3 0.545606 0.770949 0.102037
Si Si4 0.903359 0.934324 0.464713
Si Si5 0.186301 0.339247 0.965061
Si Si6 0.662955 0.571390 0.098304
Si Si7 0.636906 0.781903 0.514857
O O1 0.750000 0.250000 0.737687
O O2 0.668200 0.092014 0.809020
O O3 0.601662 0.166744 0.670047
O O4 0.770982 0.069417 0.677062
O O5 0.308530 0.544558 0.909310
O O6 0.156205 0.430303 0.908400
O O7 0.143507 0.618031 0.961410
O O8 0.575718 0.653066 0.112336
O O9 0.430382 0.793679 0.092229
O O10 0.594980 0.801662 0.017724
O O11 0.912290 0.813324 0.468108
O O12 0.875319 0.971913 0.554076
O O13 0.000000 0.000000 0.442240
O O14 0.250000 0.250000 0.924993
O O15 0.263253 0.380358 0.032186
O O16 0.750000 0.750000 0.531290
#
# Coordination Sequence:
#
# PCOD9353481 Si02
#       7
#     8   8   8   8   8   8   8
#     4   9  17  32  55  81 113 144 184 233 283 327
#     4  10  20  33  53  85 120 141 175 244 297 336
#     4   9  16  31  55  78 104 145 196 226 265 339
#     4  10  17  30  53  78 112 151 185 225 275 332
#     4   8  16  31  55  80 103 140 192 232 268 335
#     4   8  15  29  53  80 101 142 188 226 256 328
#     4  10  20  31  52  84 116 144 183 236 281 331
#
# _framework density 18.672692000000001
#
# number of rings (size 3 to 8) (size 9 to 14) (size 15 to 20)
#    0.000    2.857    1.429    3.000    0.000    0.571 
#    0.000    0.714    3.143   19.714    0.000    3.000 
#    0.000    0.000    0.000    0.000    0.000    0.000 
#
# Total GULP energy -155973.267390 kJ/mol
# GULP energy per Si atom -5570.473835 kJ/mol
# Density = 1.863019 g / cm^3
# Si number density = 18.672692 Si / 1000 Ang^3
#
#
#
# Elastic Constant Matrix: (Units=GPa)
#
#
# Indices 1 2 3 4 5 6 
#
# 1 65.7445 20.6185 22.2575 0.0000 0.0000 0.0000
# 2 20.6185 83.4211 23.7666 0.0000 0.0000 0.0000
# 3 22.2575 23.7666 72.8502 0.0000 0.0000 0.0000
# 4 0.0000 0.0000 0.0000 27.1462 0.0000 0.0000
# 5 0.0000 0.0000 0.0000 0.0000 14.9653 0.0000
# 6 0.0000 0.0000 0.0000 0.0000 0.0000 23.0268
#
#
#
# Elastic Compliance Matrix: (Units=1/GPa)
#
#
# Indices 1 2 3 4 5 6 
#
# 1 0.017672 -0.003120 -0.004382 0.000000 0.000000 0.000000
# 2 -0.003120 0.013766 -0.003538 0.000000 0.000000 0.000000
# 3 -0.004382 -0.003538 0.016220 0.000000 0.000000 0.000000
# 4 0.000000 0.000000 0.000000 0.036838 0.000000 0.000000
# 5 0.000000 0.000000 0.000000 0.000000 0.066821 0.000000
# 6 0.000000 0.000000 0.000000 0.000000 0.000000 0.043428
#
#
# Mechanical properties :
#
#
# Convention : Reuss Voigt Hill
#
# Bulk Modulus (GPa) = 39.09314 39.47788 39.28551
# Shear Modulus (GPa) = 22.18775 23.38587 22.78681
#
# Velocity S-wave (km/s) = 3.45083 3.54278 3.49711
# Velocity P-wave (km/s) = 6.07117 6.15816 6.11482
#
# Compressibility (1/GPa) = 0.02557994
#
# Stress axis : x y z
#
# Youngs Moduli (GPa) = 56.58637 72.64064 61.65343
#
# Poissons Ratio (x) = 0.22661 0.27014
# Poissons Ratio (y) = 0.17653 0.21813
# Poissons Ratio (z) = 0.24793 0.25700
#
# Static dielectric constant tensor:
#      x y z
#    x 1.717330 0.000000 0.000000 
#    y 0.000000 1.701370 0.000000 
#    z 0.000000 0.000000 1.612910 
# 
# From -- ./inp_files/12213.got.cif
#   From: 2010.05.17/outbox.cif.g08.bks.cpg/sg37_7_cif.got.tgz:12213.got - 2010.06.03 17:53:42.
