data_PCOD9353723
_publ_section_title
;
Structure prediction by ZEFSAII (Michael W. Deem and Ramdas Pophale) SiO2 
 PCOD9353723
Probable space group: C C C 2
;
_chemical_formula_sum "Si O2"
_cell_formula_units_Z 28
_cell_length_a 6.997777
_cell_length_b 17.156345
_cell_length_c 8.538185
_cell_angle_alpha 90.000000
_cell_angle_beta 90.000000
_cell_angle_gamma 90.000000
_cell_volume 1025.062699
_symmetry_space_group_name_H-M "C C C 2"
_symmetry_group_IT_number 37
_symmetry_cell_setting 'orthorhombic'
loop_
_space_group_symop_operation_xyz
x,y,z
-x,-y,z
-x,y,1/2+z
x,-y,1/2+z
1/2+x,1/2+y,z
1/2-x,1/2-y,z
1/2-x,1/2+y,1/2+z
1/2+x,1/2-y,1/2+z
loop_
_atom_site_type_symbol
_atom_site_label
_atom_site_fract_x
_atom_site_fract_y
_atom_site_fract_z
Si Si1 0.223092 0.030280 0.421370
Si Si2 0.711194 0.114918 0.602179
Si Si3 0.352301 0.673068 0.126592
Si Si4 0.750000 0.750000 0.941451
O O1 0.301023 0.073581 0.268759
O O2 0.239600 0.093403 0.561368
O O3 0.322731 0.951617 0.475946
O O4 0.000000 0.000000 0.397552
O O5 0.614594 0.195100 0.548830
O O6 0.927051 0.150231 0.601262
O O7 0.250000 0.750000 0.053098
O O8 0.336946 0.690584 0.311473
#
# Coordination Sequence:
#
# PCOD9353723 Si02
#       4
#     8   8   8   4
#     4  10  19  33  59  85 116 150 199 254 287 335
#     4  11  20  36  59  93 116 154 200 246 301 347
#     4   9  20  35  54  85 124 150 191 248 296 353
#     4  10  22  34  56  90 122 158 190 246 304 354
#
# _framework density 27.315403
#
# number of rings (size 3 to 8) (size 9 to 14) (size 15 to 20)
#    0.857    1.143    0.000    7.714    2.000    0.000 
#    0.000    0.000    0.000    1.714    7.429    0.000 
#    0.000    0.000    0.000    0.000    0.000    0.000 
#
# Total GULP energy -78120.004838 kJ/mol
# GULP energy per Si atom -5580.000346 kJ/mol
# Density = 2.725323 g / cm^3
# Si number density = 27.315403 Si / 1000 Ang^3
#
#
#
# Elastic Constant Matrix: (Units=GPa)
#
#
# Indices 1 2 3 4 5 6 
#
# 1 106.1985 49.2936 12.0017 0.0000 0.0000 0.0000
# 2 49.2936 263.8115 117.2114 0.0000 0.0000 0.0000
# 3 12.0017 117.2114 194.7822 0.0000 0.0000 0.0000
# 4 0.0000 0.0000 0.0000 68.9034 0.0000 0.0000
# 5 0.0000 0.0000 0.0000 0.0000 -2.4076 0.0000
# 6 0.0000 0.0000 0.0000 0.0000 0.0000 34.6605
#
#
#
# Elastic Compliance Matrix: (Units=1/GPa)
#
#
# Indices 1 2 3 4 5 6 
#
# 1 0.010384 -0.002260 0.000720 0.000000 0.000000 0.000000
# 2 -0.002260 0.005666 -0.003270 0.000000 0.000000 0.000000
# 3 0.000720 -0.003270 0.007057 0.000000 0.000000 0.000000
# 4 0.000000 0.000000 0.000000 0.014513 0.000000 0.000000
# 5 0.000000 0.000000 0.000000 0.000000 -0.415346 0.000000
# 6 0.000000 0.000000 0.000000 0.000000 0.000000 0.028851
#
#
# Mechanical properties :
#
#
# Convention : Reuss Voigt Hill
#
# Bulk Modulus (GPa) = 74.14548 102.42284 88.28416
# Shear Modulus (GPa) = -14.93616 45.98362 15.52373
#
# Velocity S-wave (km/s) = -2.34092 4.10742 2.38652
# Velocity P-wave (km/s) = 4.46056 7.75063 6.32332
#
# Compressibility (1/GPa) = 0.01348700
#
# Stress axis : x y z
#
# Youngs Moduli (GPa) = 96.30122 176.49495 141.69481
#
# Poissons Ratio (x) = 0.39894 -0.10207
# Poissons Ratio (y) = 0.21767 0.46337
# Poissons Ratio (z) = -0.06937 0.57718
#
# Static dielectric constant tensor:
#      x y z
#    x 2.377650 0.000000 0.000000 
#    y 0.000000 2.727090 0.000000 
#    z 0.000000 0.000000 2.093660 
# 
# From -- ./inp_files/2552.got.cif
#   From: 2010.05.17/outbox.cif.g08.bks.cpg/sg37_2_cif.got.tgz:2552.got - 2010.06.03 17:53:42.
