data_PCOD9353331
_publ_section_title
;
Structure prediction by ZEFSAII (Michael W. Deem and Ramdas Pophale) SiO2 
 PCOD9353331
Probable space group: C M C 21
;
_chemical_formula_sum "Si O2"
_cell_formula_units_Z 32
_cell_length_a 9.000000
_cell_length_b 18.000000
_cell_length_c 21.000000
_cell_angle_alpha 90.000000
_cell_angle_beta 90.000000
_cell_angle_gamma 90.000000
_cell_volume 3402.000000
_symmetry_space_group_name_H-M "C M C 21"
_symmetry_group_IT_number 36
_symmetry_cell_setting 'orthorhombic'
loop_
_space_group_symop_operation_xyz
x,y,z
-x,-y,1/2+z
x,-y,1/2+z
-x,y,z
1/2+x,1/2+y,z
1/2-x,1/2-y,1/2+z
1/2+x,1/2-y,1/2+z
1/2-x,1/2+y,z
loop_
_atom_site_type_symbol
_atom_site_label
_atom_site_fract_x
_atom_site_fract_y
_atom_site_fract_z
Si Si1 0.178580 0.058747 0.336540
Si Si2 0.678937 0.305505 0.175726
Si Si3 0.678037 0.213719 0.299534
Si Si4 0.680510 0.528834 0.710707
Si Si5 0.323876 0.729061 0.058531
Si Si6 0.321786 0.555356 0.082887
Si Si7 0.177385 0.525444 0.951046
Si Si8 0.677425 0.682731 0.920719
O O1 0.232547 0.140048 0.316263
O O2 0.000000 0.055739 0.342550
O O3 0.226064 0.003807 0.278821
O O4 0.253837 0.033471 0.402100
O O5 0.500000 0.306460 0.173053
O O6 0.721468 0.247388 0.231106
O O7 0.729635 0.387230 0.197363
O O8 0.740348 0.282162 0.107230
O O9 0.500000 0.198677 0.298867
O O10 0.703668 0.274196 0.355267
O O11 0.500000 0.528835 0.711607
O O12 0.725254 0.477907 0.650736
O O13 0.500000 0.741840 0.064551
O O14 0.292965 0.643577 0.078785
O O15 0.285763 0.731882 0.983412
O O16 0.500000 0.545039 0.075948
O O17 0.241070 0.518290 0.022643
O O18 0.233680 0.606220 0.926780
O O19 0.000000 0.521627 0.951445
O O20 0.500000 0.665445 0.924941
#
# Coordination Sequence:
#
# PCOD9353331 Si02
#       8
#     8   8   8   8   8   8   8   8
#     4  11  22  38  59  80 108 147 188 228 275 329
#     4  10  20  34  54  79 108 140 174 220 276 327
#     4  10  21  37  56  80 111 143 180 228 277 324
#     4   9  19  36  58  81 105 141 187 228 269 326
#     4   9  18  33  54  79 106 139 178 219 264 318
#     4   9  18  36  59  80 106 143 185 223 266 325
#     4  11  22  36  56  84 115 144 182 229 274 324
#     4   9  19  38  60  79 107 147 184 221 271 327
#
# _framework density 9.4062319999999993
#
# number of rings (size 3 to 8) (size 9 to 14) (size 15 to 20)
#    0.000    2.250    0.000    3.750    0.000    7.000 
#    0.000    6.875    0.000    0.000    0.000    0.000 
#    0.000    0.000    0.000    0.000    0.000    0.000 
#
# Total GULP energy -178686.138570 kJ/mol
# GULP energy per Si atom -5583.941830 kJ/mol
# Density = 0.938482 g / cm^3
# Si number density = 9.406232 Si / 1000 Ang^3
#
#
#
# Elastic Constant Matrix: (Units=GPa)
#
#
# Indices 1 2 3 4 5 6 
#
# 1 30.7182 4.5390 2.8689 0.0000 0.0000 0.0000
# 2 4.5390 13.1496 -20.7889 0.0000 0.0000 0.0000
# 3 2.8689 -20.7889 40.5714 0.0000 0.0000 0.0000
# 4 0.0000 0.0000 0.0000 35.3060 0.0000 0.0000
# 5 0.0000 0.0000 0.0000 0.0000 21.3370 0.0000
# 6 0.0000 0.0000 0.0000 0.0000 0.0000 21.8897
#
#
#
# Elastic Compliance Matrix: (Units=1/GPa)
#
#
# Indices 1 2 3 4 5 6 
#
# 1 0.062279 -0.149853 -0.081189 0.000000 0.000000 0.000000
# 2 -0.149853 0.760993 0.400531 0.000000 0.000000 0.000000
# 3 -0.081189 0.400531 0.235621 0.000000 0.000000 0.000000
# 4 0.000000 0.000000 0.000000 0.028324 0.000000 0.000000
# 5 0.000000 0.000000 0.000000 0.000000 0.046867 0.000000
# 6 0.000000 0.000000 0.000000 0.000000 0.000000 0.045684
#
#
# Mechanical properties :
#
#
# Convention : Reuss Voigt Hill
#
# Bulk Modulus (GPa) = 0.71537 6.40859 3.56198
# Shear Modulus (GPa) = 3.82629 22.22789 13.02709
#
# Velocity S-wave (km/s) = 1.42770 3.44110 2.63434
# Velocity P-wave (km/s) = 1.76036 4.38203 3.33924
#
# Compressibility (1/GPa) = 1.39787140
#
# Stress axis : x y z
#
# Youngs Moduli (GPa) = 16.05675 1.31407 4.24410
#
# Poissons Ratio (x) = 0.19692 0.34457
# Poissons Ratio (y) = 2.40615 -1.69989
# Poissons Ratio (z) = 1.30363 -0.52633
#
# Static dielectric constant tensor:
#      x y z
#    x 1.628310 0.000000 0.000000 
#    y 0.000000 1.646400 0.000000 
#    z 0.000000 0.000000 1.639190 
# 
# From -- ./inp_files/15724.got.cif
#   From: 2010.05.17/outbox.ucp.g08.bks.cvg/sg36_8_cif.got.tgz:15724.got - 2010.06.11 10:37:26.
