data_PCOD9353591
_publ_section_title
;
Structure prediction by ZEFSAII (Michael W. Deem and Ramdas Pophale) SiO2 
 PCOD9353591
Probable space group: C C C 2
;
_chemical_formula_sum "Si O2"
_cell_formula_units_Z 40
_cell_length_a 18.560501
_cell_length_b 15.504554
_cell_length_c 5.166229
_cell_angle_alpha 90.000000
_cell_angle_beta 90.000000
_cell_angle_gamma 90.000000
_cell_volume 1486.697550
_symmetry_space_group_name_H-M "C C C 2"
_symmetry_group_IT_number 37
_symmetry_cell_setting 'orthorhombic'
loop_
_space_group_symop_operation_xyz
x,y,z
-x,-y,z
-x,y,1/2+z
x,-y,1/2+z
1/2+x,1/2+y,z
1/2-x,1/2-y,z
1/2-x,1/2+y,1/2+z
1/2+x,1/2-y,1/2+z
loop_
_atom_site_type_symbol
_atom_site_label
_atom_site_fract_x
_atom_site_fract_y
_atom_site_fract_z
Si Si1 0.533414 0.619171 0.058110
Si Si2 0.097965 0.469037 0.107227
Si Si3 0.662925 0.309782 0.277117
Si Si4 0.107283 0.275159 0.248903
Si Si5 0.739529 0.536761 0.584088
O O1 0.525778 0.585968 0.352165
O O2 0.538256 0.721665 0.140941
O O3 0.604823 0.619144 0.881455
O O4 0.066944 0.535011 0.318438
O O5 0.096486 0.376109 0.237427
O O6 0.179203 0.502942 0.050324
O O7 0.666470 0.248957 0.527552
O O8 0.730571 0.366490 0.186585
O O9 0.632133 0.260715 0.026161
O O10 0.706730 0.526889 0.299884
#
# Coordination Sequence:
#
# PCOD9353591 Si02
#       5
#     8   8   8   8   8
#     4  10  18  34  60  89 108 141 192 252 292 326
#     4  10  21  38  56  81 118 161 186 229 294 344
#     4  10  20  35  60  86 113 149 197 240 280 343
#     4  10  20  35  60  86 113 149 197 240 280 343
#     4  10  21  38  56  81 118 161 186 229 294 344
#
# _framework density 26.905268
#
# number of rings (size 3 to 8) (size 9 to 14) (size 15 to 20)
#    1.200    0.800    2.000    2.400    0.000    0.000 
#    0.000   24.000    0.000    7.200    0.000    0.000 
#    0.000    0.000    0.000    0.000    0.000    0.000 
#
# Total GULP energy -111444.783339 kJ/mol
# GULP energy per Si atom -5572.239167 kJ/mol
# Density = 2.684403 g / cm^3
# Si number density = 26.905268 Si / 1000 Ang^3
#
#
#
# Elastic Constant Matrix: (Units=GPa)
#
#
# Indices 1 2 3 4 5 6 
#
# 1 61.0494 15.9767 14.3602 0.0000 0.0000 0.0000
# 2 15.9767 94.3325 14.5285 0.0000 0.0000 0.0000
# 3 14.3602 14.5285 240.1703 0.0000 0.0000 0.0000
# 4 0.0000 0.0000 0.0000 12.7298 0.0000 0.0000
# 5 0.0000 0.0000 0.0000 0.0000 -46.5693 0.0000
# 6 0.0000 0.0000 0.0000 0.0000 0.0000 38.1202
#
#
#
# Elastic Compliance Matrix: (Units=1/GPa)
#
#
# Indices 1 2 3 4 5 6 
#
# 1 0.017317 -0.002799 -0.000866 0.000000 0.000000 0.000000
# 2 -0.002799 0.011153 -0.000507 0.000000 0.000000 0.000000
# 3 -0.000866 -0.000507 0.004246 0.000000 0.000000 0.000000
# 4 0.000000 0.000000 0.000000 0.078556 0.000000 0.000000
# 5 0.000000 0.000000 0.000000 0.000000 -0.021473 0.000000
# 6 0.000000 0.000000 0.000000 0.000000 0.000000 0.026233
#
#
# Mechanical properties :
#
#
# Convention : Reuss Voigt Hill
#
# Bulk Modulus (GPa) = 41.03373 53.92035 47.47704
# Shear Modulus (GPa) = 37.73592 24.23526 30.98559
#
# Velocity S-wave (km/s) = 3.74912 3.00453 3.39729
# Velocity P-wave (km/s) = 5.83314 5.66750 5.75092
#
# Compressibility (1/GPa) = 0.02437019
#
# Stress axis : x y z
#
# Youngs Moduli (GPa) = 57.74832 89.66151 235.50571
#
# Poissons Ratio (x) = 0.25100 0.20396
# Poissons Ratio (y) = 0.16166 0.11947
# Poissons Ratio (z) = 0.05001 0.04548
#
# Static dielectric constant tensor:
#      x y z
#    x 2.682530 0.000000 0.000000 
#    y 0.000000 2.088090 0.000000 
#    z 0.000000 0.000000 2.152040 
# 
# From -- ./inp_files/320.got.cif
#   From: 2010.05.17/outbox.cif.g08.bks.cpg/sg37_1_cif.got.tgz:320.got - 2010.06.03 17:53:42.
