data_PCOD9353729
_publ_section_title
;
Structure prediction by ZEFSAII (Michael W. Deem and Ramdas Pophale) SiO2 
 PCOD9353729
Probable space group: C C C 2
;
_chemical_formula_sum "Si O2"
_cell_formula_units_Z 48
_cell_length_a 8.852558
_cell_length_b 15.942435
_cell_length_c 19.264843
_cell_angle_alpha 90.000000
_cell_angle_beta 90.000000
_cell_angle_gamma 90.000000
_cell_volume 2718.872924
_symmetry_space_group_name_H-M "C C C 2"
_symmetry_group_IT_number 37
_symmetry_cell_setting 'orthorhombic'
loop_
_space_group_symop_operation_xyz
x,y,z
-x,-y,z
-x,y,1/2+z
x,-y,1/2+z
1/2+x,1/2+y,z
1/2-x,1/2-y,z
1/2-x,1/2+y,1/2+z
1/2+x,1/2-y,1/2+z
loop_
_atom_site_type_symbol
_atom_site_label
_atom_site_fract_x
_atom_site_fract_y
_atom_site_fract_z
Si Si1 0.430088 0.742253 0.747540
Si Si2 0.435958 0.409132 0.997949
Si Si3 0.140046 0.332034 0.851154
Si Si4 0.066063 0.748057 0.586463
Si Si5 0.926664 0.592166 0.995292
Si Si6 0.942058 0.909008 0.835069
O O1 0.250000 0.750000 0.752079
O O2 0.521119 0.810833 0.791920
O O3 0.475493 0.745798 0.667020
O O4 0.480614 0.657026 0.784768
O O5 0.500000 0.500000 0.018171
O O6 0.254499 0.416077 0.003197
O O7 0.475653 0.392840 0.916905
O O8 0.486585 0.329828 0.043673
O O9 0.250000 0.250000 0.864850
O O10 0.057560 0.362790 0.920414
O O11 0.261651 0.401100 0.828609
O O12 0.250000 0.750000 0.582338
O O13 0.017511 0.660247 0.551616
O O14 0.000000 0.500000 0.998355
O O15 0.000000 0.000000 0.818069
#
# Coordination Sequence:
#
# PCOD9353729 Si02
#       6
#     8   8   8   8   8   8
#     4  10  20  33  52  76 103 137 172 208 252 305
#     4   9  18  35  57  77  99 132 172 210 253 303
#     4   9  18  35  55  72 100 139 171 206 259 311
#     4   9  18  35  53  72 105 140 166 202 257 309
#     4  10  19  34  55  77 100 131 171 213 256 300
#     4   9  18  34  54  76 101 131 169 213 257 306
#
# _framework density 17.654373
#
# number of rings (size 3 to 8) (size 9 to 14) (size 15 to 20)
#    0.000    2.667    0.000    3.500    0.000    4.667 
#    0.000   11.667    0.000    0.000    0.000    0.000 
#    0.000    0.000    0.000    0.000    0.000    0.000 
#
# Total GULP energy -133749.089414 kJ/mol
# GULP energy per Si atom -5572.878726 kJ/mol
# Density = 1.761419 g / cm^3
# Si number density = 17.654373 Si / 1000 Ang^3
#
#
#
# Elastic Constant Matrix: (Units=GPa)
#
#
# Indices 1 2 3 4 5 6 
#
# 1 30.2241 37.3590 49.6706 0.0000 0.0000 0.0000
# 2 37.3590 128.6540 94.7756 0.0000 0.0000 0.0000
# 3 49.6706 94.7756 141.4711 0.0000 0.0000 0.0000
# 4 0.0000 0.0000 0.0000 1.5761 0.0000 0.0000
# 5 0.0000 0.0000 0.0000 0.0000 21.2320 0.0000
# 6 0.0000 0.0000 0.0000 0.0000 0.0000 37.3678
#
#
#
# Elastic Compliance Matrix: (Units=1/GPa)
#
#
# Indices 1 2 3 4 5 6 
#
# 1 0.079816 -0.005002 -0.024673 0.000000 0.000000 0.000000
# 2 -0.005002 0.015660 -0.008735 0.000000 0.000000 0.000000
# 3 -0.024673 -0.008735 0.021583 0.000000 0.000000 0.000000
# 4 0.000000 0.000000 0.000000 0.634492 0.000000 0.000000
# 5 0.000000 0.000000 0.000000 0.000000 0.047099 0.000000
# 6 0.000000 0.000000 0.000000 0.000000 0.000000 0.026761
#
#
# Mechanical properties :
#
#
# Convention : Reuss Voigt Hill
#
# Bulk Modulus (GPa) = 24.85080 73.77329 49.31204
# Shear Modulus (GPa) = 5.46065 19.93811 12.69938
#
# Velocity S-wave (km/s) = 1.76063 3.36424 2.68495
# Velocity P-wave (km/s) = 4.27082 7.54779 6.13225
#
# Compressibility (1/GPa) = 0.04024015
#
# Stress axis : x y z
#
# Youngs Moduli (GPa) = 12.52889 63.85697 46.33276
#
# Poissons Ratio (x) = 0.31938 1.14315
# Poissons Ratio (y) = 0.06266 0.40472
# Poissons Ratio (z) = 0.30912 0.55779
#
# Static dielectric constant tensor:
#      x y z
#    x 1.606030 0.000000 0.000000 
#    y 0.000000 1.614700 0.000000 
#    z 0.000000 0.000000 1.601220 
# 
# From -- ./inp_files/12551.got.cif
#   From: 2010.05.17/outbox.cif.g08.bks.cpg/sg37_7_cif.got.tgz:12551.got - 2010.06.03 17:53:42.
