data_PCOD9353132
_publ_section_title
;
Structure prediction by ZEFSAII (Michael W. Deem and Ramdas Pophale) SiO2 
 PCOD9353132
Probable space group: C M C 21
;
_chemical_formula_sum "Si O2"
_cell_formula_units_Z 40
_cell_length_a 10.874270
_cell_length_b 18.142980
_cell_length_c 8.093861
_cell_angle_alpha 90.000000
_cell_angle_beta 90.000000
_cell_angle_gamma 90.000000
_cell_volume 1596.851298
_symmetry_space_group_name_H-M "C M C 21"
_symmetry_group_IT_number 36
_symmetry_cell_setting 'orthorhombic'
loop_
_space_group_symop_operation_xyz
x,y,z
-x,-y,1/2+z
x,-y,1/2+z
-x,y,z
1/2+x,1/2+y,z
1/2-x,1/2-y,1/2+z
1/2+x,1/2-y,1/2+z
1/2-x,1/2+y,z
loop_
_atom_site_type_symbol
_atom_site_label
_atom_site_fract_x
_atom_site_fract_y
_atom_site_fract_z
Si Si1 0.771046 0.612316 0.862340
Si Si2 0.356717 0.755874 0.572564
Si Si3 0.261836 0.855701 0.870289
Si Si4 0.000000 0.079965 0.266191
Si Si5 0.500000 0.590436 0.874362
Si Si6 0.639850 0.977781 0.668389
O O1 0.841908 0.684651 0.922046
O O2 0.628174 0.627038 0.824243
O O3 0.826772 0.560136 0.721396
O O4 0.775898 0.559751 0.028443
O O5 0.500000 0.734946 0.580449
O O6 0.315590 0.799979 0.733993
O O7 0.257482 0.692257 0.533701
O O8 0.122757 0.882537 0.834598
O O9 0.342242 0.928147 0.834598
O O10 0.000000 0.089391 0.071177
O O11 0.000000 0.993364 0.308760
O O12 0.500000 0.970872 0.612245
#
# Coordination Sequence:
#
# PCOD9353132 Si02
#       6
#     8   8   8   4   4   8
#     4  11  22  39  64  90 123 162 207 262 321 378
#     4  11  24  44  65  93 131 174 218 272 330 400
#     4  11  23  44  64  91 132 171 215 274 329 387
#     4  12  22  44  68  96 134 165 215 280 330 397
#     4  12  20  42  68  96 132 163 217 274 332 387
#     4  11  22  40  63  90 123 161 210 262 318 387
#
# _framework density 25.049296999999999
#
# number of rings (size 3 to 8) (size 9 to 14) (size 15 to 20)
#    0.000    0.800    7.000    3.600    0.000    1.600 
#   10.800    2.000    0.000    0.000    0.000    0.000 
#    0.000    0.000    0.000    0.000    0.000    0.000 
#
# Total GULP energy -111993.492150 kJ/mol
# GULP energy per Si atom -5599.674608 kJ/mol
# Density = 2.499228 g / cm^3
# Si number density = 25.049297 Si / 1000 Ang^3
#
#
#
# Elastic Constant Matrix: (Units=GPa)
#
#
# Indices 1 2 3 4 5 6 
#
# 1 155.1570 14.8196 2.6586 0.0000 0.0000 0.0000
# 2 14.8196 103.5960 15.6514 0.0000 0.0000 0.0000
# 3 2.6586 15.6514 45.8366 0.0000 0.0000 0.0000
# 4 0.0000 0.0000 0.0000 63.9819 0.0000 0.0000
# 5 0.0000 0.0000 0.0000 0.0000 31.0823 0.0000
# 6 0.0000 0.0000 0.0000 0.0000 0.0000 47.9317
#
#
#
# Elastic Compliance Matrix: (Units=1/GPa)
#
#
# Indices 1 2 3 4 5 6 
#
# 1 0.006535 -0.000925 -0.000063 0.000000 0.000000 0.000000
# 2 -0.000925 0.010309 -0.003466 0.000000 0.000000 0.000000
# 3 -0.000063 -0.003466 0.023004 0.000000 0.000000 0.000000
# 4 0.000000 0.000000 0.000000 0.015629 0.000000 0.000000
# 5 0.000000 0.000000 0.000000 0.000000 0.032173 0.000000
# 6 0.000000 0.000000 0.000000 0.000000 0.000000 0.020863
#
#
# Mechanical properties :
#
#
# Convention : Reuss Voigt Hill
#
# Bulk Modulus (GPa) = 32.32282 41.20542 36.76412
# Shear Modulus (GPa) = 39.14364 46.69651 42.92007
#
# Velocity S-wave (km/s) = 3.95734 4.32230 4.14384
# Velocity P-wave (km/s) = 5.81485 6.43391 6.13220
#
# Compressibility (1/GPa) = 0.03093789
#
# Stress axis : x y z
#
# Youngs Moduli (GPa) = 153.03297 97.00307 43.47087
#
# Poissons Ratio (x) = 0.08975 0.00274
# Poissons Ratio (y) = 0.14159 0.15069
# Poissons Ratio (z) = 0.00965 0.33625
#
# Static dielectric constant tensor:
#      x y z
#    x 1.865680 0.000000 0.000000 
#    y 0.000000 1.981460 0.000000 
#    z 0.000000 0.000000 2.056160 
# 
# From -- ./inp_files/3100.got.cif
#   From: 2010.05.17/outbox.cif.g08.bks.cpg/sg36_2_cif.got.tgz:3100.got - 2010.06.03 17:41:39.
