data_PCOD9353676
_publ_section_title
;
Structure prediction by ZEFSAII (Michael W. Deem and Ramdas Pophale) SiO2 
 PCOD9353676
Probable space group: C C C 2
;
_chemical_formula_sum "Si O2"
_cell_formula_units_Z 52
_cell_length_a 10.972455
_cell_length_b 24.677940
_cell_length_c 9.882258
_cell_angle_alpha 90.000000
_cell_angle_beta 90.000000
_cell_angle_gamma 90.000000
_cell_volume 2675.893967
_symmetry_space_group_name_H-M "C C C 2"
_symmetry_group_IT_number 37
_symmetry_cell_setting 'orthorhombic'
loop_
_space_group_symop_operation_xyz
x,y,z
-x,-y,z
-x,y,1/2+z
x,-y,1/2+z
1/2+x,1/2+y,z
1/2-x,1/2-y,z
1/2-x,1/2+y,1/2+z
1/2+x,1/2-y,1/2+z
loop_
_atom_site_type_symbol
_atom_site_label
_atom_site_fract_x
_atom_site_fract_y
_atom_site_fract_z
Si Si1 0.005564 0.249195 0.176990
Si Si2 0.829784 0.804981 0.963342
Si Si3 0.500000 0.000000 0.426990
Si Si4 0.170216 0.195019 0.390639
Si Si5 0.561350 0.929948 0.676990
Si Si6 0.671447 0.857813 0.176990
Si Si7 0.231207 0.675241 0.176990
O O1 0.052119 0.214127 0.305103
O O2 0.870257 0.275657 0.176990
O O3 0.052119 0.214127 0.048877
O O4 0.086962 0.303961 0.176990
O O5 0.750000 0.750000 0.969259
O O6 0.814686 0.823377 0.809453
O O7 0.759082 0.850888 0.048875
O O8 0.426267 0.036806 0.536170
O O9 0.573733 0.036806 0.317811
O O10 0.250000 0.250000 0.384722
O O11 0.240918 0.149113 0.305105
O O12 0.185314 0.176623 0.544527
O O13 0.421749 0.907296 0.676990
O O14 0.650658 0.879014 0.676990
#
# Coordination Sequence:
#
# PCOD9353676 Si02
#       7
#     8   8   4   8   8   8   8
#     4   8  18  31  42  63  92 119 161 206 228 256
#     4   9  17  29  43  66  91 115 165 207 219 263
#     4  10  20  30  40  62  92 106 160 216 228 266
#     4   9  17  29  43  66  91 115 165 207 219 263
#     4  10  19  30  44  63  84 123 161 194 236 277
#     4   8  15  29  44  57  83 117 153 188 230 268
#     4  11  19  30  50  66  90 134 172 187 230 284
#
# _framework density 19.432759000000001
#
# number of rings (size 3 to 8) (size 9 to 14) (size 15 to 20)
#    0.000    2.769    0.000    4.154    0.000    9.846 
#    0.000    3.077    0.000    0.000    0.000    0.000 
#    0.000    0.000    0.000    0.000    0.000 5163.077 
#
# Total GULP energy -144770.919901 kJ/mol
# GULP energy per Si atom -5568.112304 kJ/mol
# Density = 1.938853 g / cm^3
# Si number density = 19.432759 Si / 1000 Ang^3
#
#
#
# Elastic Constant Matrix: (Units=GPa)
#
#
# Indices 1 2 3 4 5 6 
#
# 1 116.3143 37.5702 70.7917 0.0000 0.0000 0.0000
# 2 37.5702 79.4497 51.2267 0.0000 0.0000 0.0000
# 3 70.7917 51.2267 229.2272 0.0000 0.0000 0.0000
# 4 0.0000 0.0000 0.0000 9.9881 0.0000 0.0000
# 5 0.0000 0.0000 0.0000 0.0000 7.8257 0.0000
# 6 0.0000 0.0000 0.0000 0.0000 0.0000 15.8222
#
#
#
# Elastic Compliance Matrix: (Units=1/GPa)
#
#
# Indices 1 2 3 4 5 6 
#
# 1 0.011429 -0.003656 -0.002713 0.000000 0.000000 0.000000
# 2 -0.003656 0.015875 -0.002419 0.000000 0.000000 0.000000
# 3 -0.002713 -0.002419 0.005741 0.000000 0.000000 0.000000
# 4 0.000000 0.000000 0.000000 0.100119 0.000000 0.000000
# 5 0.000000 0.000000 0.000000 0.000000 0.127784 0.000000
# 6 0.000000 0.000000 0.000000 0.000000 0.000000 0.063202
#
#
# Mechanical properties :
#
#
# Convention : Reuss Voigt Hill
#
# Bulk Modulus (GPa) = 64.63809 82.68535 73.66172
# Shear Modulus (GPa) = 14.41417 24.42072 19.41744
#
# Velocity S-wave (km/s) = 2.72646 3.54881 3.16446
# Velocity P-wave (km/s) = 6.57617 7.70934 7.16519
#
# Compressibility (1/GPa) = 0.01547075
#
# Stress axis : x y z
#
# Youngs Moduli (GPa) = 87.49527 62.99330 174.19297
#
# Poissons Ratio (x) = 0.23028 0.47254
# Poissons Ratio (y) = 0.31984 0.42132
# Poissons Ratio (z) = 0.23735 0.15236
#
# Static dielectric constant tensor:
#      x y z
#    x 1.751590 0.000000 0.000000 
#    y 0.000000 1.674800 0.000000 
#    z 0.000000 0.000000 1.770020 
# 
# From -- ./inp_files/3011.got.cif
#   From: 2010.05.17/outbox.cif.g08.bks.cpg/sg37_2_cif.got.tgz:3011.got - 2010.06.03 17:53:42.
