data_PCOD9353052
_publ_section_title
;
Structure prediction by ZEFSAII (Michael W. Deem and Ramdas Pophale) SiO2 
 PCOD9353052
Probable space group: C M C 21
;
_chemical_formula_sum "Si O2"
_cell_formula_units_Z 64
_cell_length_a 26.012768
_cell_length_b 9.224041
_cell_length_c 11.779345
_cell_angle_alpha 90.000000
_cell_angle_beta 90.000000
_cell_angle_gamma 90.000000
_cell_volume 2826.369476
_symmetry_space_group_name_H-M "C M C 21"
_symmetry_group_IT_number 36
_symmetry_cell_setting 'orthorhombic'
loop_
_space_group_symop_operation_xyz
x,y,z
-x,-y,1/2+z
x,-y,1/2+z
-x,y,z
1/2+x,1/2+y,z
1/2-x,1/2-y,1/2+z
1/2+x,1/2-y,1/2+z
1/2-x,1/2+y,z
loop_
_atom_site_type_symbol
_atom_site_label
_atom_site_fract_x
_atom_site_fract_y
_atom_site_fract_z
Si Si1 0.128892 0.570726 0.886090
Si Si2 0.938972 0.060771 0.006295
Si Si3 0.058313 0.299017 0.826643
Si Si4 0.246495 0.452971 0.441499
Si Si5 0.814868 0.912520 0.246710
Si Si6 0.899158 0.238998 0.596712
Si Si7 0.130890 0.214846 0.183134
Si Si8 0.266730 0.204940 0.584058
O O1 0.098856 0.421729 0.862794
O O2 0.190867 0.561052 0.885005
O O3 0.114642 0.684490 0.786948
O O4 0.113743 0.635826 0.008361
O O5 0.915721 0.159856 0.106327
O O6 0.000000 0.043923 0.017023
O O7 0.913344 0.904010 0.024062
O O8 0.928465 0.146051 0.888704
O O9 0.058999 0.280741 0.690800
O O10 0.000000 0.336827 0.863586
O O11 0.297764 0.402451 0.376831
O O12 0.247085 0.365782 0.559536
O O13 0.251405 0.620930 0.471753
O O14 0.852864 0.804628 0.181632
O O15 0.761329 0.871312 0.187228
O O16 0.838020 0.072326 0.226374
O O17 0.172700 0.297486 0.105197
#
# Coordination Sequence:
#
# PCOD9353052 Si02
#       8
#     8   8   8   8   8   8   8   8
#     4  12  27  45  72 107 146 192 240 296 371 436
#     4  10  25  50  77 102 137 188 246 302 367 439
#     4  11  28  50  75 108 145 184 239 312 374 434
#     4  12  26  40  67  99 142 187 233 289 354 420
#     4  11  25  42  68 100 143 185 238 291 348 428
#     4  11  27  47  76 106 144 193 246 299 363 443
#     4  11  25  44  70 104 142 188 242 293 361 435
#     4  12  24  42  64  98 140 185 235 288 350 421
#
# _framework density 22.643889999999999
#
# number of rings (size 3 to 8) (size 9 to 14) (size 15 to 20)
#    0.000    0.750    3.750    1.875   10.500    1.500 
#    0.000    0.000    0.000    0.000    0.000    0.000 
#    0.000    0.000    0.000    0.000    0.000    0.000 
#
# Total GULP energy -178873.685019 kJ/mol
# GULP energy per Si atom -5589.802657 kJ/mol
# Density = 2.259235 g / cm^3
# Si number density = 22.643890 Si / 1000 Ang^3
#
#
#
# Elastic Constant Matrix: (Units=GPa)
#
#
# Indices 1 2 3 4 5 6 
#
# 1 76.6171 33.3287 40.3845 0.0000 0.0000 0.0000
# 2 33.3287 81.0533 19.6075 0.0000 0.0000 0.0000
# 3 40.3845 19.6075 62.2664 0.0000 0.0000 0.0000
# 4 0.0000 0.0000 0.0000 34.3898 0.0000 0.0000
# 5 0.0000 0.0000 0.0000 0.0000 32.1196 0.0000
# 6 0.0000 0.0000 0.0000 0.0000 0.0000 16.3823
#
#
#
# Elastic Compliance Matrix: (Units=1/GPa)
#
#
# Indices 1 2 3 4 5 6 
#
# 1 0.022346 -0.006151 -0.012556 0.000000 0.000000 0.000000
# 2 -0.006151 0.015048 -0.000749 0.000000 0.000000 0.000000
# 3 -0.012556 -0.000749 0.024440 0.000000 0.000000 0.000000
# 4 0.000000 0.000000 0.000000 0.029078 0.000000 0.000000
# 5 0.000000 0.000000 0.000000 0.000000 0.031134 0.000000
# 6 0.000000 0.000000 0.000000 0.000000 0.000000 0.061042
#
#
# Mechanical properties :
#
#
# Convention : Reuss Voigt Hill
#
# Bulk Modulus (GPa) = 43.62834 45.17537 44.40185
# Shear Modulus (GPa) = 21.77321 25.01941 23.39631
#
# Velocity S-wave (km/s) = 3.10425 3.32762 3.21787
# Velocity P-wave (km/s) = 5.67076 5.89557 5.78426
#
# Compressibility (1/GPa) = 0.02292088
#
# Stress axis : x y z
#
# Youngs Moduli (GPa) = 44.75088 66.45366 40.91733
#
# Poissons Ratio (x) = 0.40876 0.51376
# Poissons Ratio (y) = 0.27527 0.03065
# Poissons Ratio (z) = 0.56190 0.04978
#
# Static dielectric constant tensor:
#      x y z
#    x 1.847110 0.000000 0.000000 
#    y 0.000000 1.812400 0.000000 
#    z 0.000000 0.000000 1.860200 
# 
# From -- ./inp_files/9758.got.cif
#   From: 2010.05.17/outbox.cif.g08.bks.cpg/sg36_5_cif.got.tgz:9758.got - 2010.06.03 17:41:39.
