data_PCOD9353709
_publ_section_title
;
Structure prediction by ZEFSAII (Michael W. Deem and Ramdas Pophale) SiO2 
 PCOD9353709
Probable space group: C C C 2
;
_chemical_formula_sum "Si O2"
_cell_formula_units_Z 40
_cell_length_a 5.165191
_cell_length_b 14.736416
_cell_length_c 22.703318
_cell_angle_alpha 90.000000
_cell_angle_beta 90.000000
_cell_angle_gamma 90.000000
_cell_volume 1728.094909
_symmetry_space_group_name_H-M "C C C 2"
_symmetry_group_IT_number 37
_symmetry_cell_setting 'orthorhombic'
loop_
_space_group_symop_operation_xyz
x,y,z
-x,-y,z
-x,y,1/2+z
x,-y,1/2+z
1/2+x,1/2+y,z
1/2-x,1/2-y,z
1/2-x,1/2+y,1/2+z
1/2+x,1/2-y,1/2+z
loop_
_atom_site_type_symbol
_atom_site_label
_atom_site_fract_x
_atom_site_fract_y
_atom_site_fract_z
Si Si1 0.005083 0.390626 0.152330
Si Si2 0.215403 0.856613 0.955202
Si Si3 0.213818 0.360422 0.896165
Si Si4 0.005164 0.890623 0.084872
Si Si5 0.496450 0.811151 0.778845
O O1 0.723490 0.359476 0.130924
O O2 0.000000 0.500000 0.151901
O O3 0.223797 0.359434 0.106124
O O4 0.071153 0.359110 0.217822
O O5 0.250000 0.750000 0.943534
O O6 0.503894 0.892831 0.944122
O O7 0.999383 0.895047 0.910734
O O8 0.098546 0.865058 0.020056
O O9 0.250000 0.250000 0.899220
O O10 0.086338 0.375637 0.832447
O O11 0.000000 0.000000 0.086021
O O12 0.250000 0.750000 0.797214
O O13 0.750000 0.750000 0.767689
#
# Coordination Sequence:
#
# PCOD9353709 Si02
#       5
#     8   8   8   8   8
#     4  10  22  39  56  78 112 148 180 223 278 323
#     4  10  19  33  54  78 105 139 177 217 263 320
#     4   9  18  33  53  78 108 138 169 218 276 314
#     4  10  21  37  55  77 110 147 180 221 273 322
#     4  11  21  36  59  83 109 142 184 227 268 323
#
# _framework density 23.146878000000001
#
# number of rings (size 3 to 8) (size 9 to 14) (size 15 to 20)
#    0.000    2.000    0.000    5.400    0.000    2.400 
#    0.000    2.000    0.000    0.000    0.000    0.000 
#    0.000    0.000    0.000    0.000    0.000    0.000 
#
# Total GULP energy -111772.015051 kJ/mol
# GULP energy per Si atom -5588.600753 kJ/mol
# Density = 2.309419 g / cm^3
# Si number density = 23.146878 Si / 1000 Ang^3
#
#
#
# Elastic Constant Matrix: (Units=GPa)
#
#
# Indices 1 2 3 4 5 6 
#
# 1 130.0035 11.2832 38.0068 0.0000 0.0000 0.0000
# 2 11.2832 60.4893 3.7580 0.0000 0.0000 0.0000
# 3 38.0068 3.7580 138.0199 0.0000 0.0000 0.0000
# 4 0.0000 0.0000 0.0000 63.5905 0.0000 0.0000
# 5 0.0000 0.0000 0.0000 0.0000 35.2501 0.0000
# 6 0.0000 0.0000 0.0000 0.0000 0.0000 -5.6252
#
#
#
# Elastic Compliance Matrix: (Units=1/GPa)
#
#
# Indices 1 2 3 4 5 6 
#
# 1 0.008489 -0.001441 -0.002298 0.000000 0.000000 0.000000
# 2 -0.001441 0.016804 -0.000061 0.000000 0.000000 0.000000
# 3 -0.002298 -0.000061 0.007880 0.000000 0.000000 0.000000
# 4 0.000000 0.000000 0.000000 0.015726 0.000000 0.000000
# 5 0.000000 0.000000 0.000000 0.000000 0.028369 0.000000
# 6 0.000000 0.000000 0.000000 0.000000 0.000000 -0.177771
#
#
# Mechanical properties :
#
#
# Convention : Reuss Voigt Hill
#
# Bulk Modulus (GPa) = 39.10301 48.28986 43.69643
# Shear Modulus (GPa) = -59.25631 37.00739 -11.12446
#
# Velocity S-wave (km/s) = -5.06515 4.00285 -2.19464
# Velocity P-wave (km/s) = 4.15662 6.50164 3.53510
#
# Compressibility (1/GPa) = 0.02557348
#
# Stress axis : x y z
#
# Youngs Moduli (GPa) = 117.79820 59.50835 126.90496
#
# Poissons Ratio (x) = 0.08573 0.29168
# Poissons Ratio (y) = 0.16971 0.00772
# Poissons Ratio (z) = 0.27075 0.00362
#
# Static dielectric constant tensor:
#      x y z
#    x 1.877380 0.000000 0.000000 
#    y 0.000000 1.881920 0.000000 
#    z 0.000000 0.000000 1.869490 
# 
# From -- ./inp_files/13820.got.cif
#   From: 2010.05.17/outbox.cif.g08.bks.cpg/sg37_7_cif.got.tgz:13820.got - 2010.06.03 17:53:42.
