data_PCOD9353758
_publ_section_title
;
Structure prediction by ZEFSAII (Michael W. Deem and Ramdas Pophale) SiO2 
 PCOD9353758
Probable space group: C C C 2
;
_chemical_formula_sum "Si O2"
_cell_formula_units_Z 48
_cell_length_a 12.146746
_cell_length_b 12.883531
_cell_length_c 13.796566
_cell_angle_alpha 90.000000
_cell_angle_beta 90.000000
_cell_angle_gamma 90.000000
_cell_volume 2159.065708
_symmetry_space_group_name_H-M "C C C 2"
_symmetry_group_IT_number 37
_symmetry_cell_setting 'orthorhombic'
loop_
_space_group_symop_operation_xyz
x,y,z
-x,-y,z
-x,y,1/2+z
x,-y,1/2+z
1/2+x,1/2+y,z
1/2-x,1/2-y,z
1/2-x,1/2+y,1/2+z
1/2+x,1/2-y,1/2+z
loop_
_atom_site_type_symbol
_atom_site_label
_atom_site_fract_x
_atom_site_fract_y
_atom_site_fract_z
Si Si1 0.821693 0.339199 0.516430
Si Si2 0.285454 0.359688 0.660014
Si Si3 0.786351 0.915866 0.214914
Si Si4 0.893849 0.447103 0.011255
Si Si5 0.483277 0.279113 0.161911
Si Si6 0.445151 0.111875 0.309716
O O1 0.750000 0.250000 0.465893
O O2 0.750882 0.385964 0.605891
O O3 0.845739 0.446918 0.461852
O O4 0.919986 0.280126 0.574523
O O5 0.250000 0.250000 0.703936
O O6 0.294053 0.461004 0.726015
O O7 0.194248 0.390690 0.578668
O O8 0.409350 0.337556 0.623223
O O9 0.901570 0.857080 0.219224
O O10 0.682505 0.879597 0.277134
O O11 0.937498 0.375084 0.925213
O O12 0.000000 0.500000 0.064750
O O13 0.509834 0.193213 0.243669
O O14 0.500000 0.000000 0.291736
#
# Coordination Sequence:
#
# PCOD9353758 Si02
#       6
#     8   8   8   8   8   8
#     4   8  16  33  55  77 106 149 196 241 294 362
#     4  11  21  33  57  88 115 151 208 262 299 358
#     4   9  19  35  56  81 112 153 200 247 306 365
#     4  10  21  36  54  84 123 157 194 249 315 369
#     4  10  19  35  59  83 113 156 205 256 301 364
#     4  10  20  36  57  83 117 158 199 249 310 376
#
# _framework density 22.231838
#
# number of rings (size 3 to 8) (size 9 to 14) (size 15 to 20)
#    0.000    2.333    0.000    4.000    0.000    6.000 
#    0.000    4.167    0.000   10.000    0.000    0.000 
#    0.000    0.000    0.000    0.000    0.000    0.000 
#
# Total GULP energy -133702.374172 kJ/mol
# GULP energy per Si atom -5570.932257 kJ/mol
# Density = 2.218124 g / cm^3
# Si number density = 22.231838 Si / 1000 Ang^3
#
#
#
# Elastic Constant Matrix: (Units=GPa)
#
#
# Indices 1 2 3 4 5 6 
#
# 1 121.3462 43.5364 23.6985 0.0000 0.0000 0.0000
# 2 43.5364 122.0457 21.9224 0.0000 0.0000 0.0000
# 3 23.6985 21.9224 59.2858 0.0000 0.0000 0.0000
# 4 0.0000 0.0000 0.0000 18.0009 0.0000 0.0000
# 5 0.0000 0.0000 0.0000 0.0000 20.1912 0.0000
# 6 0.0000 0.0000 0.0000 0.0000 0.0000 47.5569
#
#
#
# Elastic Compliance Matrix: (Units=1/GPa)
#
#
# Indices 1 2 3 4 5 6 
#
# 1 0.009876 -0.003014 -0.002833 0.000000 0.000000 0.000000
# 2 -0.003014 0.009696 -0.002381 0.000000 0.000000 0.000000
# 3 -0.002833 -0.002381 0.018880 0.000000 0.000000 0.000000
# 4 0.000000 0.000000 0.000000 0.055553 0.000000 0.000000
# 5 0.000000 0.000000 0.000000 0.000000 0.049527 0.000000
# 6 0.000000 0.000000 0.000000 0.000000 0.000000 0.021027
#
#
# Mechanical properties :
#
#
# Convention : Reuss Voigt Hill
#
# Bulk Modulus (GPa) = 45.46137 53.44360 49.45248
# Shear Modulus (GPa) = 26.54679 31.38450 28.96564
#
# Velocity S-wave (km/s) = 3.45931 3.76132 3.61347
# Velocity P-wave (km/s) = 6.03729 6.55399 6.30094
#
# Compressibility (1/GPa) = 0.02199670
#
# Stress axis : x y z
#
# Youngs Moduli (GPa) = 101.26062 103.13081 52.96540
#
# Poissons Ratio (x) = 0.31083 0.15006
# Poissons Ratio (y) = 0.30519 0.12610
# Poissons Ratio (z) = 0.28688 0.24553
#
# Static dielectric constant tensor:
#      x y z
#    x 1.939840 0.000000 0.000000 
#    y 0.000000 1.887080 0.000000 
#    z 0.000000 0.000000 1.804570 
# 
# From -- ./inp_files/14982.got.cif
#   From: 2010.05.17/outbox.cif.g08.bks.cpg/sg37_8_cif.got.tgz:14982.got - 2010.06.03 17:53:42.
