data_PCOD9353571
_publ_section_title
;
Structure prediction by ZEFSAII (Michael W. Deem and Ramdas Pophale) SiO2 
 PCOD9353571
Probable space group: C C C 2
;
_chemical_formula_sum "Si O2"
_cell_formula_units_Z 52
_cell_length_a 13.782438
_cell_length_b 15.220283
_cell_length_c 9.656812
_cell_angle_alpha 90.000000
_cell_angle_beta 90.000000
_cell_angle_gamma 90.000000
_cell_volume 2025.734627
_symmetry_space_group_name_H-M "C C C 2"
_symmetry_group_IT_number 37
_symmetry_cell_setting 'orthorhombic'
loop_
_space_group_symop_operation_xyz
x,y,z
-x,-y,z
-x,y,1/2+z
x,-y,1/2+z
1/2+x,1/2+y,z
1/2-x,1/2-y,z
1/2-x,1/2+y,1/2+z
1/2+x,1/2-y,1/2+z
loop_
_atom_site_type_symbol
_atom_site_label
_atom_site_fract_x
_atom_site_fract_y
_atom_site_fract_z
Si Si1 0.335555 0.466799 0.782610
Si Si2 0.549491 0.167863 0.897586
Si Si3 0.500000 0.000000 0.531637
Si Si4 0.813753 0.165766 0.516177
Si Si5 0.406499 0.342668 0.301569
Si Si6 0.163819 0.557556 0.697830
Si Si7 0.747090 0.341748 0.048876
O O1 0.408931 0.550384 0.786576
O O2 0.229700 0.510256 0.813013
O O3 0.309227 0.415949 0.638466
O O4 0.358555 0.392998 0.894568
O O5 0.521730 0.269022 0.869183
O O6 0.595250 0.132398 0.756134
O O7 0.479877 0.088959 0.945380
O O8 0.641355 0.157882 0.000005
O O9 0.592500 0.989790 0.628317
O O10 0.750000 0.250000 0.473838
O O11 0.886153 0.186767 0.643513
O O12 0.738750 0.100576 0.593572
O O13 0.315520 0.330890 0.407083
O O14 0.750000 0.250000 0.133038
#
# Coordination Sequence:
#
# PCOD9353571 Si02
#       7
#     8   8   4   8   8   8   8
#     4  11  20  30  54  88 119 152 199 259 323 370
#     4  11  20  37  55  79 116 170 209 248 301 386
#     4  12  24  36  56  86 124 168 214 244 306 380
#     4  11  19  34  56  86 123 157 195 264 319 376
#     4  10  19  34  57  78 117 159 202 251 321 372
#     4  11  21  35  52  82 117 164 201 248 303 384
#     4  10  18  33  52  81 121 158 198 255 315 370
#
# _framework density 25.669702000000001
#
# number of rings (size 3 to 8) (size 9 to 14) (size 15 to 20)
#    0.000    1.231    6.154    4.154    0.000    0.000 
#    0.000    0.000    0.000    0.000    0.000    1.077 
#    0.000    0.000    0.000    0.000    0.000    0.000 
#
# Total GULP energy -144845.179581 kJ/mol
# GULP energy per Si atom -5570.968445 kJ/mol
# Density = 2.561128 g / cm^3
# Si number density = 25.669702 Si / 1000 Ang^3
#
#
#
# Elastic Constant Matrix: (Units=GPa)
#
#
# Indices 1 2 3 4 5 6 
#
# 1 28.5197 28.7368 2.6665 0.0000 0.0000 0.0000
# 2 28.7368 218.8960 60.9910 0.0000 0.0000 0.0000
# 3 2.6665 60.9910 101.8421 0.0000 0.0000 0.0000
# 4 0.0000 0.0000 0.0000 47.4855 0.0000 0.0000
# 5 0.0000 0.0000 0.0000 0.0000 -7.3639 0.0000
# 6 0.0000 0.0000 0.0000 0.0000 0.0000 38.5792
#
#
#
# Elastic Compliance Matrix: (Units=1/GPa)
#
#
# Indices 1 2 3 4 5 6 
#
# 1 0.040965 -0.006096 0.002578 0.000000 0.000000 0.000000
# 2 -0.006096 0.006391 -0.003668 0.000000 0.000000 0.000000
# 3 0.002578 -0.003668 0.011948 0.000000 0.000000 0.000000
# 4 0.000000 0.000000 0.000000 0.021059 0.000000 0.000000
# 5 0.000000 0.000000 0.000000 0.000000 -0.135798 0.000000
# 6 0.000000 0.000000 0.000000 0.000000 0.000000 0.025921
#
#
# Mechanical properties :
#
#
# Convention : Reuss Voigt Hill
#
# Bulk Modulus (GPa) = 22.25548 59.33849 40.79699
# Shear Modulus (GPa) = -30247.33728 32.86440 -15107.23644
#
# Velocity S-wave (km/s) = -108.66860 3.58198 -76.79855
# Velocity P-wave (km/s) = 125.44506 6.34616 88.58947
#
# Compressibility (1/GPa) = 0.04493275
#
# Stress axis : x y z
#
# Youngs Moduli (GPa) = 24.41098 156.47963 83.69570
#
# Poissons Ratio (x) = 0.95396 -0.21580
# Poissons Ratio (y) = 0.14882 0.30696
# Poissons Ratio (z) = -0.06294 0.57390
#
# Static dielectric constant tensor:
#      x y z
#    x 2.068990 0.000000 0.000000 
#    y 0.000000 1.874170 0.000000 
#    z 0.000000 0.000000 2.042090 
# 
# From -- ./inp_files/7920.got.cif
#   From: 2010.05.17/outbox.cif.g08.bks.cpg/sg37_4_cif.got.tgz:7920.got - 2010.06.03 17:53:42.
