data_PCOD9353747
_publ_section_title
;
Structure prediction by ZEFSAII (Michael W. Deem and Ramdas Pophale) SiO2 
 PCOD9353747
Probable space group: C C C 2
;
_chemical_formula_sum "Si O2"
_cell_formula_units_Z 48
_cell_length_a 7.019180
_cell_length_b 23.952483
_cell_length_c 12.137914
_cell_angle_alpha 90.000000
_cell_angle_beta 90.000000
_cell_angle_gamma 90.000000
_cell_volume 2040.708514
_symmetry_space_group_name_H-M "C C C 2"
_symmetry_group_IT_number 37
_symmetry_cell_setting 'orthorhombic'
loop_
_space_group_symop_operation_xyz
x,y,z
-x,-y,z
-x,y,1/2+z
x,-y,1/2+z
1/2+x,1/2+y,z
1/2-x,1/2-y,z
1/2-x,1/2+y,1/2+z
1/2+x,1/2-y,1/2+z
loop_
_atom_site_type_symbol
_atom_site_label
_atom_site_fract_x
_atom_site_fract_y
_atom_site_fract_z
Si Si1 0.274864 0.495277 0.517830
Si Si2 0.968079 0.272686 0.411101
Si Si3 0.269377 0.590235 0.197937
Si Si4 0.006479 0.825056 0.563389
Si Si5 0.675756 0.112445 0.441179
Si Si6 0.250000 0.250000 0.220068
Si Si7 0.500000 0.500000 0.815336
O O1 0.500000 0.500000 0.550634
O O2 0.192374 0.451770 0.604531
O O3 0.167181 0.553990 0.505069
O O4 0.317469 0.481270 0.389629
O O5 0.750000 0.250000 0.394365
O O6 0.059153 0.226971 0.491221
O O7 0.956625 0.334229 0.464005
O O8 0.081869 0.272160 0.297897
O O9 0.349402 0.643810 0.134928
O O10 0.155448 0.604017 0.309244
O O11 0.442621 0.554713 0.250302
O O12 0.112507 0.866804 0.478347
O O13 0.164223 0.798969 0.645108
#
# Coordination Sequence:
#
# PCOD9353747 Si02
#       7
#     8   8   8   8   8   4   4
#     4   9  16  26  51  90 127 171 215 273 343 403
#     4  10  23  44  60  98 136 173 238 291 336 430
#     4  11  16  29  56  93 125 176 221 273 347 408
#     4  11  19  37  60  90 134 174 227 288 340 417
#     4  10  19  35  55  88 144 165 221 307 320 412
#     4  12  24  42  70  88 134 200 224 284 378 404
#     4   8  14  26  44  82 132 150 220 270 314 418
#
# _framework density 23.521242999999998
#
# number of rings (size 3 to 8) (size 9 to 14) (size 15 to 20)
#    0.500    1.333    5.000    2.000    0.000    0.000 
#    4.500    0.000    0.000    0.000    0.000   39.667 
#    0.000    0.000    0.000    0.000    0.000    0.000 
#
# Total GULP energy -133784.689688 kJ/mol
# GULP energy per Si atom -5574.362070 kJ/mol
# Density = 2.346771 g / cm^3
# Si number density = 23.521243 Si / 1000 Ang^3
#
#
#
# Elastic Constant Matrix: (Units=GPa)
#
#
# Indices 1 2 3 4 5 6 
#
# 1 65.6454 31.3089 39.0991 0.0000 0.0000 0.0000
# 2 31.3089 159.6474 72.7671 0.0000 0.0000 0.0000
# 3 39.0991 72.7671 119.8509 0.0000 0.0000 0.0000
# 4 0.0000 0.0000 0.0000 26.6410 0.0000 0.0000
# 5 0.0000 0.0000 0.0000 0.0000 -243.3663 0.0000
# 6 0.0000 0.0000 0.0000 0.0000 0.0000 4.2529
#
#
#
# Elastic Compliance Matrix: (Units=1/GPa)
#
#
# Indices 1 2 3 4 5 6 
#
# 1 0.019086 -0.001251 -0.005467 0.000000 0.000000 0.000000
# 2 -0.001251 0.008743 -0.004900 0.000000 0.000000 0.000000
# 3 -0.005467 -0.004900 0.013102 0.000000 0.000000 0.000000
# 4 0.000000 0.000000 0.000000 0.037536 0.000000 0.000000
# 5 0.000000 0.000000 0.000000 0.000000 -0.004109 0.000000
# 6 0.000000 0.000000 0.000000 0.000000 0.000000 0.235134
#
#
# Mechanical properties :
#
#
# Convention : Reuss Voigt Hill
#
# Bulk Modulus (GPa) = 56.51308 70.16600 63.33954
# Shear Modulus (GPa) = 14.76554 -29.02991 -7.13219
#
# Velocity S-wave (km/s) = 2.50822 -3.51693 -1.74322
# Velocity P-wave (km/s) = 5.69796 3.66114 4.78909
#
# Compressibility (1/GPa) = 0.01769502
#
# Stress axis : x y z
#
# Youngs Moduli (GPa) = 52.39378 114.38357 76.32406
#
# Poissons Ratio (x) = 0.14313 0.41725
# Poissons Ratio (y) = 0.06556 0.37397
# Poissons Ratio (z) = 0.28643 0.56045
#
# Static dielectric constant tensor:
#      x y z
#    x 1.992450 0.000000 0.000000 
#    y 0.000000 1.897210 0.000000 
#    z 0.000000 0.000000 1.968150 
# 
# From -- ./inp_files/6421.got.cif
#   From: 2010.05.17/outbox.cif.g08.bks.cpg/sg37_4_cif.got.tgz:6421.got - 2010.06.03 17:53:42.
