data_PCOD9353774
_publ_section_title
;
Structure prediction by ZEFSAII (Michael W. Deem and Ramdas Pophale) SiO2 
 PCOD9353774
Probable space group: C C C 2
;
_chemical_formula_sum "Si O2"
_cell_formula_units_Z 64
_cell_length_a 14.145162
_cell_length_b 29.964215
_cell_length_c 8.803669
_cell_angle_alpha 90.000000
_cell_angle_beta 90.000000
_cell_angle_gamma 90.000000
_cell_volume 3731.423444
_symmetry_space_group_name_H-M "C C C 2"
_symmetry_group_IT_number 37
_symmetry_cell_setting 'orthorhombic'
loop_
_space_group_symop_operation_xyz
x,y,z
-x,-y,z
-x,y,1/2+z
x,-y,1/2+z
1/2+x,1/2+y,z
1/2-x,1/2-y,z
1/2-x,1/2+y,1/2+z
1/2+x,1/2-y,1/2+z
loop_
_atom_site_type_symbol
_atom_site_label
_atom_site_fract_x
_atom_site_fract_y
_atom_site_fract_z
Si Si1 0.206926 0.298709 0.475550
Si Si2 0.150551 0.868944 0.073395
Si Si3 0.673108 0.210172 0.330363
Si Si4 0.974769 0.191668 0.581943
Si Si5 0.601331 0.543507 0.412559
Si Si6 0.306250 0.639662 0.424462
Si Si7 0.458743 0.242941 0.354379
Si Si8 0.110464 0.950632 0.548830
O O1 0.250000 0.250000 0.448481
O O2 0.287510 0.335823 0.468621
O O3 0.176862 0.301501 0.651835
O O4 0.115838 0.297166 0.366185
O O5 0.186372 0.871031 0.245735
O O6 0.044008 0.850384 0.100184
O O7 0.154262 0.915445 0.988497
O O8 0.750000 0.250000 0.352196
O O9 0.709997 0.168795 0.432561
O O10 0.566476 0.225842 0.355712
O O11 0.889391 0.173674 0.478808
O O12 0.043606 0.228166 0.507229
O O13 0.939710 0.219481 0.726749
O O14 0.644091 0.497329 0.475795
O O15 0.493849 0.551327 0.472411
O O16 0.600990 0.544641 0.230290
O O17 0.327688 0.593171 0.509891
#
# Coordination Sequence:
#
# PCOD9353774 Si02
#       8
#     8   8   8   8   8   8   8   8
#     4  10  20  35  53  71 103 145 182 220 268 317
#     4  11  21  36  55  77 107 144 184 220 274 327
#     4  10  19  36  52  72 103 144 182 219 269 317
#     4  12  21  33  54  74 107 143 184 222 259 314
#     4  11  22  36  55  78 108 140 177 222 271 332
#     4  11  22  35  55  78 105 146 183 222 271 327
#     4  12  21  37  51  75 106 147 186 226 265 310
#     4  11  22  36  54  79 107 141 177 221 273 328
#
# _framework density 17.151631999999999
#
# number of rings (size 3 to 8) (size 9 to 14) (size 15 to 20)
#    0.000    1.000    6.250    3.750    1.750    0.000 
#    4.500    0.000    0.000    0.000    0.000    0.875 
#    0.000    6.000    0.000    0.000    0.000    0.000 
#
# Total GULP energy -178243.900762 kJ/mol
# GULP energy per Si atom -5570.121899 kJ/mol
# Density = 1.711259 g / cm^3
# Si number density = 17.151632 Si / 1000 Ang^3
#
#
#
# Elastic Constant Matrix: (Units=GPa)
#
#
# Indices 1 2 3 4 5 6 
#
# 1 76.0328 45.1283 20.1989 0.0000 0.0000 0.0000
# 2 45.1283 116.9319 38.9595 0.0000 0.0000 0.0000
# 3 20.1989 38.9595 87.7415 0.0000 0.0000 0.0000
# 4 0.0000 0.0000 0.0000 25.2673 0.0000 0.0000
# 5 0.0000 0.0000 0.0000 0.0000 11.0946 0.0000
# 6 0.0000 0.0000 0.0000 0.0000 0.0000 18.1488
#
#
#
# Elastic Compliance Matrix: (Units=1/GPa)
#
#
# Indices 1 2 3 4 5 6 
#
# 1 0.017165 -0.006229 -0.001185 0.000000 0.000000 0.000000
# 2 -0.006229 0.012298 -0.004026 0.000000 0.000000 0.000000
# 3 -0.001185 -0.004026 0.013458 0.000000 0.000000 0.000000
# 4 0.000000 0.000000 0.000000 0.039577 0.000000 0.000000
# 5 0.000000 0.000000 0.000000 0.000000 0.090134 0.000000
# 6 0.000000 0.000000 0.000000 0.000000 0.000000 0.055100
#
#
# Mechanical properties :
#
#
# Convention : Reuss Voigt Hill
#
# Bulk Modulus (GPa) = 49.90635 54.36441 52.13538
# Shear Modulus (GPa) = 19.43313 22.66343 21.04828
#
# Velocity S-wave (km/s) = 3.36969 3.63899 3.50693
# Velocity P-wave (km/s) = 6.65583 7.03004 6.84549
#
# Compressibility (1/GPa) = 0.02003753
#
# Stress axis : x y z
#
# Youngs Moduli (GPa) = 58.25952 81.31597 74.30613
#
# Poissons Ratio (x) = 0.50656 0.08808
# Poissons Ratio (y) = 0.36293 0.29919
# Poissons Ratio (z) = 0.06906 0.32741
#
# Static dielectric constant tensor:
#      x y z
#    x 1.633530 0.000000 0.000000 
#    y 0.000000 1.622920 0.000000 
#    z 0.000000 0.000000 1.626080 
# 
# From -- ./inp_files/3815.got.cif
#   From: 2010.05.17/outbox.cif.g08.bks.cpg/sg37_2_cif.got.tgz:3815.got - 2010.06.03 17:53:42.
