data_PCOD9353565
_publ_section_title
;
Structure prediction by ZEFSAII (Michael W. Deem and Ramdas Pophale) SiO2 
 PCOD9353565
Probable space group: C C C 2
;
_chemical_formula_sum "Si O2"
_cell_formula_units_Z 36
_cell_length_a 18.981468
_cell_length_b 5.046167
_cell_length_c 18.760263
_cell_angle_alpha 90.000000
_cell_angle_beta 90.000000
_cell_angle_gamma 90.000000
_cell_volume 1796.926605
_symmetry_space_group_name_H-M "C C C 2"
_symmetry_group_IT_number 37
_symmetry_cell_setting 'orthorhombic'
loop_
_space_group_symop_operation_xyz
x,y,z
-x,-y,z
-x,y,1/2+z
x,-y,1/2+z
1/2+x,1/2+y,z
1/2-x,1/2-y,z
1/2-x,1/2+y,1/2+z
1/2+x,1/2-y,1/2+z
loop_
_atom_site_type_symbol
_atom_site_label
_atom_site_fract_x
_atom_site_fract_y
_atom_site_fract_z
Si Si1 0.888220 0.864692 0.103800
Si Si2 0.825115 0.385858 0.034538
Si Si3 0.500000 0.500000 0.004554
Si Si4 0.922847 0.359641 0.908602
Si Si5 0.950422 0.249096 0.754612
O O1 0.830122 0.653289 0.080173
O O2 0.905521 0.834844 0.186494
O O3 0.868108 0.161872 0.079666
O O4 0.960071 0.803018 0.058812
O O5 0.750000 0.250000 0.022755
O O6 0.861295 0.465308 0.959077
O O7 0.439785 0.588735 0.949994
O O8 0.907426 0.325179 0.825704
O O9 0.000000 0.500000 0.912804
O O10 0.000000 0.500000 0.736572
O O11 0.000000 0.000000 0.774052
#
# Coordination Sequence:
#
# PCOD9353565 Si02
#       5
#     8   8   4   8   8
#     4  11  22  37  62  86 123 154 199 246 301 350
#     4  11  24  41  61  86 120 163 207 244 294 364
#     4  10  18  32  60  88 116 150 192 248 290 354
#     4  10  20  36  59  88 122 148 198 244 306 352
#     4  11  22  35  57  94 125 148 189 251 309 355
#
# _framework density 20.034210000000002
#
# number of rings (size 3 to 8) (size 9 to 14) (size 15 to 20)
#    0.000    1.333    4.444    2.000    3.111    0.000 
#    0.000    2.222    0.000    0.000    0.000    0.000 
#    0.000    0.000    0.000    0.000    0.000    0.000 
#
# Total GULP energy -100275.623481 kJ/mol
# GULP energy per Si atom -5570.867971 kJ/mol
# Density = 1.998861 g / cm^3
# Si number density = 20.034210 Si / 1000 Ang^3
#
#
#
# Elastic Constant Matrix: (Units=GPa)
#
#
# Indices 1 2 3 4 5 6 
#
# 1 65.1262 4.6257 39.0910 0.0000 0.0000 0.0000
# 2 4.6257 75.6749 9.3828 0.0000 0.0000 0.0000
# 3 39.0910 9.3828 181.3130 0.0000 0.0000 0.0000
# 4 0.0000 0.0000 0.0000 21.6621 0.0000 0.0000
# 5 0.0000 0.0000 0.0000 0.0000 9.1812 0.0000
# 6 0.0000 0.0000 0.0000 0.0000 0.0000 31.8030
#
#
#
# Elastic Compliance Matrix: (Units=1/GPa)
#
#
# Indices 1 2 3 4 5 6 
#
# 1 0.017665 -0.000612 -0.003777 0.000000 0.000000 0.000000
# 2 -0.000612 0.013321 -0.000558 0.000000 0.000000 0.000000
# 3 -0.003777 -0.000558 0.006358 0.000000 0.000000 0.000000
# 4 0.000000 0.000000 0.000000 0.046164 0.000000 0.000000
# 5 0.000000 0.000000 0.000000 0.000000 0.108918 0.000000
# 6 0.000000 0.000000 0.000000 0.000000 0.000000 0.031444
#
#
# Mechanical properties :
#
#
# Convention : Reuss Voigt Hill
#
# Bulk Modulus (GPa) = 36.42627 47.59036 42.00832
# Shear Modulus (GPa) = 20.58352 30.46356 25.52354
#
# Velocity S-wave (km/s) = 3.20881 3.90369 3.57318
# Velocity P-wave (km/s) = 5.65245 6.64263 6.16744
#
# Compressibility (1/GPa) = 0.02745271
#
# Stress axis : x y z
#
# Youngs Moduli (GPa) = 56.60810 75.06987 157.27002
#
# Poissons Ratio (x) = 0.04591 0.59401
# Poissons Ratio (y) = 0.03462 0.08768
# Poissons Ratio (z) = 0.21381 0.04185
#
# Static dielectric constant tensor:
#      x y z
#    x 1.777730 0.000000 0.000000 
#    y 0.000000 1.795400 0.000000 
#    z 0.000000 0.000000 1.693640 
# 
# From -- ./inp_files/9589.got.cif
#   From: 2010.05.17/outbox.cif.g08.bks.cpg/sg37_5_cif.got.tgz:9589.got - 2010.06.03 17:53:42.
