data_PCOD9353271
_publ_section_title
;
Structure prediction by ZEFSAII (Michael W. Deem and Ramdas Pophale) SiO2 
 PCOD9353271
Probable space group: C M C 21
;
_chemical_formula_sum "Si O2"
_cell_formula_units_Z 48
_cell_length_a 17.832057
_cell_length_b 8.340612
_cell_length_c 14.414880
_cell_angle_alpha 90.000000
_cell_angle_beta 90.000000
_cell_angle_gamma 90.000000
_cell_volume 2143.928974
_symmetry_space_group_name_H-M "C M C 21"
_symmetry_group_IT_number 36
_symmetry_cell_setting 'orthorhombic'
loop_
_space_group_symop_operation_xyz
x,y,z
-x,-y,1/2+z
x,-y,1/2+z
-x,y,z
1/2+x,1/2+y,z
1/2-x,1/2-y,1/2+z
1/2+x,1/2-y,1/2+z
1/2-x,1/2+y,z
loop_
_atom_site_type_symbol
_atom_site_label
_atom_site_fract_x
_atom_site_fract_y
_atom_site_fract_z
Si Si1 0.164867 0.397016 0.939720
Si Si2 0.664867 0.397016 0.007764
Si Si3 0.412594 0.910915 0.593575
Si Si4 0.087406 0.910915 0.353909
Si Si5 0.669005 0.933234 0.254301
Si Si6 0.330995 0.433234 0.693183
O O1 0.112708 0.945040 0.921923
O O2 0.161746 0.538847 0.863567
O O3 0.250000 0.377983 0.973742
O O4 0.112708 0.445040 0.025561
O O5 0.636508 0.239627 0.060469
O O6 0.661746 0.538847 0.083917
O O7 0.636508 0.739627 0.887015
O O8 0.500000 0.876200 0.584466
O O9 0.391445 0.964069 0.697124
O O10 0.108555 0.964069 0.250360
O O11 0.000000 0.876200 0.363018
O O12 0.750000 1.000000 0.223742
O O13 0.663302 0.750000 0.223742
#
# Coordination Sequence:
#
# PCOD9353271 Si02
#       6
#     8   8   8   8   8   8
#     4  12  25  45  75 105 143 192 243 292 352 431
#     4  12  25  45  75 105 143 192 243 292 352 431
#     4  12  27  46  73 109 148 188 236 300 362 418
#     4  12  27  46  73 109 148 188 236 300 362 418
#     4  12  26  46  74 106 142 190 242 295 355 426
#     4  12  26  46  74 106 142 190 242 295 355 426
#
# _framework density 22.388801999999998
#
# number of rings (size 3 to 8) (size 9 to 14) (size 15 to 20)
#    0.000    0.000    3.333    7.000    0.000    4.667 
#    0.000    0.000    0.000    0.000    0.000    0.000 
#    0.000    0.000    0.000    0.000    0.000    0.000 
#
# Total GULP energy -134628.010430 kJ/mol
# GULP energy per Si atom -5609.500435 kJ/mol
# Density = 2.233784 g / cm^3
# Si number density = 22.388802 Si / 1000 Ang^3
#
#
#
# Elastic Constant Matrix: (Units=GPa)
#
#
# Indices 1 2 3 4 5 6 
#
# 1 132.1662 38.6211 53.2942 0.0000 0.0000 0.0000
# 2 38.6211 125.3756 16.6754 0.0000 0.0000 0.0000
# 3 53.2942 16.6754 110.6069 0.0000 0.0000 0.0000
# 4 0.0000 0.0000 0.0000 41.5583 0.0000 0.0000
# 5 0.0000 0.0000 0.0000 0.0000 34.2857 0.0000
# 6 0.0000 0.0000 0.0000 0.0000 0.0000 8.8776
#
#
#
# Elastic Compliance Matrix: (Units=1/GPa)
#
#
# Indices 1 2 3 4 5 6 
#
# 1 0.010114 -0.002518 -0.004494 0.000000 0.000000 0.000000
# 2 -0.002518 0.008766 -0.000108 0.000000 0.000000 0.000000
# 3 -0.004494 -0.000108 0.011223 0.000000 0.000000 0.000000
# 4 0.000000 0.000000 0.000000 0.024063 0.000000 0.000000
# 5 0.000000 0.000000 0.000000 0.000000 0.029167 0.000000
# 6 0.000000 0.000000 0.000000 0.000000 0.000000 0.112643
#
#
# Mechanical properties :
#
#
# Convention : Reuss Voigt Hill
#
# Bulk Modulus (GPa) = 63.04075 65.03668 64.03871
# Shear Modulus (GPa) = 23.20160 34.24819 28.72489
#
# Velocity S-wave (km/s) = 3.22266 3.91538 3.58579
# Velocity P-wave (km/s) = 6.48581 7.03933 6.76823
#
# Compressibility (1/GPa) = 0.01586276
#
# Stress axis : x y z
#
# Youngs Moduli (GPa) = 98.87281 114.07622 89.10609
#
# Poissons Ratio (x) = 0.28723 0.40041
# Poissons Ratio (y) = 0.24895 0.00966
# Poissons Ratio (z) = 0.44430 0.01237
#
# Static dielectric constant tensor:
#      x y z
#    x 1.749010 0.000000 0.000000 
#    y 0.000000 1.844240 0.000000 
#    z 0.000000 0.000000 1.833200 
# 
# From -- ./inp_files/12491.got.cif
#   From: 2010.05.17/outbox.cif.g08.bks.cpg/sg36_7_cif.got.tgz:12491.got - 2010.06.03 17:41:39.
