data_PCOD9353076
_publ_section_title
;
Structure prediction by ZEFSAII (Michael W. Deem and Ramdas Pophale) SiO2 
 PCOD9353076
Probable space group: C M C 21
;
_chemical_formula_sum "Si O2"
_cell_formula_units_Z 48
_cell_length_a 14.741839
_cell_length_b 18.353962
_cell_length_c 8.845913
_cell_angle_alpha 90.000000
_cell_angle_beta 90.000000
_cell_angle_gamma 90.000000
_cell_volume 2393.448878
_symmetry_space_group_name_H-M "C M C 21"
_symmetry_group_IT_number 36
_symmetry_cell_setting 'orthorhombic'
loop_
_space_group_symop_operation_xyz
x,y,z
-x,-y,1/2+z
x,-y,1/2+z
-x,y,z
1/2+x,1/2+y,z
1/2-x,1/2-y,1/2+z
1/2+x,1/2-y,1/2+z
1/2-x,1/2+y,z
loop_
_atom_site_type_symbol
_atom_site_label
_atom_site_fract_x
_atom_site_fract_y
_atom_site_fract_z
Si Si1 0.500000 0.298321 0.744530
Si Si2 0.000000 0.370601 0.140690
Si Si3 0.500000 0.243413 0.078882
Si Si4 0.188752 0.532982 0.125090
Si Si5 0.181938 0.254421 0.778572
Si Si6 0.175648 0.593690 0.447348
Si Si7 0.500000 0.076938 0.971575
Si Si8 0.816278 0.172341 0.079836
O O1 0.500000 0.213848 0.689753
O O2 0.589517 0.333852 0.670401
O O3 0.500000 0.294261 0.928312
O O4 0.000000 0.420631 0.289990
O O5 0.084982 0.386515 0.035929
O O6 0.410537 0.248477 0.182547
O O7 0.500000 0.161292 0.018436
O O8 0.169911 0.540631 0.302424
O O9 0.255533 0.599816 0.087825
O O10 0.228689 0.455564 0.069839
O O11 0.091760 0.544625 0.042590
O O12 0.200418 0.329550 0.871268
O O13 0.263649 0.259592 0.659500
O O14 0.175830 0.192794 0.904375
#
# Coordination Sequence:
#
# PCOD9353076 Si02
#       8
#     4   4   4   8   8   8   4   8
#     4  11  23  39  63  92 125 162 211 260 315 366
#     4  11  21  34  61  89 124 161 200 239 323 385
#     4  11  20  39  61  93 126 160 199 259 320 390
#     4  11  24  37  60  85 131 164 208 250 309 381
#     4  11  22  38  62  88 129 158 205 259 317 379
#     4  11  21  38  54  87 120 167 199 247 304 374
#     4  11  20  36  53  90 123 165 190 246 306 381
#     4  11  23  38  61  91 122 167 206 261 309 373
#
# _framework density 20.054742000000001
#
# number of rings (size 3 to 8) (size 9 to 14) (size 15 to 20)
#    0.000    1.000    5.000    4.000    2.333    1.333 
#    0.000    0.000    0.000    4.000    0.000    0.000 
#    0.000    0.000    0.000    0.000    0.000    0.000 
#
# Total GULP energy -133867.178421 kJ/mol
# GULP energy per Si atom -5577.799101 kJ/mol
# Density = 2.000910 g / cm^3
# Si number density = 20.054742 Si / 1000 Ang^3
#
#
#
# Elastic Constant Matrix: (Units=GPa)
#
#
# Indices 1 2 3 4 5 6 
#
# 1 101.0500 17.9635 31.0113 0.0000 0.0000 0.0000
# 2 17.9635 55.6276 24.9933 0.0000 0.0000 0.0000
# 3 31.0113 24.9933 119.9206 0.0000 0.0000 0.0000
# 4 0.0000 0.0000 0.0000 36.6136 0.0000 0.0000
# 5 0.0000 0.0000 0.0000 0.0000 21.6416 0.0000
# 6 0.0000 0.0000 0.0000 0.0000 0.0000 80.3720
#
#
#
# Elastic Compliance Matrix: (Units=1/GPa)
#
#
# Indices 1 2 3 4 5 6 
#
# 1 0.011061 -0.002523 -0.002335 0.000000 0.000000 0.000000
# 2 -0.002523 0.020409 -0.003601 0.000000 0.000000 0.000000
# 3 -0.002335 -0.003601 0.009693 0.000000 0.000000 0.000000
# 4 0.000000 0.000000 0.000000 0.027312 0.000000 0.000000
# 5 0.000000 0.000000 0.000000 0.000000 0.046207 0.000000
# 6 0.000000 0.000000 0.000000 0.000000 0.000000 0.012442
#
#
# Mechanical properties :
#
#
# Convention : Reuss Voigt Hill
#
# Bulk Modulus (GPa) = 41.24368 47.17048 44.20708
# Shear Modulus (GPa) = 32.86774 41.23412 37.05093
#
# Velocity S-wave (km/s) = 4.05273 4.53932 4.30291
# Velocity P-wave (km/s) = 6.51994 7.14464 6.83942
#
# Compressibility (1/GPa) = 0.02424614
#
# Stress axis : x y z
#
# Youngs Moduli (GPa) = 90.40737 48.99695 103.16614
#
# Poissons Ratio (x) = 0.12362 0.24085
# Poissons Ratio (y) = 0.22810 0.37152
# Poissons Ratio (z) = 0.21106 0.17645
#
# Static dielectric constant tensor:
#      x y z
#    x 2.188850 0.000000 0.000000 
#    y 0.000000 1.755960 0.000000 
#    z 0.000000 0.000000 1.755950 
# 
# From -- ./inp_files/4107.got.cif
#   From: 2010.05.17/outbox.cif.g08.bks.cpg/sg36_3_cif.got.tgz:4107.got - 2010.06.03 17:41:39.
