data_PCOD9353901
_publ_section_title
;
Structure prediction by ZEFSAII (Michael W. Deem and Ramdas Pophale) SiO2 
 PCOD9353901
Probable space group: C C C 2
;
_chemical_formula_sum "Si O2"
_cell_formula_units_Z 40
_cell_length_a 28.765991
_cell_length_b 7.527392
_cell_length_c 9.203264
_cell_angle_alpha 90.000000
_cell_angle_beta 90.000000
_cell_angle_gamma 90.000000
_cell_volume 1992.809356
_symmetry_space_group_name_H-M "C C C 2"
_symmetry_group_IT_number 37
_symmetry_cell_setting 'orthorhombic'
loop_
_space_group_symop_operation_xyz
x,y,z
-x,-y,z
-x,y,1/2+z
x,-y,1/2+z
1/2+x,1/2+y,z
1/2-x,1/2-y,z
1/2-x,1/2+y,1/2+z
1/2+x,1/2-y,1/2+z
loop_
_atom_site_type_symbol
_atom_site_label
_atom_site_fract_x
_atom_site_fract_y
_atom_site_fract_z
Si Si1 0.450724 0.095310 0.065820
Si Si2 0.901683 0.328099 0.864210
Si Si3 0.907085 0.086502 0.435911
Si Si4 0.654732 0.562688 0.679048
Si Si5 0.803717 0.792113 0.393377
O O1 0.433315 0.125689 0.228013
O O2 0.500000 0.000000 0.060302
O O3 0.448441 0.284045 0.981204
O O4 0.414306 0.964868 0.989193
O O5 0.845942 0.333491 0.838517
O O6 0.914204 0.124133 0.909034
O O7 0.883087 0.152657 0.286094
O O8 0.872366 0.079305 0.575393
O O9 0.682548 0.676737 0.562007
O O10 0.687597 0.465819 0.794415
O O11 0.750000 0.750000 0.380252
#
# Coordination Sequence:
#
# PCOD9353901 Si02
#       5
#     8   8   8   8   8
#     4  12  25  43  68 101 133 172 235 276 336 414
#     4  10  25  42  65  99 136 179 214 290 335 400
#     4  10  19  44  67  89 132 183 212 270 345 393
#     4   8  18  38  63  89 130 183 213 267 340 407
#     4  10  20  39  63  97 131 173 234 271 344 402
#
# _framework density 20.072164000000001
#
# number of rings (size 3 to 8) (size 9 to 14) (size 15 to 20)
#    0.000    2.400    4.000    0.600    5.600    2.400 
#    0.000    4.000    0.000    0.000    0.000    0.000 
#    0.000    0.000    0.000    0.000    0.000    0.000 
#
# Total GULP energy -111402.784986 kJ/mol
# GULP energy per Si atom -5570.139249 kJ/mol
# Density = 2.002648 g / cm^3
# Si number density = 20.072164 Si / 1000 Ang^3
#
#
#
# Elastic Constant Matrix: (Units=GPa)
#
#
# Indices 1 2 3 4 5 6 
#
# 1 110.5501 27.8751 23.0829 0.0000 0.0000 0.0000
# 2 27.8751 66.9364 21.5744 0.0000 0.0000 0.0000
# 3 23.0829 21.5744 123.8576 0.0000 0.0000 0.0000
# 4 0.0000 0.0000 0.0000 26.0144 0.0000 0.0000
# 5 0.0000 0.0000 0.0000 0.0000 20.3774 0.0000
# 6 0.0000 0.0000 0.0000 0.0000 0.0000 32.0782
#
#
#
# Elastic Compliance Matrix: (Units=1/GPa)
#
#
# Indices 1 2 3 4 5 6 
#
# 1 0.010284 -0.003883 -0.001240 0.000000 0.000000 0.000000
# 2 -0.003883 0.017294 -0.002289 0.000000 0.000000 0.000000
# 3 -0.001240 -0.002289 0.008704 0.000000 0.000000 0.000000
# 4 0.000000 0.000000 0.000000 0.038440 0.000000 0.000000
# 5 0.000000 0.000000 0.000000 0.000000 0.049074 0.000000
# 6 0.000000 0.000000 0.000000 0.000000 0.000000 0.031174
#
#
# Mechanical properties :
#
#
# Convention : Reuss Voigt Hill
#
# Bulk Modulus (GPa) = 46.60295 49.60099 48.10197
# Shear Modulus (GPa) = 28.25726 30.94813 29.60269
#
# Velocity S-wave (km/s) = 3.75611 3.93089 3.84450
# Velocity P-wave (km/s) = 6.48686 6.73554 6.61237
#
# Compressibility (1/GPa) = 0.02145787
#
# Stress axis : x y z
#
# Youngs Moduli (GPa) = 97.24150 57.82276 114.89500
#
# Poissons Ratio (x) = 0.22452 0.14249
# Poissons Ratio (y) = 0.37757 0.26297
# Poissons Ratio (z) = 0.12060 0.13234
#
# Static dielectric constant tensor:
#      x y z
#    x 1.718050 0.000000 0.000000 
#    y 0.000000 1.755550 0.000000 
#    z 0.000000 0.000000 1.722940 
# 
# From -- ./inp_files/4738.got.cif
#   From: 2010.05.17/outbox.cif.g08.bks.cpg/sg37_3_cif.got.tgz:4738.got - 2010.06.03 17:53:42.
