data_PCOD9353191
_publ_section_title
;
Structure prediction by ZEFSAII (Michael W. Deem and Ramdas Pophale) SiO2 
 PCOD9353191
Probable space group: C M C 21
;
_chemical_formula_sum "Si O2"
_cell_formula_units_Z 36
_cell_length_a 7.700209
_cell_length_b 14.237381
_cell_length_c 14.124998
_cell_angle_alpha 90.000000
_cell_angle_beta 90.000000
_cell_angle_gamma 90.000000
_cell_volume 1548.534962
_symmetry_space_group_name_H-M "C M C 21"
_symmetry_group_IT_number 36
_symmetry_cell_setting 'orthorhombic'
loop_
_space_group_symop_operation_xyz
x,y,z
-x,-y,1/2+z
x,-y,1/2+z
-x,y,z
1/2+x,1/2+y,z
1/2-x,1/2-y,1/2+z
1/2+x,1/2-y,1/2+z
1/2-x,1/2+y,z
loop_
_atom_site_type_symbol
_atom_site_label
_atom_site_fract_x
_atom_site_fract_y
_atom_site_fract_z
Si Si1 0.797682 0.553755 0.865150
Si Si2 0.000000 0.845553 0.034392
Si Si3 0.693826 0.234953 0.396008
Si Si4 0.303631 0.606846 0.228103
Si Si5 0.192889 0.525450 0.575794
O O1 0.716065 0.654972 0.878205
O O2 0.702764 0.487793 0.790822
O O3 0.000000 0.562631 0.837812
O O4 0.791303 0.500312 0.965286
O O5 0.153750 0.798934 0.965851
O O6 0.153231 0.902116 0.094394
O O7 0.500000 0.214725 0.433141
O O8 0.712842 0.182631 0.294882
O O9 0.500000 0.637013 0.210386
O O10 0.216972 0.573252 0.131362
O O11 0.000000 0.560518 0.597795
#
# Coordination Sequence:
#
# PCOD9353191 Si02
#       5
#     8   4   8   8   8
#     4  11  23  44  68  96 136 176 221 274 334 393
#     4  12  22  44  68  96 130 176 216 280 326 396
#     4  12  24  42  69  98 133 178 223 272 332 395
#     4  12  23  44  68  98 137 174 224 275 331 396
#     4  11  24  43  71  99 132 176 223 274 333 394
#
# _framework density 23.247776999999999
#
# number of rings (size 3 to 8) (size 9 to 14) (size 15 to 20)
#    0.000    0.444    5.556    3.333    1.556    0.000 
#    4.000    0.000    0.000    0.000    0.000    0.000 
#    0.000    0.000    0.000    0.000    0.000    0.000 
#
# Total GULP energy -100233.679777 kJ/mol
# GULP energy per Si atom -5568.537765 kJ/mol
# Density = 2.319486 g / cm^3
# Si number density = 23.247777 Si / 1000 Ang^3
#
#
#
# Elastic Constant Matrix: (Units=GPa)
#
#
# Indices 1 2 3 4 5 6 
#
# 1 201.4449 14.0020 -5.2116 0.0000 0.0000 0.0000
# 2 14.0020 67.6481 -12.1695 0.0000 0.0000 0.0000
# 3 -5.2116 -12.1695 43.0532 0.0000 0.0000 0.0000
# 4 0.0000 0.0000 0.0000 -29.0194 0.0000 0.0000
# 5 0.0000 0.0000 0.0000 0.0000 12.5963 0.0000
# 6 0.0000 0.0000 0.0000 0.0000 0.0000 14.2702
#
#
#
# Elastic Compliance Matrix: (Units=1/GPa)
#
#
# Indices 1 2 3 4 5 6 
#
# 1 0.005041 -0.000984 0.000332 0.000000 0.000000 0.000000
# 2 -0.000984 0.015766 0.004337 0.000000 0.000000 0.000000
# 3 0.000332 0.004337 0.024493 0.000000 0.000000 0.000000
# 4 0.000000 0.000000 0.000000 -0.034460 0.000000 0.000000
# 5 0.000000 0.000000 0.000000 0.000000 0.079389 0.000000
# 6 0.000000 0.000000 0.000000 0.000000 0.000000 0.070076
#
#
# Mechanical properties :
#
#
# Convention : Reuss Voigt Hill
#
# Bulk Modulus (GPa) = 18.98520 33.93201 26.45861
# Shear Modulus (GPa) = 29.32701 20.60443 24.96572
#
# Velocity S-wave (km/s) = 3.55561 2.98030 3.28059
# Velocity P-wave (km/s) = 5.00406 5.14494 5.07499
#
# Compressibility (1/GPa) = 0.05267261
#
# Stress axis : x y z
#
# Youngs Moduli (GPa) = 198.36929 63.42658 40.82745
#
# Poissons Ratio (x) = 0.06239 -0.01356
# Poissons Ratio (y) = 0.19513 -0.17709
# Poissons Ratio (z) = -0.06589 -0.27511
#
# Static dielectric constant tensor:
#      x y z
#    x 1.877310 0.000000 0.000000 
#    y 0.000000 1.883530 0.000000 
#    z 0.000000 0.000000 1.874870 
# 
# From -- ./inp_files/10061.got.cif
#   From: 2010.05.17/outbox.cif.g08.bks.cpg/sg36_6_cif.got.tgz:10061.got - 2010.06.03 17:41:39.
