data_PCOD9353329
_publ_section_title
;
Structure prediction by ZEFSAII (Michael W. Deem and Ramdas Pophale) SiO2 
 PCOD9353329
Probable space group: C M C 21
;
_chemical_formula_sum "Si O2"
_cell_formula_units_Z 32
_cell_length_a 21.000000
_cell_length_b 18.000000
_cell_length_c 9.000000
_cell_angle_alpha 90.000000
_cell_angle_beta 90.000000
_cell_angle_gamma 90.000000
_cell_volume 3402.000000
_symmetry_space_group_name_H-M "C M C 21"
_symmetry_group_IT_number 36
_symmetry_cell_setting 'orthorhombic'
loop_
_space_group_symop_operation_xyz
x,y,z
-x,-y,1/2+z
x,-y,1/2+z
-x,y,z
1/2+x,1/2+y,z
1/2-x,1/2-y,1/2+z
1/2+x,1/2-y,1/2+z
1/2-x,1/2+y,z
loop_
_atom_site_type_symbol
_atom_site_label
_atom_site_fract_x
_atom_site_fract_y
_atom_site_fract_z
Si Si1 0.691514 0.417088 0.429880
Si Si2 0.365310 0.936054 0.651962
Si Si3 0.572084 0.947049 0.333408
Si Si4 0.660246 0.765996 0.712120
Si Si5 0.751552 0.545899 0.619641
Si Si6 0.077974 0.197196 0.941919
Si Si7 0.143153 0.330634 0.137086
Si Si8 0.224241 0.721976 0.914688
O O1 0.709465 0.496381 0.504937
O O2 0.706149 0.426049 0.253396
O O3 0.623123 0.377254 0.466965
O O4 0.744841 0.355323 0.475148
O O5 0.383534 0.942422 0.478379
O O6 0.358514 0.850917 0.691955
O O7 0.418315 0.973882 0.755158
O O8 0.302285 0.985192 0.681462
O O9 0.500000 0.934675 0.380576
O O10 0.592497 0.887728 0.207956
O O11 0.600226 0.720765 0.775575
O O12 0.716019 0.760285 0.834945
O O13 0.689910 0.740361 0.554475
O O14 0.799627 0.614525 0.572979
O O15 0.000000 0.189884 0.958169
O O16 0.107502 0.266363 0.041152
O O17 0.175555 0.292701 0.281096
#
# Coordination Sequence:
#
# PCOD9353329 Si02
#       8
#     8   8   8   8   8   8   8   8
#     4  10  21  40  63  92 124 162 201 268 319 383
#     4  11  22  38  57  90 127 159 205 265 310 371
#     4  11  23  38  56  85 128 177 212 240 298 381
#     4  11  22  38  63  89 124 165 203 266 318 380
#     4  10  20  37  64  94 120 150 206 265 329 363
#     4  11  26  44  61  90 131 178 216 254 318 391
#     4  10  21  38  65  91 126 164 207 264 314 381
#     4  10  19  39  61  95 122 155 204 260 332 368
#
# _framework density 9.4062319999999993
#
# number of rings (size 3 to 8) (size 9 to 14) (size 15 to 20)
#    0.000    1.500    2.500    3.750    5.250    1.000 
#    0.000    0.625    0.000    0.000    0.000    0.000 
#    0.000    0.000    0.000    0.000    0.000    0.000 
#
# Total GULP energy -178431.998294 kJ/mol
# GULP energy per Si atom -5575.999947 kJ/mol
# Density = 0.938482 g / cm^3
# Si number density = 9.406232 Si / 1000 Ang^3
#
#
#
# Elastic Constant Matrix: (Units=GPa)
#
#
# Indices 1 2 3 4 5 6 
#
# 1 125.3924 37.4137 35.2481 0.0000 0.0000 0.0000
# 2 37.4137 69.5763 34.6581 0.0000 0.0000 0.0000
# 3 35.2481 34.6581 74.7778 0.0000 0.0000 0.0000
# 4 0.0000 0.0000 0.0000 38.9908 0.0000 0.0000
# 5 0.0000 0.0000 0.0000 0.0000 20.8321 0.0000
# 6 0.0000 0.0000 0.0000 0.0000 0.0000 23.9906
#
#
#
# Elastic Compliance Matrix: (Units=1/GPa)
#
#
# Indices 1 2 3 4 5 6 
#
# 1 0.009953 -0.003920 -0.002875 0.000000 0.000000 0.000000
# 2 -0.003920 0.020231 -0.007529 0.000000 0.000000 0.000000
# 3 -0.002875 -0.007529 0.018217 0.000000 0.000000 0.000000
# 4 0.000000 0.000000 0.000000 0.025647 0.000000 0.000000
# 5 0.000000 0.000000 0.000000 0.000000 0.048003 0.000000
# 6 0.000000 0.000000 0.000000 0.000000 0.000000 0.041683
#
#
# Mechanical properties :
#
#
# Convention : Reuss Voigt Hill
#
# Bulk Modulus (GPa) = 50.62221 53.82070 52.22145
# Shear Modulus (GPa) = 25.12997 27.59114 26.36055
#
# Velocity S-wave (km/s) = 3.65885 3.83383 3.74736
# Velocity P-wave (km/s) = 6.69454 6.94758 6.82223
#
# Compressibility (1/GPa) = 0.01975418
#
# Stress axis : x y z
#
# Youngs Moduli (GPa) = 100.47602 49.42896 54.89241
#
# Poissons Ratio (x) = 0.19376 0.15779
# Poissons Ratio (y) = 0.39387 0.41328
# Poissons Ratio (z) = 0.28882 0.37215
#
# Static dielectric constant tensor:
#      x y z
#    x 1.675170 0.000000 0.000000 
#    y 0.000000 1.699600 0.000000 
#    z 0.000000 0.000000 1.700250 
# 
# From -- ./inp_files/5318.got.cif
#   From: 2010.05.17/outbox.ucp.g08.bks.cvg/sg36_3_cif.got.tgz:5318.got - 2010.06.11 10:37:26.
