data_PCOD9353084
_publ_section_title
;
Structure prediction by ZEFSAII (Michael W. Deem and Ramdas Pophale) SiO2 
 PCOD9353084
Probable space group: C M C 21
;
_chemical_formula_sum "Si O2"
_cell_formula_units_Z 64
_cell_length_a 19.807320
_cell_length_b 11.671738
_cell_length_c 14.805887
_cell_angle_alpha 90.000000
_cell_angle_beta 90.000000
_cell_angle_gamma 90.000000
_cell_volume 3422.911564
_symmetry_space_group_name_H-M "C M C 21"
_symmetry_group_IT_number 36
_symmetry_cell_setting 'orthorhombic'
loop_
_space_group_symop_operation_xyz
x,y,z
-x,-y,1/2+z
x,-y,1/2+z
-x,y,z
1/2+x,1/2+y,z
1/2-x,1/2-y,1/2+z
1/2+x,1/2-y,1/2+z
1/2-x,1/2+y,z
loop_
_atom_site_type_symbol
_atom_site_label
_atom_site_fract_x
_atom_site_fract_y
_atom_site_fract_z
Si Si1 0.196694 0.323157 0.675740
Si Si2 0.809967 0.508543 0.523320
Si Si3 0.659067 0.409884 0.248060
Si Si4 0.656296 0.749362 0.099403
Si Si5 0.654351 0.492469 0.552716
Si Si6 0.807433 0.470081 0.312431
Si Si7 0.420931 0.788655 0.269594
Si Si8 0.420122 0.566216 0.384239
O O1 0.174405 0.401722 0.590109
O O2 0.150774 0.217217 0.707018
O O3 0.271006 0.274019 0.648550
O O4 0.198602 0.409974 0.759788
O O5 0.844389 0.625791 0.555231
O O6 0.730188 0.531753 0.533250
O O7 0.819553 0.482632 0.418646
O O8 0.647584 0.488860 0.159707
O O9 0.735501 0.413092 0.287401
O O10 0.613642 0.464321 0.326216
O O11 0.649725 0.642708 0.032173
O O12 0.595730 0.741318 0.170488
O O13 0.604834 0.558761 0.486930
O O14 0.870024 0.394976 0.277881
O O15 0.500000 0.816330 0.280621
O O16 0.401340 0.688403 0.339822
O O17 0.500000 0.555779 0.378672
#
# Coordination Sequence:
#
# PCOD9353084 Si02
#       8
#     8   8   8   8   8   8   8   8
#     4  11  21  37  62  97 124 158 208 262 313 369
#     4  11  23  36  63  99 126 160 205 263 322 378
#     4  12  22  39  66  94 127 166 211 266 316 369
#     4  11  20  41  62  93 125 160 213 257 318 376
#     4  11  22  36  63  94 128 160 204 264 314 373
#     4  12  23  39  65  95 126 163 214 262 314 375
#     4  11  23  43  66  86 125 173 214 260 315 384
#     4  11  26  43  63  96 129 172 217 258 324 384
#
# _framework density 18.697531999999999
#
# number of rings (size 3 to 8) (size 9 to 14) (size 15 to 20)
#    0.000    0.750    8.750    0.000    3.500    1.000 
#    0.000    1.250    0.000    0.000    0.000    0.000 
#    0.000    0.000    0.000    0.000    0.000    0.000 
#
# Total GULP energy -178512.416309 kJ/mol
# GULP energy per Si atom -5578.513010 kJ/mol
# Density = 1.865498 g / cm^3
# Si number density = 18.697532 Si / 1000 Ang^3
#
#
#
# Elastic Constant Matrix: (Units=GPa)
#
#
# Indices 1 2 3 4 5 6 
#
# 1 43.2108 19.5950 15.1213 0.0000 0.0000 0.0000
# 2 19.5950 80.2595 8.2822 0.0000 0.0000 0.0000
# 3 15.1213 8.2822 68.2916 0.0000 0.0000 0.0000
# 4 0.0000 0.0000 0.0000 26.8217 0.0000 0.0000
# 5 0.0000 0.0000 0.0000 0.0000 17.8832 0.0000
# 6 0.0000 0.0000 0.0000 0.0000 0.0000 15.5017
#
#
#
# Elastic Compliance Matrix: (Units=1/GPa)
#
#
# Indices 1 2 3 4 5 6 
#
# 1 0.027869 -0.006245 -0.005413 0.000000 0.000000 0.000000
# 2 -0.006245 0.014017 -0.000317 0.000000 0.000000 0.000000
# 3 -0.005413 -0.000317 0.015880 0.000000 0.000000 0.000000
# 4 0.000000 0.000000 0.000000 0.037283 0.000000 0.000000
# 5 0.000000 0.000000 0.000000 0.000000 0.055918 0.000000
# 6 0.000000 0.000000 0.000000 0.000000 0.000000 0.064509
#
#
# Mechanical properties :
#
#
# Convention : Reuss Voigt Hill
#
# Bulk Modulus (GPa) = 29.57320 30.86210 30.21765
# Shear Modulus (GPa) = 19.94414 21.95886 20.95150
#
# Velocity S-wave (km/s) = 3.26954 3.43071 3.35109
# Velocity P-wave (km/s) = 5.48672 5.67757 5.58296
#
# Compressibility (1/GPa) = 0.03381440
#
# Stress axis : x y z
#
# Youngs Moduli (GPa) = 35.88225 71.34136 62.97151
#
# Poissons Ratio (x) = 0.44556 0.34089
# Poissons Ratio (y) = 0.22410 0.01997
# Poissons Ratio (z) = 0.19424 0.02262
#
# Static dielectric constant tensor:
#      x y z
#    x 1.623670 0.000000 0.000000 
#    y 0.000000 1.686730 0.000000 
#    z 0.000000 0.000000 1.706900 
# 
# From -- ./inp_files/12647.got.cif
#   From: 2010.05.17/outbox.cif.g08.bks.cpg/sg36_7_cif.got.tgz:12647.got - 2010.06.03 17:41:39.
