data_PCOD9353259
_publ_section_title
;
Structure prediction by ZEFSAII (Michael W. Deem and Ramdas Pophale) SiO2 
 PCOD9353259
Probable space group: C M C 21
;
_chemical_formula_sum "Si O2"
_cell_formula_units_Z 48
_cell_length_a 19.197525
_cell_length_b 13.663711
_cell_length_c 8.306006
_cell_angle_alpha 90.000000
_cell_angle_beta 90.000000
_cell_angle_gamma 90.000000
_cell_volume 2178.743729
_symmetry_space_group_name_H-M "C M C 21"
_symmetry_group_IT_number 36
_symmetry_cell_setting 'orthorhombic'
loop_
_space_group_symop_operation_xyz
x,y,z
-x,-y,1/2+z
x,-y,1/2+z
-x,y,z
1/2+x,1/2+y,z
1/2-x,1/2-y,1/2+z
1/2+x,1/2-y,1/2+z
1/2-x,1/2+y,z
loop_
_atom_site_type_symbol
_atom_site_label
_atom_site_fract_x
_atom_site_fract_y
_atom_site_fract_z
Si Si1 0.579045 0.244719 0.417090
Si Si2 0.161374 0.710760 0.747184
Si Si3 0.275514 0.037968 0.916666
Si Si4 0.203674 0.347687 0.748053
Si Si5 0.380447 0.443343 0.288908
Si Si6 0.919055 0.135338 0.447224
O O1 0.500000 0.207907 0.414535
O O2 0.617822 0.222835 0.584394
O O3 0.628702 0.200487 0.277849
O O4 0.578897 0.361138 0.388636
O O5 0.173927 0.599858 0.800452
O O6 0.236193 0.765868 0.737544
O O7 0.119712 0.769078 0.885161
O O8 0.197431 0.057525 0.856685
O O9 0.285293 0.922187 0.897385
O O10 0.287258 0.084523 0.091429
O O11 0.411086 0.551215 0.312092
O O12 0.383931 0.411037 0.104468
O O13 0.000000 0.153981 0.480934
#
# Coordination Sequence:
#
# PCOD9353259 Si02
#       6
#     8   8   8   8   8   8
#     4  12  26  46  70 104 143 183 229 291 356 417
#     4  12  24  43  72  99 139 182 235 285 344 419
#     4  12  25  43  71 103 130 178 241 290 336 413
#     4  12  24  45  70 102 136 183 234 288 346 414
#     4  12  23  41  66  97 140 179 227 295 346 418
#     4  12  25  40  63 101 143 183 226 283 359 427
#
# _framework density 22.031044999999999
#
# number of rings (size 3 to 8) (size 9 to 14) (size 15 to 20)
#    0.000    0.000    5.000    6.000    2.333    0.000 
#    0.000    5.000    0.000    0.000    0.000    0.000 
#    0.000    0.000    0.000    0.000    0.000    0.000 
#
# Total GULP energy -134457.702692 kJ/mol
# GULP energy per Si atom -5602.404279 kJ/mol
# Density = 2.198090 g / cm^3
# Si number density = 22.031045 Si / 1000 Ang^3
#
#
#
# Elastic Constant Matrix: (Units=GPa)
#
#
# Indices 1 2 3 4 5 6 
#
# 1 164.0872 38.1960 31.4264 0.0000 0.0000 0.0000
# 2 38.1960 45.4604 -2.2619 0.0000 0.0000 0.0000
# 3 31.4264 -2.2619 80.9953 0.0000 0.0000 0.0000
# 4 0.0000 0.0000 0.0000 40.9773 0.0000 0.0000
# 5 0.0000 0.0000 0.0000 0.0000 16.3559 0.0000
# 6 0.0000 0.0000 0.0000 0.0000 0.0000 17.1805
#
#
#
# Elastic Compliance Matrix: (Units=1/GPa)
#
#
# Indices 1 2 3 4 5 6 
#
# 1 0.008456 -0.007278 -0.003484 0.000000 0.000000 0.000000
# 2 -0.007278 0.028292 0.003614 0.000000 0.000000 0.000000
# 3 -0.003484 0.003614 0.013799 0.000000 0.000000 0.000000
# 4 0.000000 0.000000 0.000000 0.024404 0.000000 0.000000
# 5 0.000000 0.000000 0.000000 0.000000 0.061140 0.000000
# 6 0.000000 0.000000 0.000000 0.000000 0.000000 0.058206
#
#
# Mechanical properties :
#
#
# Convention : Reuss Voigt Hill
#
# Bulk Modulus (GPa) = 27.58569 47.25154 37.41862
# Shear Modulus (GPa) = 22.65765 29.78155 26.21960
#
# Velocity S-wave (km/s) = 3.21041 3.68067 3.45356
# Velocity P-wave (km/s) = 5.12745 6.28947 5.73795
#
# Compressibility (1/GPa) = 0.03625068
#
# Stress axis : x y z
#
# Youngs Moduli (GPa) = 118.26275 35.34583 72.46813
#
# Poissons Ratio (x) = 0.25724 0.25249
# Poissons Ratio (y) = 0.86071 -0.26190
# Poissons Ratio (z) = 0.41204 -0.12774
#
# Static dielectric constant tensor:
#      x y z
#    x 1.785280 0.000000 0.000000 
#    y 0.000000 1.809310 0.000000 
#    z 0.000000 0.000000 1.872260 
# 
# From -- ./inp_files/4660.got.cif
#   From: 2010.05.17/outbox.cif.g08.bks.cpg/sg36_3_cif.got.tgz:4660.got - 2010.06.03 17:41:39.
