data_PCOD9353482
_publ_section_title
;
Structure prediction by ZEFSAII (Michael W. Deem and Ramdas Pophale) SiO2 
 PCOD9353482
Probable space group: C C C 2
;
_chemical_formula_sum "Si O2"
_cell_formula_units_Z 60
_cell_length_a 18.513122
_cell_length_b 12.448357
_cell_length_c 14.145447
_cell_angle_alpha 90.000000
_cell_angle_beta 90.000000
_cell_angle_gamma 90.000000
_cell_volume 3259.930743
_symmetry_space_group_name_H-M "C C C 2"
_symmetry_group_IT_number 37
_symmetry_cell_setting 'orthorhombic'
loop_
_space_group_symop_operation_xyz
x,y,z
-x,-y,z
-x,y,1/2+z
x,-y,1/2+z
1/2+x,1/2+y,z
1/2-x,1/2-y,z
1/2-x,1/2+y,1/2+z
1/2+x,1/2-y,1/2+z
loop_
_atom_site_type_symbol
_atom_site_label
_atom_site_fract_x
_atom_site_fract_y
_atom_site_fract_z
Si Si1 0.335250 0.263381 0.840890
Si Si2 0.684086 0.930270 0.715373
Si Si3 0.822174 0.183666 0.702957
Si Si4 0.898532 0.396900 0.476337
Si Si5 0.929195 0.619771 0.177897
Si Si6 0.310837 0.501772 0.845245
Si Si7 0.500000 0.000000 0.330709
Si Si8 0.241826 0.977240 0.548983
O O1 0.250000 0.250000 0.869852
O O2 0.340807 0.185874 0.749983
O O3 0.384711 0.214318 0.922297
O O4 0.349471 0.388167 0.825409
O O5 0.621891 0.015463 0.694151
O O6 0.731398 0.981463 0.799960
O O7 0.736351 0.931196 0.624363
O O8 0.750000 0.250000 0.728870
O O9 0.883805 0.271454 0.687377
O O10 0.841136 0.101365 0.786804
O O11 0.799921 0.113819 0.610168
O O12 0.949832 0.386962 0.567769
O O13 0.932954 0.476732 0.399797
O O14 0.818918 0.431606 0.512072
O O15 0.986451 0.600843 0.260843
O O16 0.301993 0.514144 0.957370
#
# Coordination Sequence:
#
# PCOD9353482 Si02
#       8
#     8   8   8   8   8   8   4   8
#     4  10  17  30  53  80 112 144 188 241 291 345
#     4   9  17  29  49  76 112 142 179 234 288 335
#     4  11  20  34  56  84 119 150 189 247 303 349
#     4  11  20  33  57  83 109 159 198 233 280 360
#     4  11  21  36  57  82 117 151 195 241 292 346
#     4  10  18  29  51  80 112 141 185 230 295 352
#     4  12  24  38  54  84 126 154 194 238 290 344
#     4  10  18  31  54  83 111 153 190 233 297 355
#
# _framework density 18.405297999999998
#
# number of rings (size 3 to 8) (size 9 to 14) (size 15 to 20)
#    0.000    1.600    8.000    1.200    0.000    0.000 
#    0.000    3.333    0.000    0.800    0.000    1.867 
#    0.000    0.000    0.000    0.000    0.000    0.000 
#
# Total GULP energy -167152.480532 kJ/mol
# GULP energy per Si atom -5571.749351 kJ/mol
# Density = 1.836341 g / cm^3
# Si number density = 18.405298 Si / 1000 Ang^3
#
#
#
# Elastic Constant Matrix: (Units=GPa)
#
#
# Indices 1 2 3 4 5 6 
#
# 1 33.4610 20.7817 24.9351 0.0000 0.0000 0.0000
# 2 20.7817 76.3622 75.9913 0.0000 0.0000 0.0000
# 3 24.9351 75.9913 149.4844 0.0000 0.0000 0.0000
# 4 0.0000 0.0000 0.0000 23.2080 0.0000 0.0000
# 5 0.0000 0.0000 0.0000 0.0000 14.4156 0.0000
# 6 0.0000 0.0000 0.0000 0.0000 0.0000 19.7462
#
#
#
# Elastic Compliance Matrix: (Units=1/GPa)
#
#
# Indices 1 2 3 4 5 6 
#
# 1 0.036284 -0.007795 -0.002090 0.000000 0.000000 0.000000
# 2 -0.007795 0.028178 -0.013024 0.000000 0.000000 0.000000
# 3 -0.002090 -0.013024 0.013659 0.000000 0.000000 0.000000
# 4 0.000000 0.000000 0.000000 0.043089 0.000000 0.000000
# 5 0.000000 0.000000 0.000000 0.000000 0.069369 0.000000
# 6 0.000000 0.000000 0.000000 0.000000 0.000000 0.050643
#
#
# Mechanical properties :
#
#
# Convention : Reuss Voigt Hill
#
# Bulk Modulus (GPa) = 30.95662 55.85820 43.40741
# Shear Modulus (GPa) = 16.78944 20.64728 18.71836
#
# Velocity S-wave (km/s) = 3.02355 3.35298 3.19252
# Velocity P-wave (km/s) = 5.38935 6.73831 6.10123
#
# Compressibility (1/GPa) = 0.03230327
#
# Stress axis : x y z
#
# Youngs Moduli (GPa) = 27.56029 35.48926 73.21133
#
# Poissons Ratio (x) = 0.27663 0.15300
# Poissons Ratio (y) = 0.21483 0.95350
# Poissons Ratio (z) = 0.05760 0.46221
#
# Static dielectric constant tensor:
#      x y z
#    x 1.683420 0.000000 0.000000 
#    y 0.000000 1.640720 0.000000 
#    z 0.000000 0.000000 1.705600 
# 
# From -- ./inp_files/13015.got.cif
#   From: 2010.05.17/outbox.cif.g08.bks.cpg/sg37_7_cif.got.tgz:13015.got - 2010.06.03 17:53:42.
