data_PCOD9353335
_publ_section_title
;
Structure prediction by ZEFSAII (Michael W. Deem and Ramdas Pophale) SiO2 
 PCOD9353335
Probable space group: C M C 21
;
_chemical_formula_sum "Si O2"
_cell_formula_units_Z 32
_cell_length_a 9.000000
_cell_length_b 18.000000
_cell_length_c 21.000000
_cell_angle_alpha 90.000000
_cell_angle_beta 90.000000
_cell_angle_gamma 90.000000
_cell_volume 3402.000000
_symmetry_space_group_name_H-M "C M C 21"
_symmetry_group_IT_number 36
_symmetry_cell_setting 'orthorhombic'
loop_
_space_group_symop_operation_xyz
x,y,z
-x,-y,1/2+z
x,-y,1/2+z
-x,y,z
1/2+x,1/2+y,z
1/2-x,1/2-y,1/2+z
1/2+x,1/2-y,1/2+z
1/2-x,1/2+y,z
loop_
_atom_site_type_symbol
_atom_site_label
_atom_site_fract_x
_atom_site_fract_y
_atom_site_fract_z
Si Si1 0.822065 0.524536 0.492410
Si Si2 0.821477 0.816310 0.023950
Si Si3 0.821080 0.223115 0.384931
Si Si4 0.180300 0.310771 0.264986
Si Si5 0.320241 0.975644 0.225392
Si Si6 0.322094 0.065965 0.352447
Si Si7 0.822752 0.056312 0.105933
Si Si8 0.822032 0.227230 0.138893
O O1 0.753743 0.603377 0.514667
O O2 0.789621 0.518656 0.416725
O O3 0.750288 0.463651 0.538327
O O4 0.000000 0.525119 0.500392
O O5 0.781884 0.770314 0.959486
O O6 0.000000 0.824231 0.026875
O O7 0.760021 0.776679 0.086403
O O8 0.768512 0.285011 0.334783
O O9 0.000000 0.220667 0.382210
O O10 0.758882 0.144263 0.361120
O O11 0.227535 0.392105 0.242635
O O12 0.221893 0.252261 0.210001
O O13 0.000000 0.312821 0.267479
O O14 0.500000 0.976914 0.217770
O O15 0.281757 0.026278 0.286574
O O16 0.245764 0.004577 0.161050
O O17 0.500000 0.077991 0.352122
O O18 0.791601 0.141089 0.125767
O O19 0.000000 0.045702 0.102529
O O20 0.000000 0.239198 0.132936
#
# Coordination Sequence:
#
# PCOD9353335 Si02
#       8
#     8   8   8   8   8   8   8   8
#     4  10  20  36  57  79 109 147 181 219 271 325
#     4  10  20  34  56  84 110 138 177 223 266 317
#     4   9  18  34  56  79 105 139 175 214 262 316
#     4   9  18  34  55  76 100 136 178 214 258 318
#     4  10  20  35  56  80 106 140 182 225 272 327
#     4   9  19  34  54  81 109 138 175 218 264 322
#     4  11  23  37  54  79 109 142 186 233 273 321
#     4  10  21  36  54  76 106 144 180 218 268 322
#
# _framework density 9.4062319999999993
#
# number of rings (size 3 to 8) (size 9 to 14) (size 15 to 20)
#    0.000    2.250    0.000    2.625    0.000    5.500 
#    0.000    3.750    0.000    0.000    0.000    0.000 
#    0.000    0.000    0.000    0.000    0.000    0.000 
#
# Total GULP energy -178625.073969 kJ/mol
# GULP energy per Si atom -5582.033562 kJ/mol
# Density = 0.938482 g / cm^3
# Si number density = 9.406232 Si / 1000 Ang^3
#
#
#
# Elastic Constant Matrix: (Units=GPa)
#
#
# Indices 1 2 3 4 5 6 
#
# 1 15.5333 -1.9542 -1.4818 0.0000 0.0000 0.0000
# 2 -1.9542 10.5149 -22.0178 0.0000 0.0000 0.0000
# 3 -1.4818 -22.0178 35.8121 0.0000 0.0000 0.0000
# 4 0.0000 0.0000 0.0000 38.1691 0.0000 0.0000
# 5 0.0000 0.0000 0.0000 0.0000 22.3991 0.0000
# 6 0.0000 0.0000 0.0000 0.0000 0.0000 25.5783
#
#
#
# Elastic Compliance Matrix: (Units=1/GPa)
#
#
# Indices 1 2 3 4 5 6 
#
# 1 0.054980 -0.052127 -0.029774 0.000000 0.000000 0.000000
# 2 -0.052127 -0.281483 -0.175217 0.000000 0.000000 0.000000
# 3 -0.029774 -0.175217 -0.081034 0.000000 0.000000 0.000000
# 4 0.000000 0.000000 0.000000 0.026199 0.000000 0.000000
# 5 0.000000 0.000000 0.000000 0.000000 0.044645 0.000000
# 6 0.000000 0.000000 0.000000 0.000000 0.000000 0.039096
#
#
# Mechanical properties :
#
#
# Convention : Reuss Voigt Hill
#
# Bulk Modulus (GPa) = -1.21688 1.21696 0.00004
# Shear Modulus (GPa) = 117.06159 23.05024 70.05592
#
# Velocity S-wave (km/s) = 7.89688 3.50418 6.10900
# Velocity P-wave (km/s) = 9.08291 4.12561 7.05407
#
# Compressibility (1/GPa) = -0.82177351
#
# Stress axis : x y z
#
# Youngs Moduli (GPa) = 18.18857 -3.55261 -12.34043
#
# Poissons Ratio (x) = -0.18519 -0.36742
# Poissons Ratio (y) = 0.94812 -2.16225
# Poissons Ratio (z) = 0.54154 -0.62248
#
# Static dielectric constant tensor:
#      x y z
#    x 1.626910 0.000000 0.000000 
#    y 0.000000 1.643510 0.000000 
#    z 0.000000 0.000000 1.649360 
# 
# From -- ./inp_files/15663.got.cif
#   From: 2010.05.17/outbox.ucp.g08.bks.cvg/sg36_8_cif.got.tgz:15663.got - 2010.06.11 10:37:26.
