data_PCOD9353044
_publ_section_title
;
Structure prediction by ZEFSAII (Michael W. Deem and Ramdas Pophale) SiO2 
 PCOD9353044
Probable space group: C M C 21
;
_chemical_formula_sum "Si O2"
_cell_formula_units_Z 56
_cell_length_a 21.599737
_cell_length_b 11.819356
_cell_length_c 9.789955
_cell_angle_alpha 90.000000
_cell_angle_beta 90.000000
_cell_angle_gamma 90.000000
_cell_volume 2499.326377
_symmetry_space_group_name_H-M "C M C 21"
_symmetry_group_IT_number 36
_symmetry_cell_setting 'orthorhombic'
loop_
_space_group_symop_operation_xyz
x,y,z
-x,-y,1/2+z
x,-y,1/2+z
-x,y,z
1/2+x,1/2+y,z
1/2-x,1/2-y,1/2+z
1/2+x,1/2-y,1/2+z
1/2-x,1/2+y,z
loop_
_atom_site_type_symbol
_atom_site_label
_atom_site_fract_x
_atom_site_fract_y
_atom_site_fract_z
Si Si1 0.181727 0.689258 0.753960
Si Si2 0.774628 0.568172 0.247619
Si Si3 0.074278 0.116320 0.924625
Si Si4 0.781072 0.240246 0.548320
Si Si5 0.071921 0.432688 0.205331
Si Si6 0.354993 0.478834 0.163689
Si Si7 0.884447 0.621576 0.411471
O O1 0.202144 0.559370 0.748562
O O2 0.210876 0.741616 0.888682
O O3 0.301431 0.856775 0.623613
O O4 0.108387 0.677462 0.763506
O O5 0.811165 0.615938 0.378640
O O6 0.700873 0.550779 0.233191
O O7 0.092040 0.249642 0.918353
O O8 0.000000 0.105080 0.938040
O O9 0.099422 0.061939 0.783423
O O10 0.109958 0.052194 0.048482
O O11 0.713139 0.234903 0.617417
O O12 0.821207 0.132200 0.597738
O O13 0.084271 0.545598 0.292800
O O14 0.000000 0.410372 0.201049
O O15 0.097712 0.439179 0.051900
#
# Coordination Sequence:
#
# PCOD9353044 Si02
#       7
#     8   8   8   8   8   8   8
#     4  10  27  40  74 108 148 195 248 309 379 452
#     4  10  25  42  74 107 142 184 251 317 380 443
#     4  12  27  52  76 107 156 209 258 309 374 463
#     4  11  25  48  71 109 151 196 247 318 388 449
#     4  11  25  46  72 110 151 199 255 309 379 461
#     4  11  28  46  76 111 149 203 256 314 378 454
#     4  11  26  48  77 110 152 204 253 320 388 454
#
# _framework density 22.406037999999999
#
# number of rings (size 3 to 8) (size 9 to 14) (size 15 to 20)
#    0.000    1.143    1.429    1.714   18.000    0.000 
#    0.000    2.857    0.000    0.000    0.000    0.000 
#    0.000    0.000    0.000    0.000    0.000    0.000 
#
# Total GULP energy -156431.891144 kJ/mol
# GULP energy per Si atom -5586.853255 kJ/mol
# Density = 2.235504 g / cm^3
# Si number density = 22.406038 Si / 1000 Ang^3
#
#
#
# Elastic Constant Matrix: (Units=GPa)
#
#
# Indices 1 2 3 4 5 6 
#
# 1 192.8354 75.6949 71.3324 0.0000 0.0000 0.0000
# 2 75.6949 126.3881 77.5943 0.0000 0.0000 0.0000
# 3 71.3324 77.5943 172.6380 0.0000 0.0000 0.0000
# 4 0.0000 0.0000 0.0000 43.3751 0.0000 0.0000
# 5 0.0000 0.0000 0.0000 0.0000 27.2651 0.0000
# 6 0.0000 0.0000 0.0000 0.0000 0.0000 36.0511
#
#
#
# Elastic Compliance Matrix: (Units=1/GPa)
#
#
# Indices 1 2 3 4 5 6 
#
# 1 0.007015 -0.003345 -0.001395 0.000000 0.000000 0.000000
# 2 -0.003345 0.012522 -0.004246 0.000000 0.000000 0.000000
# 3 -0.001395 -0.004246 0.008277 0.000000 0.000000 0.000000
# 4 0.000000 0.000000 0.000000 0.023055 0.000000 0.000000
# 5 0.000000 0.000000 0.000000 0.000000 0.036677 0.000000
# 6 0.000000 0.000000 0.000000 0.000000 0.000000 0.027738
#
#
# Mechanical properties :
#
#
# Convention : Reuss Voigt Hill
#
# Bulk Modulus (GPa) = 101.60241 104.56718 103.08480
# Shear Modulus (GPa) = 36.62002 39.15428 37.88715
#
# Velocity S-wave (km/s) = 4.04713 4.18483 4.11656
# Velocity P-wave (km/s) = 8.20265 8.37382 8.28868
#
# Compressibility (1/GPa) = 0.00984229
#
# Stress axis : x y z
#
# Youngs Moduli (GPa) = 142.55679 79.85792 120.80997
#
# Poissons Ratio (x) = 0.26710 0.16854
# Poissons Ratio (y) = 0.47681 0.51299
# Poissons Ratio (z) = 0.19888 0.33910
#
# Static dielectric constant tensor:
#      x y z
#    x 1.930880 0.000000 0.000000 
#    y 0.000000 1.884250 0.000000 
#    z 0.000000 0.000000 1.845990 
# 
# From -- ./inp_files/9226.got.cif
#   From: 2010.05.17/outbox.cif.g08.bks.cpg/sg36_5_cif.got.tgz:9226.got - 2010.06.03 17:41:39.
