data_PCOD9353986
_publ_section_title
;
Structure prediction by ZEFSAII (Michael W. Deem and Ramdas Pophale) SiO2 
 PCOD9353986
Probable space group: C C C 2
;
_chemical_formula_sum "Si O2"
_cell_formula_units_Z 40
_cell_length_a 9.205915
_cell_length_b 16.596661
_cell_length_c 11.528231
_cell_angle_alpha 90.000000
_cell_angle_beta 90.000000
_cell_angle_gamma 90.000000
_cell_volume 1761.369023
_symmetry_space_group_name_H-M "C C C 2"
_symmetry_group_IT_number 37
_symmetry_cell_setting 'orthorhombic'
loop_
_space_group_symop_operation_xyz
x,y,z
-x,-y,z
-x,y,1/2+z
x,-y,1/2+z
1/2+x,1/2+y,z
1/2-x,1/2-y,z
1/2-x,1/2+y,1/2+z
1/2+x,1/2-y,1/2+z
loop_
_atom_site_type_symbol
_atom_site_label
_atom_site_fract_x
_atom_site_fract_y
_atom_site_fract_z
Si Si1 0.837100 0.819692 0.430830
Si Si2 0.865286 0.846260 0.818924
Si Si3 0.239928 0.367168 0.069540
Si Si4 0.003588 0.249928 0.140514
Si Si5 0.663350 0.539412 0.599581
O O1 0.750000 0.750000 0.359813
O O2 0.780946 0.896286 0.503624
O O3 0.972003 0.861108 0.366538
O O4 0.905211 0.760956 0.528051
O O5 0.831276 0.912106 0.720738
O O6 0.901675 0.762490 0.751249
O O7 0.762731 0.848820 0.931797
O O8 0.098174 0.328328 0.124879
O O9 0.380121 0.323436 0.127138
O O10 0.240062 0.460711 0.094277
O O11 0.500000 0.500000 0.580598
#
# Coordination Sequence:
#
# PCOD9353986 Si02
#       5
#     8   8   8   8   8
#     4  10  22  38  57  89 121 160 209 254 311 387
#     4  10  20  35  61  90 125 164 198 262 323 362
#     4  10  20  36  60  92 123 157 210 264 311 375
#     4   9  20  38  57  90 123 161 204 257 312 384
#     4  11  20  35  59  93 120 152 218 267 304 375
#
# _framework density 22.709606999999998
#
# number of rings (size 3 to 8) (size 9 to 14) (size 15 to 20)
#    0.000    2.000    6.000    0.000    5.600    0.000 
#   28.800    1.000    0.000    0.000    5.200    0.000 
#    0.000    0.000    0.000    0.000    0.000    0.000 
#
# Total GULP energy -111477.962786 kJ/mol
# GULP energy per Si atom -5573.898139 kJ/mol
# Density = 2.265792 g / cm^3
# Si number density = 22.709607 Si / 1000 Ang^3
#
#
#
# Elastic Constant Matrix: (Units=GPa)
#
#
# Indices 1 2 3 4 5 6 
#
# 1 57.4992 47.5120 20.1502 0.0000 0.0000 0.0000
# 2 47.5120 180.9453 42.5370 0.0000 0.0000 0.0000
# 3 20.1502 42.5370 122.5187 0.0000 0.0000 0.0000
# 4 0.0000 0.0000 0.0000 9.5056 0.0000 0.0000
# 5 0.0000 0.0000 0.0000 0.0000 16.4051 0.0000
# 6 0.0000 0.0000 0.0000 0.0000 0.0000 16.5823
#
#
#
# Elastic Compliance Matrix: (Units=1/GPa)
#
#
# Indices 1 2 3 4 5 6 
#
# 1 0.022570 -0.005503 -0.001801 0.000000 0.000000 0.000000
# 2 -0.005503 0.007359 -0.001650 0.000000 0.000000 0.000000
# 3 -0.001801 -0.001650 0.009031 0.000000 0.000000 0.000000
# 4 0.000000 0.000000 0.000000 0.105201 0.000000 0.000000
# 5 0.000000 0.000000 0.000000 0.000000 0.060957 0.000000
# 6 0.000000 0.000000 0.000000 0.000000 0.000000 0.060305
#
#
# Mechanical properties :
#
#
# Convention : Reuss Voigt Hill
#
# Bulk Modulus (GPa) = 47.50207 64.59575 56.04891
# Shear Modulus (GPa) = 17.22060 25.21618 21.21839
#
# Velocity S-wave (km/s) = 2.75670 3.33584 3.06001
# Velocity P-wave (km/s) = 5.57630 6.58355 6.10075
#
# Compressibility (1/GPa) = 0.02105171
#
# Stress axis : x y z
#
# Youngs Moduli (GPa) = 44.30677 135.88165 110.72759
#
# Poissons Ratio (x) = 0.74774 0.19947
# Poissons Ratio (y) = 0.24381 0.18270
# Poissons Ratio (z) = 0.07982 0.22421
#
# Static dielectric constant tensor:
#      x y z
#    x 1.899460 0.000000 0.000000 
#    y 0.000000 1.917740 0.000000 
#    z 0.000000 0.000000 1.923120 
# 
# From -- ./inp_files/6132.got.cif
#   From: 2010.05.17/outbox.cif.g08.bks.cpg/sg37_4_cif.got.tgz:6132.got - 2010.06.03 17:53:42.
