data_PCOD9353344
_publ_section_title
;
Structure prediction by ZEFSAII (Michael W. Deem and Ramdas Pophale) SiO2 
 PCOD9353344
Probable space group: C M C 21
;
_chemical_formula_sum "Si O2"
_cell_formula_units_Z 32
_cell_length_a 9.000000
_cell_length_b 24.000000
_cell_length_c 15.000000
_cell_angle_alpha 90.000000
_cell_angle_beta 90.000000
_cell_angle_gamma 90.000000
_cell_volume 3240.000000
_symmetry_space_group_name_H-M "C M C 21"
_symmetry_group_IT_number 36
_symmetry_cell_setting 'orthorhombic'
loop_
_space_group_symop_operation_xyz
x,y,z
-x,-y,1/2+z
x,-y,1/2+z
-x,y,z
1/2+x,1/2+y,z
1/2-x,1/2-y,1/2+z
1/2+x,1/2-y,1/2+z
1/2-x,1/2+y,z
loop_
_atom_site_type_symbol
_atom_site_label
_atom_site_fract_x
_atom_site_fract_y
_atom_site_fract_z
Si Si1 0.824404 0.280167 0.798920
Si Si2 0.821820 0.511400 0.210611
Si Si3 0.822719 0.817865 0.975457
Si Si4 0.826251 0.040096 0.880607
Si Si5 0.320658 0.587856 0.067400
Si Si6 0.674973 0.104219 0.611290
Si Si7 0.179563 0.706603 0.088881
Si Si8 0.170809 0.155037 0.774393
O O1 0.737501 0.313112 0.874922
O O2 0.783447 0.287992 0.694703
O O3 0.801543 0.214413 0.818425
O O4 0.000000 0.292541 0.806640
O O5 0.762363 0.498360 0.310429
O O6 0.784939 0.456659 0.150184
O O7 0.000000 0.518070 0.212725
O O8 0.745259 0.562206 0.158566
O O9 0.000000 0.819836 0.975307
O O10 0.759755 0.872043 0.025982
O O11 0.778470 0.762149 0.032774
O O12 0.776691 0.048342 0.983024
O O13 0.817313 0.102734 0.839871
O O14 0.000000 0.023473 0.879624
O O15 0.500000 0.589428 0.069822
O O16 0.256761 0.650094 0.054943
O O17 0.500000 0.105216 0.594769
O O18 0.719789 0.144807 0.692619
O O19 0.000000 0.701233 0.082472
O O20 0.000000 0.156451 0.739358
#
# Coordination Sequence:
#
# PCOD9353344 Si02
#       8
#     8   8   8   8   8   8   8   8
#     4  10  20  36  56  83 120 159 194 234 292 353
#     4  10  22  40  62  88 117 153 196 245 298 352
#     4  11  22  37  58  87 119 156 198 239 290 351
#     4   9  19  36  61  90 116 151 198 247 296 348
#     4  11  23  40  63  90 120 156 200 247 298 354
#     4  10  20  35  57  83 111 146 192 240 290 344
#     4  10  22  40  60  85 123 163 196 239 297 354
#     4   9  16  32  57  82 114 150 188 237 289 340
#
# _framework density 9.8765429999999999
#
# number of rings (size 3 to 8) (size 9 to 14) (size 15 to 20)
#    0.000    2.000    1.250    2.250    0.000    5.500 
#    2.250    2.500    0.000    0.000    0.000    0.000 
#    0.000    0.000    0.000    0.000    0.000    0.000 
#
# Total GULP energy -178707.516747 kJ/mol
# GULP energy per Si atom -5584.609898 kJ/mol
# Density = 0.985406 g / cm^3
# Si number density = 9.876543 Si / 1000 Ang^3
#
#
#
# Elastic Constant Matrix: (Units=GPa)
#
#
# Indices 1 2 3 4 5 6 
#
# 1 32.5265 8.6719 15.2987 0.0000 0.0000 0.0000
# 2 8.6719 20.4696 -12.8052 0.0000 0.0000 0.0000
# 3 15.2987 -12.8052 76.2318 0.0000 0.0000 0.0000
# 4 0.0000 0.0000 0.0000 24.5196 0.0000 0.0000
# 5 0.0000 0.0000 0.0000 0.0000 32.6955 0.0000
# 6 0.0000 0.0000 0.0000 0.0000 0.0000 26.6407
#
#
#
# Elastic Compliance Matrix: (Units=1/GPa)
#
#
# Indices 1 2 3 4 5 6 
#
# 1 0.044331 -0.027205 -0.013467 0.000000 0.000000 0.000000
# 2 -0.027205 0.071284 0.017434 0.000000 0.000000 0.000000
# 3 -0.013467 0.017434 0.018749 0.000000 0.000000 0.000000
# 4 0.000000 0.000000 0.000000 0.040784 0.000000 0.000000
# 5 0.000000 0.000000 0.000000 0.000000 0.030585 0.000000
# 6 0.000000 0.000000 0.000000 0.000000 0.000000 0.037537
#
#
# Mechanical properties :
#
#
# Convention : Reuss Voigt Hill
#
# Bulk Modulus (GPa) = 11.37798 16.83986 14.10892
# Shear Modulus (GPa) = 15.67191 24.64199 20.15695
#
# Velocity S-wave (km/s) = 2.81977 3.53583 3.19791
# Velocity P-wave (km/s) = 4.04649 5.02127 4.56000
#
# Compressibility (1/GPa) = 0.08788903
#
# Stress axis : x y z
#
# Youngs Moduli (GPa) = 22.55744 14.02831 53.33639
#
# Poissons Ratio (x) = 0.38164 0.71826
# Poissons Ratio (y) = 0.61368 -0.92986
# Poissons Ratio (z) = 0.30377 -0.24457
#
# Static dielectric constant tensor:
#      x y z
#    x 1.665800 0.000000 0.000000 
#    y 0.000000 1.704890 0.000000 
#    z 0.000000 0.000000 1.698700 
# 
# From -- ./inp_files/10961.got.cif
#   From: 2010.05.17/outbox.ucp.g08.bks.cvg/sg36_6_cif.got.tgz:10961.got - 2010.06.11 10:37:26.
