data_PCOD9353781
_publ_section_title
;
Structure prediction by ZEFSAII (Michael W. Deem and Ramdas Pophale) SiO2 
 PCOD9353781
Probable space group: C C C 2
;
_chemical_formula_sum "Si O2"
_cell_formula_units_Z 52
_cell_length_a 12.996812
_cell_length_b 20.881281
_cell_length_c 8.780730
_cell_angle_alpha 90.000000
_cell_angle_beta 90.000000
_cell_angle_gamma 90.000000
_cell_volume 2383.003048
_symmetry_space_group_name_H-M "C C C 2"
_symmetry_group_IT_number 37
_symmetry_cell_setting 'orthorhombic'
loop_
_space_group_symop_operation_xyz
x,y,z
-x,-y,z
-x,y,1/2+z
x,-y,1/2+z
1/2+x,1/2+y,z
1/2-x,1/2-y,z
1/2-x,1/2+y,1/2+z
1/2+x,1/2-y,1/2+z
loop_
_atom_site_type_symbol
_atom_site_label
_atom_site_fract_x
_atom_site_fract_y
_atom_site_fract_z
Si Si1 0.581757 0.152124 0.501180
Si Si2 0.500000 0.500000 0.869543
Si Si3 0.122278 0.065098 0.631449
Si Si4 0.809972 0.539240 0.849653
Si Si5 0.354848 0.707726 0.021256
Si Si6 0.584713 0.053279 0.041158
Si Si7 0.482231 0.236493 0.258007
O O1 0.668516 0.098952 0.464015
O O2 0.468466 0.119068 0.501417
O O3 0.566789 0.203222 0.368129
O O4 0.587432 0.185465 0.664753
O O5 0.411779 0.522576 0.987444
O O6 0.527982 0.558389 0.754172
O O7 0.211116 0.040567 0.743514
O O8 0.158129 0.133884 0.569129
O O9 0.895877 0.549746 0.719763
O O10 0.822974 0.472682 0.938616
O O11 0.250000 0.750000 0.036254
O O12 0.446167 0.730054 0.133906
O O13 0.405900 0.719493 0.855957
O O14 0.500000 0.000000 0.007017
#
# Coordination Sequence:
#
# PCOD9353781 Si02
#       7
#     8   4   8   8   8   8   8
#     4  10  19  36  58  86 133 169 211 263 335 421
#     4  10  24  46  68  96 126 186 230 300 372 392
#     4  11  23  44  68  94 130 172 236 293 345 418
#     4  11  21  34  57  95 123 176 210 271 328 411
#     4  11  24  44  70 100 135 183 238 295 356 425
#     4  10  20  32  53  87 133 170 203 247 329 405
#     4  10  22  40  62  94 129 180 222 283 354 403
#
# _framework density 21.821204000000002
#
# number of rings (size 3 to 8) (size 9 to 14) (size 15 to 20)
#    0.000    1.538    1.538    4.154    4.308    0.000 
#    0.000    9.231    0.000    0.000    0.000    0.000 
#    0.000    0.000    0.000    0.000    0.000    0.000 
#
# Total GULP energy -144920.721942 kJ/mol
# GULP energy per Si atom -5573.873921 kJ/mol
# Density = 2.177154 g / cm^3
# Si number density = 21.821204 Si / 1000 Ang^3
#
#
#
# Elastic Constant Matrix: (Units=GPa)
#
#
# Indices 1 2 3 4 5 6 
#
# 1 73.6864 22.0375 36.8808 0.0000 0.0000 0.0000
# 2 22.0375 77.0017 40.4137 0.0000 0.0000 0.0000
# 3 36.8808 40.4137 133.3538 0.0000 0.0000 0.0000
# 4 0.0000 0.0000 0.0000 44.8619 0.0000 0.0000
# 5 0.0000 0.0000 0.0000 0.0000 41.6578 0.0000
# 6 0.0000 0.0000 0.0000 0.0000 0.0000 26.5835
#
#
#
# Elastic Compliance Matrix: (Units=1/GPa)
#
#
# Indices 1 2 3 4 5 6 
#
# 1 0.016217 -0.002720 -0.003661 0.000000 0.000000 0.000000
# 2 -0.002720 0.015899 -0.004066 0.000000 0.000000 0.000000
# 3 -0.003661 -0.004066 0.009744 0.000000 0.000000 0.000000
# 4 0.000000 0.000000 0.000000 0.022291 0.000000 0.000000
# 5 0.000000 0.000000 0.000000 0.000000 0.024005 0.000000
# 6 0.000000 0.000000 0.000000 0.000000 0.000000 0.037617
#
#
# Mechanical properties :
#
#
# Convention : Reuss Voigt Hill
#
# Bulk Modulus (GPa) = 47.69612 53.63401 50.66507
# Shear Modulus (GPa) = 32.54051 34.93460 33.73756
#
# Velocity S-wave (km/s) = 3.86584 4.00552 3.93630
# Velocity P-wave (km/s) = 6.46772 6.78414 6.62782
#
# Compressibility (1/GPa) = 0.02096606
#
# Stress axis : x y z
#
# Youngs Moduli (GPa) = 61.66493 62.89610 102.63217
#
# Poissons Ratio (x) = 0.17107 0.37570
# Poissons Ratio (y) = 0.16772 0.41732
# Poissons Ratio (z) = 0.22574 0.25575
#
# Static dielectric constant tensor:
#      x y z
#    x 1.943550 0.000000 0.000000 
#    y 0.000000 1.839990 0.000000 
#    z 0.000000 0.000000 1.794450 
# 
# From -- ./inp_files/3610.got.cif
#   From: 2010.05.17/outbox.cif.g08.bks.cpg/sg37_2_cif.got.tgz:3610.got - 2010.06.03 17:53:42.
