data_PCOD9353696
_publ_section_title
;
Structure prediction by ZEFSAII (Michael W. Deem and Ramdas Pophale) SiO2 
 PCOD9353696
Probable space group: C C C 2
;
_chemical_formula_sum "Si O2"
_cell_formula_units_Z 36
_cell_length_a 9.619188
_cell_length_b 16.679221
_cell_length_c 8.656802
_cell_angle_alpha 90.000000
_cell_angle_beta 90.000000
_cell_angle_gamma 90.000000
_cell_volume 1388.902182
_symmetry_space_group_name_H-M "C C C 2"
_symmetry_group_IT_number 37
_symmetry_cell_setting 'orthorhombic'
loop_
_space_group_symop_operation_xyz
x,y,z
-x,-y,z
-x,y,1/2+z
x,-y,1/2+z
1/2+x,1/2+y,z
1/2-x,1/2-y,z
1/2-x,1/2+y,1/2+z
1/2+x,1/2-y,1/2+z
loop_
_atom_site_type_symbol
_atom_site_label
_atom_site_fract_x
_atom_site_fract_y
_atom_site_fract_z
Si Si1 0.000000 0.500000 0.930250
Si Si2 0.846191 0.122105 0.700704
Si Si3 0.931295 0.712045 0.088833
Si Si4 0.862184 0.359956 0.275919
Si Si5 0.196112 0.013218 0.934093
O O1 0.980780 0.576160 0.822819
O O2 0.850286 0.496652 0.008839
O O3 0.933844 0.201646 0.669090
O O4 0.691333 0.158920 0.668419
O O5 0.882978 0.058673 0.567307
O O6 0.852421 0.068186 0.854186
O O7 0.085027 0.676003 0.116374
O O8 0.883831 0.706521 0.910668
O O9 0.727731 0.415367 0.307035
#
# Coordination Sequence:
#
# PCOD9353696 Si02
#       5
#     4   8   8   8   8
#     4   8  16  26  48  82 100 134 160 202 240 322
#     4  10  19  32  50  78 106 130 165 214 254 290
#     4  10  19  32  50  78 106 130 165 214 254 290
#     4   9  18  29  51  75 106 131 165 199 252 303
#     4   9  18  29  51  75 106 131 165 199 252 303
#
# _framework density 25.919751999999999
#
# number of rings (size 3 to 8) (size 9 to 14) (size 15 to 20)
#    1.333    1.333    2.222    0.000    3.111    1.778 
#    0.000    2.222    0.000    9.333    0.000    0.000 
#    0.000    0.000    0.000    0.000    0.000    0.000 
#
# Total GULP energy -100241.241044 kJ/mol
# GULP energy per Si atom -5568.957836 kJ/mol
# Density = 2.586076 g / cm^3
# Si number density = 25.919752 Si / 1000 Ang^3
#
#
#
# Elastic Constant Matrix: (Units=GPa)
#
#
# Indices 1 2 3 4 5 6 
#
# 1 43.6038 33.1903 14.2612 0.0000 0.0000 0.0000
# 2 33.1903 181.8760 51.4054 0.0000 0.0000 0.0000
# 3 14.2612 51.4054 67.2172 0.0000 0.0000 0.0000
# 4 0.0000 0.0000 0.0000 18.3836 0.0000 0.0000
# 5 0.0000 0.0000 0.0000 0.0000 9.3972 0.0000
# 6 0.0000 0.0000 0.0000 0.0000 0.0000 32.3744
#
#
#
# Elastic Compliance Matrix: (Units=1/GPa)
#
#
# Indices 1 2 3 4 5 6 
#
# 1 0.026958 -0.004214 -0.002497 0.000000 0.000000 0.000000
# 2 -0.004214 0.007673 -0.004974 0.000000 0.000000 0.000000
# 3 -0.002497 -0.004974 0.019211 0.000000 0.000000 0.000000
# 4 0.000000 0.000000 0.000000 0.054396 0.000000 0.000000
# 5 0.000000 0.000000 0.000000 0.000000 0.106415 0.000000
# 6 0.000000 0.000000 0.000000 0.000000 0.000000 0.030889
#
#
# Mechanical properties :
#
#
# Convention : Reuss Voigt Hill
#
# Bulk Modulus (GPa) = 32.81682 54.49008 43.65345
# Shear Modulus (GPa) = 17.91673 24.95373 21.43523
#
# Velocity S-wave (km/s) = 2.63199 3.10616 2.87885
# Velocity P-wave (km/s) = 4.68241 5.82516 5.28476
#
# Compressibility (1/GPa) = 0.03047217
#
# Stress axis : x y z
#
# Youngs Moduli (GPa) = 37.09496 130.32567 52.05366
#
# Poissons Ratio (x) = 0.54916 0.12998
# Poissons Ratio (y) = 0.15631 0.25892
# Poissons Ratio (z) = 0.09263 0.64825
#
# Static dielectric constant tensor:
#      x y z
#    x 2.202880 0.000000 0.000000 
#    y 0.000000 2.038700 0.000000 
#    z 0.000000 0.000000 2.084210 
# 
# From -- ./inp_files/3287.got.cif
#   From: 2010.05.17/outbox.cif.g08.bks.cpg/sg37_2_cif.got.tgz:3287.got - 2010.06.03 17:53:42.
