data_PCOD9353412
_publ_section_title
;
Structure prediction by ZEFSAII (Michael W. Deem and Ramdas Pophale) SiO2 
 PCOD9353412
Probable space group: C C C 2
;
_chemical_formula_sum "Si O2"
_cell_formula_units_Z 56
_cell_length_a 13.326555
_cell_length_b 33.781568
_cell_length_c 5.193622
_cell_angle_alpha 90.000000
_cell_angle_beta 90.000000
_cell_angle_gamma 90.000000
_cell_volume 2338.126680
_symmetry_space_group_name_H-M "C C C 2"
_symmetry_group_IT_number 37
_symmetry_cell_setting 'orthorhombic'
loop_
_space_group_symop_operation_xyz
x,y,z
-x,-y,z
-x,y,1/2+z
x,-y,1/2+z
1/2+x,1/2+y,z
1/2-x,1/2-y,z
1/2-x,1/2+y,1/2+z
1/2+x,1/2-y,1/2+z
loop_
_atom_site_type_symbol
_atom_site_label
_atom_site_fract_x
_atom_site_fract_y
_atom_site_fract_z
Si Si1 0.861563 0.478472 0.700650
Si Si2 0.933657 0.607400 0.090332
Si Si3 0.431393 0.273811 0.998696
Si Si4 0.875802 0.142655 0.331222
Si Si5 0.896064 0.109744 0.828730
Si Si6 0.931509 0.312004 0.433933
Si Si7 0.622414 0.478731 0.758535
O O1 0.896531 0.511015 0.490446
O O2 0.885562 0.435663 0.583079
O O3 0.742414 0.479105 0.740579
O O4 0.874789 0.647582 0.008658
O O5 0.977038 0.609472 0.379228
O O6 0.478454 0.275708 0.285068
O O7 0.381013 0.230842 0.968475
O O8 0.368257 0.312470 0.925416
O O9 0.841399 0.114265 0.557571
O O10 0.995385 0.131065 0.297590
O O11 0.835371 0.131411 0.053363
O O12 0.909588 0.063505 0.872142
O O13 0.978005 0.312042 0.147160
O O14 0.593479 0.487564 0.464217
#
# Coordination Sequence:
#
# PCOD9353412 Si02
#       7
#     8   8   8   8   8   8   8
#     4  10  21  35  52  70  92 127 165 198 239 287
#     4  10  19  32  48  75 104 121 153 193 240 291
#     4  10  14  25  41  63  96 125 148 181 228 280
#     4  10  17  28  43  70  95 119 153 200 245 282
#     4  10  18  30  46  66  93 121 156 205 240 280
#     4   8  16  25  41  64  96 127 146 174 223 278
#     4  10  21  37  50  64  89 126 168 203 236 288
#
# _framework density 23.950799
#
# number of rings (size 3 to 8) (size 9 to 14) (size 15 to 20)
#    0.000    2.286    2.857    1.714    0.000    1.714 
#    0.000    8.571    0.000    0.000    0.000    1.000 
#    0.000    2.286    0.000    0.000    0.000    0.000 
#
# Total GULP energy -156154.926651 kJ/mol
# GULP energy per Si atom -5576.961666 kJ/mol
# Density = 2.389629 g / cm^3
# Si number density = 23.950799 Si / 1000 Ang^3
#
#
#
# Elastic Constant Matrix: (Units=GPa)
#
#
# Indices 1 2 3 4 5 6 
#
# 1 46.4002 4.3057 -8.3678 0.0000 0.0000 0.0000
# 2 4.3057 147.5879 2.7988 0.0000 0.0000 0.0000
# 3 -8.3678 2.7988 111.4737 0.0000 0.0000 0.0000
# 4 0.0000 0.0000 0.0000 42.6764 0.0000 0.0000
# 5 0.0000 0.0000 0.0000 0.0000 -0.1184 0.0000
# 6 0.0000 0.0000 0.0000 0.0000 0.0000 -0.0076
#
#
#
# Elastic Compliance Matrix: (Units=1/GPa)
#
#
# Indices 1 2 3 4 5 6 
#
# 1 0.021914 -0.000671 0.001662 0.000000 0.000000 0.000000
# 2 -0.000671 0.006799 -0.000221 0.000000 0.000000 0.000000
# 3 0.001662 -0.000221 0.009101 0.000000 0.000000 0.000000
# 4 0.000000 0.000000 0.000000 0.023432 0.000000 0.000000
# 5 0.000000 0.000000 0.000000 0.000000 -8.444637 0.000000
# 6 0.000000 0.000000 0.000000 0.000000 0.000000**********
#
#
# Mechanical properties :
#
#
# Convention : Reuss Voigt Hill
#
# Bulk Modulus (GPa) = 25.41052 33.65946 29.53499
# Shear Modulus (GPa) = -0.03569 28.95843 14.46137
#
# Velocity S-wave (km/s) = -0.12220 3.48095 2.45989
# Velocity P-wave (km/s) = 3.25770 5.49911 4.51955
#
# Compressibility (1/GPa) = 0.03935378
#
# Stress axis : x y z
#
# Youngs Moduli (GPa) = 45.63386 147.07214 109.87780
#
# Poissons Ratio (x) = 0.09866 -0.18259
# Poissons Ratio (y) = 0.03061 0.02429
# Poissons Ratio (z) = -0.07583 0.03251
#
# Static dielectric constant tensor:
#      x y z
#    x 1.935110 0.000000 0.000000 
#    y 0.000000 1.994520 0.000000 
#    z 0.000000 0.000000 1.955680 
# 
# From -- ./inp_files/1083.got.cif
#   From: 2010.05.17/outbox.cif.g08.bks.cpg/sg37_1_cif.got.tgz:1083.got - 2010.06.03 17:53:42.
