data_PCOD9353087
_publ_section_title
;
Structure prediction by ZEFSAII (Michael W. Deem and Ramdas Pophale) SiO2 
 PCOD9353087
Probable space group: C M C 21
;
_chemical_formula_sum "Si O2"
_cell_formula_units_Z 32
_cell_length_a 19.886232
_cell_length_b 16.824085
_cell_length_c 5.169269
_cell_angle_alpha 90.000000
_cell_angle_beta 90.000000
_cell_angle_gamma 90.000000
_cell_volume 1729.470220
_symmetry_space_group_name_H-M "C M C 21"
_symmetry_group_IT_number 36
_symmetry_cell_setting 'orthorhombic'
loop_
_space_group_symop_operation_xyz
x,y,z
-x,-y,1/2+z
x,-y,1/2+z
-x,y,z
1/2+x,1/2+y,z
1/2-x,1/2-y,1/2+z
1/2+x,1/2-y,1/2+z
1/2-x,1/2+y,z
loop_
_atom_site_type_symbol
_atom_site_label
_atom_site_fract_x
_atom_site_fract_y
_atom_site_fract_z
Si Si1 0.926701 0.921017 0.181900
Si Si2 0.783486 0.782362 0.504174
Si Si3 0.074038 0.189708 0.183564
Si Si4 0.717270 0.537995 0.786502
O O1 0.931240 0.870292 0.443009
O O2 0.862332 0.975680 0.225746
O O3 0.000000 0.770816 0.707488
O O4 0.914189 0.859858 0.946498
O O5 0.764000 0.731644 0.251833
O O6 0.858352 0.763325 0.611855
O O7 0.778886 0.873520 0.402279
O O8 0.000000 0.958555 0.131784
O O9 0.746019 0.521675 0.501737
#
# Coordination Sequence:
#
# PCOD9353087 Si02
#       4
#     8   8   8   8
#     4   9  17  29  45  67  97 135 172 200 234 285
#     4  11  21  35  53  75 103 137 176 218 264 312
#     4   9  17  31  49  70  99 133 169 210 251 299
#     4  11  21  33  48  70 101 135 171 212 253 300
#
# _framework density 18.502776000000001
#
# number of rings (size 3 to 8) (size 9 to 14) (size 15 to 20)
#    0.000    2.000    0.000    7.500    0.000    1.000 
#    0.000    0.000    0.000    0.000    0.000    0.000 
#    0.000   20.000    0.000    0.000    0.000    0.000 
#
# Total GULP energy -89148.703247 kJ/mol
# GULP energy per Si atom -5571.793953 kJ/mol
# Density = 1.846066 g / cm^3
# Si number density = 18.502776 Si / 1000 Ang^3
#
#
#
# Elastic Constant Matrix: (Units=GPa)
#
#
# Indices 1 2 3 4 5 6 
#
# 1 64.7984 29.4647 31.8647 0.0000 0.0000 0.0000
# 2 29.4647 40.4572 28.8800 0.0000 0.0000 0.0000
# 3 31.8647 28.8800 161.6750 0.0000 0.0000 0.0000
# 4 0.0000 0.0000 0.0000 40.8133 0.0000 0.0000
# 5 0.0000 0.0000 0.0000 0.0000 32.9396 0.0000
# 6 0.0000 0.0000 0.0000 0.0000 0.0000 23.5032
#
#
#
# Elastic Compliance Matrix: (Units=1/GPa)
#
#
# Indices 1 2 3 4 5 6 
#
# 1 0.023525 -0.015844 -0.001806 0.000000 0.000000 0.000000
# 2 -0.015844 0.039000 -0.003844 0.000000 0.000000 0.000000
# 3 -0.001806 -0.003844 0.007228 0.000000 0.000000 0.000000
# 4 0.000000 0.000000 0.000000 0.024502 0.000000 0.000000
# 5 0.000000 0.000000 0.000000 0.000000 0.030359 0.000000
# 6 0.000000 0.000000 0.000000 0.000000 0.000000 0.042547
#
#
# Mechanical properties :
#
#
# Convention : Reuss Voigt Hill
#
# Bulk Modulus (GPa) = 37.36196 49.70546 43.53371
# Shear Modulus (GPa) = 22.82366 31.23263 27.02814
#
# Velocity S-wave (km/s) = 3.51597 4.11298 3.82614
# Velocity P-wave (km/s) = 6.05964 7.03403 6.56494
#
# Compressibility (1/GPa) = 0.02676519
#
# Stress axis : x y z
#
# Youngs Moduli (GPa) = 42.50775 25.64086 138.35222
#
# Poissons Ratio (x) = 0.40624 0.24993
# Poissons Ratio (y) = 0.67348 0.53182
# Poissons Ratio (z) = 0.07679 0.09856
#
# Static dielectric constant tensor:
#      x y z
#    x 1.728010 0.000000 0.000000 
#    y 0.000000 1.632970 0.000000 
#    z 0.000000 0.000000 1.693020 
# 
# From -- ./inp_files/1019.got.cif
#   From: 2010.05.17/outbox.cif.g08.bks.cpg/sg36_1_cif.got.tgz:1019.got - 2010.06.03 17:41:39.
