data_PCOD9353666
_publ_section_title
;
Structure prediction by ZEFSAII (Michael W. Deem and Ramdas Pophale) SiO2 
 PCOD9353666
Probable space group: C C C 2
;
_chemical_formula_sum "Si O2"
_cell_formula_units_Z 40
_cell_length_a 9.370497
_cell_length_b 13.567908
_cell_length_c 15.690059
_cell_angle_alpha 90.000000
_cell_angle_beta 90.000000
_cell_angle_gamma 90.000000
_cell_volume 1994.803368
_symmetry_space_group_name_H-M "C C C 2"
_symmetry_group_IT_number 37
_symmetry_cell_setting 'orthorhombic'
loop_
_space_group_symop_operation_xyz
x,y,z
-x,-y,z
-x,y,1/2+z
x,-y,1/2+z
1/2+x,1/2+y,z
1/2-x,1/2-y,z
1/2-x,1/2+y,1/2+z
1/2+x,1/2-y,1/2+z
loop_
_atom_site_type_symbol
_atom_site_label
_atom_site_fract_x
_atom_site_fract_y
_atom_site_fract_z
Si Si1 0.591515 0.297826 0.706570
Si Si2 0.500000 0.500000 0.296342
Si Si3 0.500000 0.000000 0.411435
Si Si4 0.196758 0.993555 0.959682
Si Si5 0.907457 0.706009 0.853975
Si Si6 0.970364 0.832489 0.017767
O O1 0.750000 0.250000 0.708254
O O2 0.560265 0.411004 0.738063
O O3 0.502181 0.239531 0.775928
O O4 0.531386 0.288795 0.611336
O O5 0.370943 0.515966 0.365305
O O6 0.639150 0.963284 0.461435
O O7 0.430166 0.910199 0.360644
O O8 0.101367 0.906148 0.998694
O O9 0.167526 0.094954 0.009936
O O10 0.750000 0.750000 0.842022
O O11 0.961972 0.753899 0.942388
#
# Coordination Sequence:
#
# PCOD9353666 Si02
#       6
#     8   4   4   8   8   8
#     4  12  24  40  74 101 134 185 234 281 349 425
#     4  10  18  42  66 100 134 174 232 286 342 418
#     4  12  24  38  74 102 130 186 238 290 348 416
#     4  10  20  42  72  96 135 180 229 290 346 417
#     4  12  24  46  66  99 145 179 228 291 350 415
#     4  10  22  44  68  96 136 185 226 279 356 416
#
# _framework density 20.052102000000001
#
# number of rings (size 3 to 8) (size 9 to 14) (size 15 to 20)
#    0.000    1.200    6.000    3.000    0.000    0.000 
#    3.600    1.000    0.000    0.000    0.000    0.000 
#    0.000    0.000    0.000    0.000    0.000    0.000 
#
# Total GULP energy -111528.402656 kJ/mol
# GULP energy per Si atom -5576.420133 kJ/mol
# Density = 2.000646 g / cm^3
# Si number density = 20.052102 Si / 1000 Ang^3
#
#
#
# Elastic Constant Matrix: (Units=GPa)
#
#
# Indices 1 2 3 4 5 6 
#
# 1 150.9961 50.5672 52.1813 0.0000 0.0000 0.0000
# 2 50.5672 112.6268 38.1553 0.0000 0.0000 0.0000
# 3 52.1813 38.1553 157.8851 0.0000 0.0000 0.0000
# 4 0.0000 0.0000 0.0000 -245.0861 0.0000 0.0000
# 5 0.0000 0.0000 0.0000 0.0000 11.4614 0.0000
# 6 0.0000 0.0000 0.0000 0.0000 0.0000 40.3405
#
#
#
# Elastic Compliance Matrix: (Units=1/GPa)
#
#
# Indices 1 2 3 4 5 6 
#
# 1 0.008346 -0.003064 -0.002018 0.000000 0.000000 0.000000
# 2 -0.003064 0.010795 -0.001596 0.000000 0.000000 0.000000
# 3 -0.002018 -0.001596 0.007386 0.000000 0.000000 0.000000
# 4 0.000000 0.000000 0.000000 -0.004080 0.000000 0.000000
# 5 0.000000 0.000000 0.000000 0.000000 0.087250 0.000000
# 6 0.000000 0.000000 0.000000 0.000000 0.000000 0.024789
#
#
# Mechanical properties :
#
#
# Convention : Reuss Voigt Hill
#
# Bulk Modulus (GPa) = 75.91928 78.14616 77.03272
# Shear Modulus (GPa) = 32.84454 -19.94989 6.44732
#
# Velocity S-wave (km/s) = 4.05156 -3.15763 1.79507
# Velocity P-wave (km/s) = 7.73499 5.07563 6.54187
#
# Compressibility (1/GPa) = 0.01317188
#
# Stress axis : x y z
#
# Youngs Moduli (GPa) = 119.81745 92.63431 135.38306
#
# Poissons Ratio (x) = 0.28379 0.27321
# Poissons Ratio (y) = 0.36707 0.21611
# Poissons Ratio (z) = 0.24179 0.14787
#
# Static dielectric constant tensor:
#      x y z
#    x 1.764360 0.000000 0.000000 
#    y 0.000000 1.840390 0.000000 
#    z 0.000000 0.000000 1.691730 
# 
# From -- ./inp_files/10358.got.cif
#   From: 2010.05.17/outbox.cif.g08.bks.cpg/sg37_6_cif.got.tgz:10358.got - 2010.06.03 17:53:42.
