data_PCOD9353193
_publ_section_title
;
Structure prediction by ZEFSAII (Michael W. Deem and Ramdas Pophale) SiO2 
 PCOD9353193
Probable space group: C M C 21
;
_chemical_formula_sum "Si O2"
_cell_formula_units_Z 60
_cell_length_a 16.621503
_cell_length_b 9.898527
_cell_length_c 17.706523
_cell_angle_alpha 90.000000
_cell_angle_beta 90.000000
_cell_angle_gamma 90.000000
_cell_volume 2913.225832
_symmetry_space_group_name_H-M "C M C 21"
_symmetry_group_IT_number 36
_symmetry_cell_setting 'orthorhombic'
loop_
_space_group_symop_operation_xyz
x,y,z
-x,-y,1/2+z
x,-y,1/2+z
-x,y,z
1/2+x,1/2+y,z
1/2-x,1/2-y,1/2+z
1/2+x,1/2-y,1/2+z
1/2-x,1/2+y,z
loop_
_atom_site_type_symbol
_atom_site_label
_atom_site_fract_x
_atom_site_fract_y
_atom_site_fract_z
Si Si1 0.000000 0.740260 0.556111
Si Si2 0.790821 0.467267 0.441046
Si Si3 0.711040 0.833222 0.652638
Si Si4 0.665709 0.120854 0.578428
Si Si5 0.124101 0.967664 0.522901
Si Si6 0.198571 0.064306 0.297277
Si Si7 0.596016 0.398552 0.182412
Si Si8 0.907404 0.779672 0.916345
O O1 0.073520 0.655044 0.595682
O O2 0.068378 0.838720 0.516835
O O3 0.825485 0.592508 0.488716
O O4 0.709007 0.434756 0.485569
O O5 0.761744 0.503137 0.357091
O O6 0.855092 0.347559 0.443029
O O7 0.771998 0.734882 0.606740
O O8 0.753101 0.857352 0.733004
O O9 0.629217 0.748741 0.662553
O O10 0.691374 0.978709 0.617039
O O11 0.120501 0.006691 0.611354
O O12 0.094942 0.101217 0.478607
O O13 0.138122 0.159887 0.343728
O O14 0.144046 0.953185 0.254897
O O15 0.500000 0.405457 0.191352
O O16 0.000000 0.743623 0.901576
#
# Coordination Sequence:
#
# PCOD9353193 Si02
#       8
#     4   8   8   8   8   8   8   8
#     4  12  26  42  68 114 140 174 236 310 360 420
#     4  11  25  46  72 106 142 197 237 304 368 440
#     4  12  25  50  73 108 143 197 239 304 367 441
#     4  12  27  46  76 105 145 188 246 304 368 436
#     4  11  23  44  71 105 138 188 239 295 359 433
#     4  11  25  45  70 103 147 196 240 294 372 439
#     4  12  23  43  72 104 138 186 246 298 353 428
#     4  11  24  45  74 108 146 191 250 301 356 437
#
# _framework density 20.595725999999999
#
# number of rings (size 3 to 8) (size 9 to 14) (size 15 to 20)
#    0.000    0.533    4.000    3.600    7.467    0.000 
#    1.200    0.667    0.000    0.000    0.000    0.000 
#    0.000    0.000    0.000    0.000    0.000    0.000 
#
# Total GULP energy -167224.605627 kJ/mol
# GULP energy per Si atom -5574.153521 kJ/mol
# Density = 2.054885 g / cm^3
# Si number density = 20.595726 Si / 1000 Ang^3
#
#
#
# Elastic Constant Matrix: (Units=GPa)
#
#
# Indices 1 2 3 4 5 6 
#
# 1 141.0577 65.0370 26.9700 0.0000 0.0000 0.0000
# 2 65.0370 133.1961 45.8540 0.0000 0.0000 0.0000
# 3 26.9700 45.8540 105.1426 0.0000 0.0000 0.0000
# 4 0.0000 0.0000 0.0000 31.9140 0.0000 0.0000
# 5 0.0000 0.0000 0.0000 0.0000 14.2399 0.0000
# 6 0.0000 0.0000 0.0000 0.0000 0.0000 -29.9668
#
#
#
# Elastic Compliance Matrix: (Units=1/GPa)
#
#
# Indices 1 2 3 4 5 6 
#
# 1 0.009169 -0.004315 -0.000470 0.000000 0.000000 0.000000
# 2 -0.004315 0.010865 -0.003631 0.000000 0.000000 0.000000
# 3 -0.000470 -0.003631 0.011215 0.000000 0.000000 0.000000
# 4 0.000000 0.000000 0.000000 0.031334 0.000000 0.000000
# 5 0.000000 0.000000 0.000000 0.000000 0.070225 0.000000
# 6 0.000000 0.000000 0.000000 0.000000 0.000000 -0.033370
#
#
# Mechanical properties :
#
#
# Convention : Reuss Voigt Hill
#
# Bulk Modulus (GPa) = 69.36888 72.79092 71.07990
# Shear Modulus (GPa) = 41.29635 19.33978 30.31807
#
# Velocity S-wave (km/s) = 4.48268 3.06767 3.84090
# Velocity P-wave (km/s) = 7.78119 6.92581 7.36593
#
# Compressibility (1/GPa) = 0.01441569
#
# Stress axis : x y z
#
# Youngs Moduli (GPa) = 109.06663 92.03983 89.16500
#
# Poissons Ratio (x) = 0.39716 0.04191
# Poissons Ratio (y) = 0.47063 0.32380
# Poissons Ratio (z) = 0.05126 0.33424
#
# Static dielectric constant tensor:
#      x y z
#    x 1.804290 0.000000 0.000000 
#    y 0.000000 1.768800 0.000000 
#    z 0.000000 0.000000 1.756850 
# 
# From -- ./inp_files/14884.got.cif
#   From: 2010.05.17/outbox.cif.g08.bks.cpg/sg36_8_cif.got.tgz:14884.got - 2010.06.03 17:41:39.
