data_PCOD9353287
_publ_section_title
;
Structure prediction by ZEFSAII (Michael W. Deem and Ramdas Pophale) SiO2 
 PCOD9353287
Probable space group: C M C 21
;
_chemical_formula_sum "Si O2"
_cell_formula_units_Z 64
_cell_length_a 7.405578
_cell_length_b 21.362922
_cell_length_c 18.876316
_cell_angle_alpha 90.000000
_cell_angle_beta 90.000000
_cell_angle_gamma 90.000000
_cell_volume 2986.323518
_symmetry_space_group_name_H-M "C M C 21"
_symmetry_group_IT_number 36
_symmetry_cell_setting 'orthorhombic'
loop_
_space_group_symop_operation_xyz
x,y,z
-x,-y,1/2+z
x,-y,1/2+z
-x,y,z
1/2+x,1/2+y,z
1/2-x,1/2-y,1/2+z
1/2+x,1/2-y,1/2+z
1/2-x,1/2+y,z
loop_
_atom_site_type_symbol
_atom_site_label
_atom_site_fract_x
_atom_site_fract_y
_atom_site_fract_z
Si Si1 0.783087 0.761794 0.061880
Si Si2 0.779593 0.372783 0.586090
Si Si3 0.205692 0.239199 0.897490
Si Si4 0.278792 0.125848 0.388798
Si Si5 0.206957 0.602534 0.926777
Si Si6 0.289085 0.898646 0.048599
Si Si7 0.721047 0.001509 0.157881
Si Si8 0.279237 0.998754 0.316318
O O1 0.725869 0.698759 0.102348
O O2 0.726412 0.830675 0.085548
O O3 0.000000 0.761788 0.057366
O O4 0.710328 0.753016 0.982026
O O5 0.716870 0.389441 0.505956
O O6 0.723944 0.428092 0.637728
O O7 0.000000 0.372462 0.585078
O O8 0.282372 0.304310 0.867391
O O9 0.292217 0.171093 0.890638
O O10 0.000000 0.232328 0.873418
O O11 0.500000 0.129249 0.390536
O O12 0.216024 0.109064 0.468802
O O13 0.228057 0.068969 0.338464
O O14 0.286082 0.550691 0.874863
O O15 0.000000 0.583258 0.938777
O O16 0.500000 0.913101 0.038775
O O17 0.214884 0.953156 0.098016
O O18 0.500000 0.000092 0.157301
O O19 0.778894 0.984021 0.236760
O O20 0.500000 0.996575 0.316707
#
# Coordination Sequence:
#
# PCOD9353287 Si02
#       8
#     8   8   8   8   8   8   8   8
#     4   9  16  27  45  68  91 114 142 179 221 262
#     4   8  14  25  42  63  85 110 142 179 216 253
#     4   9  16  27  45  68  91 114 142 179 221 262
#     4   8  14  25  42  63  85 110 142 179 216 253
#     4   9  16  27  45  67  89 113 142 179 222 266
#     4   9  16  27  45  67  89 113 142 179 222 266
#     4   9  16  26  42  64  87 112 147 187 219 252
#     4   9  16  26  42  64  87 112 147 187 219 252
#
# _framework density 21.431032999999999
#
# number of rings (size 3 to 8) (size 9 to 14) (size 15 to 20)
#    0.000    3.250    0.000    3.000    0.000    3.000 
#    0.000    1.250    0.000   15.750    0.000    0.000 
#    0.000    0.000    0.000    0.000    0.000    0.000 
#
# Total GULP energy -178338.371095 kJ/mol
# GULP energy per Si atom -5573.074097 kJ/mol
# Density = 2.138225 g / cm^3
# Si number density = 21.431033 Si / 1000 Ang^3
#
#
#
# Elastic Constant Matrix: (Units=GPa)
#
#
# Indices 1 2 3 4 5 6 
#
# 1 67.6298 -19.9495 -4.0076 0.0000 0.0000 0.0000
# 2 -19.9495 61.0028 -5.4984 0.0000 0.0000 0.0000
# 3 -4.0076 -5.4984 26.8145 0.0000 0.0000 0.0000
# 4 0.0000 0.0000 0.0000 3.8806 0.0000 0.0000
# 5 0.0000 0.0000 0.0000 0.0000 -2.5119 0.0000
# 6 0.0000 0.0000 0.0000 0.0000 0.0000 14.6191
#
#
#
# Elastic Compliance Matrix: (Units=1/GPa)
#
#
# Indices 1 2 3 4 5 6 
#
# 1 0.016715 0.005799 0.003687 0.000000 0.000000 0.000000
# 2 0.005799 0.018713 0.004704 0.000000 0.000000 0.000000
# 3 0.003687 0.004704 0.038809 0.000000 0.000000 0.000000
# 4 0.000000 0.000000 0.000000 0.257694 0.000000 0.000000
# 5 0.000000 0.000000 0.000000 0.000000 -0.398107 0.000000
# 6 0.000000 0.000000 0.000000 0.000000 0.000000 0.068404
#
#
# Mechanical properties :
#
#
# Convention : Reuss Voigt Hill
#
# Bulk Modulus (GPa) = 9.74500 10.72624 10.23562
# Shear Modulus (GPa) = 620.82237 15.52440 318.17338
#
# Velocity S-wave (km/s) = 17.03857 2.69437 12.19779
# Velocity P-wave (km/s) = 19.78991 3.83345 14.25370
#
# Compressibility (1/GPa) = 0.10261673
#
# Stress axis : x y z
#
# Youngs Moduli (GPa) = 59.82507 53.43880 25.76734
#
# Poissons Ratio (x) = -0.30988 -0.09501
# Poissons Ratio (y) = -0.34691 -0.12120
# Poissons Ratio (z) = -0.22059 -0.25137
#
# Static dielectric constant tensor:
#      x y z
#    x 1.855350 0.000000 0.000000 
#    y 0.000000 1.800110 0.000000 
#    z 0.000000 0.000000 1.736720 
# 
# From -- ./inp_files/15799.got.cif
#   From: 2010.05.17/outbox.cif.g08.bks.cpg/sg36_8_cif.got.tgz:15799.got - 2010.06.03 17:41:39.
