data_PCOD9353933
_publ_section_title
;
Structure prediction by ZEFSAII (Michael W. Deem and Ramdas Pophale) SiO2 
 PCOD9353933
Probable space group: C C C 2
;
_chemical_formula_sum "Si O2"
_cell_formula_units_Z 56
_cell_length_a 20.122385
_cell_length_b 18.048795
_cell_length_c 8.656730
_cell_angle_alpha 90.000000
_cell_angle_beta 90.000000
_cell_angle_gamma 90.000000
_cell_volume 3143.992769
_symmetry_space_group_name_H-M "C C C 2"
_symmetry_group_IT_number 37
_symmetry_cell_setting 'orthorhombic'
loop_
_space_group_symop_operation_xyz
x,y,z
-x,-y,z
-x,y,1/2+z
x,-y,1/2+z
1/2+x,1/2+y,z
1/2-x,1/2-y,z
1/2-x,1/2+y,1/2+z
1/2+x,1/2-y,1/2+z
loop_
_atom_site_type_symbol
_atom_site_label
_atom_site_fract_x
_atom_site_fract_y
_atom_site_fract_z
Si Si1 0.555522 0.936302 0.837320
Si Si2 0.204772 0.963933 0.531482
Si Si3 0.586416 0.250406 0.862874
Si Si4 0.201861 0.440476 0.754545
Si Si5 0.986957 0.671982 0.093461
Si Si6 0.713393 0.176495 0.997531
Si Si7 0.661983 0.399831 0.838716
O O1 0.629347 0.967398 0.808326
O O2 0.531156 0.883347 0.698266
O O3 0.500000 0.000000 0.856931
O O4 0.555522 0.882793 0.985531
O O5 0.248893 0.925547 0.398346
O O6 0.163874 0.916332 0.655598
O O7 0.258567 0.003540 0.643541
O O8 0.159548 0.024950 0.441377
O O9 0.557081 0.224338 0.700561
O O10 0.608098 0.336144 0.872578
O O11 0.533279 0.223908 0.989187
O O12 0.651786 0.202010 0.896347
O O13 0.191460 0.370136 0.645000
O O14 0.750000 0.250000 0.054932
O O15 0.766651 0.132754 0.893591
#
# Coordination Sequence:
#
# PCOD9353933 Si02
#       7
#     8   8   8   8   8   8   8
#     4  11  23  34  50  76 110 155 188 226 260 320
#     4   9  20  34  56  86 104 144 180 227 299 334
#     4  10  20  40  57  78 115 147 191 230 278 330
#     4  10  20  34  51  77 117 139 187 229 270 335
#     4  10  23  36  54  78 106 153 195 220 273 326
#     4   9  18  35  56  79 109 152 180 230 284 324
#     4   9  19  37  60  82 112 142 180 237 288 337
#
# _framework density 17.811744999999998
#
# number of rings (size 3 to 8) (size 9 to 14) (size 15 to 20)
#    0.000    2.286    1.429    0.429    6.000    2.286 
#    2.571    4.286    0.000    2.571    0.000    0.000 
#    0.000    0.000    0.000    0.000    0.000    0.000 
#
# Total GULP energy -156070.389817 kJ/mol
# GULP energy per Si atom -5573.942493 kJ/mol
# Density = 1.777120 g / cm^3
# Si number density = 17.811745 Si / 1000 Ang^3
#
#
#
# Elastic Constant Matrix: (Units=GPa)
#
#
# Indices 1 2 3 4 5 6 
#
# 1 58.3642 28.2665 21.4311 0.0000 0.0000 0.0000
# 2 28.2665 66.7395 27.6239 0.0000 0.0000 0.0000
# 3 21.4311 27.6239 90.0325 0.0000 0.0000 0.0000
# 4 0.0000 0.0000 0.0000 16.0071 0.0000 0.0000
# 5 0.0000 0.0000 0.0000 0.0000 10.2924 0.0000
# 6 0.0000 0.0000 0.0000 0.0000 0.0000 13.1332
#
#
#
# Elastic Compliance Matrix: (Units=1/GPa)
#
#
# Indices 1 2 3 4 5 6 
#
# 1 0.022130 -0.008239 -0.002740 0.000000 0.000000 0.000000
# 2 -0.008239 0.020230 -0.004246 0.000000 0.000000 0.000000
# 3 -0.002740 -0.004246 0.013062 0.000000 0.000000 0.000000
# 4 0.000000 0.000000 0.000000 0.062472 0.000000 0.000000
# 5 0.000000 0.000000 0.000000 0.000000 0.097159 0.000000
# 6 0.000000 0.000000 0.000000 0.000000 0.000000 0.076143
#
#
# Mechanical properties :
#
#
# Convention : Reuss Voigt Hill
#
# Bulk Modulus (GPa) = 40.04300 41.08658 40.56479
# Shear Modulus (GPa) = 15.15288 17.07420 16.11354
#
# Velocity S-wave (km/s) = 2.91988 3.09947 3.01102
# Velocity P-wave (km/s) = 5.82217 5.99384 5.90863
#
# Compressibility (1/GPa) = 0.02497315
#
# Stress axis : x y z
#
# Youngs Moduli (GPa) = 45.18746 49.43042 76.55747
#
# Poissons Ratio (x) = 0.40724 0.20976
# Poissons Ratio (y) = 0.37229 0.32506
# Poissons Ratio (z) = 0.12381 0.20988
#
# Static dielectric constant tensor:
#      x y z
#    x 1.599910 0.000000 0.000000 
#    y 0.000000 1.636440 0.000000 
#    z 0.000000 0.000000 1.619660 
# 
# From -- ./inp_files/4115.got.cif
#   From: 2010.05.17/outbox.cif.g08.bks.cpg/sg37_3_cif.got.tgz:4115.got - 2010.06.03 17:53:42.
