data_PCOD9353194
_publ_section_title
;
Structure prediction by ZEFSAII (Michael W. Deem and Ramdas Pophale) SiO2 
 PCOD9353194
Probable space group: C M C 21
;
_chemical_formula_sum "Si O2"
_cell_formula_units_Z 40
_cell_length_a 15.088845
_cell_length_b 13.986544
_cell_length_c 7.671339
_cell_angle_alpha 90.000000
_cell_angle_beta 90.000000
_cell_angle_gamma 90.000000
_cell_volume 1618.965477
_symmetry_space_group_name_H-M "C M C 21"
_symmetry_group_IT_number 36
_symmetry_cell_setting 'orthorhombic'
loop_
_space_group_symop_operation_xyz
x,y,z
-x,-y,1/2+z
x,-y,1/2+z
-x,y,z
1/2+x,1/2+y,z
1/2-x,1/2-y,1/2+z
1/2+x,1/2-y,1/2+z
1/2-x,1/2+y,z
loop_
_atom_site_type_symbol
_atom_site_label
_atom_site_fract_x
_atom_site_fract_y
_atom_site_fract_z
Si Si1 0.349258 0.422715 0.187760
Si Si2 0.158025 0.415143 0.067272
Si Si3 0.402997 0.626712 0.305058
Si Si4 0.787034 0.792447 0.501126
Si Si5 0.402867 0.115929 0.937487
O O1 0.250011 0.457850 0.141649
O O2 0.400931 0.515774 0.247646
O O3 0.335293 0.350761 0.347245
O O4 0.386892 0.376433 0.012241
O O5 0.190925 0.319221 0.971865
O O6 0.100641 0.379515 0.228974
O O7 0.111788 0.502868 0.973496
O O8 0.500000 0.667176 0.268231
O O9 0.330792 0.678400 0.185053
O O10 0.683720 0.824944 0.500449
O O11 0.500000 0.144548 0.006162
#
# Coordination Sequence:
#
# PCOD9353194 Si02
#       5
#     8   8   8   8   8
#     4  11  23  44  71 107 147 204 248 308 388 452
#     4  11  25  48  77 110 151 204 254 320 389 460
#     4  12  24  43  73 111 152 199 253 311 384 463
#     4  11  27  48  77 110 159 206 256 324 390 457
#     4  11  25  49  80 114 153 205 261 319 391 466
#
# _framework density 24.707135999999998
#
# number of rings (size 3 to 8) (size 9 to 14) (size 15 to 20)
#    0.000    0.800    4.000    2.400    5.600    2.400 
#    0.000    1.000    0.000    1.200    0.000    0.000 
#    0.000    0.000    0.000    0.000    0.000    0.000 
#
# Total GULP energy -112003.309346 kJ/mol
# GULP energy per Si atom -5600.165467 kJ/mol
# Density = 2.465090 g / cm^3
# Si number density = 24.707136 Si / 1000 Ang^3
#
#
#
# Elastic Constant Matrix: (Units=GPa)
#
#
# Indices 1 2 3 4 5 6 
#
# 1 164.3636 44.0032 49.0370 0.0000 0.0000 0.0000
# 2 44.0032 176.6117 52.3909 0.0000 0.0000 0.0000
# 3 49.0370 52.3909 137.1834 0.0000 0.0000 0.0000
# 4 0.0000 0.0000 0.0000 31.8889 0.0000 0.0000
# 5 0.0000 0.0000 0.0000 0.0000 20.2095 0.0000
# 6 0.0000 0.0000 0.0000 0.0000 0.0000 9.2644
#
#
#
# Elastic Compliance Matrix: (Units=1/GPa)
#
#
# Indices 1 2 3 4 5 6 
#
# 1 0.007005 -0.001131 -0.002072 0.000000 0.000000 0.000000
# 2 -0.001131 0.006568 -0.002104 0.000000 0.000000 0.000000
# 3 -0.002072 -0.002104 0.008834 0.000000 0.000000 0.000000
# 4 0.000000 0.000000 0.000000 0.031359 0.000000 0.000000
# 5 0.000000 0.000000 0.000000 0.000000 0.049482 0.000000
# 6 0.000000 0.000000 0.000000 0.000000 0.000000 0.107940
#
#
# Mechanical properties :
#
#
# Convention : Reuss Voigt Hill
#
# Bulk Modulus (GPa) = 84.79726 85.44675 85.12201
# Shear Modulus (GPa) = 22.15010 34.45440 28.30225
#
# Velocity S-wave (km/s) = 2.99742 3.73837 3.38821
# Velocity P-wave (km/s) = 6.80991 7.30019 7.05931
#
# Compressibility (1/GPa) = 0.01179283
#
# Stress axis : x y z
#
# Youngs Moduli (GPa) = 142.75556 152.25250 113.20116
#
# Poissons Ratio (x) = 0.17214 0.23457
# Poissons Ratio (y) = 0.16140 0.23820
# Poissons Ratio (z) = 0.29582 0.32037
#
# Static dielectric constant tensor:
#      x y z
#    x 1.961920 0.000000 0.000000 
#    y 0.000000 2.001700 0.000000 
#    z 0.000000 0.000000 1.953360 
# 
# From -- ./inp_files/3815.got.cif
#   From: 2010.05.17/outbox.cif.g08.bks.cpg/sg36_2_cif.got.tgz:3815.got - 2010.06.03 17:41:39.
