data_PCOD9353911
_publ_section_title
;
Structure prediction by ZEFSAII (Michael W. Deem and Ramdas Pophale) SiO2 
 PCOD9353911
Probable space group: C C C 2
;
_chemical_formula_sum "Si O2"
_cell_formula_units_Z 56
_cell_length_a 20.476911
_cell_length_b 14.812706
_cell_length_c 9.626057
_cell_angle_alpha 90.000000
_cell_angle_beta 90.000000
_cell_angle_gamma 90.000000
_cell_volume 2919.760809
_symmetry_space_group_name_H-M "C C C 2"
_symmetry_group_IT_number 37
_symmetry_cell_setting 'orthorhombic'
loop_
_space_group_symop_operation_xyz
x,y,z
-x,-y,z
-x,y,1/2+z
x,-y,1/2+z
1/2+x,1/2+y,z
1/2-x,1/2-y,z
1/2-x,1/2+y,1/2+z
1/2+x,1/2-y,1/2+z
loop_
_atom_site_type_symbol
_atom_site_label
_atom_site_fract_x
_atom_site_fract_y
_atom_site_fract_z
Si Si1 0.879557 0.706622 0.209570
Si Si2 0.353477 0.776808 0.394231
Si Si3 0.750000 0.250000 0.855989
Si Si4 0.104973 0.591972 0.977581
Si Si5 0.246116 0.431970 0.537718
Si Si6 0.474315 0.188380 0.700139
Si Si7 0.500000 0.000000 0.344472
Si Si8 0.270655 0.602324 0.341824
O O1 0.815248 0.760170 0.262163
O O2 0.876351 0.626831 0.323767
O O3 0.955822 0.739059 0.208653
O O4 0.867193 0.688500 0.048927
O O5 0.418696 0.775405 0.302452
O O6 0.322393 0.676640 0.393727
O O7 0.298064 0.843600 0.335919
O O8 0.747689 0.337566 0.955187
O O9 0.168016 0.564218 0.062746
O O10 0.061029 0.506548 0.946461
O O11 0.061393 0.669329 0.052447
O O12 0.265619 0.516681 0.442909
O O13 0.283155 0.428529 0.683699
O O14 0.491680 0.087888 0.752628
#
# Coordination Sequence:
#
# PCOD9353911 Si02
#       8
#     8   8   4   8   8   8   4   8
#     4  10  22  36  63  86 121 163 212 252 317 377
#     4  11  23  42  61  93 132 168 211 262 314 385
#     4  10  22  42  64  90 124 160 216 266 318 378
#     4  10  21  35  56  86 129 165 204 249 305 388
#     4  11  24  40  63  93 121 166 212 260 321 375
#     4  11  21  38  58  90 128 171 208 257 324 386
#     4  10  20  32  54  90 128 170 204 250 308 394
#     4  11  25  40  67  91 128 167 214 263 316 376
#
# _framework density 19.179652000000001
#
# number of rings (size 3 to 8) (size 9 to 14) (size 15 to 20)
#    0.000    1.429    1.429    4.714    8.000    2.286 
#    0.000    0.000    0.000    0.857    0.000    0.000 
#    0.000    0.000    0.000    0.000    0.000    0.000 
#
# Total GULP energy -156081.156333 kJ/mol
# GULP energy per Si atom -5574.327012 kJ/mol
# Density = 1.913600 g / cm^3
# Si number density = 19.179652 Si / 1000 Ang^3
#
#
#
# Elastic Constant Matrix: (Units=GPa)
#
#
# Indices 1 2 3 4 5 6 
#
# 1 95.0331 26.1184 28.8223 0.0000 0.0000 0.0000
# 2 26.1184 87.6414 35.0516 0.0000 0.0000 0.0000
# 3 28.8223 35.0516 112.7729 0.0000 0.0000 0.0000
# 4 0.0000 0.0000 0.0000 18.9230 0.0000 0.0000
# 5 0.0000 0.0000 0.0000 0.0000 16.5813 0.0000
# 6 0.0000 0.0000 0.0000 0.0000 0.0000 22.7702
#
#
#
# Elastic Compliance Matrix: (Units=1/GPa)
#
#
# Indices 1 2 3 4 5 6 
#
# 1 0.011929 -0.002667 -0.002220 0.000000 0.000000 0.000000
# 2 -0.002667 0.013626 -0.003554 0.000000 0.000000 0.000000
# 3 -0.002220 -0.003554 0.010539 0.000000 0.000000 0.000000
# 4 0.000000 0.000000 0.000000 0.052846 0.000000 0.000000
# 5 0.000000 0.000000 0.000000 0.000000 0.060309 0.000000
# 6 0.000000 0.000000 0.000000 0.000000 0.000000 0.043917
#
#
# Mechanical properties :
#
#
# Convention : Reuss Voigt Hill
#
# Bulk Modulus (GPa) = 52.04733 52.82576 52.43655
# Shear Modulus (GPa) = 23.09988 25.35193 24.22590
#
# Velocity S-wave (km/s) = 3.47420 3.63962 3.55787
# Velocity P-wave (km/s) = 6.57945 6.72792 6.65410
#
# Compressibility (1/GPa) = 0.01921328
#
# Stress axis : x y z
#
# Youngs Moduli (GPa) = 83.82987 73.38796 94.88386
#
# Poissons Ratio (x) = 0.19574 0.21062
# Poissons Ratio (y) = 0.22359 0.33718
# Poissons Ratio (z) = 0.18608 0.26079
#
# Static dielectric constant tensor:
#      x y z
#    x 1.759040 0.000000 0.000000 
#    y 0.000000 1.660490 0.000000 
#    z 0.000000 0.000000 1.698650 
# 
# From -- ./inp_files/4402.got.cif
#   From: 2010.05.17/outbox.cif.g08.bks.cpg/sg37_3_cif.got.tgz:4402.got - 2010.06.03 17:53:42.
