data_PCOD9353027
_publ_section_title
;
Structure prediction by ZEFSAII (Michael W. Deem and Ramdas Pophale) SiO2 
 PCOD9353027
Probable space group: C M C 21
;
_chemical_formula_sum "Si O2"
_cell_formula_units_Z 40
_cell_length_a 20.156708
_cell_length_b 17.566043
_cell_length_c 5.076324
_cell_angle_alpha 90.000000
_cell_angle_beta 90.000000
_cell_angle_gamma 90.000000
_cell_volume 1797.392311
_symmetry_space_group_name_H-M "C M C 21"
_symmetry_group_IT_number 36
_symmetry_cell_setting 'orthorhombic'
loop_
_space_group_symop_operation_xyz
x,y,z
-x,-y,1/2+z
x,-y,1/2+z
-x,y,z
1/2+x,1/2+y,z
1/2-x,1/2-y,1/2+z
1/2+x,1/2-y,1/2+z
1/2-x,1/2+y,z
loop_
_atom_site_type_symbol
_atom_site_label
_atom_site_fract_x
_atom_site_fract_y
_atom_site_fract_z
Si Si1 0.423225 0.446441 0.131370
Si Si2 0.679705 0.666440 0.394855
Si Si3 0.249978 0.056153 0.051703
Si Si4 0.923227 0.553559 0.472121
Si Si5 0.320289 0.833575 0.208650
O O1 0.412928 0.490130 0.404641
O O2 0.500000 0.421392 0.117702
O O3 0.373722 0.377780 0.070197
O O4 0.749971 0.499992 0.301682
O O5 0.659804 0.750011 0.301782
O O6 0.692748 0.614693 0.137391
O O7 0.307236 0.114664 0.966072
O O8 0.249998 0.828703 0.051748
O O9 0.912935 0.509869 0.198853
O O10 0.000000 0.578618 0.485792
O O11 0.873716 0.622213 0.533289
#
# Coordination Sequence:
#
# PCOD9353027 Si02
#       5
#     8   8   8   8   8
#     4  10  24  45  69  97 131 179 234 279 330 404
#     4  12  26  42  67 103 145 176 222 283 347 407
#     4  12  24  40  64  94 126 178 224 270 328 392
#     4  10  24  45  69  97 131 179 234 279 330 404
#     4  12  26  42  67 103 145 176 222 283 347 407
#
# _framework density 22.254462
#
# number of rings (size 3 to 8) (size 9 to 14) (size 15 to 20)
#    0.000    0.800    4.000    2.400    5.600    0.800 
#    0.000    0.000    0.000    8.400    0.000    0.000 
#    0.000    0.000    0.000    0.000    0.000    0.000 
#
# Total GULP energy -111933.529465 kJ/mol
# GULP energy per Si atom -5596.676473 kJ/mol
# Density = 2.220381 g / cm^3
# Si number density = 22.254462 Si / 1000 Ang^3
#
#
#
# Elastic Constant Matrix: (Units=GPa)
#
#
# Indices 1 2 3 4 5 6 
#
# 1 106.1793 44.5644 13.2806 0.0000 0.0000 0.0000
# 2 44.5644 152.4448 36.1389 0.0000 0.0000 0.0000
# 3 13.2806 36.1389 142.0071 0.0000 0.0000 0.0000
# 4 0.0000 0.0000 0.0000 23.1606 0.0000 0.0000
# 5 0.0000 0.0000 0.0000 0.0000 32.9336 0.0000
# 6 0.0000 0.0000 0.0000 0.0000 0.0000 29.6358
#
#
#
# Elastic Compliance Matrix: (Units=1/GPa)
#
#
# Indices 1 2 3 4 5 6 
#
# 1 0.010742 -0.003088 -0.000219 0.000000 0.000000 0.000000
# 2 -0.003088 0.007869 -0.001714 0.000000 0.000000 0.000000
# 3 -0.000219 -0.001714 0.007498 0.000000 0.000000 0.000000
# 4 0.000000 0.000000 0.000000 0.043177 0.000000 0.000000
# 5 0.000000 0.000000 0.000000 0.000000 0.030364 0.000000
# 6 0.000000 0.000000 0.000000 0.000000 0.000000 0.033743
#
#
# Mechanical properties :
#
#
# Convention : Reuss Voigt Hill
#
# Bulk Modulus (GPa) = 62.23691 65.39989 63.81840
# Shear Modulus (GPa) = 33.60448 37.58916 35.59682
#
# Velocity S-wave (km/s) = 3.89010 4.11428 4.00376
# Velocity P-wave (km/s) = 6.94291 7.21255 7.07901
#
# Compressibility (1/GPa) = 0.01606764
#
# Stress axis : x y z
#
# Youngs Moduli (GPa) = 93.09642 127.08422 133.36072
#
# Poissons Ratio (x) = 0.39247 0.02916
# Poissons Ratio (y) = 0.28751 0.22854
# Poissons Ratio (z) = 0.02035 0.21778
#
# Static dielectric constant tensor:
#      x y z
#    x 1.920830 0.000000 0.000000 
#    y 0.000000 1.778410 0.000000 
#    z 0.000000 0.000000 1.885930 
# 
# From -- ./inp_files/1082.got.cif
#   From: 2010.05.17/outbox.cif.g08.bks.cpg/sg36_1_cif.got.tgz:1082.got - 2010.06.03 17:41:39.
