data_PCOD9353371
_publ_section_title
;
Structure prediction by ZEFSAII (Michael W. Deem and Ramdas Pophale) SiO2 
 PCOD9353371
Probable space group: C M C 21
;
_chemical_formula_sum "Si O2"
_cell_formula_units_Z 32
_cell_length_a 9.000000
_cell_length_b 15.000000
_cell_length_c 24.000000
_cell_angle_alpha 90.000000
_cell_angle_beta 90.000000
_cell_angle_gamma 90.000000
_cell_volume 3240.000000
_symmetry_space_group_name_H-M "C M C 21"
_symmetry_group_IT_number 36
_symmetry_cell_setting 'orthorhombic'
loop_
_space_group_symop_operation_xyz
x,y,z
-x,-y,1/2+z
x,-y,1/2+z
-x,y,z
1/2+x,1/2+y,z
1/2-x,1/2-y,1/2+z
1/2+x,1/2-y,1/2+z
1/2-x,1/2+y,z
loop_
_atom_site_type_symbol
_atom_site_label
_atom_site_fract_x
_atom_site_fract_y
_atom_site_fract_z
Si Si1 0.179989 0.409129 0.344800
Si Si2 0.321935 0.347436 0.025748
Si Si3 0.178688 0.813113 0.581532
Si Si4 0.178149 0.426703 0.915555
Si Si5 0.176941 0.280722 0.821354
Si Si6 0.670979 0.047137 0.723659
Si Si7 0.677629 0.504908 0.612088
Si Si8 0.827835 0.239104 0.206378
O O1 0.218935 0.473587 0.395778
O O2 0.251314 0.311617 0.343362
O O3 0.224795 0.458966 0.287168
O O4 0.000000 0.399716 0.342422
O O5 0.500000 0.345199 0.024432
O O6 0.256829 0.250015 0.037272
O O7 0.272256 0.408464 0.078186
O O8 0.260467 0.391915 0.969969
O O9 0.216653 0.916991 0.577189
O O10 0.224398 0.786455 0.644704
O O11 0.000000 0.801892 0.577632
O O12 0.210681 0.359583 0.864436
O O13 0.000000 0.424586 0.924671
O O14 0.238233 0.297614 0.759130
O O15 0.000000 0.270195 0.818317
O O16 0.500000 0.017485 0.721606
O O17 0.676467 0.153484 0.711473
O O18 0.759115 0.001030 0.674217
O O19 0.500000 0.507729 0.616490
O O20 0.000000 0.210929 0.211336
#
# Coordination Sequence:
#
# PCOD9353371 Si02
#       8
#     8   8   8   8   8   8   8   8
#     4   9  20  39  59  84 118 155 193 232 283 350
#     4  11  24  41  59  85 118 150 194 249 290 334
#     4  10  21  39  60  83 115 157 193 230 289 352
#     4  10  23  42  62  82 113 159 199 234 285 349
#     4  10  21  36  58  88 117 148 190 242 291 332
#     4   9  17  32  57  85 116 151 188 229 278 342
#     4  10  22  37  56  85 117 148 188 240 291 336
#     4   9  18  34  57  84 118 156 189 226 283 351
#
# _framework density 9.8765429999999999
#
# number of rings (size 3 to 8) (size 9 to 14) (size 15 to 20)
#    0.000    2.250    1.250    1.500    1.750    6.000 
#    0.000    3.750    0.000    0.000    0.000    0.000 
#    0.000    0.000    0.000    0.000    0.000    0.000 
#
# Total GULP energy -178677.840196 kJ/mol
# GULP energy per Si atom -5583.682506 kJ/mol
# Density = 0.985406 g / cm^3
# Si number density = 9.876543 Si / 1000 Ang^3
#
#
#
# Elastic Constant Matrix: (Units=GPa)
#
#
# Indices 1 2 3 4 5 6 
#
# 1 20.1002 10.8654 11.4011 0.0000 0.0000 0.0000
# 2 10.8654 40.9210 -10.2320 0.0000 0.0000 0.0000
# 3 11.4011 -10.2320 27.4134 0.0000 0.0000 0.0000
# 4 0.0000 0.0000 0.0000 22.5487 0.0000 0.0000
# 5 0.0000 0.0000 0.0000 0.0000 34.3103 0.0000
# 6 0.0000 0.0000 0.0000 0.0000 0.0000 18.7005
#
#
#
# Elastic Compliance Matrix: (Units=1/GPa)
#
#
# Indices 1 2 3 4 5 6 
#
# 1 0.108743 -0.044318 -0.061767 0.000000 0.000000 0.000000
# 2 -0.044318 0.045014 0.035233 0.000000 0.000000 0.000000
# 3 -0.061767 0.035233 0.075318 0.000000 0.000000 0.000000
# 4 0.000000 0.000000 0.000000 0.044348 0.000000 0.000000
# 5 0.000000 0.000000 0.000000 0.000000 0.029146 0.000000
# 6 0.000000 0.000000 0.000000 0.000000 0.000000 0.053474
#
#
# Mechanical properties :
#
#
# Convention : Reuss Voigt Hill
#
# Bulk Modulus (GPa) = 11.44542 12.50041 11.97291
# Shear Modulus (GPa) = 9.49000 20.20526 14.84763
#
# Velocity S-wave (km/s) = 2.19425 3.20174 2.74462
# Velocity P-wave (km/s) = 3.49664 4.47328 4.01477
#
# Compressibility (1/GPa) = 0.08737117
#
# Stress axis : x y z
#
# Youngs Moduli (GPa) = 9.19604 22.21514 13.27708
#
# Poissons Ratio (x) = 0.98453 0.82009
# Poissons Ratio (y) = 0.40755 -0.46779
# Poissons Ratio (z) = 0.56801 -0.78271
#
# Static dielectric constant tensor:
#      x y z
#    x 1.664420 0.000000 0.000000 
#    y 0.000000 1.711000 0.000000 
#    z 0.000000 0.000000 1.680850 
# 
# From -- ./inp_files/16604.got.cif
#   From: 2010.05.17/outbox.ucp.g08.bks.cvg/sg36_9_cif.got.tgz:16604.got - 2010.06.11 10:37:26.
