data_PCOD9353042
_publ_section_title
;
Structure prediction by ZEFSAII (Michael W. Deem and Ramdas Pophale) SiO2 
 PCOD9353042
Probable space group: C M C 21
;
_chemical_formula_sum "Si O2"
_cell_formula_units_Z 36
_cell_length_a 17.615126
_cell_length_b 8.243064
_cell_length_c 9.274008
_cell_angle_alpha 90.000000
_cell_angle_beta 90.000000
_cell_angle_gamma 90.000000
_cell_volume 1346.610176
_symmetry_space_group_name_H-M "C M C 21"
_symmetry_group_IT_number 36
_symmetry_cell_setting 'orthorhombic'
loop_
_space_group_symop_operation_xyz
x,y,z
-x,-y,1/2+z
x,-y,1/2+z
-x,y,z
1/2+x,1/2+y,z
1/2-x,1/2-y,1/2+z
1/2+x,1/2-y,1/2+z
1/2-x,1/2+y,z
loop_
_atom_site_type_symbol
_atom_site_label
_atom_site_fract_x
_atom_site_fract_y
_atom_site_fract_z
Si Si1 0.000000 0.555743 0.787340
Si Si2 0.377822 0.521943 0.080391
Si Si3 0.186505 0.278203 0.262810
Si Si4 0.714572 0.929523 0.952229
Si Si5 0.000000 0.251442 0.996847
Si Si6 0.500000 0.250364 0.074195
O O1 0.000000 0.691818 0.660706
O O2 0.000000 0.410002 0.666714
O O3 0.000000 0.410477 0.905692
O O4 0.000000 0.696552 0.910420
O O5 0.362186 0.618518 0.229697
O O6 0.427465 0.637322 0.978225
O O7 0.425865 0.360354 0.103858
O O8 0.296301 0.490648 0.009577
O O9 0.264504 0.202562 0.328379
O O10 0.168009 0.423965 0.375265
O O11 0.184188 0.360220 0.103785
#
# Coordination Sequence:
#
# PCOD9353042 Si02
#       6
#     4   8   8   8   4   4
#     4  10  24  50  68 110 146 188 250 308 380 466
#     4  11  26  46  79 109 153 200 251 316 388 465
#     4  12  25  47  73 109 153 204 261 310 387 445
#     4  12  25  48  71 111 153 205 262 317 377 461
#     4  10  26  46  74 112 145 192 247 313 396 450
#     4  10  26  50  80 110 153 190 257 321 406 458
#
# _framework density 26.733792999999999
#
# number of rings (size 3 to 8) (size 9 to 14) (size 15 to 20)
#    0.000    0.889    4.444    0.000    6.222    3.556 
#   12.000    0.000    0.000    0.000    0.000    0.000 
#    0.000    0.000    0.000    0.000    0.000    0.000 
#
# Total GULP energy -100295.367743 kJ/mol
# GULP energy per Si atom -5571.964875 kJ/mol
# Density = 2.667295 g / cm^3
# Si number density = 26.733793 Si / 1000 Ang^3
#
#
#
# Elastic Constant Matrix: (Units=GPa)
#
#
# Indices 1 2 3 4 5 6 
#
# 1 89.2997 43.7123 26.5335 0.0000 0.0000 0.0000
# 2 43.7123 159.9884 77.2028 0.0000 0.0000 0.0000
# 3 26.5335 77.2028 223.0625 0.0000 0.0000 0.0000
# 4 0.0000 0.0000 0.0000 72.9421 0.0000 0.0000
# 5 0.0000 0.0000 0.0000 0.0000 -29.2925 0.0000
# 6 0.0000 0.0000 0.0000 0.0000 0.0000 48.5638
#
#
#
# Elastic Compliance Matrix: (Units=1/GPa)
#
#
# Indices 1 2 3 4 5 6 
#
# 1 0.012954 -0.003356 -0.000379 0.000000 0.000000 0.000000
# 2 -0.003356 0.008373 -0.002499 0.000000 0.000000 0.000000
# 3 -0.000379 -0.002499 0.005393 0.000000 0.000000 0.000000
# 4 0.000000 0.000000 0.000000 0.013710 0.000000 0.000000
# 5 0.000000 0.000000 0.000000 0.000000 -0.034138 0.000000
# 6 0.000000 0.000000 0.000000 0.000000 0.000000 0.020591
#
#
# Mechanical properties :
#
#
# Convention : Reuss Voigt Hill
#
# Bulk Modulus (GPa) = 70.16815 85.24976 77.70896
# Shear Modulus (GPa) = 113.37423 40.10281 76.73852
#
# Velocity S-wave (km/s) = 6.51925 3.87729 5.36349
# Velocity P-wave (km/s) = 9.10887 7.21125 8.21503
#
# Compressibility (1/GPa) = 0.01425148
#
# Stress axis : x y z
#
# Youngs Moduli (GPa) = 77.19732 119.42794 185.42555
#
# Poissons Ratio (x) = 0.40083 0.07032
# Poissons Ratio (y) = 0.25909 0.46334
# Poissons Ratio (z) = 0.02928 0.29842
#
# Static dielectric constant tensor:
#      x y z
#    x 2.336460 0.000000 0.000000 
#    y 0.000000 2.060340 0.000000 
#    z 0.000000 0.000000 2.046960 
# 
# From -- ./inp_files/5062.got.cif
#   From: 2010.05.17/outbox.cif.g08.bks.cpg/sg36_3_cif.got.tgz:5062.got - 2010.06.03 17:41:39.
