data_PCOD9353103
_publ_section_title
;
Structure prediction by ZEFSAII (Michael W. Deem and Ramdas Pophale) SiO2 
 PCOD9353103
Probable space group: C M C 21
;
_chemical_formula_sum "Si O2"
_cell_formula_units_Z 48
_cell_length_a 14.710140
_cell_length_b 15.127146
_cell_length_c 10.510465
_cell_angle_alpha 90.000000
_cell_angle_beta 90.000000
_cell_angle_gamma 90.000000
_cell_volume 2338.814270
_symmetry_space_group_name_H-M "C M C 21"
_symmetry_group_IT_number 36
_symmetry_cell_setting 'orthorhombic'
loop_
_space_group_symop_operation_xyz
x,y,z
-x,-y,1/2+z
x,-y,1/2+z
-x,y,z
1/2+x,1/2+y,z
1/2-x,1/2-y,1/2+z
1/2+x,1/2-y,1/2+z
1/2-x,1/2+y,z
loop_
_atom_site_type_symbol
_atom_site_label
_atom_site_fract_x
_atom_site_fract_y
_atom_site_fract_z
Si Si1 0.709309 0.170303 0.539290
Si Si2 0.393814 0.340502 0.590705
Si Si3 0.402293 0.424123 0.326415
Si Si4 0.603755 0.868341 0.781801
Si Si5 0.241703 0.007401 0.192464
Si Si6 0.402493 0.296118 0.089052
O O1 0.658934 0.248861 0.617578
O O2 0.649678 0.154797 0.415406
O O3 0.811933 0.201813 0.506266
O O4 0.727412 0.079585 0.615195
O O5 0.500000 0.342395 0.633795
O O6 0.397463 0.352413 0.437351
O O7 0.332943 0.424473 0.633635
O O8 0.500000 0.471253 0.344399
O O9 0.310675 0.479887 0.322578
O O10 0.403683 0.378702 0.187536
O O11 0.500000 0.895844 0.801793
O O12 0.666624 0.941571 0.719816
O O13 0.603624 0.786380 0.684590
O O14 0.500000 0.294394 0.021138
#
# Coordination Sequence:
#
# PCOD9353103 Si02
#       6
#     8   8   8   8   8   8
#     4  11  22  39  65  89 122 164 211 252 309 372
#     4  11  21  37  62  91 121 161 208 256 309 369
#     4   9  18  35  59  85 116 154 200 248 306 365
#     4  11  22  39  61  85 120 165 204 246 311 377
#     4  11  23  38  58  93 123 160 203 266 306 361
#     4   9  18  36  61  85 114 156 200 244 301 366
#
# _framework density 20.523219999999998
#
# number of rings (size 3 to 8) (size 9 to 14) (size 15 to 20)
#    0.000    1.667    3.333    2.000    0.000    2.000 
#    0.000    1.667    0.000    0.000    0.000    0.000 
#    0.000    0.000    0.000    0.000    0.000    0.000 
#
# Total GULP energy -133769.728798 kJ/mol
# GULP energy per Si atom -5573.738700 kJ/mol
# Density = 2.047651 g / cm^3
# Si number density = 20.523220 Si / 1000 Ang^3
#
#
#
# Elastic Constant Matrix: (Units=GPa)
#
#
# Indices 1 2 3 4 5 6 
#
# 1 211.1942 60.6197 27.0042 0.0000 0.0000 0.0000
# 2 60.6197 113.6887 16.4503 0.0000 0.0000 0.0000
# 3 27.0042 16.4503 15.4390 0.0000 0.0000 0.0000
# 4 0.0000 0.0000 0.0000 13.0702 0.0000 0.0000
# 5 0.0000 0.0000 0.0000 0.0000 27.6848 0.0000
# 6 0.0000 0.0000 0.0000 0.0000 0.0000 45.7305
#
#
#
# Elastic Compliance Matrix: (Units=1/GPa)
#
#
# Indices 1 2 3 4 5 6 
#
# 1 0.006518 -0.002159 -0.009101 0.000000 0.000000 0.000000
# 2 -0.002159 0.011114 -0.008066 0.000000 0.000000 0.000000
# 3 -0.009101 -0.008066 0.089284 0.000000 0.000000 0.000000
# 4 0.000000 0.000000 0.000000 0.076510 0.000000 0.000000
# 5 0.000000 0.000000 0.000000 0.000000 0.036121 0.000000
# 6 0.000000 0.000000 0.000000 0.000000 0.000000 0.021867
#
#
# Mechanical properties :
#
#
# Convention : Reuss Voigt Hill
#
# Bulk Modulus (GPa) = 14.64890 60.94112 37.79501
# Shear Modulus (GPa) = 16.51138 33.04695 24.77916
#
# Velocity S-wave (km/s) = 2.83949 4.01711 3.47850
# Velocity P-wave (km/s) = 4.23125 7.16062 5.88124
#
# Compressibility (1/GPa) = 0.06826449
#
# Stress axis : x y z
#
# Youngs Moduli (GPa) = 153.41451 89.97521 11.20020
#
# Poissons Ratio (x) = 0.19423 0.10193
# Poissons Ratio (y) = 0.33118 0.09035
# Poissons Ratio (z) = 1.39621 0.72577
#
# Static dielectric constant tensor:
#      x y z
#    x 1.771940 0.000000 0.000000 
#    y 0.000000 1.799930 0.000000 
#    z 0.000000 0.000000 1.737210 
# 
# From -- ./inp_files/7695.got.cif
#   From: 2010.05.17/outbox.cif.g08.bks.cpg/sg36_4_cif.got.tgz:7695.got - 2010.06.03 17:41:39.
